MODEL 1
REMARK VINA RESULT:      -6.3      0.000      0.000
REMARK  3 active torsions:
REMARK  status: ('A' for Active; 'I' for Inactive)
REMARK    1  A    between atoms: C1_1  and  C3_3 
REMARK       I    between atoms: C1_1  and  N10_10 
REMARK    2  A    between atoms: C8_8  and  C9_9 
REMARK    3  A    between atoms: C8_8  and  N10_10 
ROOT
HETATM    1  C1  UNL     1     -33.026   6.787   2.927  1.00 20.00     0.222 C 
HETATM    2  N10 UNL     1     -32.779   8.079   2.568  1.00 20.00    -0.360 N 
HETATM    3  O11 UNL     1     -32.504   5.773   2.480  1.00 20.00    -0.273 OA
HETATM    4  H28 UNL     1     -33.282   8.814   3.022  1.00 20.00     0.162 HD
ENDROOT
BRANCH   1   5
HETATM    5  C3  UNL     1     -34.060   6.672   3.998  1.00 20.00     0.082 A 
HETATM    6  C2  UNL     1     -35.379   6.062   3.651  1.00 20.00     0.019 A 
HETATM    7  C4  UNL     1     -34.403   5.310   4.511  1.00 20.00    -0.005 A 
HETATM    8  C5  UNL     1     -34.676   5.120   5.963  1.00 20.00     0.011 C 
ENDBRANCH   1   5
BRANCH   2   9
HETATM    9  C8  UNL     1     -31.787   8.426   1.525  1.00 20.00     0.126 C 
BRANCH   9  10
HETATM   10  C9  UNL     1     -32.226   9.644   0.704  1.00 20.00    -0.005 C 
HETATM   11  C6  UNL     1     -33.132   9.260  -0.466  1.00 20.00     0.011 C 
HETATM   12  C7  UNL     1     -32.891  10.712   1.573  1.00 20.00     0.011 C 
ENDBRANCH   9  10
ENDBRANCH   2   9
TORSDOF 3
ENDMDL
MODEL 2
REMARK VINA RESULT:      -5.8      1.264      1.653
REMARK  3 active torsions:
REMARK  status: ('A' for Active; 'I' for Inactive)
REMARK    1  A    between atoms: C1_1  and  C3_3 
REMARK       I    between atoms: C1_1  and  N10_10 
REMARK    2  A    between atoms: C8_8  and  C9_9 
REMARK    3  A    between atoms: C8_8  and  N10_10 
ROOT
HETATM    1  C1  UNL     1     -32.951   7.447   3.849  1.00 20.00     0.222 C 
HETATM    2  N10 UNL     1     -32.982   7.503   2.487  1.00 20.00    -0.360 N 
HETATM    3  O11 UNL     1     -32.248   8.102   4.609  1.00 20.00    -0.273 OA
HETATM    4  H28 UNL     1     -33.613   6.906   1.991  1.00 20.00     0.162 HD
ENDROOT
BRANCH   1   5
HETATM    5  C3  UNL     1     -33.917   6.456   4.410  1.00 20.00     0.082 A 
HETATM    6  C2  UNL     1     -35.153   6.146   3.629  1.00 20.00     0.019 A 
HETATM    7  C4  UNL     1     -34.050   5.131   3.728  1.00 20.00    -0.005 A 
HETATM    8  C5  UNL     1     -34.236   3.900   4.546  1.00 20.00     0.011 C 
ENDBRANCH   1   5
BRANCH   2   9
HETATM    9  C8  UNL     1     -32.109   8.420   1.721  1.00 20.00     0.126 C 
BRANCH   9  10
HETATM   10  C9  UNL     1     -32.910   9.543   1.053  1.00 20.00    -0.005 C 
HETATM   11  C6  UNL     1     -32.376  10.931   1.412  1.00 20.00     0.011 C 
HETATM   12  C7  UNL     1     -32.985   9.371  -0.465  1.00 20.00     0.011 C 
ENDBRANCH   9  10
ENDBRANCH   2   9
TORSDOF 3
ENDMDL
MODEL 3
REMARK VINA RESULT:      -5.8      1.349      5.098
REMARK  3 active torsions:
REMARK  status: ('A' for Active; 'I' for Inactive)
REMARK    1  A    between atoms: C1_1  and  C3_3 
REMARK       I    between atoms: C1_1  and  N10_10 
REMARK    2  A    between atoms: C8_8  and  C9_9 
REMARK    3  A    between atoms: C8_8  and  N10_10 
ROOT
HETATM    1  C1  UNL     1     -32.124   8.047   2.757  1.00 20.00     0.222 C 
HETATM    2  N10 UNL     1     -33.140   7.145   2.653  1.00 20.00    -0.360 N 
HETATM    3  O11 UNL     1     -31.216   8.061   3.580  1.00 20.00    -0.273 OA
HETATM    4  H28 UNL     1     -33.817   7.257   1.925  1.00 20.00     0.162 HD
ENDROOT
BRANCH   1   5
HETATM    5  C3  UNL     1     -32.186   9.112   1.712  1.00 20.00     0.082 A 
HETATM    6  C2  UNL     1     -31.198   9.068   0.592  1.00 20.00     0.019 A 
HETATM    7  C4  UNL     1     -32.640   8.733   0.339  1.00 20.00    -0.005 A 
HETATM    8  C5  UNL     1     -33.502   9.671  -0.434  1.00 20.00     0.011 C 
ENDBRANCH   1   5
BRANCH   2   9
HETATM    9  C8  UNL     1     -33.272   6.003   3.585  1.00 20.00     0.126 C 
BRANCH   9  10
HETATM   10  C9  UNL     1     -34.309   6.279   4.680  1.00 20.00    -0.005 C 
HETATM   11  C6  UNL     1     -34.809   4.994   5.343  1.00 20.00     0.011 C 
HETATM   12  C7  UNL     1     -33.787   7.260   5.731  1.00 20.00     0.011 C 
ENDBRANCH   9  10
ENDBRANCH   2   9
TORSDOF 3
ENDMDL
MODEL 4
REMARK VINA RESULT:      -5.8      1.009      5.050
REMARK  3 active torsions:
REMARK  status: ('A' for Active; 'I' for Inactive)
REMARK    1  A    between atoms: C1_1  and  C3_3 
REMARK       I    between atoms: C1_1  and  N10_10 
REMARK    2  A    between atoms: C8_8  and  C9_9 
REMARK    3  A    between atoms: C8_8  and  N10_10 
ROOT
HETATM    1  C1  UNL     1     -32.821   7.133   2.777  1.00 20.00     0.222 C 
HETATM    2  N10 UNL     1     -34.045   7.340   3.343  1.00 20.00    -0.360 N 
HETATM    3  O11 UNL     1     -32.269   6.062   2.560  1.00 20.00    -0.273 OA
HETATM    4  H28 UNL     1     -34.374   8.277   3.459  1.00 20.00     0.162 HD
ENDROOT
BRANCH   1   5
HETATM    5  C3  UNL     1     -32.136   8.405   2.400  1.00 20.00     0.082 A 
HETATM    6  C2  UNL     1     -31.414   8.464   1.093  1.00 20.00     0.019 A 
HETATM    7  C4  UNL     1     -32.704   9.211   1.275  1.00 20.00    -0.005 A 
HETATM    8  C5  UNL     1     -32.702  10.698   1.364  1.00 20.00     0.011 C 
ENDBRANCH   1   5
BRANCH   2   9
HETATM    9  C8  UNL     1     -34.900   6.218   3.790  1.00 20.00     0.126 C 
BRANCH   9  10
HETATM   10  C9  UNL     1     -34.782   5.979   5.300  1.00 20.00    -0.005 C 
HETATM   11  C6  UNL     1     -34.305   4.564   5.629  1.00 20.00     0.011 C 
HETATM   12  C7  UNL     1     -33.890   7.019   5.978  1.00 20.00     0.011 C 
ENDBRANCH   9  10
ENDBRANCH   2   9
TORSDOF 3
ENDMDL
MODEL 5
REMARK VINA RESULT:      -5.7      1.399      1.717
REMARK  3 active torsions:
REMARK  status: ('A' for Active; 'I' for Inactive)
REMARK    1  A    between atoms: C1_1  and  C3_3 
REMARK       I    between atoms: C1_1  and  N10_10 
REMARK    2  A    between atoms: C8_8  and  C9_9 
REMARK    3  A    between atoms: C8_8  and  N10_10 
ROOT
HETATM    1  C1  UNL     1     -32.016   7.835   3.286  1.00 20.00     0.222 C 
HETATM    2  N10 UNL     1     -32.196   7.854   1.934  1.00 20.00    -0.360 N 
HETATM    3  O11 UNL     1     -31.244   8.518   3.947  1.00 20.00    -0.273 OA
HETATM    4  H28 UNL     1     -32.868   7.236   1.525  1.00 20.00     0.162 HD
ENDROOT
BRANCH   1   5
HETATM    5  C3  UNL     1     -32.899   6.847   3.973  1.00 20.00     0.082 A 
HETATM    6  C2  UNL     1     -33.631   7.280   5.203  1.00 20.00     0.019 A 
HETATM    7  C4  UNL     1     -34.378   7.058   3.919  1.00 20.00    -0.005 A 
HETATM    8  C5  UNL     1     -35.282   5.883   3.773  1.00 20.00     0.011 C 
ENDBRANCH   1   5
BRANCH   2   9
HETATM    9  C8  UNL     1     -31.426   8.761   1.055  1.00 20.00     0.126 C 
BRANCH   9  10
HETATM   10  C9  UNL     1     -32.306   9.873   0.472  1.00 20.00    -0.005 C 
HETATM   11  C6  UNL     1     -33.336   9.336  -0.523  1.00 20.00     0.011 C 
HETATM   12  C7  UNL     1     -32.991  10.695   1.565  1.00 20.00     0.011 C 
ENDBRANCH   9  10
ENDBRANCH   2   9
TORSDOF 3
ENDMDL
MODEL 6
REMARK VINA RESULT:      -4.4     10.260     11.189
REMARK  3 active torsions:
REMARK  status: ('A' for Active; 'I' for Inactive)
REMARK    1  A    between atoms: C1_1  and  C3_3 
REMARK       I    between atoms: C1_1  and  N10_10 
REMARK    2  A    between atoms: C8_8  and  C9_9 
REMARK    3  A    between atoms: C8_8  and  N10_10 
ROOT
HETATM    1  C1  UNL     1     -34.248  14.577  -4.134  1.00 20.00     0.222 C 
HETATM    2  N10 UNL     1     -35.473  14.528  -4.732  1.00 20.00    -0.360 N 
HETATM    3  O11 UNL     1     -33.362  13.731  -4.174  1.00 20.00    -0.273 OA
HETATM    4  H28 UNL     1     -36.101  15.297  -4.614  1.00 20.00     0.162 HD
ENDROOT
BRANCH   1   5
HETATM    5  C3  UNL     1     -34.030  15.836  -3.363  1.00 20.00     0.082 A 
HETATM    6  C2  UNL     1     -34.686  17.089  -3.846  1.00 20.00     0.019 A 
HETATM    7  C4  UNL     1     -35.182  16.410  -2.601  1.00 20.00    -0.005 A 
HETATM    8  C5  UNL     1     -34.944  17.028  -1.266  1.00 20.00     0.011 C 
ENDBRANCH   1   5
BRANCH   2   9
HETATM    9  C8  UNL     1     -35.900  13.371  -5.550  1.00 20.00     0.126 C 
BRANCH   9  10
HETATM   10  C9  UNL     1     -35.867  13.690  -7.049  1.00 20.00    -0.005 C 
HETATM   11  C6  UNL     1     -36.648  14.961  -7.389  1.00 20.00     0.011 C 
HETATM   12  C7  UNL     1     -34.438  13.776  -7.587  1.00 20.00     0.011 C 
ENDBRANCH   9  10
ENDBRANCH   2   9
TORSDOF 3
ENDMDL
MODEL 7
REMARK VINA RESULT:      -4.2     10.617     11.326
REMARK  3 active torsions:
REMARK  status: ('A' for Active; 'I' for Inactive)
REMARK    1  A    between atoms: C1_1  and  C3_3 
REMARK       I    between atoms: C1_1  and  N10_10 
REMARK    2  A    between atoms: C8_8  and  C9_9 
REMARK    3  A    between atoms: C8_8  and  N10_10 
ROOT
HETATM    1  C1  UNL     1     -33.522  16.957  -3.957  1.00 20.00     0.222 C 
HETATM    2  N10 UNL     1     -33.445  16.721  -2.616  1.00 20.00    -0.360 N 
HETATM    3  O11 UNL     1     -33.370  18.024  -4.539  1.00 20.00    -0.273 OA
HETATM    4  H28 UNL     1     -33.592  15.791  -2.277  1.00 20.00     0.162 HD
ENDROOT
BRANCH   1   5
HETATM    5  C3  UNL     1     -33.825  15.725  -4.744  1.00 20.00     0.082 A 
HETATM    6  C2  UNL     1     -33.089  14.467  -4.410  1.00 20.00     0.019 A 
HETATM    7  C4  UNL     1     -34.544  14.605  -4.062  1.00 20.00    -0.005 A 
HETATM    8  C5  UNL     1     -35.570  13.827  -4.812  1.00 20.00     0.011 C 
ENDBRANCH   1   5
BRANCH   2   9
HETATM    9  C8  UNL     1     -33.152  17.801  -1.647  1.00 20.00     0.126 C 
BRANCH   9  10
HETATM   10  C9  UNL     1     -34.371  18.132  -0.777  1.00 20.00    -0.005 C 
HETATM   11  C6  UNL     1     -35.454  17.055  -0.862  1.00 20.00     0.011 C 
HETATM   12  C7  UNL     1     -33.984  18.393   0.679  1.00 20.00     0.011 C 
ENDBRANCH   9  10
ENDBRANCH   2   9
TORSDOF 3
ENDMDL
MODEL 8
REMARK VINA RESULT:      -4.2     10.772     11.386
REMARK  3 active torsions:
REMARK  status: ('A' for Active; 'I' for Inactive)
REMARK    1  A    between atoms: C1_1  and  C3_3 
REMARK       I    between atoms: C1_1  and  N10_10 
REMARK    2  A    between atoms: C8_8  and  C9_9 
REMARK    3  A    between atoms: C8_8  and  N10_10 
ROOT
HETATM    1  C1  UNL     1     -33.858  16.732  -3.995  1.00 20.00     0.222 C 
HETATM    2  N10 UNL     1     -34.096  15.395  -3.871  1.00 20.00    -0.360 N 
HETATM    3  O11 UNL     1     -33.346  17.315  -4.943  1.00 20.00    -0.273 OA
HETATM    4  H28 UNL     1     -34.525  15.054  -3.034  1.00 20.00     0.162 HD
ENDROOT
BRANCH   1   5
HETATM    5  C3  UNL     1     -34.301  17.512  -2.802  1.00 20.00     0.082 A 
HETATM    6  C2  UNL     1     -35.042  16.796  -1.718  1.00 20.00     0.019 A 
HETATM    7  C4  UNL     1     -33.628  17.250  -1.492  1.00 20.00    -0.005 A 
HETATM    8  C5  UNL     1     -33.345  18.388  -0.573  1.00 20.00     0.011 C 
ENDBRANCH   1   5
BRANCH   2   9
HETATM    9  C8  UNL     1     -33.738  14.433  -4.938  1.00 20.00     0.126 C 
BRANCH   9  10
HETATM   10  C9  UNL     1     -34.890  14.229  -5.929  1.00 20.00    -0.005 C 
HETATM   11  C6  UNL     1     -34.419  13.608  -7.245  1.00 20.00     0.011 C 
HETATM   12  C7  UNL     1     -36.030  13.409  -5.324  1.00 20.00     0.011 C 
ENDBRANCH   9  10
ENDBRANCH   2   9
TORSDOF 3
ENDMDL
MODEL 9
REMARK VINA RESULT:      -4.1     10.240     11.697
REMARK  3 active torsions:
REMARK  status: ('A' for Active; 'I' for Inactive)
REMARK    1  A    between atoms: C1_1  and  C3_3 
REMARK       I    between atoms: C1_1  and  N10_10 
REMARK    2  A    between atoms: C8_8  and  C9_9 
REMARK    3  A    between atoms: C8_8  and  N10_10 
ROOT
HETATM    1  C1  UNL     1     -35.533  13.902  -5.062  1.00 20.00     0.222 C 
HETATM    2  N10 UNL     1     -36.010  14.950  -5.793  1.00 20.00    -0.360 N 
HETATM    3  O11 UNL     1     -35.833  12.719  -5.167  1.00 20.00    -0.273 OA
HETATM    4  H28 UNL     1     -35.672  15.871  -5.598  1.00 20.00     0.162 HD
ENDROOT
BRANCH   1   5
HETATM    5  C3  UNL     1     -34.529  14.319  -4.039  1.00 20.00     0.082 A 
HETATM    6  C2  UNL     1     -33.144  14.649  -4.494  1.00 20.00     0.019 A 
HETATM    7  C4  UNL     1     -34.067  15.742  -4.036  1.00 20.00    -0.005 A 
HETATM    8  C5  UNL     1     -33.825  16.432  -2.738  1.00 20.00     0.011 C 
ENDBRANCH   1   5
BRANCH   2   9
HETATM    9  C8  UNL     1     -37.013  14.764  -6.865  1.00 20.00     0.126 C 
BRANCH   9  10
HETATM   10  C9  UNL     1     -38.312  15.522  -6.565  1.00 20.00    -0.005 C 
HETATM   11  C6  UNL     1     -39.042  14.964  -5.342  1.00 20.00     0.011 C 
HETATM   12  C7  UNL     1     -38.078  17.026  -6.413  1.00 20.00     0.011 C 
ENDBRANCH   9  10
ENDBRANCH   2   9
TORSDOF 3
ENDMDL
