MODEL 1
REMARK VINA RESULT:      -4.2      0.000      0.000
REMARK  1 active torsions:
REMARK  status: ('A' for Active; 'I' for Inactive)
REMARK    1  A    between atoms: C1_1  and  C4_4 
ROOT
HETATM    1  C2  UNL     1     -33.791   7.295   5.147  1.00 20.00     0.023 C 
HETATM    2  C3  UNL     1     -34.320   6.097   5.916  1.00 20.00     0.075 C 
HETATM    3  C4  UNL     1     -32.954   6.735   4.002  1.00 20.00     0.066 C 
HETATM    4  C5  UNL     1     -33.811   5.677   3.280  1.00 20.00     0.010 C 
HETATM    5  C6  UNL     1     -34.868   6.255   2.328  1.00 20.00     0.027 C 
HETATM    6  C7  UNL     1     -32.943   4.655   2.543  1.00 20.00     0.027 C 
HETATM    7  S9  UNL     1     -34.698   4.843   4.661  1.00 20.00    -0.159 SA
ENDROOT
BRANCH   3   8
HETATM    8  C1  UNL     1     -32.490   7.834   3.094  1.00 20.00     0.237 C 
HETATM    9  O8  UNL     1     -31.405   8.394   3.210  1.00 20.00    -0.306 OA
ENDBRANCH   3   8
TORSDOF 1
ENDMDL
MODEL 2
REMARK VINA RESULT:      -3.8     12.070     13.160
REMARK  1 active torsions:
REMARK  status: ('A' for Active; 'I' for Inactive)
REMARK    1  A    between atoms: C1_1  and  C4_4 
ROOT
HETATM    1  C2  UNL     1     -34.347  14.581  -4.038  1.00 20.00     0.023 C 
HETATM    2  C3  UNL     1     -33.641  15.868  -3.647  1.00 20.00     0.075 C 
HETATM    3  C4  UNL     1     -35.449  14.975  -5.016  1.00 20.00     0.066 C 
HETATM    4  C5  UNL     1     -34.806  15.859  -6.102  1.00 20.00     0.010 C 
HETATM    5  C6  UNL     1     -34.026  15.084  -7.174  1.00 20.00     0.027 C 
HETATM    6  C7  UNL     1     -35.835  16.778  -6.763  1.00 20.00     0.027 C 
HETATM    7  S9  UNL     1     -33.598  16.875  -5.155  1.00 20.00    -0.159 SA
ENDROOT
BRANCH   3   8
HETATM    8  C1  UNL     1     -36.128  13.760  -5.572  1.00 20.00     0.237 C 
HETATM    9  O8  UNL     1     -35.870  12.617  -5.211  1.00 20.00    -0.306 OA
ENDBRANCH   3   8
TORSDOF 1
ENDMDL
MODEL 3
REMARK VINA RESULT:      -3.7     12.131     13.196
REMARK  1 active torsions:
REMARK  status: ('A' for Active; 'I' for Inactive)
REMARK    1  A    between atoms: C1_1  and  C4_4 
ROOT
HETATM    1  C2  UNL     1     -35.994  15.987  -6.331  1.00 20.00     0.023 C 
HETATM    2  C3  UNL     1     -35.000  17.060  -6.738  1.00 20.00     0.075 C 
HETATM    3  C4  UNL     1     -35.178  14.861  -5.704  1.00 20.00     0.066 C 
HETATM    4  C5  UNL     1     -34.256  15.496  -4.645  1.00 20.00     0.010 C 
HETATM    5  C6  UNL     1     -34.949  15.836  -3.318  1.00 20.00     0.027 C 
HETATM    6  C7  UNL     1     -33.019  14.633  -4.384  1.00 20.00     0.027 C 
HETATM    7  S9  UNL     1     -33.743  17.079  -5.430  1.00 20.00    -0.159 SA
ENDROOT
BRANCH   3   8
HETATM    8  C1  UNL     1     -36.077  13.801  -5.142  1.00 20.00     0.237 C 
HETATM    9  O8  UNL     1     -35.870  12.600  -5.274  1.00 20.00    -0.306 OA
ENDBRANCH   3   8
TORSDOF 1
ENDMDL
MODEL 4
REMARK VINA RESULT:      -3.7     11.903     12.830
REMARK  1 active torsions:
REMARK  status: ('A' for Active; 'I' for Inactive)
REMARK    1  A    between atoms: C1_1  and  C4_4 
ROOT
HETATM    1  C2  UNL     1     -36.505  13.987  -5.228  1.00 20.00     0.023 C 
HETATM    2  C3  UNL     1     -36.987  15.147  -4.376  1.00 20.00     0.075 C 
HETATM    3  C4  UNL     1     -35.402  14.541  -6.124  1.00 20.00     0.066 C 
HETATM    4  C5  UNL     1     -34.408  15.293  -5.218  1.00 20.00     0.010 C 
HETATM    5  C6  UNL     1     -33.435  14.387  -4.450  1.00 20.00     0.027 C 
HETATM    6  C7  UNL     1     -33.631  16.358  -5.996  1.00 20.00     0.027 C 
HETATM    7  S9  UNL     1     -35.502  16.112  -3.985  1.00 20.00    -0.159 SA
ENDROOT
BRANCH   3   8
HETATM    8  C1  UNL     1     -34.760  13.444  -6.919  1.00 20.00     0.237 C 
HETATM    9  O8  UNL     1     -35.055  12.260  -6.799  1.00 20.00    -0.306 OA
ENDBRANCH   3   8
TORSDOF 1
ENDMDL
MODEL 5
REMARK VINA RESULT:      -3.6     12.009     12.841
REMARK  1 active torsions:
REMARK  status: ('A' for Active; 'I' for Inactive)
REMARK    1  A    between atoms: C1_1  and  C4_4 
ROOT
HETATM    1  C2  UNL     1     -36.323  15.210  -4.153  1.00 20.00     0.023 C 
HETATM    2  C3  UNL     1     -36.100  16.640  -3.694  1.00 20.00     0.075 C 
HETATM    3  C4  UNL     1     -35.537  15.046  -5.450  1.00 20.00     0.066 C 
HETATM    4  C5  UNL     1     -34.106  15.554  -5.187  1.00 20.00     0.010 C 
HETATM    5  C6  UNL     1     -33.209  14.566  -4.428  1.00 20.00     0.027 C 
HETATM    6  C7  UNL     1     -33.420  16.000  -6.480  1.00 20.00     0.027 C 
HETATM    7  S9  UNL     1     -34.373  17.016  -4.101  1.00 20.00    -0.159 SA
ENDROOT
BRANCH   3   8
HETATM    8  C1  UNL     1     -35.579  13.625  -5.923  1.00 20.00     0.237 C 
HETATM    9  O8  UNL     1     -35.943  12.688  -5.220  1.00 20.00    -0.306 OA
ENDBRANCH   3   8
TORSDOF 1
ENDMDL
MODEL 6
REMARK VINA RESULT:      -3.4     12.072     12.708
REMARK  1 active torsions:
REMARK  status: ('A' for Active; 'I' for Inactive)
REMARK    1  A    between atoms: C1_1  and  C4_4 
ROOT
HETATM    1  C2  UNL     1     -34.534  15.445  -3.739  1.00 20.00     0.023 C 
HETATM    2  C3  UNL     1     -34.957  16.453  -2.685  1.00 20.00     0.075 C 
HETATM    3  C4  UNL     1     -35.808  14.750  -4.205  1.00 20.00     0.066 C 
HETATM    4  C5  UNL     1     -36.829  15.849  -4.560  1.00 20.00     0.010 C 
HETATM    5  C6  UNL     1     -36.601  16.514  -5.925  1.00 20.00     0.027 C 
HETATM    6  C7  UNL     1     -38.267  15.336  -4.460  1.00 20.00     0.027 C 
HETATM    7  S9  UNL     1     -36.542  17.122  -3.262  1.00 20.00    -0.159 SA
ENDROOT
BRANCH   3   8
HETATM    8  C1  UNL     1     -35.522  13.822  -5.348  1.00 20.00     0.237 C 
HETATM    9  O8  UNL     1     -35.839  12.638  -5.353  1.00 20.00    -0.306 OA
ENDBRANCH   3   8
TORSDOF 1
ENDMDL
MODEL 7
REMARK VINA RESULT:      -3.4      2.463      3.120
REMARK  1 active torsions:
REMARK  status: ('A' for Active; 'I' for Inactive)
REMARK    1  A    between atoms: C1_1  and  C4_4 
ROOT
HETATM    1  C2  UNL     1     -33.279   7.009   5.175  1.00 20.00     0.023 C 
HETATM    2  C3  UNL     1     -32.563   8.123   4.432  1.00 20.00     0.075 C 
HETATM    3  C4  UNL     1     -34.345   6.474   4.225  1.00 20.00     0.066 C 
HETATM    4  C5  UNL     1     -33.655   6.179   2.879  1.00 20.00     0.010 C 
HETATM    5  C6  UNL     1     -32.857   4.867   2.846  1.00 20.00     0.027 C 
HETATM    6  C7  UNL     1     -34.648   6.218   1.715  1.00 20.00     0.027 C 
HETATM    7  S9  UNL     1     -32.458   7.567   2.708  1.00 20.00    -0.159 SA
ENDROOT
BRANCH   3   8
HETATM    8  C1  UNL     1     -35.028   5.275   4.810  1.00 20.00     0.237 C 
HETATM    9  O8  UNL     1     -34.642   4.706   5.825  1.00 20.00    -0.306 OA
ENDBRANCH   3   8
TORSDOF 1
ENDMDL
MODEL 8
REMARK VINA RESULT:      -3.4     12.323     13.223
REMARK  1 active torsions:
REMARK  status: ('A' for Active; 'I' for Inactive)
REMARK    1  A    between atoms: C1_1  and  C4_4 
ROOT
HETATM    1  C2  UNL     1     -35.826  14.141  -6.637  1.00 20.00     0.023 C 
HETATM    2  C3  UNL     1     -34.345  14.068  -6.960  1.00 20.00     0.075 C 
HETATM    3  C4  UNL     1     -35.927  14.450  -5.146  1.00 20.00     0.066 C 
HETATM    4  C5  UNL     1     -35.019  15.663  -4.866  1.00 20.00     0.010 C 
HETATM    5  C6  UNL     1     -35.622  17.017  -5.266  1.00 20.00     0.027 C 
HETATM    6  C7  UNL     1     -34.565  15.702  -3.405  1.00 20.00     0.027 C 
HETATM    7  S9  UNL     1     -33.563  15.357  -5.951  1.00 20.00    -0.159 SA
ENDROOT
BRANCH   3   8
HETATM    8  C1  UNL     1     -37.353  14.678  -4.744  1.00 20.00     0.237 C 
HETATM    9  O8  UNL     1     -38.258  13.887  -4.986  1.00 20.00    -0.306 OA
ENDBRANCH   3   8
TORSDOF 1
ENDMDL
MODEL 9
REMARK VINA RESULT:      -3.4     11.857     12.824
REMARK  1 active torsions:
REMARK  status: ('A' for Active; 'I' for Inactive)
REMARK    1  A    between atoms: C1_1  and  C4_4 
ROOT
HETATM    1  C2  UNL     1     -36.427  14.738  -4.483  1.00 20.00     0.023 C 
HETATM    2  C3  UNL     1     -37.584  14.494  -5.436  1.00 20.00     0.075 C 
HETATM    3  C4  UNL     1     -35.192  14.132  -5.141  1.00 20.00     0.066 C 
HETATM    4  C5  UNL     1     -35.126  14.672  -6.583  1.00 20.00     0.010 C 
HETATM    5  C6  UNL     1     -34.582  16.103  -6.702  1.00 20.00     0.027 C 
HETATM    6  C7  UNL     1     -34.341  13.733  -7.501  1.00 20.00     0.027 C 
HETATM    7  S9  UNL     1     -36.892  14.700  -7.101  1.00 20.00    -0.159 SA
ENDROOT
BRANCH   3   8
HETATM    8  C1  UNL     1     -33.960  14.434  -4.343  1.00 20.00     0.237 C 
HETATM    9  O8  UNL     1     -32.999  13.676  -4.268  1.00 20.00    -0.306 OA
ENDBRANCH   3   8
TORSDOF 1
ENDMDL
