MODEL 1
REMARK VINA RESULT:      -4.4      0.000      0.000
REMARK  0 active torsions:
REMARK  status: ('A' for Active; 'I' for Inactive)
ROOT
HETATM    1  C1  UNL     1     -34.853   4.828   5.705  1.00 20.00     0.137 A 
HETATM    2  C2  UNL     1     -34.416   6.130   5.882  1.00 20.00     0.118 A 
HETATM    3  C3  UNL     1     -33.940   5.356   3.888  1.00 20.00     0.177 A 
HETATM    4  C4  UNL     1     -33.194   7.535   4.146  1.00 20.00     0.112 A 
HETATM    5  C5  UNL     1     -32.796   7.292   2.882  1.00 20.00    -0.002 A 
HETATM    6  C6  UNL     1     -32.078   8.242   1.990  1.00 20.00     0.058 C 
HETATM    7  N7  UNL     1     -34.549   4.347   4.445  1.00 20.00    -0.235 NA
HETATM    8  N8  UNL     1     -33.830   6.447   4.695  1.00 20.00    -0.309 N 
HETATM    9  S9  UNL     1     -33.221   5.649   2.336  1.00 20.00    -0.055 SA
ENDROOT
TORSDOF 0
ENDMDL
MODEL 2
REMARK VINA RESULT:      -4.1      1.470      1.794
REMARK  0 active torsions:
REMARK  status: ('A' for Active; 'I' for Inactive)
ROOT
HETATM    1  C1  UNL     1     -34.792   4.754   5.444  1.00 20.00     0.137 A 
HETATM    2  C2  UNL     1     -34.436   4.582   4.117  1.00 20.00     0.118 A 
HETATM    3  C3  UNL     1     -33.766   6.510   4.916  1.00 20.00     0.177 A 
HETATM    4  C4  UNL     1     -33.153   6.260   2.695  1.00 20.00     0.112 A 
HETATM    5  C5  UNL     1     -32.646   7.481   2.948  1.00 20.00    -0.002 A 
HETATM    6  C6  UNL     1     -31.910   8.344   1.985  1.00 20.00     0.058 C 
HETATM    7  N7  UNL     1     -34.365   5.972   5.941  1.00 20.00    -0.235 NA
HETATM    8  N8  UNL     1     -33.776   5.730   3.800  1.00 20.00    -0.309 N 
HETATM    9  S9  UNL     1     -32.944   8.011   4.625  1.00 20.00    -0.055 SA
ENDROOT
TORSDOF 0
ENDMDL
MODEL 3
REMARK VINA RESULT:      -3.8      1.642      3.724
REMARK  0 active torsions:
REMARK  status: ('A' for Active; 'I' for Inactive)
ROOT
HETATM    1  C1  UNL     1     -31.702   8.587   2.318  1.00 20.00     0.137 A 
HETATM    2  C2  UNL     1     -31.746   8.619   3.702  1.00 20.00     0.118 A 
HETATM    3  C3  UNL     1     -33.085   7.101   2.861  1.00 20.00     0.177 A 
HETATM    4  C4  UNL     1     -33.188   7.125   5.175  1.00 20.00     0.112 A 
HETATM    5  C5  UNL     1     -34.069   6.143   4.906  1.00 20.00    -0.002 A 
HETATM    6  C6  UNL     1     -34.840   5.357   5.906  1.00 20.00     0.058 C 
HETATM    7  N7  UNL     1     -32.549   7.627   1.795  1.00 20.00    -0.235 NA
HETATM    8  N8  UNL     1     -32.647   7.651   4.027  1.00 20.00    -0.309 N 
HETATM    9  S9  UNL     1     -34.246   5.846   3.157  1.00 20.00    -0.055 SA
ENDROOT
TORSDOF 0
ENDMDL
MODEL 4
REMARK VINA RESULT:      -3.7     12.346     12.508
REMARK  0 active torsions:
REMARK  status: ('A' for Active; 'I' for Inactive)
ROOT
HETATM    1  C1  UNL     1     -35.886  13.260  -6.242  1.00 20.00     0.137 A 
HETATM    2  C2  UNL     1     -36.537  13.985  -5.257  1.00 20.00     0.118 A 
HETATM    3  C3  UNL     1     -34.376  14.350  -5.269  1.00 20.00     0.177 A 
HETATM    4  C4  UNL     1     -35.427  15.579  -3.610  1.00 20.00     0.112 A 
HETATM    5  C5  UNL     1     -34.151  15.962  -3.420  1.00 20.00    -0.002 A 
HETATM    6  C6  UNL     1     -33.665  16.921  -2.391  1.00 20.00     0.058 C 
HETATM    7  N7  UNL     1     -34.524  13.496  -6.243  1.00 20.00    -0.235 NA
HETATM    8  N8  UNL     1     -35.539  14.680  -4.644  1.00 20.00    -0.309 N 
HETATM    9  S9  UNL     1     -33.026  15.183  -4.565  1.00 20.00    -0.055 SA
ENDROOT
TORSDOF 0
ENDMDL
MODEL 5
REMARK VINA RESULT:      -3.6     12.480     13.317
REMARK  0 active torsions:
REMARK  status: ('A' for Active; 'I' for Inactive)
ROOT
HETATM    1  C1  UNL     1     -35.119  12.848  -7.161  1.00 20.00     0.137 A 
HETATM    2  C2  UNL     1     -34.372  13.924  -7.611  1.00 20.00     0.118 A 
HETATM    3  C3  UNL     1     -34.938  14.126  -5.503  1.00 20.00     0.177 A 
HETATM    4  C4  UNL     1     -33.692  15.944  -6.218  1.00 20.00     0.112 A 
HETATM    5  C5  UNL     1     -33.911  16.292  -4.936  1.00 20.00    -0.002 A 
HETATM    6  C6  UNL     1     -33.433  17.533  -4.269  1.00 20.00     0.058 C 
HETATM    7  N7  UNL     1     -35.472  12.982  -5.830  1.00 20.00    -0.235 NA
HETATM    8  N8  UNL     1     -34.271  14.735  -6.521  1.00 20.00    -0.309 N 
HETATM    9  S9  UNL     1     -34.874  15.078  -4.053  1.00 20.00    -0.055 SA
ENDROOT
TORSDOF 0
ENDMDL
MODEL 6
REMARK VINA RESULT:      -3.6     12.332     12.618
REMARK  0 active torsions:
REMARK  status: ('A' for Active; 'I' for Inactive)
ROOT
HETATM    1  C1  UNL     1     -38.241  14.383  -5.230  1.00 20.00     0.137 A 
HETATM    2  C2  UNL     1     -38.205  15.501  -4.413  1.00 20.00     0.118 A 
HETATM    3  C3  UNL     1     -36.237  14.561  -4.625  1.00 20.00     0.177 A 
HETATM    4  C4  UNL     1     -36.136  16.425  -3.253  1.00 20.00     0.112 A 
HETATM    5  C5  UNL     1     -34.847  16.037  -3.227  1.00 20.00    -0.002 A 
HETATM    6  C6  UNL     1     -33.745  16.704  -2.482  1.00 20.00     0.058 C 
HETATM    7  N7  UNL     1     -36.996  13.796  -5.359  1.00 20.00    -0.235 NA
HETATM    8  N8  UNL     1     -36.901  15.593  -4.036  1.00 20.00    -0.309 N 
HETATM    9  S9  UNL     1     -34.552  14.580  -4.211  1.00 20.00    -0.055 SA
ENDROOT
TORSDOF 0
ENDMDL
MODEL 7
REMARK VINA RESULT:      -3.5     12.913     13.253
REMARK  0 active torsions:
REMARK  status: ('A' for Active; 'I' for Inactive)
ROOT
HETATM    1  C1  UNL     1     -32.642  18.254  -1.103  1.00 20.00     0.137 A 
HETATM    2  C2  UNL     1     -33.669  18.364  -0.179  1.00 20.00     0.118 A 
HETATM    3  C3  UNL     1     -31.694  18.617   0.737  1.00 20.00     0.177 A 
HETATM    4  C4  UNL     1     -33.383  18.806   2.312  1.00 20.00     0.112 A 
HETATM    5  C5  UNL     1     -32.303  18.993   3.094  1.00 20.00    -0.002 A 
HETATM    6  C6  UNL     1     -32.314  19.244   4.561  1.00 20.00     0.058 C 
HETATM    7  N7  UNL     1     -31.400  18.415  -0.517  1.00 20.00    -0.235 NA
HETATM    8  N8  UNL     1     -33.029  18.597   1.000  1.00 20.00    -0.309 N 
HETATM    9  S9  UNL     1     -30.774  18.909   2.180  1.00 20.00    -0.055 SA
ENDROOT
TORSDOF 0
ENDMDL
MODEL 8
REMARK VINA RESULT:      -3.4     12.285     12.728
REMARK  0 active torsions:
REMARK  status: ('A' for Active; 'I' for Inactive)
ROOT
HETATM    1  C1  UNL     1     -38.951  15.406  -4.552  1.00 20.00     0.137 A 
HETATM    2  C2  UNL     1     -37.969  16.263  -4.084  1.00 20.00     0.118 A 
HETATM    3  C3  UNL     1     -37.137  14.398  -4.879  1.00 20.00     0.177 A 
HETATM    4  C4  UNL     1     -35.465  15.804  -4.107  1.00 20.00     0.112 A 
HETATM    5  C5  UNL     1     -34.725  14.761  -4.530  1.00 20.00    -0.002 A 
HETATM    6  C6  UNL     1     -33.243  14.653  -4.468  1.00 20.00     0.058 C 
HETATM    7  N7  UNL     1     -38.418  14.232  -5.052  1.00 20.00    -0.235 NA
HETATM    8  N8  UNL     1     -36.807  15.588  -4.307  1.00 20.00    -0.309 N 
HETATM    9  S9  UNL     1     -35.723  13.447  -5.209  1.00 20.00    -0.055 SA
ENDROOT
TORSDOF 0
ENDMDL
MODEL 9
REMARK VINA RESULT:      -3.4     12.179     12.664
REMARK  0 active torsions:
REMARK  status: ('A' for Active; 'I' for Inactive)
ROOT
HETATM    1  C1  UNL     1     -33.044  14.901  -4.267  1.00 20.00     0.137 A 
HETATM    2  C2  UNL     1     -33.886  15.801  -3.637  1.00 20.00     0.118 A 
HETATM    3  C3  UNL     1     -34.983  14.360  -4.871  1.00 20.00     0.177 A 
HETATM    4  C4  UNL     1     -36.424  15.848  -3.834  1.00 20.00     0.112 A 
HETATM    5  C5  UNL     1     -37.307  15.090  -4.511  1.00 20.00    -0.002 A 
HETATM    6  C6  UNL     1     -38.786  15.257  -4.516  1.00 20.00     0.058 C 
HETATM    7  N7  UNL     1     -33.743  13.995  -5.043  1.00 20.00    -0.235 NA
HETATM    8  N8  UNL     1     -35.131  15.430  -4.043  1.00 20.00    -0.309 N 
HETATM    9  S9  UNL     1     -36.518  13.798  -5.453  1.00 20.00    -0.055 SA
ENDROOT
TORSDOF 0
ENDMDL
