MODEL 1
REMARK VINA RESULT:      -5.0      0.000      0.000
REMARK  2 active torsions:
REMARK  status: ('A' for Active; 'I' for Inactive)
REMARK    1  A    between atoms: C5_5  and  C6_6 
REMARK    2  A    between atoms: C7_7  and  N9_9 
ROOT
HETATM    1  C1  UNL     1     -32.490   8.073   2.148  1.00 20.00     0.079 C 
HETATM    2  C7  UNL     1     -32.896   6.764   2.666  1.00 20.00     0.252 C 
HETATM    3  N8  UNL     1     -32.168   9.109   1.736  1.00 20.00    -0.196 NA
ENDROOT
BRANCH   2   4
HETATM    4  N9  UNL     1     -33.344   6.842   4.039  1.00 20.00    -0.341 N 
HETATM    5  C4  UNL     1     -32.996   7.835   4.916  1.00 20.00     0.092 A 
HETATM    6  C2  UNL     1     -33.611   7.571   6.120  1.00 20.00     0.020 A 
HETATM    7  C3  UNL     1     -34.356   6.376   5.961  1.00 20.00     0.034 A 
HETATM    8  C5  UNL     1     -34.173   5.947   4.665  1.00 20.00     0.073 A 
BRANCH   8   9
HETATM    9  C6  UNL     1     -34.727   4.782   4.044  1.00 20.00     0.288 C 
HETATM   10  O10 UNL     1     -34.328   3.621   4.262  1.00 20.00    -0.300 OA
ENDBRANCH   8   9
ENDBRANCH   2   4
TORSDOF 2
ENDMDL
MODEL 2
REMARK VINA RESULT:      -4.3      1.645      2.586
REMARK  2 active torsions:
REMARK  status: ('A' for Active; 'I' for Inactive)
REMARK    1  A    between atoms: C5_5  and  C6_6 
REMARK    2  A    between atoms: C7_7  and  N9_9 
ROOT
HETATM    1  C1  UNL     1     -32.122   8.764   1.882  1.00 20.00     0.079 C 
HETATM    2  C7  UNL     1     -31.877   8.040   3.132  1.00 20.00     0.252 C 
HETATM    3  N8  UNL     1     -32.315   9.339   0.893  1.00 20.00    -0.196 NA
ENDROOT
BRANCH   2   4
HETATM    4  N9  UNL     1     -32.776   6.919   3.292  1.00 20.00    -0.341 N 
HETATM    5  C4  UNL     1     -32.913   5.897   2.390  1.00 20.00     0.092 A 
HETATM    6  C2  UNL     1     -33.855   5.021   2.884  1.00 20.00     0.020 A 
HETATM    7  C3  UNL     1     -34.300   5.535   4.127  1.00 20.00     0.034 A 
HETATM    8  C5  UNL     1     -33.616   6.709   4.355  1.00 20.00     0.073 A 
BRANCH   8   9
HETATM    9  C6  UNL     1     -33.734   7.582   5.482  1.00 20.00     0.288 C 
HETATM   10  O10 UNL     1     -34.181   7.231   6.592  1.00 20.00    -0.300 OA
ENDBRANCH   8   9
ENDBRANCH   2   4
TORSDOF 2
ENDMDL
MODEL 3
REMARK VINA RESULT:      -4.0     12.011     12.610
REMARK  2 active torsions:
REMARK  status: ('A' for Active; 'I' for Inactive)
REMARK    1  A    between atoms: C5_5  and  C6_6 
REMARK    2  A    between atoms: C7_7  and  N9_9 
ROOT
HETATM    1  C1  UNL     1     -36.000  14.049  -5.098  1.00 20.00     0.079 C 
HETATM    2  C7  UNL     1     -36.137  15.505  -5.002  1.00 20.00     0.252 C 
HETATM    3  N8  UNL     1     -35.893  12.897  -5.175  1.00 20.00    -0.196 NA
ENDROOT
BRANCH   2   4
HETATM    4  N9  UNL     1     -35.363  16.051  -3.908  1.00 20.00    -0.341 N 
HETATM    5  C4  UNL     1     -35.841  16.249  -2.640  1.00 20.00     0.092 A 
HETATM    6  C2  UNL     1     -34.820  16.780  -1.882  1.00 20.00     0.020 A 
HETATM    7  C3  UNL     1     -33.689  16.905  -2.726  1.00 20.00     0.034 A 
HETATM    8  C5  UNL     1     -34.052  16.446  -3.972  1.00 20.00     0.073 A 
BRANCH   8   9
HETATM    9  C6  UNL     1     -33.240  16.381  -5.149  1.00 20.00     0.288 C 
HETATM   10  O10 UNL     1     -32.480  15.430  -5.419  1.00 20.00    -0.300 OA
ENDBRANCH   8   9
ENDBRANCH   2   4
TORSDOF 2
ENDMDL
MODEL 4
REMARK VINA RESULT:      -4.0      1.756      3.639
REMARK  2 active torsions:
REMARK  status: ('A' for Active; 'I' for Inactive)
REMARK    1  A    between atoms: C5_5  and  C6_6 
REMARK    2  A    between atoms: C7_7  and  N9_9 
ROOT
HETATM    1  C1  UNL     1     -34.421   4.667   4.037  1.00 20.00     0.079 C 
HETATM    2  C7  UNL     1     -34.775   6.027   3.622  1.00 20.00     0.252 C 
HETATM    3  N8  UNL     1     -34.144   3.590   4.367  1.00 20.00    -0.196 NA
ENDROOT
BRANCH   2   4
HETATM    4  N9  UNL     1     -33.609   6.874   3.497  1.00 20.00    -0.341 N 
HETATM    5  C4  UNL     1     -32.942   7.111   2.324  1.00 20.00     0.092 A 
HETATM    6  C2  UNL     1     -31.892   7.960   2.600  1.00 20.00     0.020 A 
HETATM    7  C3  UNL     1     -31.931   8.243   3.988  1.00 20.00     0.034 A 
HETATM    8  C5  UNL     1     -33.002   7.559   4.517  1.00 20.00     0.073 A 
BRANCH   8   9
HETATM    9  C6  UNL     1     -33.436   7.537   5.881  1.00 20.00     0.288 C 
HETATM   10  O10 UNL     1     -34.340   6.795   6.313  1.00 20.00    -0.300 OA
ENDBRANCH   8   9
ENDBRANCH   2   4
TORSDOF 2
ENDMDL
MODEL 5
REMARK VINA RESULT:      -3.9      1.472      1.700
REMARK  2 active torsions:
REMARK  status: ('A' for Active; 'I' for Inactive)
REMARK    1  A    between atoms: C5_5  and  C6_6 
REMARK    2  A    between atoms: C7_7  and  N9_9 
ROOT
HETATM    1  C1  UNL     1     -31.965   8.019   3.351  1.00 20.00     0.079 C 
HETATM    2  C7  UNL     1     -33.355   7.621   3.111  1.00 20.00     0.252 C 
HETATM    3  N8  UNL     1     -30.865   8.335   3.538  1.00 20.00    -0.196 NA
ENDROOT
BRANCH   2   4
HETATM    4  N9  UNL     1     -33.826   6.679   4.104  1.00 20.00    -0.341 N 
HETATM    5  C4  UNL     1     -34.151   7.007   5.394  1.00 20.00     0.092 A 
HETATM    6  C2  UNL     1     -34.555   5.855   6.033  1.00 20.00     0.020 A 
HETATM    7  C3  UNL     1     -34.469   4.798   5.092  1.00 20.00     0.034 A 
HETATM    8  C5  UNL     1     -34.016   5.336   3.909  1.00 20.00     0.073 A 
BRANCH   8   9
HETATM    9  C6  UNL     1     -33.772   4.651   2.675  1.00 20.00     0.288 C 
HETATM   10  O10 UNL     1     -32.644   4.275   2.300  1.00 20.00    -0.300 OA
ENDBRANCH   8   9
ENDBRANCH   2   4
TORSDOF 2
ENDMDL
MODEL 6
REMARK VINA RESULT:      -3.9     12.208     12.815
REMARK  2 active torsions:
REMARK  status: ('A' for Active; 'I' for Inactive)
REMARK    1  A    between atoms: C5_5  and  C6_6 
REMARK    2  A    between atoms: C7_7  and  N9_9 
ROOT
HETATM    1  C1  UNL     1     -37.628  14.762  -5.413  1.00 20.00     0.079 C 
HETATM    2  C7  UNL     1     -36.572  15.618  -5.959  1.00 20.00     0.252 C 
HETATM    3  N8  UNL     1     -38.466  14.086  -4.981  1.00 20.00    -0.196 NA
ENDROOT
BRANCH   2   4
HETATM    4  N9  UNL     1     -35.308  15.414  -5.286  1.00 20.00    -0.341 N 
HETATM    5  C4  UNL     1     -34.884  16.126  -4.195  1.00 20.00     0.092 A 
HETATM    6  C2  UNL     1     -33.641  15.650  -3.837  1.00 20.00     0.020 A 
HETATM    7  C3  UNL     1     -33.307  14.616  -4.746  1.00 20.00     0.034 A 
HETATM    8  C5  UNL     1     -34.355  14.491  -5.630  1.00 20.00     0.073 A 
BRANCH   8   9
HETATM    9  C6  UNL     1     -34.468  13.577  -6.727  1.00 20.00     0.288 C 
HETATM   10  O10 UNL     1     -35.041  12.472  -6.656  1.00 20.00    -0.300 OA
ENDBRANCH   8   9
ENDBRANCH   2   4
TORSDOF 2
ENDMDL
MODEL 7
REMARK VINA RESULT:      -3.9     11.817     12.662
REMARK  2 active torsions:
REMARK  status: ('A' for Active; 'I' for Inactive)
REMARK    1  A    between atoms: C5_5  and  C6_6 
REMARK    2  A    between atoms: C7_7  and  N9_9 
ROOT
HETATM    1  C1  UNL     1     -34.679  16.683  -2.263  1.00 20.00     0.079 C 
HETATM    2  C7  UNL     1     -35.539  16.158  -3.328  1.00 20.00     0.252 C 
HETATM    3  N8  UNL     1     -34.001  17.100  -1.420  1.00 20.00    -0.196 NA
ENDROOT
BRANCH   2   4
HETATM    4  N9  UNL     1     -34.788  15.842  -4.523  1.00 20.00    -0.341 N 
HETATM    5  C4  UNL     1     -33.727  16.572  -4.990  1.00 20.00     0.092 A 
HETATM    6  C2  UNL     1     -33.273  15.967  -6.142  1.00 20.00     0.020 A 
HETATM    7  C3  UNL     1     -34.090  14.833  -6.374  1.00 20.00     0.034 A 
HETATM    8  C5  UNL     1     -35.018  14.779  -5.358  1.00 20.00     0.073 A 
BRANCH   8   9
HETATM    9  C6  UNL     1     -36.053  13.809  -5.171  1.00 20.00     0.288 C 
HETATM   10  O10 UNL     1     -35.875  12.577  -5.246  1.00 20.00    -0.300 OA
ENDBRANCH   8   9
ENDBRANCH   2   4
TORSDOF 2
ENDMDL
MODEL 8
REMARK VINA RESULT:      -3.9     12.146     12.592
REMARK  2 active torsions:
REMARK  status: ('A' for Active; 'I' for Inactive)
REMARK    1  A    between atoms: C5_5  and  C6_6 
REMARK    2  A    between atoms: C7_7  and  N9_9 
ROOT
HETATM    1  C1  UNL     1     -35.089  13.594  -6.652  1.00 20.00     0.079 C 
HETATM    2  C7  UNL     1     -35.137  15.052  -6.506  1.00 20.00     0.252 C 
HETATM    3  N8  UNL     1     -35.051  12.441  -6.770  1.00 20.00    -0.196 NA
ENDROOT
BRANCH   2   4
HETATM    4  N9  UNL     1     -35.104  15.457  -5.118  1.00 20.00    -0.341 N 
HETATM    5  C4  UNL     1     -33.969  15.812  -4.438  1.00 20.00     0.092 A 
HETATM    6  C2  UNL     1     -34.332  16.133  -3.149  1.00 20.00     0.020 A 
HETATM    7  C3  UNL     1     -35.736  15.966  -3.051  1.00 20.00     0.034 A 
HETATM    8  C5  UNL     1     -36.187  15.548  -4.283  1.00 20.00     0.073 A 
BRANCH   8   9
HETATM    9  C6  UNL     1     -37.534  15.248  -4.663  1.00 20.00     0.288 C 
HETATM   10  O10 UNL     1     -38.003  14.094  -4.713  1.00 20.00    -0.300 OA
ENDBRANCH   8   9
ENDBRANCH   2   4
TORSDOF 2
ENDMDL
MODEL 9
REMARK VINA RESULT:      -3.8     11.894     13.245
REMARK  2 active torsions:
REMARK  status: ('A' for Active; 'I' for Inactive)
REMARK    1  A    between atoms: C5_5  and  C6_6 
REMARK    2  A    between atoms: C7_7  and  N9_9 
ROOT
HETATM    1  C1  UNL     1     -37.113  13.896  -5.261  1.00 20.00     0.079 C 
HETATM    2  C7  UNL     1     -35.827  13.409  -5.766  1.00 20.00     0.252 C 
HETATM    3  N8  UNL     1     -38.132  14.280  -4.861  1.00 20.00    -0.196 NA
ENDROOT
BRANCH   2   4
HETATM    4  N9  UNL     1     -34.994  14.488  -6.252  1.00 20.00    -0.341 N 
HETATM    5  C4  UNL     1     -35.184  15.143  -7.440  1.00 20.00     0.092 A 
HETATM    6  C2  UNL     1     -34.200  16.100  -7.557  1.00 20.00     0.020 A 
HETATM    7  C3  UNL     1     -33.389  16.016  -6.398  1.00 20.00     0.034 A 
HETATM    8  C5  UNL     1     -33.903  15.012  -5.609  1.00 20.00     0.073 A 
BRANCH   8   9
HETATM    9  C6  UNL     1     -33.415  14.562  -4.340  1.00 20.00     0.288 C 
HETATM   10  O10 UNL     1     -32.620  13.611  -4.197  1.00 20.00    -0.300 OA
ENDBRANCH   8   9
ENDBRANCH   2   4
TORSDOF 2
ENDMDL
