MODEL 1
REMARK VINA RESULT:      -4.6      0.000      0.000
REMARK  1 active torsions:
REMARK  status: ('A' for Active; 'I' for Inactive)
REMARK    1  A    between atoms: C3_3  and  C7_7 
ROOT
HETATM    1  C1  UNL     1     -34.732   5.350   3.425  1.00 20.00    -0.030 C 
HETATM    2  C2  UNL     1     -34.907   6.423   4.209  1.00 20.00    -0.025 C 
HETATM    3  C4  UNL     1     -33.465   5.070   2.679  1.00 20.00     0.028 C 
HETATM    4  C5  UNL     1     -32.296   5.978   3.080  1.00 20.00     0.021 C 
HETATM    5  C6  UNL     1     -33.858   7.489   4.426  1.00 20.00     0.018 C 
HETATM    6  C7  UNL     1     -32.730   7.433   3.349  1.00 20.00     0.016 C 
HETATM    7  C8  UNL     1     -33.353   7.374   5.870  1.00 20.00     0.015 C 
HETATM    8  C9  UNL     1     -31.503   8.277   3.727  1.00 20.00     0.023 C 
ENDROOT
BRANCH   6   9
HETATM    9  C3  UNL     1     -33.244   8.037   2.059  1.00 20.00     0.241 C 
HETATM   10  O10 UNL     1     -32.615   8.859   1.400  1.00 20.00    -0.306 OA
ENDBRANCH   6   9
TORSDOF 1
ENDMDL
MODEL 2
REMARK VINA RESULT:      -4.5     11.047     12.133
REMARK  1 active torsions:
REMARK  status: ('A' for Active; 'I' for Inactive)
REMARK    1  A    between atoms: C3_3  and  C7_7 
ROOT
HETATM    1  C1  UNL     1     -32.961  15.545  -5.527  1.00 20.00    -0.030 C 
HETATM    2  C2  UNL     1     -33.303  15.113  -4.305  1.00 20.00    -0.025 C 
HETATM    3  C4  UNL     1     -33.952  16.023  -6.541  1.00 20.00     0.028 C 
HETATM    4  C5  UNL     1     -35.367  16.215  -5.982  1.00 20.00     0.021 C 
HETATM    5  C6  UNL     1     -34.727  15.040  -3.804  1.00 20.00     0.018 C 
HETATM    6  C7  UNL     1     -35.765  15.126  -4.966  1.00 20.00     0.016 C 
HETATM    7  C8  UNL     1     -34.907  16.113  -2.722  1.00 20.00     0.015 C 
HETATM    8  C9  UNL     1     -37.196  15.379  -4.468  1.00 20.00     0.023 C 
ENDROOT
BRANCH   6   9
HETATM    9  C3  UNL     1     -35.825  13.790  -5.677  1.00 20.00     0.241 C 
HETATM   10  O10 UNL     1     -35.863  12.713  -5.091  1.00 20.00    -0.306 OA
ENDBRANCH   6   9
TORSDOF 1
ENDMDL
MODEL 3
REMARK VINA RESULT:      -4.4     10.834     12.342
REMARK  1 active torsions:
REMARK  status: ('A' for Active; 'I' for Inactive)
REMARK    1  A    between atoms: C3_3  and  C7_7 
ROOT
HETATM    1  C1  UNL     1     -33.311  14.937  -4.496  1.00 20.00    -0.030 C 
HETATM    2  C2  UNL     1     -34.442  14.339  -4.099  1.00 20.00    -0.025 C 
HETATM    3  C4  UNL     1     -33.158  15.620  -5.819  1.00 20.00     0.028 C 
HETATM    4  C5  UNL     1     -34.477  15.799  -6.580  1.00 20.00     0.021 C 
HETATM    5  C6  UNL     1     -35.697  14.267  -4.938  1.00 20.00     0.018 C 
HETATM    6  C7  UNL     1     -35.420  14.588  -6.440  1.00 20.00     0.016 C 
HETATM    7  C8  UNL     1     -36.758  15.167  -4.290  1.00 20.00     0.015 C 
HETATM    8  C9  UNL     1     -36.707  14.838  -7.243  1.00 20.00     0.023 C 
ENDROOT
BRANCH   6   9
HETATM    9  C3  UNL     1     -34.774  13.384  -7.094  1.00 20.00     0.241 C 
HETATM   10  O10 UNL     1     -35.053  12.226  -6.803  1.00 20.00    -0.306 OA
ENDBRANCH   6   9
TORSDOF 1
ENDMDL
MODEL 4
REMARK VINA RESULT:      -4.2      1.696      1.919
REMARK  1 active torsions:
REMARK  status: ('A' for Active; 'I' for Inactive)
REMARK    1  A    between atoms: C3_3  and  C7_7 
ROOT
HETATM    1  C1  UNL     1     -34.698   4.505   5.312  1.00 20.00    -0.030 C 
HETATM    2  C2  UNL     1     -34.822   5.803   5.622  1.00 20.00    -0.025 C 
HETATM    3  C4  UNL     1     -33.898   4.006   4.151  1.00 20.00     0.028 C 
HETATM    4  C5  UNL     1     -33.027   5.081   3.491  1.00 20.00     0.021 C 
HETATM    5  C6  UNL     1     -34.184   6.923   4.833  1.00 20.00     0.018 C 
HETATM    6  C7  UNL     1     -33.721   6.456   3.418  1.00 20.00     0.016 C 
HETATM    7  C8  UNL     1     -33.067   7.534   5.689  1.00 20.00     0.015 C 
HETATM    8  C9  UNL     1     -32.792   7.469   2.731  1.00 20.00     0.023 C 
ENDROOT
BRANCH   6   9
HETATM    9  C3  UNL     1     -34.928   6.348   2.510  1.00 20.00     0.241 C 
HETATM   10  O10 UNL     1     -34.863   5.989   1.339  1.00 20.00    -0.306 OA
ENDBRANCH   6   9
TORSDOF 1
ENDMDL
MODEL 5
REMARK VINA RESULT:      -4.2     11.101     12.623
REMARK  1 active torsions:
REMARK  status: ('A' for Active; 'I' for Inactive)
REMARK    1  A    between atoms: C3_3  and  C7_7 
ROOT
HETATM    1  C1  UNL     1     -34.794  16.514  -4.005  1.00 20.00    -0.030 C 
HETATM    2  C2  UNL     1     -35.250  16.872  -5.212  1.00 20.00    -0.025 C 
HETATM    3  C4  UNL     1     -34.062  15.236  -3.743  1.00 20.00     0.028 C 
HETATM    4  C5  UNL     1     -33.656  14.483  -5.015  1.00 20.00     0.021 C 
HETATM    5  C6  UNL     1     -35.098  16.025  -6.455  1.00 20.00     0.018 C 
HETATM    6  C7  UNL     1     -34.730  14.546  -6.120  1.00 20.00     0.016 C 
HETATM    7  C8  UNL     1     -34.099  16.723  -7.388  1.00 20.00     0.015 C 
HETATM    8  C9  UNL     1     -34.256  13.757  -7.349  1.00 20.00     0.023 C 
ENDROOT
BRANCH   6   9
HETATM    9  C3  UNL     1     -35.971  13.823  -5.639  1.00 20.00     0.241 C 
HETATM   10  O10 UNL     1     -35.961  12.672  -5.215  1.00 20.00    -0.306 OA
ENDBRANCH   6   9
TORSDOF 1
ENDMDL
MODEL 6
REMARK VINA RESULT:      -3.9     10.843     12.096
REMARK  1 active torsions:
REMARK  status: ('A' for Active; 'I' for Inactive)
REMARK    1  A    between atoms: C3_3  and  C7_7 
ROOT
HETATM    1  C1  UNL     1     -35.162  16.637  -2.068  1.00 20.00    -0.030 C 
HETATM    2  C2  UNL     1     -36.055  16.239  -2.984  1.00 20.00    -0.025 C 
HETATM    3  C4  UNL     1     -33.725  16.912  -2.380  1.00 20.00     0.028 C 
HETATM    4  C5  UNL     1     -33.412  16.943  -3.881  1.00 20.00     0.021 C 
HETATM    5  C6  UNL     1     -35.722  16.004  -4.440  1.00 20.00     0.018 C 
HETATM    6  C7  UNL     1     -34.185  15.875  -4.679  1.00 20.00     0.016 C 
HETATM    7  C8  UNL     1     -36.394  17.107  -5.267  1.00 20.00     0.015 C 
HETATM    8  C9  UNL     1     -33.804  15.961  -6.165  1.00 20.00     0.023 C 
ENDROOT
BRANCH   6   9
HETATM    9  C3  UNL     1     -33.727  14.502  -4.232  1.00 20.00     0.241 C 
HETATM   10  O10 UNL     1     -34.478  13.538  -4.132  1.00 20.00    -0.306 OA
ENDBRANCH   6   9
TORSDOF 1
ENDMDL
MODEL 7
REMARK VINA RESULT:      -3.9     10.944     12.498
REMARK  1 active torsions:
REMARK  status: ('A' for Active; 'I' for Inactive)
REMARK    1  A    between atoms: C3_3  and  C7_7 
ROOT
HETATM    1  C1  UNL     1     -33.526  16.823  -4.807  1.00 20.00    -0.030 C 
HETATM    2  C2  UNL     1     -34.085  16.622  -6.008  1.00 20.00    -0.025 C 
HETATM    3  C4  UNL     1     -33.670  15.873  -3.660  1.00 20.00     0.028 C 
HETATM    4  C5  UNL     1     -34.298  14.529  -4.044  1.00 20.00     0.021 C 
HETATM    5  C6  UNL     1     -34.938  15.423  -6.351  1.00 20.00     0.018 C 
HETATM    6  C7  UNL     1     -35.433  14.669  -5.077  1.00 20.00     0.016 C 
HETATM    7  C8  UNL     1     -34.153  14.544  -7.334  1.00 20.00     0.015 C 
HETATM    8  C9  UNL     1     -36.019  13.284  -5.395  1.00 20.00     0.023 C 
ENDROOT
BRANCH   6   9
HETATM    9  C3  UNL     1     -36.572  15.446  -4.452  1.00 20.00     0.241 C 
HETATM   10  O10 UNL     1     -37.644  14.939  -4.136  1.00 20.00    -0.306 OA
ENDBRANCH   6   9
TORSDOF 1
ENDMDL
MODEL 8
REMARK VINA RESULT:      -3.9     10.804     12.310
REMARK  1 active torsions:
REMARK  status: ('A' for Active; 'I' for Inactive)
REMARK    1  A    between atoms: C3_3  and  C7_7 
ROOT
HETATM    1  C1  UNL     1     -36.734  16.765  -4.778  1.00 20.00    -0.030 C 
HETATM    2  C2  UNL     1     -36.054  16.484  -5.897  1.00 20.00    -0.025 C 
HETATM    3  C4  UNL     1     -36.287  16.347  -3.412  1.00 20.00     0.028 C 
HETATM    4  C5  UNL     1     -34.860  15.789  -3.371  1.00 20.00     0.021 C 
HETATM    5  C6  UNL     1     -34.761  15.701  -5.924  1.00 20.00     0.018 C 
HETATM    6  C7  UNL     1     -34.520  14.917  -4.596  1.00 20.00     0.016 C 
HETATM    7  C8  UNL     1     -33.627  16.665  -6.297  1.00 20.00     0.015 C 
HETATM    8  C9  UNL     1     -33.084  14.385  -4.471  1.00 20.00     0.023 C 
ENDROOT
BRANCH   6   9
HETATM    9  C3  UNL     1     -35.401  13.685  -4.581  1.00 20.00     0.241 C 
HETATM   10  O10 UNL     1     -35.492  12.907  -5.524  1.00 20.00    -0.306 OA
ENDBRANCH   6   9
TORSDOF 1
ENDMDL
MODEL 9
REMARK VINA RESULT:      -3.8      1.725      3.210
REMARK  1 active torsions:
REMARK  status: ('A' for Active; 'I' for Inactive)
REMARK    1  A    between atoms: C3_3  and  C7_7 
ROOT
HETATM    1  C1  UNL     1     -31.643   8.566   2.856  1.00 20.00    -0.030 C 
HETATM    2  C2  UNL     1     -31.704   7.993   4.066  1.00 20.00    -0.025 C 
HETATM    3  C4  UNL     1     -32.694   8.391   1.805  1.00 20.00     0.028 C 
HETATM    4  C5  UNL     1     -33.968   7.705   2.312  1.00 20.00     0.021 C 
HETATM    5  C6  UNL     1     -32.828   7.089   4.515  1.00 20.00     0.018 C 
HETATM    6  C7  UNL     1     -33.682   6.570   3.315  1.00 20.00     0.016 C 
HETATM    7  C8  UNL     1     -33.638   7.831   5.586  1.00 20.00     0.015 C 
HETATM    8  C9  UNL     1     -35.004   5.926   3.760  1.00 20.00     0.023 C 
ENDROOT
BRANCH   6   9
HETATM    9  C3  UNL     1     -32.924   5.468   2.606  1.00 20.00     0.241 C 
HETATM   10  O10 UNL     1     -33.098   4.275   2.831  1.00 20.00    -0.306 OA
ENDBRANCH   6   9
TORSDOF 1
ENDMDL
