MODEL 1
REMARK VINA RESULT:      -4.1      0.000      0.000
REMARK  4 active torsions:
REMARK  status: ('A' for Active; 'I' for Inactive)
REMARK    1  A    between atoms: C1_1  and  C6_6 
REMARK    2  A    between atoms: C1_1  and  O8_8 
REMARK    3  A    between atoms: C5_5  and  C6_6 
REMARK    4  A    between atoms: C5_5  and  S9_9 
ROOT
HETATM    1  C2  UNL     1     -33.010   4.831   2.617  1.00 20.00     0.021 C 
HETATM    2  C6  UNL     1     -33.319   6.137   3.352  1.00 20.00     0.090 C 
ENDROOT
BRANCH   2   3
HETATM    3  C1  UNL     1     -34.595   6.016   4.172  1.00 20.00     0.263 C 
HETATM    4  O7  UNL     1     -35.720   5.897   3.701  1.00 20.00    -0.265 OA
BRANCH   3   5
HETATM    5  O8  UNL     1     -34.291   6.068   5.502  1.00 20.00    -0.326 OA
HETATM    6  C3  UNL     1     -33.725   7.302   5.959  1.00 20.00     0.213 C 
ENDBRANCH   3   5
ENDBRANCH   2   3
BRANCH   2   7
HETATM    7  C5  UNL     1     -33.350   7.353   2.416  1.00 20.00     0.087 C 
BRANCH   7   8
HETATM    8  S9  UNL     1     -31.847   8.384   2.453  1.00 20.00    -0.173 SA
HETATM    9  C4  UNL     1     -32.199   9.402   1.004  1.00 20.00     0.089 C 
ENDBRANCH   7   8
ENDBRANCH   2   7
TORSDOF 4
ENDMDL
MODEL 2
REMARK VINA RESULT:      -4.0      1.085      2.013
REMARK  4 active torsions:
REMARK  status: ('A' for Active; 'I' for Inactive)
REMARK    1  A    between atoms: C1_1  and  C6_6 
REMARK    2  A    between atoms: C1_1  and  O8_8 
REMARK    3  A    between atoms: C5_5  and  C6_6 
REMARK    4  A    between atoms: C5_5  and  S9_9 
ROOT
HETATM    1  C2  UNL     1     -33.426   7.397   5.663  1.00 20.00     0.021 C 
HETATM    2  C6  UNL     1     -33.950   7.148   4.247  1.00 20.00     0.090 C 
ENDROOT
BRANCH   2   3
HETATM    3  C1  UNL     1     -34.932   5.985   4.222  1.00 20.00     0.263 C 
HETATM    4  O7  UNL     1     -35.951   5.947   3.543  1.00 20.00    -0.265 OA
BRANCH   3   5
HETATM    5  O8  UNL     1     -34.505   5.007   5.072  1.00 20.00    -0.326 OA
HETATM    6  C3  UNL     1     -34.071   3.793   4.449  1.00 20.00     0.213 C 
ENDBRANCH   3   5
ENDBRANCH   2   3
BRANCH   2   7
HETATM    7  C5  UNL     1     -32.823   6.971   3.219  1.00 20.00     0.087 C 
BRANCH   7   8
HETATM    8  S9  UNL     1     -31.654   8.366   3.121  1.00 20.00    -0.173 SA
HETATM    9  C4  UNL     1     -32.180   9.029   1.526  1.00 20.00     0.089 C 
ENDBRANCH   7   8
ENDBRANCH   2   7
TORSDOF 4
ENDMDL
MODEL 3
REMARK VINA RESULT:      -3.9      2.452      3.904
REMARK  4 active torsions:
REMARK  status: ('A' for Active; 'I' for Inactive)
REMARK    1  A    between atoms: C1_1  and  C6_6 
REMARK    2  A    between atoms: C1_1  and  O8_8 
REMARK    3  A    between atoms: C5_5  and  C6_6 
REMARK    4  A    between atoms: C5_5  and  S9_9 
ROOT
HETATM    1  C2  UNL     1     -32.938   4.807   2.669  1.00 20.00     0.021 C 
HETATM    2  C6  UNL     1     -33.754   6.098   2.584  1.00 20.00     0.090 C 
ENDROOT
BRANCH   2   3
HETATM    3  C1  UNL     1     -32.858   7.322   2.710  1.00 20.00     0.263 C 
HETATM    4  O7  UNL     1     -32.187   7.598   3.697  1.00 20.00    -0.265 OA
BRANCH   3   5
HETATM    5  O8  UNL     1     -32.927   8.059   1.562  1.00 20.00    -0.326 OA
HETATM    6  C3  UNL     1     -32.200   9.292   1.575  1.00 20.00     0.213 C 
ENDBRANCH   3   5
ENDBRANCH   2   3
BRANCH   2   7
HETATM    7  C5  UNL     1     -34.919   6.132   3.584  1.00 20.00     0.087 C 
BRANCH   7   8
HETATM    8  S9  UNL     1     -34.599   5.273   5.158  1.00 20.00    -0.173 SA
HETATM    9  C4  UNL     1     -34.138   6.712   6.146  1.00 20.00     0.089 C 
ENDBRANCH   7   8
ENDBRANCH   2   7
TORSDOF 4
ENDMDL
MODEL 4
REMARK VINA RESULT:      -3.9      1.611      2.265
REMARK  4 active torsions:
REMARK  status: ('A' for Active; 'I' for Inactive)
REMARK    1  A    between atoms: C1_1  and  C6_6 
REMARK    2  A    between atoms: C1_1  and  O8_8 
REMARK    3  A    between atoms: C5_5  and  C6_6 
REMARK    4  A    between atoms: C5_5  and  S9_9 
ROOT
HETATM    1  C2  UNL     1     -32.853   7.770   4.637  1.00 20.00     0.021 C 
HETATM    2  C6  UNL     1     -33.264   7.386   3.215  1.00 20.00     0.090 C 
ENDROOT
BRANCH   2   3
HETATM    3  C1  UNL     1     -33.538   5.892   3.107  1.00 20.00     0.263 C 
HETATM    4  O7  UNL     1     -32.817   5.090   2.527  1.00 20.00    -0.265 OA
BRANCH   3   5
HETATM    5  O8  UNL     1     -34.707   5.594   3.747  1.00 20.00    -0.326 OA
HETATM    6  C3  UNL     1     -34.625   4.558   4.731  1.00 20.00     0.213 C 
ENDBRANCH   3   5
ENDBRANCH   2   3
BRANCH   2   7
HETATM    7  C5  UNL     1     -32.261   7.864   2.156  1.00 20.00     0.087 C 
BRANCH   7   8
HETATM    8  S9  UNL     1     -32.491   9.587   1.609  1.00 20.00    -0.173 SA
HETATM    9  C4  UNL     1     -32.843   9.258  -0.131  1.00 20.00     0.089 C 
ENDBRANCH   7   8
ENDBRANCH   2   7
TORSDOF 4
ENDMDL
MODEL 5
REMARK VINA RESULT:      -3.6      2.813      4.442
REMARK  4 active torsions:
REMARK  status: ('A' for Active; 'I' for Inactive)
REMARK    1  A    between atoms: C1_1  and  C6_6 
REMARK    2  A    between atoms: C1_1  and  O8_8 
REMARK    3  A    between atoms: C5_5  and  C6_6 
REMARK    4  A    between atoms: C5_5  and  S9_9 
ROOT
HETATM    1  C2  UNL     1     -33.284   7.655   5.204  1.00 20.00     0.021 C 
HETATM    2  C6  UNL     1     -32.857   7.023   3.879  1.00 20.00     0.090 C 
ENDROOT
BRANCH   2   3
HETATM    3  C1  UNL     1     -32.060   8.006   3.033  1.00 20.00     0.263 C 
HETATM    4  O7  UNL     1     -30.989   8.501   3.360  1.00 20.00    -0.265 OA
BRANCH   3   5
HETATM    5  O8  UNL     1     -32.727   8.250   1.866  1.00 20.00    -0.326 OA
HETATM    6  C3  UNL     1     -32.082   9.154   0.963  1.00 20.00     0.213 C 
ENDBRANCH   3   5
ENDBRANCH   2   3
BRANCH   2   7
HETATM    7  C5  UNL     1     -34.035   6.418   3.101  1.00 20.00     0.087 C 
BRANCH   7   8
HETATM    8  S9  UNL     1     -35.240   5.512   4.125  1.00 20.00    -0.173 SA
HETATM    9  C4  UNL     1     -34.211   4.084   4.529  1.00 20.00     0.089 C 
ENDBRANCH   7   8
ENDBRANCH   2   7
TORSDOF 4
ENDMDL
MODEL 6
REMARK VINA RESULT:      -3.6     11.008     11.860
REMARK  4 active torsions:
REMARK  status: ('A' for Active; 'I' for Inactive)
REMARK    1  A    between atoms: C1_1  and  C6_6 
REMARK    2  A    between atoms: C1_1  and  O8_8 
REMARK    3  A    between atoms: C5_5  and  C6_6 
REMARK    4  A    between atoms: C5_5  and  S9_9 
ROOT
HETATM    1  C2  UNL     1     -33.013  14.663  -4.416  1.00 20.00     0.021 C 
HETATM    2  C6  UNL     1     -34.487  14.415  -4.091  1.00 20.00     0.090 C 
ENDROOT
BRANCH   2   3
HETATM    3  C1  UNL     1     -35.205  13.761  -5.262  1.00 20.00     0.263 C 
HETATM    4  O7  UNL     1     -35.930  12.777  -5.176  1.00 20.00    -0.265 OA
BRANCH   3   5
HETATM    5  O8  UNL     1     -34.910  14.434  -6.413  1.00 20.00    -0.326 OA
HETATM    6  C3  UNL     1     -34.648  13.615  -7.558  1.00 20.00     0.213 C 
ENDBRANCH   3   5
ENDBRANCH   2   3
BRANCH   2   7
HETATM    7  C5  UNL     1     -35.209  15.681  -3.608  1.00 20.00     0.087 C 
BRANCH   7   8
HETATM    8  S9  UNL     1     -34.205  16.779  -2.556  1.00 20.00    -0.173 SA
HETATM    9  C4  UNL     1     -35.395  17.011  -1.218  1.00 20.00     0.089 C 
ENDBRANCH   7   8
ENDBRANCH   2   7
TORSDOF 4
ENDMDL
MODEL 7
REMARK VINA RESULT:      -3.6     11.204     11.997
REMARK  4 active torsions:
REMARK  status: ('A' for Active; 'I' for Inactive)
REMARK    1  A    between atoms: C1_1  and  C6_6 
REMARK    2  A    between atoms: C1_1  and  O8_8 
REMARK    3  A    between atoms: C5_5  and  C6_6 
REMARK    4  A    between atoms: C5_5  and  S9_9 
ROOT
HETATM    1  C2  UNL     1     -36.655  15.939  -3.830  1.00 20.00     0.021 C 
HETATM    2  C6  UNL     1     -35.760  15.037  -4.683  1.00 20.00     0.090 C 
ENDROOT
BRANCH   2   3
HETATM    3  C1  UNL     1     -36.515  13.803  -5.155  1.00 20.00     0.263 C 
HETATM    4  O7  UNL     1     -37.729  13.656  -5.082  1.00 20.00    -0.265 OA
BRANCH   3   5
HETATM    5  O8  UNL     1     -35.632  12.894  -5.663  1.00 20.00    -0.326 OA
HETATM    6  C3  UNL     1     -35.335  13.033  -7.057  1.00 20.00     0.213 C 
ENDBRANCH   3   5
ENDBRANCH   2   3
BRANCH   2   7
HETATM    7  C5  UNL     1     -34.444  14.673  -3.982  1.00 20.00     0.087 C 
BRANCH   7   8
HETATM    8  S9  UNL     1     -32.938  15.202  -4.862  1.00 20.00    -0.173 SA
HETATM    9  C4  UNL     1     -33.719  16.290  -6.074  1.00 20.00     0.089 C 
ENDBRANCH   7   8
ENDBRANCH   2   7
TORSDOF 4
ENDMDL
MODEL 8
REMARK VINA RESULT:      -3.6      3.082      4.582
REMARK  4 active torsions:
REMARK  status: ('A' for Active; 'I' for Inactive)
REMARK    1  A    between atoms: C1_1  and  C6_6 
REMARK    2  A    between atoms: C1_1  and  O8_8 
REMARK    3  A    between atoms: C5_5  and  C6_6 
REMARK    4  A    between atoms: C5_5  and  S9_9 
ROOT
HETATM    1  C2  UNL     1     -31.671   8.327   4.024  1.00 20.00     0.021 C 
HETATM    2  C6  UNL     1     -31.963   7.561   2.732  1.00 20.00     0.090 C 
ENDROOT
BRANCH   2   3
HETATM    3  C1  UNL     1     -31.969   8.495   1.530  1.00 20.00     0.263 C 
HETATM    4  O7  UNL     1     -31.153   8.464   0.617  1.00 20.00    -0.265 OA
BRANCH   3   5
HETATM    5  O8  UNL     1     -33.014   9.368   1.635  1.00 20.00    -0.326 OA
HETATM    6  C3  UNL     1     -32.740  10.712   1.224  1.00 20.00     0.213 C 
ENDBRANCH   3   5
ENDBRANCH   2   3
BRANCH   2   7
HETATM    7  C5  UNL     1     -33.246   6.722   2.815  1.00 20.00     0.087 C 
BRANCH   7   8
HETATM    8  S9  UNL     1     -34.046   6.711   4.453  1.00 20.00    -0.173 SA
HETATM    9  C4  UNL     1     -34.656   5.012   4.427  1.00 20.00     0.089 C 
ENDBRANCH   7   8
ENDBRANCH   2   7
TORSDOF 4
ENDMDL
MODEL 9
REMARK VINA RESULT:      -3.5     11.275     12.178
REMARK  4 active torsions:
REMARK  status: ('A' for Active; 'I' for Inactive)
REMARK    1  A    between atoms: C1_1  and  C6_6 
REMARK    2  A    between atoms: C1_1  and  O8_8 
REMARK    3  A    between atoms: C5_5  and  C6_6 
REMARK    4  A    between atoms: C5_5  and  S9_9 
ROOT
HETATM    1  C2  UNL     1     -33.825  14.213  -4.231  1.00 20.00     0.021 C 
HETATM    2  C6  UNL     1     -35.270  14.698  -4.364  1.00 20.00     0.090 C 
ENDROOT
BRANCH   2   3
HETATM    3  C1  UNL     1     -36.129  13.672  -5.090  1.00 20.00     0.263 C 
HETATM    4  O7  UNL     1     -37.351  13.621  -5.035  1.00 20.00    -0.265 OA
BRANCH   3   5
HETATM    5  O8  UNL     1     -35.327  12.823  -5.797  1.00 20.00    -0.326 OA
HETATM    6  C3  UNL     1     -35.371  12.974  -7.220  1.00 20.00     0.213 C 
ENDBRANCH   3   5
ENDBRANCH   2   3
BRANCH   2   7
HETATM    7  C5  UNL     1     -35.373  16.089  -5.004  1.00 20.00     0.087 C 
BRANCH   7   8
HETATM    8  S9  UNL     1     -33.780  16.815  -5.513  1.00 20.00    -0.173 SA
HETATM    9  C4  UNL     1     -33.865  16.409  -7.271  1.00 20.00     0.089 C 
ENDBRANCH   7   8
ENDBRANCH   2   7
TORSDOF 4
ENDMDL
