MODEL 1
REMARK VINA RESULT:      -4.2      0.000      0.000
REMARK  4 active torsions:
REMARK  status: ('A' for Active; 'I' for Inactive)
REMARK    1  A    between atoms: C3_3  and  C4_4 
REMARK    2  A    between atoms: C4_4  and  N7_7 
REMARK    3  A    between atoms: C5_5  and  C6_6 
REMARK    4  A    between atoms: C5_5  and  N7_7 
ROOT
HETATM    1  C2  UNL     1     -32.939   5.714   2.556  1.00 20.00     0.309 C 
HETATM    2  N7  UNL     1     -33.317   7.055   3.001  1.00 20.00     0.085 N 
ENDROOT
BRANCH   2   3
HETATM    3  C4  UNL     1     -33.906   7.002   4.339  1.00 20.00     0.271 C 
BRANCH   3   4
HETATM    4  C3  UNL     1     -34.855   5.821   4.508  1.00 20.00     0.026 C 
HETATM    5  C1  UNL     1     -34.583   5.024   5.775  1.00 20.00     0.007 C 
ENDBRANCH   3   4
ENDBRANCH   2   3
BRANCH   2   6
HETATM    6  C5  UNL     1     -32.155   7.944   2.989  1.00 20.00     0.286 C 
BRANCH   6   7
HETATM    7  C6  UNL     1     -31.846   8.482   1.602  1.00 20.00     0.144 C 
HETATM    8 CL8  UNL     1     -32.593  10.077   1.345  1.00 20.00    -0.129 Cl
ENDBRANCH   6   7
ENDBRANCH   2   6
TORSDOF 4
ENDMDL
MODEL 2
REMARK VINA RESULT:      -4.2      2.668      4.474
REMARK  4 active torsions:
REMARK  status: ('A' for Active; 'I' for Inactive)
REMARK    1  A    between atoms: C3_3  and  C4_4 
REMARK    2  A    between atoms: C4_4  and  N7_7 
REMARK    3  A    between atoms: C5_5  and  C6_6 
REMARK    4  A    between atoms: C5_5  and  N7_7 
ROOT
HETATM    1  C2  UNL     1     -33.237   7.511   5.087  1.00 20.00     0.309 C 
HETATM    2  N7  UNL     1     -33.205   7.573   3.626  1.00 20.00     0.085 N 
ENDROOT
BRANCH   2   3
HETATM    3  C4  UNL     1     -31.875   7.963   3.160  1.00 20.00     0.271 C 
BRANCH   3   4
HETATM    4  C3  UNL     1     -31.874   8.382   1.694  1.00 20.00     0.026 C 
HETATM    5  C1  UNL     1     -32.516   9.744   1.471  1.00 20.00     0.007 C 
ENDBRANCH   3   4
ENDBRANCH   2   3
BRANCH   2   6
HETATM    6  C5  UNL     1     -33.592   6.285   3.051  1.00 20.00     0.286 C 
BRANCH   6   7
HETATM    7  C6  UNL     1     -34.779   5.659   3.763  1.00 20.00     0.144 C 
HETATM    8 CL8  UNL     1     -34.348   4.091   4.487  1.00 20.00    -0.129 Cl
ENDBRANCH   6   7
ENDBRANCH   2   6
TORSDOF 4
ENDMDL
MODEL 3
REMARK VINA RESULT:      -4.1      1.711      2.197
REMARK  4 active torsions:
REMARK  status: ('A' for Active; 'I' for Inactive)
REMARK    1  A    between atoms: C3_3  and  C4_4 
REMARK    2  A    between atoms: C4_4  and  N7_7 
REMARK    3  A    between atoms: C5_5  and  C6_6 
REMARK    4  A    between atoms: C5_5  and  N7_7 
ROOT
HETATM    1  C2  UNL     1     -34.037   3.999   4.139  1.00 20.00     0.309 C 
HETATM    2  N7  UNL     1     -34.233   5.238   3.386  1.00 20.00     0.085 N 
ENDROOT
BRANCH   2   3
HETATM    3  C4  UNL     1     -34.871   6.251   4.226  1.00 20.00     0.271 C 
BRANCH   3   4
HETATM    4  C3  UNL     1     -34.417   6.170   5.679  1.00 20.00     0.026 C 
HETATM    5  C1  UNL     1     -33.659   7.410   6.129  1.00 20.00     0.007 C 
ENDBRANCH   3   4
ENDBRANCH   2   3
BRANCH   2   6
HETATM    6  C5  UNL     1     -32.956   5.731   2.871  1.00 20.00     0.286 C 
BRANCH   6   7
HETATM    7  C6  UNL     1     -33.001   7.205   2.509  1.00 20.00     0.144 C 
HETATM    8 CL8  UNL     1     -31.658   8.099   3.261  1.00 20.00    -0.129 Cl
ENDBRANCH   6   7
ENDBRANCH   2   6
TORSDOF 4
ENDMDL
MODEL 4
REMARK VINA RESULT:      -4.1      0.886      1.067
REMARK  4 active torsions:
REMARK  status: ('A' for Active; 'I' for Inactive)
REMARK    1  A    between atoms: C3_3  and  C4_4 
REMARK    2  A    between atoms: C4_4  and  N7_7 
REMARK    3  A    between atoms: C5_5  and  C6_6 
REMARK    4  A    between atoms: C5_5  and  N7_7 
ROOT
HETATM    1  C2  UNL     1     -32.927   5.172   2.609  1.00 20.00     0.309 C 
HETATM    2  N7  UNL     1     -33.763   6.344   2.870  1.00 20.00     0.085 N 
ENDROOT
BRANCH   2   3
HETATM    3  C4  UNL     1     -34.950   5.964   3.636  1.00 20.00     0.271 C 
BRANCH   3   4
HETATM    4  C3  UNL     1     -34.715   4.726   4.494  1.00 20.00     0.026 C 
HETATM    5  C1  UNL     1     -34.591   5.052   5.976  1.00 20.00     0.007 C 
ENDBRANCH   3   4
ENDBRANCH   2   3
BRANCH   2   6
HETATM    6  C5  UNL     1     -33.000   7.367   3.583  1.00 20.00     0.286 C 
BRANCH   6   7
HETATM    7  C6  UNL     1     -31.886   7.961   2.737  1.00 20.00     0.144 C 
HETATM    8 CL8  UNL     1     -32.538   8.986   1.436  1.00 20.00    -0.129 Cl
ENDBRANCH   6   7
ENDBRANCH   2   6
TORSDOF 4
ENDMDL
MODEL 5
REMARK VINA RESULT:      -4.1      2.158      4.122
REMARK  4 active torsions:
REMARK  status: ('A' for Active; 'I' for Inactive)
REMARK    1  A    between atoms: C3_3  and  C4_4 
REMARK    2  A    between atoms: C4_4  and  N7_7 
REMARK    3  A    between atoms: C5_5  and  C6_6 
REMARK    4  A    between atoms: C5_5  and  N7_7 
ROOT
HETATM    1  C2  UNL     1     -33.024   4.803   2.608  1.00 20.00     0.309 C 
HETATM    2  N7  UNL     1     -33.383   5.974   3.409  1.00 20.00     0.085 N 
ENDROOT
BRANCH   2   3
HETATM    3  C4  UNL     1     -33.419   7.173   2.573  1.00 20.00     0.271 C 
BRANCH   3   4
HETATM    4  C3  UNL     1     -32.125   7.974   2.651  1.00 20.00     0.026 C 
HETATM    5  C1  UNL     1     -31.842   8.761   1.380  1.00 20.00     0.007 C 
ENDBRANCH   3   4
ENDBRANCH   2   3
BRANCH   2   6
HETATM    6  C5  UNL     1     -34.674   5.768   4.065  1.00 20.00     0.286 C 
BRANCH   6   7
HETATM    7  C6  UNL     1     -34.579   5.844   5.579  1.00 20.00     0.144 C 
HETATM    8 CL8  UNL     1     -33.739   7.324   6.102  1.00 20.00    -0.129 Cl
ENDBRANCH   6   7
ENDBRANCH   2   6
TORSDOF 4
ENDMDL
MODEL 6
REMARK VINA RESULT:      -4.1      1.000      1.370
REMARK  4 active torsions:
REMARK  status: ('A' for Active; 'I' for Inactive)
REMARK    1  A    between atoms: C3_3  and  C4_4 
REMARK    2  A    between atoms: C4_4  and  N7_7 
REMARK    3  A    between atoms: C5_5  and  C6_6 
REMARK    4  A    between atoms: C5_5  and  N7_7 
ROOT
HETATM    1  C2  UNL     1     -31.414   8.244   3.766  1.00 20.00     0.309 C 
HETATM    2  N7  UNL     1     -32.430   7.360   3.195  1.00 20.00     0.085 N 
ENDROOT
BRANCH   2   3
HETATM    3  C4  UNL     1     -33.517   7.149   4.149  1.00 20.00     0.271 C 
BRANCH   3   4
HETATM    4  C3  UNL     1     -34.393   5.958   3.776  1.00 20.00     0.026 C 
HETATM    5  C1  UNL     1     -34.731   5.079   4.971  1.00 20.00     0.007 C 
ENDBRANCH   3   4
ENDBRANCH   2   3
BRANCH   2   6
HETATM    6  C5  UNL     1     -32.947   7.917   1.944  1.00 20.00     0.286 C 
BRANCH   6   7
HETATM    7  C6  UNL     1     -31.981   8.893   1.296  1.00 20.00     0.144 C 
HETATM    8 CL8  UNL     1     -32.715  10.504   1.109  1.00 20.00    -0.129 Cl
ENDBRANCH   6   7
ENDBRANCH   2   6
TORSDOF 4
ENDMDL
MODEL 7
REMARK VINA RESULT:      -4.0      1.081      1.550
REMARK  4 active torsions:
REMARK  status: ('A' for Active; 'I' for Inactive)
REMARK    1  A    between atoms: C3_3  and  C4_4 
REMARK    2  A    between atoms: C4_4  and  N7_7 
REMARK    3  A    between atoms: C5_5  and  C6_6 
REMARK    4  A    between atoms: C5_5  and  N7_7 
ROOT
HETATM    1  C2  UNL     1     -33.459   7.572   5.524  1.00 20.00     0.309 C 
HETATM    2  N7  UNL     1     -32.944   6.999   4.281  1.00 20.00     0.085 N 
ENDROOT
BRANCH   2   3
HETATM    3  C4  UNL     1     -34.044   6.511   3.449  1.00 20.00     0.271 C 
BRANCH   3   4
HETATM    4  C3  UNL     1     -34.996   5.603   4.219  1.00 20.00     0.026 C 
HETATM    5  C1  UNL     1     -34.408   4.225   4.486  1.00 20.00     0.007 C 
ENDBRANCH   3   4
ENDBRANCH   2   3
BRANCH   2   6
HETATM    6  C5  UNL     1     -32.151   7.988   3.552  1.00 20.00     0.286 C 
BRANCH   6   7
HETATM    7  C6  UNL     1     -32.527   8.070   2.082  1.00 20.00     0.144 C 
HETATM    8 CL8  UNL     1     -32.334   9.726   1.455  1.00 20.00    -0.129 Cl
ENDBRANCH   6   7
ENDBRANCH   2   6
TORSDOF 4
ENDMDL
MODEL 8
REMARK VINA RESULT:      -4.0      2.353      4.557
REMARK  4 active torsions:
REMARK  status: ('A' for Active; 'I' for Inactive)
REMARK    1  A    between atoms: C3_3  and  C4_4 
REMARK    2  A    between atoms: C4_4  and  N7_7 
REMARK    3  A    between atoms: C5_5  and  C6_6 
REMARK    4  A    between atoms: C5_5  and  N7_7 
ROOT
HETATM    1  C2  UNL     1     -31.416   8.320   3.803  1.00 20.00     0.309 C 
HETATM    2  N7  UNL     1     -32.487   8.016   2.855  1.00 20.00     0.085 N 
ENDROOT
BRANCH   2   3
HETATM    3  C4  UNL     1     -32.041   8.261   1.484  1.00 20.00     0.271 C 
BRANCH   3   4
HETATM    4  C3  UNL     1     -32.466   9.633   0.972  1.00 20.00     0.026 C 
HETATM    5  C1  UNL     1     -33.134   9.571  -0.393  1.00 20.00     0.007 C 
ENDBRANCH   3   4
ENDBRANCH   2   3
BRANCH   2   6
HETATM    6  C5  UNL     1     -32.928   6.629   3.009  1.00 20.00     0.286 C 
BRANCH   6   7
HETATM    7  C6  UNL     1     -34.259   6.516   3.733  1.00 20.00     0.144 C 
HETATM    8 CL8  UNL     1     -34.062   6.737   5.488  1.00 20.00    -0.129 Cl
ENDBRANCH   6   7
ENDBRANCH   2   6
TORSDOF 4
ENDMDL
MODEL 9
REMARK VINA RESULT:      -3.7      2.710      3.298
REMARK  4 active torsions:
REMARK  status: ('A' for Active; 'I' for Inactive)
REMARK    1  A    between atoms: C3_3  and  C4_4 
REMARK    2  A    between atoms: C4_4  and  N7_7 
REMARK    3  A    between atoms: C5_5  and  C6_6 
REMARK    4  A    between atoms: C5_5  and  N7_7 
ROOT
HETATM    1  C2  UNL     1     -32.364   8.230   1.861  1.00 20.00     0.309 C 
HETATM    2  N7  UNL     1     -32.408   7.161   2.860  1.00 20.00     0.085 N 
ENDROOT
BRANCH   2   3
HETATM    3  C4  UNL     1     -32.499   7.724   4.206  1.00 20.00     0.271 C 
BRANCH   3   4
HETATM    4  C3  UNL     1     -33.901   7.601   4.793  1.00 20.00     0.026 C 
HETATM    5  C1  UNL     1     -33.901   7.024   6.201  1.00 20.00     0.007 C 
ENDBRANCH   3   4
ENDBRANCH   2   3
BRANCH   2   6
HETATM    6  C5  UNL     1     -33.536   6.267   2.602  1.00 20.00     0.286 C 
BRANCH   6   7
HETATM    7  C6  UNL     1     -33.180   4.804   2.806  1.00 20.00     0.144 C 
HETATM    8 CL8  UNL     1     -34.145   4.079   4.115  1.00 20.00    -0.129 Cl
ENDBRANCH   6   7
ENDBRANCH   2   6
TORSDOF 4
ENDMDL
