MODEL 1
REMARK VINA RESULT:      -5.0      0.000      0.000
REMARK  1 active torsions:
REMARK  status: ('A' for Active; 'I' for Inactive)
REMARK    1  A    between atoms: C3_3  and  C7_7 
ROOT
HETATM    1  C1  UNL     1     -33.810   7.275   5.996  1.00 20.00    -0.030 C 
HETATM    2  C2  UNL     1     -33.041   7.657   4.967  1.00 20.00    -0.025 C 
HETATM    3  C4  UNL     1     -34.623   6.018   5.994  1.00 20.00     0.028 C 
HETATM    4  C5  UNL     1     -34.260   5.074   4.844  1.00 20.00     0.021 C 
HETATM    5  C6  UNL     1     -32.928   6.883   3.673  1.00 20.00     0.018 C 
HETATM    6  C7  UNL     1     -34.057   5.817   3.506  1.00 20.00     0.016 C 
HETATM    7  C8  UNL     1     -32.838   7.856   2.491  1.00 20.00     0.015 C 
HETATM    8  C9  UNL     1     -35.390   6.410   3.014  1.00 20.00     0.023 C 
ENDROOT
BRANCH   6   9
HETATM    9  C3  UNL     1     -33.619   4.782   2.498  1.00 20.00     0.241 C 
HETATM   10  O10 UNL     1     -32.505   4.271   2.494  1.00 20.00    -0.306 OA
ENDBRANCH   6   9
TORSDOF 1
ENDMDL
MODEL 2
REMARK VINA RESULT:      -4.4      1.675      2.930
REMARK  1 active torsions:
REMARK  status: ('A' for Active; 'I' for Inactive)
REMARK    1  A    between atoms: C3_3  and  C7_7 
ROOT
HETATM    1  C1  UNL     1     -34.521   4.438   4.608  1.00 20.00    -0.030 C 
HETATM    2  C2  UNL     1     -34.232   5.345   5.551  1.00 20.00    -0.025 C 
HETATM    3  C4  UNL     1     -34.008   4.519   3.203  1.00 20.00     0.028 C 
HETATM    4  C5  UNL     1     -32.893   5.556   3.034  1.00 20.00     0.021 C 
HETATM    5  C6  UNL     1     -33.381   6.570   5.304  1.00 20.00     0.018 C 
HETATM    6  C7  UNL     1     -33.187   6.873   3.784  1.00 20.00     0.016 C 
HETATM    7  C8  UNL     1     -33.945   7.762   6.088  1.00 20.00     0.015 C 
HETATM    8  C9  UNL     1     -34.386   7.598   3.145  1.00 20.00     0.023 C 
ENDROOT
BRANCH   6   9
HETATM    9  C3  UNL     1     -31.973   7.753   3.603  1.00 20.00     0.241 C 
HETATM   10  O10 UNL     1     -31.798   8.472   2.626  1.00 20.00    -0.306 OA
ENDBRANCH   6   9
TORSDOF 1
ENDMDL
MODEL 3
REMARK VINA RESULT:      -4.4      1.113      1.792
REMARK  1 active torsions:
REMARK  status: ('A' for Active; 'I' for Inactive)
REMARK    1  A    between atoms: C3_3  and  C7_7 
ROOT
HETATM    1  C1  UNL     1     -32.735   8.019   4.549  1.00 20.00    -0.030 C 
HETATM    2  C2  UNL     1     -32.497   7.202   3.514  1.00 20.00    -0.025 C 
HETATM    3  C4  UNL     1     -33.650   7.667   5.681  1.00 20.00     0.028 C 
HETATM    4  C5  UNL     1     -34.042   6.187   5.694  1.00 20.00     0.021 C 
HETATM    5  C6  UNL     1     -33.144   5.845   3.350  1.00 20.00     0.018 C 
HETATM    6  C7  UNL     1     -34.378   5.648   4.287  1.00 20.00     0.016 C 
HETATM    7  C8  UNL     1     -33.464   5.597   1.871  1.00 20.00     0.015 C 
HETATM    8  C9  UNL     1     -35.663   6.307   3.753  1.00 20.00     0.023 C 
ENDROOT
BRANCH   6   9
HETATM    9  C3  UNL     1     -34.653   4.172   4.443  1.00 20.00     0.241 C 
HETATM   10  O10 UNL     1     -33.777   3.314   4.418  1.00 20.00    -0.306 OA
ENDBRANCH   6   9
TORSDOF 1
ENDMDL
MODEL 4
REMARK VINA RESULT:      -4.3     11.909     12.525
REMARK  1 active torsions:
REMARK  status: ('A' for Active; 'I' for Inactive)
REMARK    1  A    between atoms: C3_3  and  C7_7 
ROOT
HETATM    1  C1  UNL     1     -35.673  16.778  -2.747  1.00 20.00    -0.030 C 
HETATM    2  C2  UNL     1     -34.564  16.046  -2.920  1.00 20.00    -0.025 C 
HETATM    3  C4  UNL     1     -36.917  16.591  -3.560  1.00 20.00     0.028 C 
HETATM    4  C5  UNL     1     -36.901  15.303  -4.387  1.00 20.00     0.021 C 
HETATM    5  C6  UNL     1     -34.425  14.970  -3.973  1.00 20.00     0.018 C 
HETATM    6  C7  UNL     1     -35.538  15.046  -5.065  1.00 20.00     0.016 C 
HETATM    7  C8  UNL     1     -33.006  14.993  -4.556  1.00 20.00     0.015 C 
HETATM    8  C9  UNL     1     -35.267  16.112  -6.143  1.00 20.00     0.023 C 
ENDROOT
BRANCH   6   9
HETATM    9  C3  UNL     1     -35.645  13.710  -5.761  1.00 20.00     0.241 C 
HETATM   10  O10 UNL     1     -35.917  12.665  -5.180  1.00 20.00    -0.306 OA
ENDBRANCH   6   9
TORSDOF 1
ENDMDL
MODEL 5
REMARK VINA RESULT:      -4.2      1.600      2.821
REMARK  1 active torsions:
REMARK  status: ('A' for Active; 'I' for Inactive)
REMARK    1  A    between atoms: C3_3  and  C7_7 
ROOT
HETATM    1  C1  UNL     1     -34.293   5.679   5.704  1.00 20.00    -0.030 C 
HETATM    2  C2  UNL     1     -34.256   5.060   4.516  1.00 20.00    -0.025 C 
HETATM    3  C4  UNL     1     -34.052   7.147   5.876  1.00 20.00     0.028 C 
HETATM    4  C5  UNL     1     -34.059   7.912   4.550  1.00 20.00     0.021 C 
HETATM    5  C6  UNL     1     -33.936   5.762   3.216  1.00 20.00     0.018 C 
HETATM    6  C7  UNL     1     -33.296   7.170   3.430  1.00 20.00     0.016 C 
HETATM    7  C8  UNL     1     -33.088   4.845   2.325  1.00 20.00     0.015 C 
HETATM    8  C9  UNL     1     -31.792   7.117   3.752  1.00 20.00     0.023 C 
ENDROOT
BRANCH   6   9
HETATM    9  C3  UNL     1     -33.466   7.991   2.174  1.00 20.00     0.241 C 
HETATM   10  O10 UNL     1     -32.571   8.671   1.685  1.00 20.00    -0.306 OA
ENDBRANCH   6   9
TORSDOF 1
ENDMDL
MODEL 6
REMARK VINA RESULT:      -4.1     12.049     13.003
REMARK  1 active torsions:
REMARK  status: ('A' for Active; 'I' for Inactive)
REMARK    1  A    between atoms: C3_3  and  C7_7 
ROOT
HETATM    1  C1  UNL     1     -33.288  16.484  -4.270  1.00 20.00    -0.030 C 
HETATM    2  C2  UNL     1     -33.036  15.826  -5.410  1.00 20.00    -0.025 C 
HETATM    3  C4  UNL     1     -34.546  16.306  -3.478  1.00 20.00     0.028 C 
HETATM    4  C5  UNL     1     -35.369  15.096  -3.929  1.00 20.00     0.021 C 
HETATM    5  C6  UNL     1     -34.001  14.852  -6.047  1.00 20.00     0.018 C 
HETATM    6  C7  UNL     1     -35.446  14.967  -5.465  1.00 20.00     0.016 C 
HETATM    7  C8  UNL     1     -33.953  14.995  -7.573  1.00 20.00     0.015 C 
HETATM    8  C9  UNL     1     -36.255  16.133  -6.061  1.00 20.00     0.023 C 
ENDROOT
BRANCH   6   9
HETATM    9  C3  UNL     1     -36.202  13.692  -5.755  1.00 20.00     0.241 C 
HETATM   10  O10 UNL     1     -35.928  12.612  -5.243  1.00 20.00    -0.306 OA
ENDBRANCH   6   9
TORSDOF 1
ENDMDL
MODEL 7
REMARK VINA RESULT:      -4.0     11.652     13.272
REMARK  1 active torsions:
REMARK  status: ('A' for Active; 'I' for Inactive)
REMARK    1  A    between atoms: C3_3  and  C7_7 
ROOT
HETATM    1  C1  UNL     1     -33.943  17.417  -6.164  1.00 20.00    -0.030 C 
HETATM    2  C2  UNL     1     -34.600  17.413  -4.996  1.00 20.00    -0.025 C 
HETATM    3  C4  UNL     1     -33.683  16.179  -6.966  1.00 20.00     0.028 C 
HETATM    4  C5  UNL     1     -34.490  14.972  -6.480  1.00 20.00     0.021 C 
HETATM    5  C6  UNL     1     -35.127  16.160  -4.335  1.00 20.00     0.018 C 
HETATM    6  C7  UNL     1     -34.518  14.855  -4.940  1.00 20.00     0.016 C 
HETATM    7  C8  UNL     1     -34.947  16.259  -2.814  1.00 20.00     0.015 C 
HETATM    8  C9  UNL     1     -33.113  14.528  -4.402  1.00 20.00     0.023 C 
ENDROOT
BRANCH   6   9
HETATM    9  C3  UNL     1     -35.417  13.688  -4.611  1.00 20.00     0.241 C 
HETATM   10  O10 UNL     1     -35.670  12.786  -5.402  1.00 20.00    -0.306 OA
ENDBRANCH   6   9
TORSDOF 1
ENDMDL
MODEL 8
REMARK VINA RESULT:      -4.0     11.757     13.158
REMARK  1 active torsions:
REMARK  status: ('A' for Active; 'I' for Inactive)
REMARK    1  A    between atoms: C3_3  and  C7_7 
ROOT
HETATM    1  C1  UNL     1     -32.934  15.701  -5.384  1.00 20.00    -0.030 C 
HETATM    2  C2  UNL     1     -33.778  15.887  -6.409  1.00 20.00    -0.025 C 
HETATM    3  C4  UNL     1     -33.266  14.868  -4.185  1.00 20.00     0.028 C 
HETATM    4  C5  UNL     1     -34.523  14.015  -4.380  1.00 20.00     0.021 C 
HETATM    5  C6  UNL     1     -35.172  15.304  -6.463  1.00 20.00     0.018 C 
HETATM    6  C7  UNL     1     -35.666  14.789  -5.073  1.00 20.00     0.016 C 
HETATM    7  C8  UNL     1     -36.132  16.311  -7.108  1.00 20.00     0.015 C 
HETATM    8  C9  UNL     1     -36.188  15.910  -4.156  1.00 20.00     0.023 C 
ENDROOT
BRANCH   6   9
HETATM    9  C3  UNL     1     -36.792  13.805  -5.279  1.00 20.00     0.241 C 
HETATM   10  O10 UNL     1     -37.946  14.013  -4.919  1.00 20.00    -0.306 OA
ENDBRANCH   6   9
TORSDOF 1
ENDMDL
MODEL 9
REMARK VINA RESULT:      -4.0     11.744     12.923
REMARK  1 active torsions:
REMARK  status: ('A' for Active; 'I' for Inactive)
REMARK    1  A    between atoms: C3_3  and  C7_7 
ROOT
HETATM    1  C1  UNL     1     -35.703  16.322  -3.860  1.00 20.00    -0.030 C 
HETATM    2  C2  UNL     1     -34.776  15.401  -3.561  1.00 20.00    -0.025 C 
HETATM    3  C4  UNL     1     -36.347  16.434  -5.207  1.00 20.00     0.028 C 
HETATM    4  C5  UNL     1     -36.072  15.223  -6.102  1.00 20.00     0.021 C 
HETATM    5  C6  UNL     1     -34.251  14.388  -4.552  1.00 20.00     0.018 C 
HETATM    6  C7  UNL     1     -34.604  14.749  -6.030  1.00 20.00     0.016 C 
HETATM    7  C8  UNL     1     -32.748  14.171  -4.328  1.00 20.00     0.015 C 
HETATM    8  C9  UNL     1     -33.669  15.808  -6.642  1.00 20.00     0.023 C 
ENDROOT
BRANCH   6   9
HETATM    9  C3  UNL     1     -34.507  13.508  -6.883  1.00 20.00     0.241 C 
HETATM   10  O10 UNL     1     -35.063  12.451  -6.605  1.00 20.00    -0.306 OA
ENDBRANCH   6   9
TORSDOF 1
ENDMDL
