MODEL 1
REMARK VINA RESULT:      -4.8      0.000      0.000
REMARK  3 active torsions:
REMARK  status: ('A' for Active; 'I' for Inactive)
REMARK    1  A    between atoms: C1_1  and  N8_8 
REMARK    2  A    between atoms: C6_6  and  C7_7 
REMARK    3  A    between atoms: C6_6  and  N8_8 
ROOT
HETATM    1  C2  UNL     1     -32.974   4.700   2.462  1.00 20.00     0.033 C 
HETATM    2  C6  UNL     1     -33.102   5.903   3.399  1.00 20.00     0.087 C 
ENDROOT
BRANCH   2   3
HETATM    3  C7  UNL     1     -34.280   5.819   4.425  1.00 20.00    -0.031 C 
HETATM    4  C3  UNL     1     -34.404   4.417   5.052  1.00 20.00     0.016 C 
HETATM    5  C4  UNL     1     -34.079   6.845   5.558  1.00 20.00     0.016 C 
HETATM    6  C5  UNL     1     -35.612   6.157   3.720  1.00 20.00     0.016 C 
ENDBRANCH   2   3
BRANCH   2   7
HETATM    7  N8  UNL     1     -33.164   7.112   2.602  1.00 20.00    -0.363 N 
HETATM    8  H24 UNL     1     -33.984   7.267   2.026  1.00 20.00     0.162 HD
BRANCH   7   9
HETATM    9  C1  UNL     1     -32.167   8.058   2.589  1.00 20.00     0.348 C 
HETATM   10  O9  UNL     1     -31.386   8.342   3.489  1.00 20.00    -0.284 OA
ENDBRANCH   7   9
ENDBRANCH   2   7
TORSDOF 3
ENDMDL
MODEL 2
REMARK VINA RESULT:      -4.7      1.092      2.034
REMARK  3 active torsions:
REMARK  status: ('A' for Active; 'I' for Inactive)
REMARK    1  A    between atoms: C1_1  and  N8_8 
REMARK    2  A    between atoms: C6_6  and  C7_7 
REMARK    3  A    between atoms: C6_6  and  N8_8 
ROOT
HETATM    1  C2  UNL     1     -33.418   7.514   5.801  1.00 20.00     0.033 C 
HETATM    2  C6  UNL     1     -33.627   7.160   4.327  1.00 20.00     0.087 C 
ENDROOT
BRANCH   2   3
HETATM    3  C7  UNL     1     -34.319   5.781   4.071  1.00 20.00    -0.031 C 
HETATM    4  C3  UNL     1     -33.522   4.906   3.085  1.00 20.00     0.016 C 
HETATM    5  C4  UNL     1     -34.476   5.005   5.395  1.00 20.00     0.016 C 
HETATM    6  C5  UNL     1     -35.733   6.005   3.492  1.00 20.00     0.016 C 
ENDBRANCH   2   3
BRANCH   2   7
HETATM    7  N8  UNL     1     -32.358   7.266   3.637  1.00 20.00    -0.363 N 
HETATM    8  H24 UNL     1     -31.658   6.552   3.804  1.00 20.00     0.162 HD
BRANCH   7   9
HETATM    9  C1  UNL     1     -32.057   8.285   2.765  1.00 20.00     0.348 C 
HETATM   10  O9  UNL     1     -32.628   8.578   1.722  1.00 20.00    -0.284 OA
ENDBRANCH   7   9
ENDBRANCH   2   7
TORSDOF 3
ENDMDL
MODEL 3
REMARK VINA RESULT:      -4.7      1.090      2.185
REMARK  3 active torsions:
REMARK  status: ('A' for Active; 'I' for Inactive)
REMARK    1  A    between atoms: C1_1  and  N8_8 
REMARK    2  A    between atoms: C6_6  and  C7_7 
REMARK    3  A    between atoms: C6_6  and  N8_8 
ROOT
HETATM    1  C2  UNL     1     -33.379   7.544   5.791  1.00 20.00     0.033 C 
HETATM    2  C6  UNL     1     -33.621   7.168   4.327  1.00 20.00     0.087 C 
ENDROOT
BRANCH   2   3
HETATM    3  C7  UNL     1     -34.338   5.796   4.107  1.00 20.00    -0.031 C 
HETATM    4  C3  UNL     1     -34.508   5.012   5.422  1.00 20.00     0.016 C 
HETATM    5  C4  UNL     1     -35.732   6.014   3.484  1.00 20.00     0.016 C 
HETATM    6  C5  UNL     1     -33.519   4.930   3.125  1.00 20.00     0.016 C 
ENDBRANCH   2   3
BRANCH   2   7
HETATM    7  N8  UNL     1     -32.362   7.242   3.612  1.00 20.00    -0.363 N 
HETATM    8  H24 UNL     1     -31.696   6.489   3.732  1.00 20.00     0.162 HD
BRANCH   7   9
HETATM    9  C1  UNL     1     -32.030   8.283   2.778  1.00 20.00     0.348 C 
HETATM   10  O9  UNL     1     -32.625   8.670   1.780  1.00 20.00    -0.284 OA
ENDBRANCH   7   9
ENDBRANCH   2   7
TORSDOF 3
ENDMDL
MODEL 4
REMARK VINA RESULT:      -4.7      1.095      2.367
REMARK  3 active torsions:
REMARK  status: ('A' for Active; 'I' for Inactive)
REMARK    1  A    between atoms: C1_1  and  N8_8 
REMARK    2  A    between atoms: C6_6  and  C7_7 
REMARK    3  A    between atoms: C6_6  and  N8_8 
ROOT
HETATM    1  C2  UNL     1     -33.355   7.523   5.796  1.00 20.00     0.033 C 
HETATM    2  C6  UNL     1     -33.616   7.169   4.330  1.00 20.00     0.087 C 
ENDROOT
BRANCH   2   3
HETATM    3  C7  UNL     1     -34.355   5.810   4.100  1.00 20.00    -0.031 C 
HETATM    4  C3  UNL     1     -35.761   6.007   3.502  1.00 20.00     0.016 C 
HETATM    5  C4  UNL     1     -33.540   4.911   3.149  1.00 20.00     0.016 C 
HETATM    6  C5  UNL     1     -34.498   5.060   5.443  1.00 20.00     0.016 C 
ENDBRANCH   2   3
BRANCH   2   7
HETATM    7  N8  UNL     1     -32.365   7.235   3.603  1.00 20.00    -0.363 N 
HETATM    8  H24 UNL     1     -31.706   6.472   3.708  1.00 20.00     0.162 HD
BRANCH   7   9
HETATM    9  C1  UNL     1     -32.028   8.280   2.776  1.00 20.00     0.348 C 
HETATM   10  O9  UNL     1     -32.613   8.667   1.772  1.00 20.00    -0.284 OA
ENDBRANCH   7   9
ENDBRANCH   2   7
TORSDOF 3
ENDMDL
MODEL 5
REMARK VINA RESULT:      -3.6     11.647     12.501
REMARK  3 active torsions:
REMARK  status: ('A' for Active; 'I' for Inactive)
REMARK    1  A    between atoms: C1_1  and  N8_8 
REMARK    2  A    between atoms: C6_6  and  C7_7 
REMARK    3  A    between atoms: C6_6  and  N8_8 
ROOT
HETATM    1  C2  UNL     1     -36.318  15.714  -5.045  1.00 20.00     0.033 C 
HETATM    2  C6  UNL     1     -35.288  14.878  -4.282  1.00 20.00     0.087 C 
ENDROOT
BRANCH   2   3
HETATM    3  C7  UNL     1     -33.842  15.472  -4.259  1.00 20.00    -0.031 C 
HETATM    4  C3  UNL     1     -32.763  14.374  -4.213  1.00 20.00     0.016 C 
HETATM    5  C4  UNL     1     -33.600  16.344  -5.507  1.00 20.00     0.016 C 
HETATM    6  C5  UNL     1     -33.669  16.377  -3.018  1.00 20.00     0.016 C 
ENDBRANCH   2   3
BRANCH   2   7
HETATM    7  N8  UNL     1     -35.309  13.524  -4.799  1.00 20.00    -0.363 N 
HETATM    8  H24 UNL     1     -35.101  12.763  -4.164  1.00 20.00     0.162 HD
BRANCH   7   9
HETATM    9  C1  UNL     1     -35.600  13.223  -6.109  1.00 20.00     0.348 C 
HETATM   10  O9  UNL     1     -35.134  12.323  -6.797  1.00 20.00    -0.284 OA
ENDBRANCH   7   9
ENDBRANCH   2   7
TORSDOF 3
ENDMDL
MODEL 6
REMARK VINA RESULT:      -3.6     11.662     12.537
REMARK  3 active torsions:
REMARK  status: ('A' for Active; 'I' for Inactive)
REMARK    1  A    between atoms: C1_1  and  N8_8 
REMARK    2  A    between atoms: C6_6  and  C7_7 
REMARK    3  A    between atoms: C6_6  and  N8_8 
ROOT
HETATM    1  C2  UNL     1     -36.347  15.698  -5.078  1.00 20.00     0.033 C 
HETATM    2  C6  UNL     1     -35.302  14.894  -4.302  1.00 20.00     0.087 C 
ENDROOT
BRANCH   2   3
HETATM    3  C7  UNL     1     -33.871  15.526  -4.272  1.00 20.00    -0.031 C 
HETATM    4  C3  UNL     1     -33.591  16.388  -5.518  1.00 20.00     0.016 C 
HETATM    5  C4  UNL     1     -33.699  16.407  -3.019  1.00 20.00     0.016 C 
HETATM    6  C5  UNL     1     -32.807  14.407  -4.205  1.00 20.00     0.016 C 
ENDBRANCH   2   3
BRANCH   2   7
HETATM    7  N8  UNL     1     -35.284  13.537  -4.809  1.00 20.00    -0.363 N 
HETATM    8  H24 UNL     1     -35.004  12.792  -4.181  1.00 20.00     0.162 HD
BRANCH   7   9
HETATM    9  C1  UNL     1     -35.630  13.210  -6.099  1.00 20.00     0.348 C 
HETATM   10  O9  UNL     1     -35.152  12.335  -6.809  1.00 20.00    -0.284 OA
ENDBRANCH   7   9
ENDBRANCH   2   7
TORSDOF 3
ENDMDL
MODEL 7
REMARK VINA RESULT:      -3.6     11.669     12.580
REMARK  3 active torsions:
REMARK  status: ('A' for Active; 'I' for Inactive)
REMARK    1  A    between atoms: C1_1  and  N8_8 
REMARK    2  A    between atoms: C6_6  and  C7_7 
REMARK    3  A    between atoms: C6_6  and  N8_8 
ROOT
HETATM    1  C2  UNL     1     -36.226  15.772  -5.391  1.00 20.00     0.033 C 
HETATM    2  C6  UNL     1     -35.326  14.972  -4.447  1.00 20.00     0.087 C 
ENDROOT
BRANCH   2   3
HETATM    3  C7  UNL     1     -33.887  15.556  -4.255  1.00 20.00    -0.031 C 
HETATM    4  C3  UNL     1     -33.767  16.392  -2.967  1.00 20.00     0.016 C 
HETATM    5  C4  UNL     1     -32.849  14.417  -4.197  1.00 20.00     0.016 C 
HETATM    6  C5  UNL     1     -33.525  16.457  -5.456  1.00 20.00     0.016 C 
ENDBRANCH   2   3
BRANCH   2   7
HETATM    7  N8  UNL     1     -35.296  13.592  -4.886  1.00 20.00    -0.363 N 
HETATM    8  H24 UNL     1     -35.014  12.881  -4.221  1.00 20.00     0.162 HD
BRANCH   7   9
HETATM    9  C1  UNL     1     -35.633  13.200  -6.160  1.00 20.00     0.348 C 
HETATM   10  O9  UNL     1     -35.148  12.290  -6.822  1.00 20.00    -0.284 OA
ENDBRANCH   7   9
ENDBRANCH   2   7
TORSDOF 3
ENDMDL
MODEL 8
REMARK VINA RESULT:      -3.5     11.930     13.079
REMARK  3 active torsions:
REMARK  status: ('A' for Active; 'I' for Inactive)
REMARK    1  A    between atoms: C1_1  and  N8_8 
REMARK    2  A    between atoms: C6_6  and  C7_7 
REMARK    3  A    between atoms: C6_6  and  N8_8 
ROOT
HETATM    1  C2  UNL     1     -33.718  16.646  -7.012  1.00 20.00     0.033 C 
HETATM    2  C6  UNL     1     -34.331  15.498  -6.205  1.00 20.00     0.087 C 
ENDROOT
BRANCH   2   3
HETATM    3  C7  UNL     1     -34.036  15.539  -4.670  1.00 20.00    -0.031 C 
HETATM    4  C3  UNL     1     -35.291  15.238  -3.829  1.00 20.00     0.016 C 
HETATM    5  C4  UNL     1     -32.945  14.512  -4.305  1.00 20.00     0.016 C 
HETATM    6  C5  UNL     1     -33.510  16.937  -4.276  1.00 20.00     0.016 C 
ENDBRANCH   2   3
BRANCH   2   7
HETATM    7  N8  UNL     1     -33.926  14.241  -6.801  1.00 20.00    -0.363 N 
HETATM    8  H24 UNL     1     -32.935  14.045  -6.886  1.00 20.00     0.162 HD
BRANCH   7   9
HETATM    9  C1  UNL     1     -34.820  13.300  -7.255  1.00 20.00     0.348 C 
HETATM   10  O9  UNL     1     -35.102  12.222  -6.748  1.00 20.00    -0.284 OA
ENDBRANCH   7   9
ENDBRANCH   2   7
TORSDOF 3
ENDMDL
MODEL 9
REMARK VINA RESULT:      -3.5      2.369      3.867
REMARK  3 active torsions:
REMARK  status: ('A' for Active; 'I' for Inactive)
REMARK    1  A    between atoms: C1_1  and  N8_8 
REMARK    2  A    between atoms: C6_6  and  C7_7 
REMARK    3  A    between atoms: C6_6  and  N8_8 
ROOT
HETATM    1  C2  UNL     1     -33.576   7.646   5.982  1.00 20.00     0.033 C 
HETATM    2  C6  UNL     1     -33.452   6.651   4.826  1.00 20.00     0.087 C 
ENDROOT
BRANCH   2   3
HETATM    3  C7  UNL     1     -32.929   7.261   3.484  1.00 20.00    -0.031 C 
HETATM    4  C3  UNL     1     -31.628   8.062   3.679  1.00 20.00     0.016 C 
HETATM    5  C4  UNL     1     -32.665   6.143   2.455  1.00 20.00     0.016 C 
HETATM    6  C5  UNL     1     -33.997   8.203   2.886  1.00 20.00     0.016 C 
ENDBRANCH   2   3
BRANCH   2   7
HETATM    7  N8  UNL     1     -34.722   5.974   4.655  1.00 20.00    -0.363 N 
HETATM    8  H24 UNL     1     -35.523   6.521   4.360  1.00 20.00     0.162 HD
BRANCH   7   9
HETATM    9  C1  UNL     1     -34.892   4.627   4.870  1.00 20.00     0.348 C 
HETATM   10  O9  UNL     1     -34.302   3.697   4.335  1.00 20.00    -0.284 OA
ENDBRANCH   7   9
ENDBRANCH   2   7
TORSDOF 3
ENDMDL
