MODEL 1
REMARK VINA RESULT:      -4.5      0.000      0.000
REMARK  2 active torsions:
REMARK  status: ('A' for Active; 'I' for Inactive)
REMARK    1  A    between atoms: C2_2  and  C6_6 
REMARK    2  A    between atoms: C3_3  and  C7_7 
ROOT
HETATM    1  C1  UNL     1     -33.888   6.828   5.854  1.00 20.00     0.100 C 
HETATM    2  C2  UNL     1     -34.867   5.820   5.301  1.00 20.00     0.089 C 
HETATM    3  C3  UNL     1     -33.682   7.480   3.702  1.00 20.00     0.168 C 
HETATM    4  N8  UNL     1     -33.260   7.673   5.100  1.00 20.00    -0.289 NA
HETATM    5  S9  UNL     1     -34.999   6.243   3.554  1.00 20.00    -0.132 SA
ENDROOT
BRANCH   2   6
HETATM    6  C6  UNL     1     -34.332   4.412   5.490  1.00 20.00     0.016 C 
HETATM    7  C4  UNL     1     -33.971   3.769   4.187  1.00 20.00     0.006 C 
ENDBRANCH   2   6
BRANCH   3   8
HETATM    8  C7  UNL     1     -32.472   7.055   2.883  1.00 20.00     0.033 C 
HETATM    9  C5  UNL     1     -31.836   8.216   2.185  1.00 20.00     0.008 C 
ENDBRANCH   3   8
TORSDOF 2
ENDMDL
MODEL 2
REMARK VINA RESULT:      -4.4      1.579      3.832
REMARK  2 active torsions:
REMARK  status: ('A' for Active; 'I' for Inactive)
REMARK    1  A    between atoms: C2_2  and  C6_6 
REMARK    2  A    between atoms: C3_3  and  C7_7 
ROOT
HETATM    1  C1  UNL     1     -33.075   4.860   2.877  1.00 20.00     0.100 C 
HETATM    2  C2  UNL     1     -33.470   6.266   2.497  1.00 20.00     0.089 C 
HETATM    3  C3  UNL     1     -34.795   5.005   4.333  1.00 20.00     0.168 C 
HETATM    4  N8  UNL     1     -33.695   4.187   3.794  1.00 20.00    -0.289 NA
HETATM    5  S9  UNL     1     -34.969   6.578   3.449  1.00 20.00    -0.132 SA
ENDROOT
BRANCH   2   6
HETATM    6  C6  UNL     1     -32.366   7.240   2.869  1.00 20.00     0.016 C 
HETATM    7  C4  UNL     1     -32.297   8.398   1.922  1.00 20.00     0.006 C 
ENDBRANCH   2   6
BRANCH   3   8
HETATM    8  C7  UNL     1     -34.532   5.262   5.810  1.00 20.00     0.033 C 
HETATM    9  C5  UNL     1     -34.136   6.681   6.066  1.00 20.00     0.008 C 
ENDBRANCH   3   8
TORSDOF 2
ENDMDL
MODEL 3
REMARK VINA RESULT:      -3.9      1.428      3.813
REMARK  2 active torsions:
REMARK  status: ('A' for Active; 'I' for Inactive)
REMARK    1  A    between atoms: C2_2  and  C6_6 
REMARK    2  A    between atoms: C3_3  and  C7_7 
ROOT
HETATM    1  C1  UNL     1     -34.628   6.750   3.118  1.00 20.00     0.100 C 
HETATM    2  C2  UNL     1     -33.601   7.648   3.765  1.00 20.00     0.089 C 
HETATM    3  C3  UNL     1     -34.839   5.870   5.187  1.00 20.00     0.168 C 
HETATM    4  N8  UNL     1     -35.268   5.838   3.778  1.00 20.00    -0.289 NA
HETATM    5  S9  UNL     1     -33.689   7.232   5.516  1.00 20.00    -0.132 SA
ENDROOT
BRANCH   2   6
HETATM    6  C6  UNL     1     -32.223   7.364   3.197  1.00 20.00     0.016 C 
HETATM    7  C4  UNL     1     -31.850   8.331   2.116  1.00 20.00     0.006 C 
ENDBRANCH   2   6
BRANCH   3   8
HETATM    8  C7  UNL     1     -34.184   4.539   5.526  1.00 20.00     0.033 C 
HETATM    9  C5  UNL     1     -33.964   3.700   4.308  1.00 20.00     0.008 C 
ENDBRANCH   3   8
TORSDOF 2
ENDMDL
MODEL 4
REMARK VINA RESULT:      -3.8      2.021      4.547
REMARK  2 active torsions:
REMARK  status: ('A' for Active; 'I' for Inactive)
REMARK    1  A    between atoms: C2_2  and  C6_6 
REMARK    2  A    between atoms: C3_3  and  C7_7 
ROOT
HETATM    1  C1  UNL     1     -31.350   8.732   2.960  1.00 20.00     0.100 C 
HETATM    2  C2  UNL     1     -31.960   8.429   1.613  1.00 20.00     0.089 C 
HETATM    3  C3  UNL     1     -32.693   7.072   3.695  1.00 20.00     0.168 C 
HETATM    4  N8  UNL     1     -31.687   8.092   4.035  1.00 20.00    -0.289 NA
HETATM    5  S9  UNL     1     -32.999   6.987   1.910  1.00 20.00    -0.132 SA
ENDROOT
BRANCH   2   6
HETATM    6  C6  UNL     1     -32.781   9.612   1.131  1.00 20.00     0.016 C 
HETATM    7  C4  UNL     1     -33.090   9.522  -0.332  1.00 20.00     0.006 C 
ENDBRANCH   2   6
BRANCH   3   8
HETATM    8  C7  UNL     1     -33.985   7.398   4.432  1.00 20.00     0.033 C 
HETATM    9  C5  UNL     1     -33.861   7.159   5.903  1.00 20.00     0.008 C 
ENDBRANCH   3   8
TORSDOF 2
ENDMDL
MODEL 5
REMARK VINA RESULT:      -3.7      1.559      2.086
REMARK  2 active torsions:
REMARK  status: ('A' for Active; 'I' for Inactive)
REMARK    1  A    between atoms: C2_2  and  C6_6 
REMARK    2  A    between atoms: C3_3  and  C7_7 
ROOT
HETATM    1  C1  UNL     1     -35.346   5.967   3.682  1.00 20.00     0.100 C 
HETATM    2  C2  UNL     1     -34.671   4.767   4.300  1.00 20.00     0.089 C 
HETATM    3  C3  UNL     1     -33.411   6.190   2.539  1.00 20.00     0.168 C 
HETATM    4  N8  UNL     1     -34.760   6.720   2.805  1.00 20.00    -0.289 NA
HETATM    5  S9  UNL     1     -33.107   4.633   3.416  1.00 20.00    -0.132 SA
ENDROOT
BRANCH   2   6
HETATM    6  C6  UNL     1     -34.450   4.996   5.785  1.00 20.00     0.016 C 
HETATM    7  C4  UNL     1     -34.250   6.446   6.105  1.00 20.00     0.006 C 
ENDBRANCH   2   6
BRANCH   3   8
HETATM    8  C7  UNL     1     -32.387   7.235   2.960  1.00 20.00     0.033 C 
HETATM    9  C5  UNL     1     -32.317   8.369   1.987  1.00 20.00     0.008 C 
ENDBRANCH   3   8
TORSDOF 2
ENDMDL
MODEL 6
REMARK VINA RESULT:      -3.7      2.335      3.235
REMARK  2 active torsions:
REMARK  status: ('A' for Active; 'I' for Inactive)
REMARK    1  A    between atoms: C2_2  and  C6_6 
REMARK    2  A    between atoms: C3_3  and  C7_7 
ROOT
HETATM    1  C1  UNL     1     -33.243   6.684   2.605  1.00 20.00     0.100 C 
HETATM    2  C2  UNL     1     -32.712   7.044   3.972  1.00 20.00     0.089 C 
HETATM    3  C3  UNL     1     -31.944   8.388   1.892  1.00 20.00     0.168 C 
HETATM    4  N8  UNL     1     -32.902   7.327   1.534  1.00 20.00    -0.289 NA
HETATM    5  S9  UNL     1     -31.492   8.331   3.647  1.00 20.00    -0.132 SA
ENDROOT
BRANCH   2   6
HETATM    6  C6  UNL     1     -33.836   7.557   4.854  1.00 20.00     0.016 C 
HETATM    7  C4  UNL     1     -34.210   6.569   5.916  1.00 20.00     0.006 C 
ENDBRANCH   2   6
BRANCH   3   8
HETATM    8  C7  UNL     1     -32.564   9.737   1.555  1.00 20.00     0.033 C 
HETATM    9  C5  UNL     1     -32.926   9.836   0.108  1.00 20.00     0.008 C 
ENDBRANCH   3   8
TORSDOF 2
ENDMDL
MODEL 7
REMARK VINA RESULT:      -3.7     12.319     12.855
REMARK  2 active torsions:
REMARK  status: ('A' for Active; 'I' for Inactive)
REMARK    1  A    between atoms: C2_2  and  C6_6 
REMARK    2  A    between atoms: C3_3  and  C7_7 
ROOT
HETATM    1  C1  UNL     1     -33.295  14.830  -4.215  1.00 20.00     0.100 C 
HETATM    2  C2  UNL     1     -33.974  16.174  -4.106  1.00 20.00     0.089 C 
HETATM    3  C3  UNL     1     -34.914  14.381  -5.724  1.00 20.00     0.168 C 
HETATM    4  N8  UNL     1     -33.728  13.894  -4.999  1.00 20.00    -0.289 NA
HETATM    5  S9  UNL     1     -35.260  16.125  -5.366  1.00 20.00    -0.132 SA
ENDROOT
BRANCH   2   6
HETATM    6  C6  UNL     1     -34.564  16.352  -2.719  1.00 20.00     0.016 C 
HETATM    7  C4  UNL     1     -33.684  17.181  -1.835  1.00 20.00     0.006 C 
ENDBRANCH   2   6
BRANCH   3   8
HETATM    8  C7  UNL     1     -36.108  13.521  -5.337  1.00 20.00     0.033 C 
HETATM    9  C5  UNL     1     -37.319  14.348  -5.045  1.00 20.00     0.008 C 
ENDBRANCH   3   8
TORSDOF 2
ENDMDL
MODEL 8
REMARK VINA RESULT:      -3.6      1.350      2.893
REMARK  2 active torsions:
REMARK  status: ('A' for Active; 'I' for Inactive)
REMARK    1  A    between atoms: C2_2  and  C6_6 
REMARK    2  A    between atoms: C3_3  and  C7_7 
ROOT
HETATM    1  C1  UNL     1     -32.664   7.619   3.578  1.00 20.00     0.100 C 
HETATM    2  C2  UNL     1     -33.971   7.561   4.332  1.00 20.00     0.089 C 
HETATM    3  C3  UNL     1     -33.483   5.838   2.458  1.00 20.00     0.168 C 
HETATM    4  N8  UNL     1     -32.363   6.778   2.641  1.00 20.00    -0.289 NA
HETATM    5  S9  UNL     1     -34.906   6.265   3.498  1.00 20.00    -0.132 SA
ENDROOT
BRANCH   2   6
HETATM    6  C6  UNL     1     -33.722   7.213   5.788  1.00 20.00     0.016 C 
HETATM    7  C4  UNL     1     -34.497   6.006   6.218  1.00 20.00     0.006 C 
ENDBRANCH   2   6
BRANCH   3   8
HETATM    8  C7  UNL     1     -32.998   4.433   2.788  1.00 20.00     0.033 C 
HETATM    9  C5  UNL     1     -33.853   3.778   3.825  1.00 20.00     0.008 C 
ENDBRANCH   3   8
TORSDOF 2
ENDMDL
MODEL 9
REMARK VINA RESULT:      -3.5     12.335     13.283
REMARK  2 active torsions:
REMARK  status: ('A' for Active; 'I' for Inactive)
REMARK    1  A    between atoms: C2_2  and  C6_6 
REMARK    2  A    between atoms: C3_3  and  C7_7 
ROOT
HETATM    1  C1  UNL     1     -35.795  13.348  -5.682  1.00 20.00     0.100 C 
HETATM    2  C2  UNL     1     -36.307  14.553  -6.433  1.00 20.00     0.089 C 
HETATM    3  C3  UNL     1     -35.035  14.870  -4.197  1.00 20.00     0.168 C 
HETATM    4  N8  UNL     1     -35.144  13.448  -4.567  1.00 20.00    -0.289 NA
HETATM    5  S9  UNL     1     -35.944  15.941  -5.342  1.00 20.00    -0.132 SA
ENDROOT
BRANCH   2   6
HETATM    6  C6  UNL     1     -35.584  14.690  -7.761  1.00 20.00     0.016 C 
HETATM    7  C4  UNL     1     -34.302  13.916  -7.785  1.00 20.00     0.006 C 
ENDBRANCH   2   6
BRANCH   3   8
HETATM    8  C7  UNL     1     -33.563  15.255  -4.177  1.00 20.00     0.033 C 
HETATM    9  C5  UNL     1     -33.264  16.362  -5.137  1.00 20.00     0.008 C 
ENDBRANCH   3   8
TORSDOF 2
ENDMDL
