MODEL 1
REMARK VINA RESULT:      -5.0      0.000      0.000
REMARK  0 active torsions:
REMARK  status: ('A' for Active; 'I' for Inactive)
ROOT
HETATM    1  C1  UNL     1     -32.534   7.680   2.601  1.00 20.00     0.099 C 
HETATM    2  C2  UNL     1     -33.387   4.249   3.464  1.00 20.00    -0.026 C 
HETATM    3  C3  UNL     1     -32.969   5.278   2.712  1.00 20.00     0.019 C 
HETATM    4  C4  UNL     1     -34.491   4.399   4.468  1.00 20.00     0.057 C 
HETATM    5  C5  UNL     1     -35.229   5.742   4.344  1.00 20.00     0.277 C 
HETATM    6  C6  UNL     1     -33.570   6.658   2.843  1.00 20.00     0.350 C 
HETATM    7  C7  UNL     1     -33.501   7.167   5.269  1.00 20.00     0.312 C 
HETATM    8  N8  UNL     1     -31.720   8.483   2.411  1.00 20.00    -0.195 NA
HETATM    9  N9  UNL     1     -34.333   6.886   4.095  1.00 20.00     0.106 N 
ENDROOT
TORSDOF 0
ENDMDL
MODEL 2
REMARK VINA RESULT:      -4.6      1.132      2.155
REMARK  0 active torsions:
REMARK  status: ('A' for Active; 'I' for Inactive)
ROOT
HETATM    1  C1  UNL     1     -32.554   7.868   2.652  1.00 20.00     0.099 C 
HETATM    2  C2  UNL     1     -34.038   6.845   5.813  1.00 20.00    -0.026 C 
HETATM    3  C3  UNL     1     -33.167   7.426   4.976  1.00 20.00     0.019 C 
HETATM    4  C4  UNL     1     -34.691   5.534   5.491  1.00 20.00     0.057 C 
HETATM    5  C5  UNL     1     -34.066   4.843   4.269  1.00 20.00     0.277 C 
HETATM    6  C6  UNL     1     -32.803   6.807   3.646  1.00 20.00     0.350 C 
HETATM    7  C7  UNL     1     -34.971   6.297   2.555  1.00 20.00     0.312 C 
HETATM    8  N8  UNL     1     -32.358   8.701   1.870  1.00 20.00    -0.195 NA
HETATM    9  N9  UNL     1     -33.748   5.768   3.167  1.00 20.00     0.106 N 
ENDROOT
TORSDOF 0
ENDMDL
MODEL 3
REMARK VINA RESULT:      -4.1      1.443      3.755
REMARK  0 active torsions:
REMARK  status: ('A' for Active; 'I' for Inactive)
ROOT
HETATM    1  C1  UNL     1     -34.478   5.768   5.111  1.00 20.00     0.099 C 
HETATM    2  C2  UNL     1     -31.939   8.187   4.143  1.00 20.00    -0.026 C 
HETATM    3  C3  UNL     1     -32.928   7.641   4.863  1.00 20.00     0.019 C 
HETATM    4  C4  UNL     1     -31.894   8.076   2.648  1.00 20.00     0.057 C 
HETATM    5  C5  UNL     1     -33.197   7.517   2.053  1.00 20.00     0.277 C 
HETATM    6  C6  UNL     1     -34.050   6.860   4.218  1.00 20.00     0.350 C 
HETATM    7  C7  UNL     1     -32.925   5.211   2.746  1.00 20.00     0.312 C 
HETATM    8  N8  UNL     1     -34.815   4.909   5.814  1.00 20.00    -0.195 NA
HETATM    9  N9  UNL     1     -33.771   6.405   2.833  1.00 20.00     0.106 N 
ENDROOT
TORSDOF 0
ENDMDL
MODEL 4
REMARK VINA RESULT:      -4.1     11.684     12.495
REMARK  0 active torsions:
REMARK  status: ('A' for Active; 'I' for Inactive)
ROOT
HETATM    1  C1  UNL     1     -35.636  13.955  -4.999  1.00 20.00     0.099 C 
HETATM    2  C2  UNL     1     -34.963  16.474  -2.461  1.00 20.00    -0.026 C 
HETATM    3  C3  UNL     1     -35.680  15.670  -3.259  1.00 20.00     0.019 C 
HETATM    4  C4  UNL     1     -33.682  17.106  -2.920  1.00 20.00     0.057 C 
HETATM    5  C5  UNL     1     -33.446  16.943  -4.430  1.00 20.00     0.277 C 
HETATM    6  C6  UNL     1     -35.234  15.333  -4.663  1.00 20.00     0.350 C 
HETATM    7  C7  UNL     1     -32.880  14.587  -4.433  1.00 20.00     0.312 C 
HETATM    8  N8  UNL     1     -35.953  12.871  -5.264  1.00 20.00    -0.195 NA
HETATM    9  N9  UNL     1     -33.802  15.607  -4.941  1.00 20.00     0.106 N 
ENDROOT
TORSDOF 0
ENDMDL
MODEL 5
REMARK VINA RESULT:      -4.0     11.705     12.685
REMARK  0 active torsions:
REMARK  status: ('A' for Active; 'I' for Inactive)
ROOT
HETATM    1  C1  UNL     1     -36.844  14.020  -5.149  1.00 20.00     0.099 C 
HETATM    2  C2  UNL     1     -33.907  15.518  -6.688  1.00 20.00    -0.026 C 
HETATM    3  C3  UNL     1     -35.020  14.778  -6.588  1.00 20.00     0.019 C 
HETATM    4  C4  UNL     1     -32.937  15.647  -5.551  1.00 20.00     0.057 C 
HETATM    5  C5  UNL     1     -33.225  14.661  -4.409  1.00 20.00     0.277 C 
HETATM    6  C6  UNL     1     -35.379  14.043  -5.317  1.00 20.00     0.350 C 
HETATM    7  C7  UNL     1     -35.203  15.741  -3.517  1.00 20.00     0.312 C 
HETATM    8  N8  UNL     1     -37.996  14.001  -5.017  1.00 20.00    -0.195 NA
HETATM    9  N9  UNL     1     -34.661  14.512  -4.106  1.00 20.00     0.106 N 
ENDROOT
TORSDOF 0
ENDMDL
MODEL 6
REMARK VINA RESULT:      -3.9     12.128     13.064
REMARK  0 active torsions:
REMARK  status: ('A' for Active; 'I' for Inactive)
ROOT
HETATM    1  C1  UNL     1     -37.081  14.596  -5.106  1.00 20.00     0.099 C 
HETATM    2  C2  UNL     1     -33.726  15.364  -3.928  1.00 20.00    -0.026 C 
HETATM    3  C3  UNL     1     -35.066  15.326  -3.933  1.00 20.00     0.019 C 
HETATM    4  C4  UNL     1     -32.933  15.519  -5.191  1.00 20.00     0.057 C 
HETATM    5  C5  UNL     1     -33.808  15.883  -6.401  1.00 20.00     0.277 C 
HETATM    6  C6  UNL     1     -35.862  15.418  -5.215  1.00 20.00     0.350 C 
HETATM    7  C7  UNL     1     -34.859  13.722  -6.722  1.00 20.00     0.312 C 
HETATM    8  N8  UNL     1     -38.041  13.950  -5.020  1.00 20.00    -0.195 NA
HETATM    9  N9  UNL     1     -35.084  15.145  -6.449  1.00 20.00     0.106 N 
ENDROOT
TORSDOF 0
ENDMDL
MODEL 7
REMARK VINA RESULT:      -3.9     11.726     13.121
REMARK  0 active torsions:
REMARK  status: ('A' for Active; 'I' for Inactive)
ROOT
HETATM    1  C1  UNL     1     -35.666  13.945  -5.023  1.00 20.00     0.099 C 
HETATM    2  C2  UNL     1     -33.818  16.479  -3.179  1.00 20.00    -0.026 C 
HETATM    3  C3  UNL     1     -34.705  15.500  -3.401  1.00 20.00     0.019 C 
HETATM    4  C4  UNL     1     -33.511  17.520  -4.215  1.00 20.00     0.057 C 
HETATM    5  C5  UNL     1     -34.489  17.484  -5.401  1.00 20.00     0.277 C 
HETATM    6  C6  UNL     1     -35.439  15.369  -4.715  1.00 20.00     0.350 C 
HETATM    7  C7  UNL     1     -33.672  15.460  -6.454  1.00 20.00     0.312 C 
HETATM    8  N8  UNL     1     -35.845  12.825  -5.264  1.00 20.00    -0.195 NA
HETATM    9  N9  UNL     1     -34.831  16.119  -5.842  1.00 20.00     0.106 N 
ENDROOT
TORSDOF 0
ENDMDL
MODEL 8
REMARK VINA RESULT:      -3.8     11.495     12.583
REMARK  0 active torsions:
REMARK  status: ('A' for Active; 'I' for Inactive)
ROOT
HETATM    1  C1  UNL     1     -35.245  13.712  -4.798  1.00 20.00     0.099 C 
HETATM    2  C2  UNL     1     -33.352  16.788  -5.242  1.00 20.00    -0.026 C 
HETATM    3  C3  UNL     1     -33.665  15.490  -5.360  1.00 20.00     0.019 C 
HETATM    4  C4  UNL     1     -33.623  17.556  -3.983  1.00 20.00     0.057 C 
HETATM    5  C5  UNL     1     -34.035  16.651  -2.811  1.00 20.00     0.277 C 
HETATM    6  C6  UNL     1     -34.328  14.723  -4.239  1.00 20.00     0.350 C 
HETATM    7  C7  UNL     1     -36.272  16.110  -3.569  1.00 20.00     0.312 C 
HETATM    8  N8  UNL     1     -35.965  12.916  -5.238  1.00 20.00    -0.195 NA
HETATM    9  N9  UNL     1     -34.961  15.571  -3.198  1.00 20.00     0.106 N 
ENDROOT
TORSDOF 0
ENDMDL
MODEL 9
REMARK VINA RESULT:      -3.7     12.527     13.593
REMARK  0 active torsions:
REMARK  status: ('A' for Active; 'I' for Inactive)
ROOT
HETATM    1  C1  UNL     1     -37.061  14.187  -5.235  1.00 20.00     0.099 C 
HETATM    2  C2  UNL     1     -34.459  13.725  -7.735  1.00 20.00    -0.026 C 
HETATM    3  C3  UNL     1     -35.330  13.401  -6.769  1.00 20.00     0.019 C 
HETATM    4  C4  UNL     1     -33.734  15.037  -7.740  1.00 20.00     0.057 C 
HETATM    5  C5  UNL     1     -33.900  15.813  -6.423  1.00 20.00     0.277 C 
HETATM    6  C6  UNL     1     -35.651  14.345  -5.633  1.00 20.00     0.350 C 
HETATM    7  C7  UNL     1     -36.204  16.503  -6.724  1.00 20.00     0.312 C 
HETATM    8  N8  UNL     1     -38.171  14.063  -4.920  1.00 20.00    -0.195 NA
HETATM    9  N9  UNL     1     -35.268  15.758  -5.875  1.00 20.00     0.106 N 
ENDROOT
TORSDOF 0
ENDMDL
