MODEL 1
REMARK VINA RESULT:      -4.9      0.000      0.000
REMARK  1 active torsions:
REMARK  status: ('A' for Active; 'I' for Inactive)
REMARK    1  A    between atoms: C1_1  and  C2_2 
ROOT
HETATM    1  C2  UNL     1     -34.672   5.561   4.616  1.00 20.00     0.462 C 
HETATM    2  F4  UNL     1     -35.816   5.801   3.926  1.00 20.00    -0.163 F 
HETATM    3  F5  UNL     1     -34.025   4.561   3.966  1.00 20.00    -0.163 F 
HETATM    4  F6  UNL     1     -35.038   5.072   5.827  1.00 20.00    -0.163 F 
ENDROOT
BRANCH   1   5
HETATM    5  C1  UNL     1     -33.826   6.784   4.740  1.00 20.00     0.300 C 
HETATM    6  O3  UNL     1     -33.719   7.457   5.754  1.00 20.00    -0.275 OA
HETATM    7 BR7  UNL     1     -32.829   7.356   3.221  1.00 20.00     0.001 Br
ENDBRANCH   1   5
TORSDOF 1
ENDMDL
MODEL 2
REMARK VINA RESULT:      -4.9      0.004      1.426
REMARK  1 active torsions:
REMARK  status: ('A' for Active; 'I' for Inactive)
REMARK    1  A    between atoms: C1_1  and  C2_2 
ROOT
HETATM    1  C2  UNL     1     -34.671   5.559   4.617  1.00 20.00     0.462 C 
HETATM    2  F4  UNL     1     -34.025   4.558   3.967  1.00 20.00    -0.163 F 
HETATM    3  F5  UNL     1     -35.034   5.069   5.829  1.00 20.00    -0.163 F 
HETATM    4  F6  UNL     1     -35.816   5.799   3.930  1.00 20.00    -0.163 F 
ENDROOT
BRANCH   1   5
HETATM    5  C1  UNL     1     -33.828   6.783   4.740  1.00 20.00     0.300 C 
HETATM    6  O3  UNL     1     -33.722   7.457   5.754  1.00 20.00    -0.275 OA
HETATM    7 BR7  UNL     1     -32.832   7.356   3.221  1.00 20.00     0.001 Br
ENDBRANCH   1   5
TORSDOF 1
ENDMDL
MODEL 3
REMARK VINA RESULT:      -4.9      0.004      1.428
REMARK  1 active torsions:
REMARK  status: ('A' for Active; 'I' for Inactive)
REMARK    1  A    between atoms: C1_1  and  C2_2 
ROOT
HETATM    1  C2  UNL     1     -34.670   5.559   4.617  1.00 20.00     0.462 C 
HETATM    2  F4  UNL     1     -35.035   5.067   5.829  1.00 20.00    -0.163 F 
HETATM    3  F5  UNL     1     -35.816   5.798   3.930  1.00 20.00    -0.163 F 
HETATM    4  F6  UNL     1     -34.022   4.560   3.967  1.00 20.00    -0.163 F 
ENDROOT
BRANCH   1   5
HETATM    5  C1  UNL     1     -33.827   6.783   4.741  1.00 20.00     0.300 C 
HETATM    6  O3  UNL     1     -33.722   7.457   5.755  1.00 20.00    -0.275 OA
HETATM    7 BR7  UNL     1     -32.832   7.357   3.221  1.00 20.00     0.001 Br
ENDBRANCH   1   5
TORSDOF 1
ENDMDL
MODEL 4
REMARK VINA RESULT:      -4.8      1.831      1.847
REMARK  1 active torsions:
REMARK  status: ('A' for Active; 'I' for Inactive)
REMARK    1  A    between atoms: C1_1  and  C2_2 
ROOT
HETATM    1  C2  UNL     1     -34.716   5.533   4.284  1.00 20.00     0.462 C 
HETATM    2  F4  UNL     1     -35.906   5.896   3.741  1.00 20.00    -0.163 F 
HETATM    3  F5  UNL     1     -34.853   4.252   4.709  1.00 20.00    -0.163 F 
HETATM    4  F6  UNL     1     -34.538   6.299   5.389  1.00 20.00    -0.163 F 
ENDROOT
BRANCH   1   5
HETATM    5  C1  UNL     1     -33.590   5.681   3.316  1.00 20.00     0.300 C 
HETATM    6  O3  UNL     1     -33.096   4.764   2.677  1.00 20.00    -0.275 OA
HETATM    7 BR7  UNL     1     -32.856   7.416   3.036  1.00 20.00     0.001 Br
ENDBRANCH   1   5
TORSDOF 1
ENDMDL
MODEL 5
REMARK VINA RESULT:      -4.8      1.832      2.255
REMARK  1 active torsions:
REMARK  status: ('A' for Active; 'I' for Inactive)
REMARK    1  A    between atoms: C1_1  and  C2_2 
ROOT
HETATM    1  C2  UNL     1     -34.706   5.550   4.303  1.00 20.00     0.462 C 
HETATM    2  F4  UNL     1     -34.818   4.277   4.762  1.00 20.00    -0.163 F 
HETATM    3  F5  UNL     1     -34.533   6.345   5.389  1.00 20.00    -0.163 F 
HETATM    4  F6  UNL     1     -35.905   5.879   3.760  1.00 20.00    -0.163 F 
ENDROOT
BRANCH   1   5
HETATM    5  C1  UNL     1     -33.591   5.695   3.323  1.00 20.00     0.300 C 
HETATM    6  O3  UNL     1     -33.112   4.778   2.672  1.00 20.00    -0.275 OA
HETATM    7 BR7  UNL     1     -32.845   7.425   3.045  1.00 20.00     0.001 Br
ENDBRANCH   1   5
TORSDOF 1
ENDMDL
MODEL 6
REMARK VINA RESULT:      -4.7      2.720      2.922
REMARK  1 active torsions:
REMARK  status: ('A' for Active; 'I' for Inactive)
REMARK    1  A    between atoms: C1_1  and  C2_2 
ROOT
HETATM    1  C2  UNL     1     -33.485   5.535   2.930  1.00 20.00     0.462 C 
HETATM    2  F4  UNL     1     -34.368   5.985   2.004  1.00 20.00    -0.163 F 
HETATM    3  F5  UNL     1     -32.573   6.523   3.116  1.00 20.00    -0.163 F 
HETATM    4  F6  UNL     1     -32.825   4.490   2.369  1.00 20.00    -0.163 F 
ENDROOT
BRANCH   1   5
HETATM    5  C1  UNL     1     -34.157   5.150   4.205  1.00 20.00     0.300 C 
HETATM    6  O3  UNL     1     -34.679   4.066   4.417  1.00 20.00    -0.275 OA
HETATM    7 BR7  UNL     1     -34.217   6.423   5.620  1.00 20.00     0.001 Br
ENDBRANCH   1   5
TORSDOF 1
ENDMDL
MODEL 7
REMARK VINA RESULT:      -4.7      2.711      2.957
REMARK  1 active torsions:
REMARK  status: ('A' for Active; 'I' for Inactive)
REMARK    1  A    between atoms: C1_1  and  C2_2 
ROOT
HETATM    1  C2  UNL     1     -33.497   5.536   2.941  1.00 20.00     0.462 C 
HETATM    2  F4  UNL     1     -32.585   6.527   3.115  1.00 20.00    -0.163 F 
HETATM    3  F5  UNL     1     -32.837   4.491   2.380  1.00 20.00    -0.163 F 
HETATM    4  F6  UNL     1     -34.389   5.979   2.020  1.00 20.00    -0.163 F 
ENDROOT
BRANCH   1   5
HETATM    5  C1  UNL     1     -34.160   5.154   4.222  1.00 20.00     0.300 C 
HETATM    6  O3  UNL     1     -34.685   4.072   4.438  1.00 20.00    -0.275 OA
HETATM    7 BR7  UNL     1     -34.201   6.427   5.638  1.00 20.00     0.001 Br
ENDBRANCH   1   5
TORSDOF 1
ENDMDL
MODEL 8
REMARK VINA RESULT:      -4.5      1.453      2.035
REMARK  1 active torsions:
REMARK  status: ('A' for Active; 'I' for Inactive)
REMARK    1  A    between atoms: C1_1  and  C2_2 
ROOT
HETATM    1  C2  UNL     1     -34.791   5.364   4.428  1.00 20.00     0.462 C 
HETATM    2  F4  UNL     1     -34.329   4.209   3.883  1.00 20.00    -0.163 F 
HETATM    3  F5  UNL     1     -35.078   5.097   5.727  1.00 20.00    -0.163 F 
HETATM    4  F6  UNL     1     -35.967   5.645   3.813  1.00 20.00    -0.163 F 
ENDROOT
BRANCH   1   5
HETATM    5  C1  UNL     1     -33.810   6.480   4.291  1.00 20.00     0.300 C 
HETATM    6  O3  UNL     1     -33.200   6.749   3.267  1.00 20.00    -0.275 OA
HETATM    7 BR7  UNL     1     -33.469   7.580   5.808  1.00 20.00     0.001 Br
ENDBRANCH   1   5
TORSDOF 1
ENDMDL
MODEL 9
REMARK VINA RESULT:      -4.4      2.624      3.005
REMARK  1 active torsions:
REMARK  status: ('A' for Active; 'I' for Inactive)
REMARK    1  A    between atoms: C1_1  and  C2_2 
ROOT
HETATM    1  C2  UNL     1     -32.867   7.348   3.627  1.00 20.00     0.462 C 
HETATM    2  F4  UNL     1     -33.528   8.193   2.795  1.00 20.00    -0.163 F 
HETATM    3  F5  UNL     1     -31.743   7.994   4.029  1.00 20.00    -0.163 F 
HETATM    4  F6  UNL     1     -32.467   6.291   2.877  1.00 20.00    -0.163 F 
ENDROOT
BRANCH   1   5
HETATM    5  C1  UNL     1     -33.710   6.925   4.782  1.00 20.00     0.300 C 
HETATM    6  O3  UNL     1     -33.785   7.523   5.846  1.00 20.00    -0.275 OA
HETATM    7 BR7  UNL     1     -34.758   5.344   4.611  1.00 20.00     0.001 Br
ENDBRANCH   1   5
TORSDOF 1
ENDMDL
