MODEL 1
REMARK VINA RESULT:      -4.6      0.000      0.000
REMARK  0 active torsions:
REMARK  status: ('A' for Active; 'I' for Inactive)
ROOT
HETATM    1  C1  UNL     1     -34.452  16.639  -2.686  1.00 20.00     0.037 C 
HETATM    2  C2  UNL     1     -35.187  15.240  -4.135  1.00 20.00     0.017 C 
HETATM    3  C3  UNL     1     -34.360  17.268  -1.509  1.00 20.00    -0.063 C 
HETATM    4  C4  UNL     1     -33.380  16.662  -3.736  1.00 20.00     0.074 C 
HETATM    5  C5  UNL     1     -33.772  15.475  -4.627  1.00 20.00    -0.002 C 
HETATM    6  C6  UNL     1     -36.127  14.305  -4.831  1.00 20.00     0.066 C 
HETATM    7  C7  UNL     1     -35.461  17.215  -0.489  1.00 20.00     0.045 C 
HETATM    8  C8  UNL     1     -33.150  18.072  -1.127  1.00 20.00     0.045 C 
HETATM    9  C9  UNL     1     -33.720  15.842  -6.107  1.00 20.00     0.021 C 
HETATM   10  C10 UNL     1     -32.908  14.245  -4.335  1.00 20.00     0.021 C 
HETATM   11  N11 UNL     1     -35.529  15.874  -3.055  1.00 20.00    -0.262 NA
ENDROOT
TORSDOF 0
ENDMDL
MODEL 2
REMARK VINA RESULT:      -4.6     10.462     11.474
REMARK  0 active torsions:
REMARK  status: ('A' for Active; 'I' for Inactive)
ROOT
HETATM    1  C1  UNL     1     -32.779   7.780   2.523  1.00 20.00     0.037 C 
HETATM    2  C2  UNL     1     -33.192   5.766   3.134  1.00 20.00     0.017 C 
HETATM    3  C3  UNL     1     -32.363   8.771   1.728  1.00 20.00    -0.063 C 
HETATM    4  C4  UNL     1     -33.692   7.974   3.699  1.00 20.00     0.074 C 
HETATM    5  C5  UNL     1     -34.195   6.548   3.961  1.00 20.00    -0.002 C 
HETATM    6  C6  UNL     1     -33.094   4.274   3.204  1.00 20.00     0.066 C 
HETATM    7  C7  UNL     1     -31.449   8.525   0.561  1.00 20.00     0.045 C 
HETATM    8  C8  UNL     1     -32.779  10.197   1.946  1.00 20.00     0.045 C 
HETATM    9  C9  UNL     1     -34.134   6.194   5.443  1.00 20.00     0.021 C 
HETATM   10  C10 UNL     1     -35.605   6.339   3.403  1.00 20.00     0.021 C 
HETATM   11  N11 UNL     1     -32.442   6.464   2.337  1.00 20.00    -0.262 NA
ENDROOT
TORSDOF 0
ENDMDL
MODEL 3
REMARK VINA RESULT:      -4.5      1.066      2.476
REMARK  0 active torsions:
REMARK  status: ('A' for Active; 'I' for Inactive)
ROOT
HETATM    1  C1  UNL     1     -34.355  16.513  -2.727  1.00 20.00     0.037 C 
HETATM    2  C2  UNL     1     -33.985  15.881  -4.743  1.00 20.00     0.017 C 
HETATM    3  C3  UNL     1     -34.192  17.216  -1.602  1.00 20.00    -0.063 C 
HETATM    4  C4  UNL     1     -35.596  15.737  -3.061  1.00 20.00     0.074 C 
HETATM    5  C5  UNL     1     -35.449  15.520  -4.573  1.00 20.00    -0.002 C 
HETATM    6  C6  UNL     1     -33.249  15.635  -6.023  1.00 20.00     0.066 C 
HETATM    7  C7  UNL     1     -32.930  17.978  -1.314  1.00 20.00     0.045 C 
HETATM    8  C8  UNL     1     -35.259  17.292  -0.548  1.00 20.00     0.045 C 
HETATM    9  C9  UNL     1     -35.745  14.076  -4.965  1.00 20.00     0.021 C 
HETATM   10  C10 UNL     1     -36.321  16.495  -5.368  1.00 20.00     0.021 C 
HETATM   11  N11 UNL     1     -33.414  16.444  -3.723  1.00 20.00    -0.262 NA
ENDROOT
TORSDOF 0
ENDMDL
MODEL 4
REMARK VINA RESULT:      -4.2      1.117      1.254
REMARK  0 active torsions:
REMARK  status: ('A' for Active; 'I' for Inactive)
ROOT
HETATM    1  C1  UNL     1     -35.123  16.718  -2.721  1.00 20.00     0.037 C 
HETATM    2  C2  UNL     1     -36.531  15.689  -3.969  1.00 20.00     0.017 C 
HETATM    3  C3  UNL     1     -34.621  17.254  -1.604  1.00 20.00    -0.063 C 
HETATM    4  C4  UNL     1     -34.305  16.386  -3.934  1.00 20.00     0.074 C 
HETATM    5  C5  UNL     1     -35.227  15.426  -4.698  1.00 20.00    -0.002 C 
HETATM    6  C6  UNL     1     -37.839  15.151  -4.460  1.00 20.00     0.066 C 
HETATM    7  C7  UNL     1     -35.482  17.567  -0.413  1.00 20.00     0.045 C 
HETATM    8  C8  UNL     1     -33.162  17.580  -1.461  1.00 20.00     0.045 C 
HETATM    9  C9  UNL     1     -35.304  15.780  -6.180  1.00 20.00     0.021 C 
HETATM   10  C10 UNL     1     -34.805  13.968  -4.502  1.00 20.00     0.021 C 
HETATM   11  N11 UNL     1     -36.444  16.381  -2.875  1.00 20.00    -0.262 NA
ENDROOT
TORSDOF 0
ENDMDL
MODEL 5
REMARK VINA RESULT:      -4.1      1.209      4.060
REMARK  0 active torsions:
REMARK  status: ('A' for Active; 'I' for Inactive)
ROOT
HETATM    1  C1  UNL     1     -34.766  15.915  -3.199  1.00 20.00     0.037 C 
HETATM    2  C2  UNL     1     -35.837  17.401  -2.084  1.00 20.00     0.017 C 
HETATM    3  C3  UNL     1     -34.560  14.977  -4.130  1.00 20.00    -0.063 C 
HETATM    4  C4  UNL     1     -33.667  16.638  -2.477  1.00 20.00     0.074 C 
HETATM    5  C5  UNL     1     -34.402  17.856  -1.900  1.00 20.00    -0.002 C 
HETATM    6  C6  UNL     1     -36.990  18.144  -1.484  1.00 20.00     0.066 C 
HETATM    7  C7  UNL     1     -35.695  14.282  -4.826  1.00 20.00     0.045 C 
HETATM    8  C8  UNL     1     -33.179  14.553  -4.542  1.00 20.00     0.045 C 
HETATM    9  C9  UNL     1     -34.043  18.087  -0.436  1.00 20.00     0.021 C 
HETATM   10  C10 UNL     1     -34.143  19.114  -2.734  1.00 20.00     0.021 C 
HETATM   11  N11 UNL     1     -36.012  16.346  -2.819  1.00 20.00    -0.262 NA
ENDROOT
TORSDOF 0
ENDMDL
MODEL 6
REMARK VINA RESULT:      -4.0      1.396      1.640
REMARK  0 active torsions:
REMARK  status: ('A' for Active; 'I' for Inactive)
ROOT
HETATM    1  C1  UNL     1     -35.361  16.980  -2.942  1.00 20.00     0.037 C 
HETATM    2  C2  UNL     1     -35.406  16.277  -4.967  1.00 20.00     0.017 C 
HETATM    3  C3  UNL     1     -35.831  17.494  -1.801  1.00 20.00    -0.063 C 
HETATM    4  C4  UNL     1     -34.073  16.219  -3.053  1.00 20.00     0.074 C 
HETATM    5  C5  UNL     1     -34.234  15.499  -4.400  1.00 20.00    -0.002 C 
HETATM    6  C6  UNL     1     -35.852  16.118  -6.388  1.00 20.00     0.066 C 
HETATM    7  C7  UNL     1     -37.128  18.249  -1.740  1.00 20.00     0.045 C 
HETATM    8  C8  UNL     1     -35.093  17.352  -0.500  1.00 20.00     0.045 C 
HETATM    9  C9  UNL     1     -32.978  15.623  -5.257  1.00 20.00     0.021 C 
HETATM   10  C10 UNL     1     -34.626  14.031  -4.208  1.00 20.00     0.021 C 
HETATM   11  N11 UNL     1     -36.021  17.066  -4.142  1.00 20.00    -0.262 NA
ENDROOT
TORSDOF 0
ENDMDL
MODEL 7
REMARK VINA RESULT:      -4.0      1.570      4.121
REMARK  0 active torsions:
REMARK  status: ('A' for Active; 'I' for Inactive)
ROOT
HETATM    1  C1  UNL     1     -36.144  15.527  -4.018  1.00 20.00     0.037 C 
HETATM    2  C2  UNL     1     -35.915  17.445  -3.087  1.00 20.00     0.017 C 
HETATM    3  C3  UNL     1     -36.714  14.574  -4.763  1.00 20.00    -0.063 C 
HETATM    4  C4  UNL     1     -34.701  15.522  -3.608  1.00 20.00     0.074 C 
HETATM    5  C5  UNL     1     -34.474  16.982  -3.192  1.00 20.00    -0.002 C 
HETATM    6  C6  UNL     1     -36.284  18.771  -2.497  1.00 20.00     0.066 C 
HETATM    7  C7  UNL     1     -38.165  14.624  -5.148  1.00 20.00     0.045 C 
HETATM    8  C8  UNL     1     -35.943  13.386  -5.264  1.00 20.00     0.045 C 
HETATM    9  C9  UNL     1     -33.730  17.079  -1.864  1.00 20.00     0.021 C 
HETATM   10  C10 UNL     1     -33.752  17.772  -4.287  1.00 20.00     0.021 C 
HETATM   11  N11 UNL     1     -36.811  16.638  -3.568  1.00 20.00    -0.262 NA
ENDROOT
TORSDOF 0
ENDMDL
MODEL 8
REMARK VINA RESULT:      -3.7      1.458      3.773
REMARK  0 active torsions:
REMARK  status: ('A' for Active; 'I' for Inactive)
ROOT
HETATM    1  C1  UNL     1     -36.289  15.386  -4.326  1.00 20.00     0.037 C 
HETATM    2  C2  UNL     1     -34.480  16.103  -3.425  1.00 20.00     0.017 C 
HETATM    3  C3  UNL     1     -37.578  15.387  -4.682  1.00 20.00    -0.063 C 
HETATM    4  C4  UNL     1     -35.240  14.528  -4.970  1.00 20.00     0.074 C 
HETATM    5  C5  UNL     1     -33.940  15.217  -4.532  1.00 20.00    -0.002 C 
HETATM    6  C6  UNL     1     -33.577  16.855  -2.498  1.00 20.00     0.066 C 
HETATM    7  C7  UNL     1     -38.591  16.266  -4.007  1.00 20.00     0.045 C 
HETATM    8  C8  UNL     1     -38.102  14.507  -5.781  1.00 20.00     0.045 C 
HETATM    9  C9  UNL     1     -32.913  14.209  -4.028  1.00 20.00     0.021 C 
HETATM   10  C10 UNL     1     -33.359  16.082  -5.654  1.00 20.00     0.021 C 
HETATM   11  N11 UNL     1     -35.772  16.196  -3.347  1.00 20.00    -0.262 NA
ENDROOT
TORSDOF 0
ENDMDL
MODEL 9
REMARK VINA RESULT:      -3.7      9.956     11.043
REMARK  0 active torsions:
REMARK  status: ('A' for Active; 'I' for Inactive)
ROOT
HETATM    1  C1  UNL     1     -33.237   8.178   2.057  1.00 20.00     0.037 C 
HETATM    2  C2  UNL     1     -33.376   7.332   4.022  1.00 20.00     0.017 C 
HETATM    3  C3  UNL     1     -32.785   8.972   1.081  1.00 20.00    -0.063 C 
HETATM    4  C4  UNL     1     -34.036   6.930   1.821  1.00 20.00     0.074 C 
HETATM    5  C5  UNL     1     -33.903   6.198   3.163  1.00 20.00    -0.002 C 
HETATM    6  C6  UNL     1     -33.264   7.216   5.511  1.00 20.00     0.066 C 
HETATM    7  C7  UNL     1     -31.988  10.213   1.368  1.00 20.00     0.045 C 
HETATM    8  C8  UNL     1     -33.043   8.680  -0.370  1.00 20.00     0.045 C 
HETATM    9  C9  UNL     1     -35.248   5.670   3.651  1.00 20.00     0.021 C 
HETATM   10  C10 UNL     1     -32.865   5.075   3.089  1.00 20.00     0.021 C 
HETATM   11  N11 UNL     1     -32.997   8.399   3.389  1.00 20.00    -0.262 NA
ENDROOT
TORSDOF 0
ENDMDL
