MODEL 1
REMARK VINA RESULT:      -4.2      0.000      0.000
REMARK  5 active torsions:
REMARK  status: ('A' for Active; 'I' for Inactive)
REMARK    1  A    between atoms: C2_2  and  C4_4 
REMARK    2  A    between atoms: C4_4  and  N7_7 
REMARK    3  A    between atoms: C5_5  and  C6_6 
REMARK    4  A    between atoms: C5_5  and  N7_7 
REMARK    5  A    between atoms: C6_6  and  S8_8 
ROOT
HETATM    1  C1  UNL     1     -32.510   9.088   1.194  1.00 20.00    -0.109 C 
HETATM    2  C2  UNL     1     -32.438   8.406   2.181  1.00 20.00    -0.077 C 
HETATM    3  C3  UNL     1     -32.600   9.918  -0.007  1.00 20.00     0.112 C 
ENDROOT
BRANCH   2   4
HETATM    4  C4  UNL     1     -32.357   7.572   3.383  1.00 20.00     0.362 C 
BRANCH   4   5
HETATM    5  N7  UNL     1     -33.687   7.191   3.843  1.00 20.00     0.095 N 
HETATM    6  H18 UNL     1     -34.363   7.881   3.518  1.00 20.00     0.317 HD
BRANCH   5   7
HETATM    7  C5  UNL     1     -33.733   7.120   5.297  1.00 20.00     0.280 C 
BRANCH   7   8
HETATM    8  C6  UNL     1     -34.472   5.891   5.809  1.00 20.00     0.100 C 
BRANCH   8   9
HETATM    9  S8  UNL     1     -34.503   4.547   4.584  1.00 20.00    -0.180 SA
HETATM   10  H19 UNL     1     -35.571   4.999   3.911  1.00 20.00     0.101 HD
ENDBRANCH   8   9
ENDBRANCH   7   8
ENDBRANCH   5   7
ENDBRANCH   4   5
ENDBRANCH   2   4
TORSDOF 5
ENDMDL
MODEL 2
REMARK VINA RESULT:      -4.2      1.254      1.255
REMARK  5 active torsions:
REMARK  status: ('A' for Active; 'I' for Inactive)
REMARK    1  A    between atoms: C2_2  and  C4_4 
REMARK    2  A    between atoms: C4_4  and  N7_7 
REMARK    3  A    between atoms: C5_5  and  C6_6 
REMARK    4  A    between atoms: C5_5  and  N7_7 
REMARK    5  A    between atoms: C6_6  and  S8_8 
ROOT
HETATM    1  C1  UNL     1     -32.558   9.086   0.950  1.00 20.00    -0.109 C 
HETATM    2  C2  UNL     1     -32.211   8.607   1.996  1.00 20.00    -0.077 C 
HETATM    3  C3  UNL     1     -32.981   9.667  -0.323  1.00 20.00     0.112 C 
ENDROOT
BRANCH   2   4
HETATM    4  C4  UNL     1     -31.782   8.019   3.268  1.00 20.00     0.362 C 
BRANCH   4   5
HETATM    5  N7  UNL     1     -32.910   7.414   3.966  1.00 20.00     0.095 N 
HETATM    6  H18 UNL     1     -32.581   7.002   4.838  1.00 20.00     0.317 HD
BRANCH   5   7
HETATM    7  C5  UNL     1     -33.532   6.379   3.151  1.00 20.00     0.280 C 
BRANCH   7   8
HETATM    8  C6  UNL     1     -34.808   5.823   3.768  1.00 20.00     0.100 C 
BRANCH   8   9
HETATM    9  S8  UNL     1     -34.569   5.304   5.495  1.00 20.00    -0.180 SA
HETATM   10  H19 UNL     1     -33.230   5.257   5.440  1.00 20.00     0.101 HD
ENDBRANCH   8   9
ENDBRANCH   7   8
ENDBRANCH   5   7
ENDBRANCH   4   5
ENDBRANCH   2   4
TORSDOF 5
ENDMDL
MODEL 3
REMARK VINA RESULT:      -3.7      2.830      5.135
REMARK  5 active torsions:
REMARK  status: ('A' for Active; 'I' for Inactive)
REMARK    1  A    between atoms: C2_2  and  C4_4 
REMARK    2  A    between atoms: C4_4  and  N7_7 
REMARK    3  A    between atoms: C5_5  and  C6_6 
REMARK    4  A    between atoms: C5_5  and  N7_7 
REMARK    5  A    between atoms: C6_6  and  S8_8 
ROOT
HETATM    1  C1  UNL     1     -34.234   5.795   4.661  1.00 20.00    -0.109 C 
HETATM    2  C2  UNL     1     -33.773   6.397   3.729  1.00 20.00    -0.077 C 
HETATM    3  C3  UNL     1     -34.792   5.063   5.797  1.00 20.00     0.112 C 
ENDROOT
BRANCH   2   4
HETATM    4  C4  UNL     1     -33.206   7.126   2.591  1.00 20.00     0.362 C 
BRANCH   4   5
HETATM    5  N7  UNL     1     -32.106   7.981   3.018  1.00 20.00     0.095 N 
HETATM    6  H18 UNL     1     -32.440   8.623   3.736  1.00 20.00     0.317 HD
BRANCH   5   7
HETATM    7  C5  UNL     1     -31.578   8.748   1.897  1.00 20.00     0.280 C 
BRANCH   7   8
HETATM    8  C6  UNL     1     -32.571   9.767   1.354  1.00 20.00     0.100 C 
BRANCH   8   9
HETATM    9  S8  UNL     1     -32.918   9.513  -0.414  1.00 20.00    -0.180 SA
HETATM   10  H19 UNL     1     -32.320   8.316  -0.501  1.00 20.00     0.101 HD
ENDBRANCH   8   9
ENDBRANCH   7   8
ENDBRANCH   5   7
ENDBRANCH   4   5
ENDBRANCH   2   4
TORSDOF 5
ENDMDL
MODEL 4
REMARK VINA RESULT:      -3.5      2.103      2.613
REMARK  5 active torsions:
REMARK  status: ('A' for Active; 'I' for Inactive)
REMARK    1  A    between atoms: C2_2  and  C4_4 
REMARK    2  A    between atoms: C4_4  and  N7_7 
REMARK    3  A    between atoms: C5_5  and  C6_6 
REMARK    4  A    between atoms: C5_5  and  N7_7 
REMARK    5  A    between atoms: C6_6  and  S8_8 
ROOT
HETATM    1  C1  UNL     1     -32.464   7.168   2.599  1.00 20.00    -0.109 C 
HETATM    2  C2  UNL     1     -32.912   6.053   2.615  1.00 20.00    -0.077 C 
HETATM    3  C3  UNL     1     -31.921   8.525   2.580  1.00 20.00     0.112 C 
ENDROOT
BRANCH   2   4
HETATM    4  C4  UNL     1     -33.461   4.694   2.627  1.00 20.00     0.362 C 
BRANCH   4   5
HETATM    5  N7  UNL     1     -33.937   4.337   3.958  1.00 20.00     0.095 N 
HETATM    6  H18 UNL     1     -34.379   3.420   3.920  1.00 20.00     0.317 HD
BRANCH   5   7
HETATM    7  C5  UNL     1     -34.901   5.314   4.444  1.00 20.00     0.280 C 
BRANCH   7   8
HETATM    8  C6  UNL     1     -34.638   5.748   5.879  1.00 20.00     0.100 C 
BRANCH   8   9
HETATM    9  S8  UNL     1     -33.731   7.323   5.966  1.00 20.00    -0.180 SA
HETATM   10  H19 UNL     1     -32.566   6.837   5.516  1.00 20.00     0.101 HD
ENDBRANCH   8   9
ENDBRANCH   7   8
ENDBRANCH   5   7
ENDBRANCH   4   5
ENDBRANCH   2   4
TORSDOF 5
ENDMDL
MODEL 5
REMARK VINA RESULT:      -3.5      2.741      5.008
REMARK  5 active torsions:
REMARK  status: ('A' for Active; 'I' for Inactive)
REMARK    1  A    between atoms: C2_2  and  C4_4 
REMARK    2  A    between atoms: C4_4  and  N7_7 
REMARK    3  A    between atoms: C5_5  and  C6_6 
REMARK    4  A    between atoms: C5_5  and  N7_7 
REMARK    5  A    between atoms: C6_6  and  S8_8 
ROOT
HETATM    1  C1  UNL     1     -34.047   6.186   5.252  1.00 20.00    -0.109 C 
HETATM    2  C2  UNL     1     -33.367   7.148   5.017  1.00 20.00    -0.077 C 
HETATM    3  C3  UNL     1     -34.873   5.014   5.537  1.00 20.00     0.112 C 
ENDROOT
BRANCH   2   4
HETATM    4  C4  UNL     1     -32.540   8.322   4.723  1.00 20.00     0.362 C 
BRANCH   4   5
HETATM    5  N7  UNL     1     -31.637   8.056   3.611  1.00 20.00     0.095 N 
HETATM    6  H18 UNL     1     -30.998   8.843   3.504  1.00 20.00     0.317 HD
BRANCH   5   7
HETATM    7  C5  UNL     1     -32.379   7.870   2.372  1.00 20.00     0.280 C 
BRANCH   7   8
HETATM    8  C6  UNL     1     -31.829   8.696   1.217  1.00 20.00     0.100 C 
BRANCH   8   9
HETATM    9  S8  UNL     1     -32.720  10.268   1.010  1.00 20.00    -0.180 SA
HETATM   10  H19 UNL     1     -32.563  10.341  -0.319  1.00 20.00     0.101 HD
ENDBRANCH   8   9
ENDBRANCH   7   8
ENDBRANCH   5   7
ENDBRANCH   4   5
ENDBRANCH   2   4
TORSDOF 5
ENDMDL
MODEL 6
REMARK VINA RESULT:      -3.4     11.063     11.407
REMARK  5 active torsions:
REMARK  status: ('A' for Active; 'I' for Inactive)
REMARK    1  A    between atoms: C2_2  and  C4_4 
REMARK    2  A    between atoms: C4_4  and  N7_7 
REMARK    3  A    between atoms: C5_5  and  C6_6 
REMARK    4  A    between atoms: C5_5  and  N7_7 
REMARK    5  A    between atoms: C6_6  and  S8_8 
ROOT
HETATM    1  C1  UNL     1     -34.206  16.363  -2.748  1.00 20.00    -0.109 C 
HETATM    2  C2  UNL     1     -33.702  15.908  -3.740  1.00 20.00    -0.077 C 
HETATM    3  C3  UNL     1     -34.818  16.919  -1.543  1.00 20.00     0.112 C 
ENDROOT
BRANCH   2   4
HETATM    4  C4  UNL     1     -33.081  15.354  -4.946  1.00 20.00     0.362 C 
BRANCH   4   5
HETATM    5  N7  UNL     1     -33.565  14.004  -5.207  1.00 20.00     0.095 N 
HETATM    6  H18 UNL     1     -32.834  13.471  -5.676  1.00 20.00     0.317 HD
BRANCH   5   7
HETATM    7  C5  UNL     1     -34.754  14.031  -6.048  1.00 20.00     0.280 C 
BRANCH   7   8
HETATM    8  C6  UNL     1     -35.974  13.420  -5.373  1.00 20.00     0.100 C 
BRANCH   8   9
HETATM    9  S8  UNL     1     -37.208  14.677  -4.916  1.00 20.00    -0.180 SA
HETATM   10  H19 UNL     1     -36.856  14.752  -3.625  1.00 20.00     0.101 HD
ENDBRANCH   8   9
ENDBRANCH   7   8
ENDBRANCH   5   7
ENDBRANCH   4   5
ENDBRANCH   2   4
TORSDOF 5
ENDMDL
MODEL 7
REMARK VINA RESULT:      -3.2      0.999      1.194
REMARK  5 active torsions:
REMARK  status: ('A' for Active; 'I' for Inactive)
REMARK    1  A    between atoms: C2_2  and  C4_4 
REMARK    2  A    between atoms: C4_4  and  N7_7 
REMARK    3  A    between atoms: C5_5  and  C6_6 
REMARK    4  A    between atoms: C5_5  and  N7_7 
REMARK    5  A    between atoms: C6_6  and  S8_8 
ROOT
HETATM    1  C1  UNL     1     -31.963   8.437   2.104  1.00 20.00    -0.109 C 
HETATM    2  C2  UNL     1     -32.287   8.133   3.221  1.00 20.00    -0.077 C 
HETATM    3  C3  UNL     1     -31.569   8.808   0.746  1.00 20.00     0.112 C 
ENDROOT
BRANCH   2   4
HETATM    4  C4  UNL     1     -32.686   7.769   4.583  1.00 20.00     0.362 C 
BRANCH   4   5
HETATM    5  N7  UNL     1     -34.076   7.332   4.618  1.00 20.00     0.095 N 
HETATM    6  H18 UNL     1     -34.679   8.144   4.736  1.00 20.00     0.317 HD
BRANCH   5   7
HETATM    7  C5  UNL     1     -34.301   6.402   5.716  1.00 20.00     0.280 C 
BRANCH   7   8
HETATM    8  C6  UNL     1     -34.631   4.992   5.245  1.00 20.00     0.100 C 
BRANCH   8   9
HETATM    9  S8  UNL     1     -33.893   4.618   3.625  1.00 20.00    -0.180 SA
HETATM   10  H19 UNL     1     -33.204   5.763   3.520  1.00 20.00     0.101 HD
ENDBRANCH   8   9
ENDBRANCH   7   8
ENDBRANCH   5   7
ENDBRANCH   4   5
ENDBRANCH   2   4
TORSDOF 5
ENDMDL
MODEL 8
REMARK VINA RESULT:      -3.2     11.055     11.484
REMARK  5 active torsions:
REMARK  status: ('A' for Active; 'I' for Inactive)
REMARK    1  A    between atoms: C2_2  and  C4_4 
REMARK    2  A    between atoms: C4_4  and  N7_7 
REMARK    3  A    between atoms: C5_5  and  C6_6 
REMARK    4  A    between atoms: C5_5  and  N7_7 
REMARK    5  A    between atoms: C6_6  and  S8_8 
ROOT
HETATM    1  C1  UNL     1     -34.826  16.561  -2.024  1.00 20.00    -0.109 C 
HETATM    2  C2  UNL     1     -34.430  15.968  -2.991  1.00 20.00    -0.077 C 
HETATM    3  C3  UNL     1     -35.305  17.282  -0.846  1.00 20.00     0.112 C 
ENDROOT
BRANCH   2   4
HETATM    4  C4  UNL     1     -33.945  15.240  -4.167  1.00 20.00     0.362 C 
BRANCH   4   5
HETATM    5  N7  UNL     1     -34.428  13.865  -4.162  1.00 20.00     0.095 N 
HETATM    6  H18 UNL     1     -33.699  13.253  -4.527  1.00 20.00     0.317 HD
BRANCH   5   7
HETATM    7  C5  UNL     1     -35.623  13.730  -4.984  1.00 20.00     0.280 C 
BRANCH   7   8
HETATM    8  C6  UNL     1     -35.552  14.535  -6.275  1.00 20.00     0.100 C 
BRANCH   8   9
HETATM    9  S8  UNL     1     -34.589  13.684  -7.563  1.00 20.00    -0.180 SA
HETATM   10  H19 UNL     1     -34.502  14.737  -8.387  1.00 20.00     0.101 HD
ENDBRANCH   8   9
ENDBRANCH   7   8
ENDBRANCH   5   7
ENDBRANCH   4   5
ENDBRANCH   2   4
TORSDOF 5
ENDMDL
MODEL 9
REMARK VINA RESULT:      -3.2     11.382     12.272
REMARK  5 active torsions:
REMARK  status: ('A' for Active; 'I' for Inactive)
REMARK    1  A    between atoms: C2_2  and  C4_4 
REMARK    2  A    between atoms: C4_4  and  N7_7 
REMARK    3  A    between atoms: C5_5  and  C6_6 
REMARK    4  A    between atoms: C5_5  and  N7_7 
REMARK    5  A    between atoms: C6_6  and  S8_8 
ROOT
HETATM    1  C1  UNL     1     -33.928  16.245  -3.013  1.00 20.00    -0.109 C 
HETATM    2  C2  UNL     1     -34.288  15.305  -3.669  1.00 20.00    -0.077 C 
HETATM    3  C3  UNL     1     -33.489  17.387  -2.213  1.00 20.00     0.112 C 
ENDROOT
BRANCH   2   4
HETATM    4  C4  UNL     1     -34.732  14.157  -4.464  1.00 20.00     0.362 C 
BRANCH   4   5
HETATM    5  N7  UNL     1     -33.793  13.878  -5.544  1.00 20.00     0.095 N 
HETATM    6  H18 UNL     1     -33.096  14.620  -5.581  1.00 20.00     0.317 HD
BRANCH   5   7
HETATM    7  C5  UNL     1     -34.483  13.803  -6.825  1.00 20.00     0.280 C 
BRANCH   7   8
HETATM    8  C6  UNL     1     -33.911  14.756  -7.866  1.00 20.00     0.100 C 
BRANCH   8   9
HETATM    9  S8  UNL     1     -34.072  16.498  -7.366  1.00 20.00    -0.180 SA
HETATM   10  H19 UNL     1     -33.055  16.950  -8.112  1.00 20.00     0.101 HD
ENDBRANCH   8   9
ENDBRANCH   7   8
ENDBRANCH   5   7
ENDBRANCH   4   5
ENDBRANCH   2   4
TORSDOF 5
ENDMDL
