MODEL 1
REMARK VINA RESULT:      -4.7      0.000      0.000
REMARK  2 active torsions:
REMARK  status: ('A' for Active; 'I' for Inactive)
REMARK    1  A    between atoms: C2_2  and  C6_6 
REMARK    2  A    between atoms: C3_3  and  C7_7 
ROOT
HETATM    1  C1  UNL     1     -34.051   6.115   2.995  1.00 20.00     0.100 A 
HETATM    2  C2  UNL     1     -34.525   6.488   4.379  1.00 20.00     0.089 A 
HETATM    3  C3  UNL     1     -32.247   7.370   3.514  1.00 20.00     0.168 A 
HETATM    4  N8  UNL     1     -32.919   6.524   2.514  1.00 20.00    -0.289 NA
HETATM    5  S9  UNL     1     -33.259   7.610   4.998  1.00 20.00    -0.132 SA
ENDROOT
BRANCH   2   6
HETATM    6  C6  UNL     1     -34.636   5.247   5.248  1.00 20.00     0.016 C 
HETATM    7  C4  UNL     1     -34.270   4.004   4.499  1.00 20.00     0.006 C 
ENDBRANCH   2   6
BRANCH   3   8
HETATM    8  C7  UNL     1     -31.929   8.716   2.877  1.00 20.00     0.033 C 
HETATM    9  C5  UNL     1     -31.954   8.645   1.384  1.00 20.00     0.008 C 
ENDBRANCH   3   8
TORSDOF 2
ENDMDL
MODEL 2
REMARK VINA RESULT:      -4.6      0.666      3.998
REMARK  2 active torsions:
REMARK  status: ('A' for Active; 'I' for Inactive)
REMARK    1  A    between atoms: C2_2  and  C6_6 
REMARK    2  A    between atoms: C3_3  and  C7_7 
ROOT
HETATM    1  C1  UNL     1     -32.995   6.472   2.519  1.00 20.00     0.100 A 
HETATM    2  C2  UNL     1     -32.221   7.517   3.286  1.00 20.00     0.089 A 
HETATM    3  C3  UNL     1     -34.421   6.562   4.268  1.00 20.00     0.168 A 
HETATM    4  N8  UNL     1     -34.103   5.964   2.960  1.00 20.00    -0.289 NA
HETATM    5  S9  UNL     1     -33.132   7.705   4.828  1.00 20.00    -0.132 SA
ENDROOT
BRANCH   2   6
HETATM    6  C6  UNL     1     -32.180   8.819   2.505  1.00 20.00     0.016 C 
HETATM    7  C4  UNL     1     -31.702   8.617   1.102  1.00 20.00     0.006 C 
ENDBRANCH   2   6
BRANCH   3   8
HETATM    8  C7  UNL     1     -34.601   5.441   5.282  1.00 20.00     0.033 C 
HETATM    9  C5  UNL     1     -34.415   4.093   4.663  1.00 20.00     0.008 C 
ENDBRANCH   3   8
TORSDOF 2
ENDMDL
MODEL 3
REMARK VINA RESULT:      -3.7      1.764      2.481
REMARK  2 active torsions:
REMARK  status: ('A' for Active; 'I' for Inactive)
REMARK    1  A    between atoms: C2_2  and  C6_6 
REMARK    2  A    between atoms: C3_3  and  C7_7 
ROOT
HETATM    1  C1  UNL     1     -31.616   8.048   3.785  1.00 20.00     0.100 A 
HETATM    2  C2  UNL     1     -32.784   7.092   3.739  1.00 20.00     0.089 A 
HETATM    3  C3  UNL     1     -32.590   8.980   1.973  1.00 20.00     0.168 A 
HETATM    4  N8  UNL     1     -31.471   9.011   2.931  1.00 20.00    -0.289 NA
HETATM    5  S9  UNL     1     -33.700   7.578   2.266  1.00 20.00    -0.132 SA
ENDROOT
BRANCH   2   6
HETATM    6  C6  UNL     1     -33.632   7.239   4.991  1.00 20.00     0.016 C 
HETATM    7  C4  UNL     1     -34.414   5.998   5.287  1.00 20.00     0.006 C 
ENDBRANCH   2   6
BRANCH   3   8
HETATM    8  C7  UNL     1     -32.020   8.906   0.564  1.00 20.00     0.033 C 
HETATM    9  C5  UNL     1     -32.999   9.386  -0.460  1.00 20.00     0.008 C 
ENDBRANCH   3   8
TORSDOF 2
ENDMDL
MODEL 4
REMARK VINA RESULT:      -3.6     11.647     12.450
REMARK  2 active torsions:
REMARK  status: ('A' for Active; 'I' for Inactive)
REMARK    1  A    between atoms: C2_2  and  C6_6 
REMARK    2  A    between atoms: C3_3  and  C7_7 
ROOT
HETATM    1  C1  UNL     1     -34.681  14.786  -4.011  1.00 20.00     0.100 A 
HETATM    2  C2  UNL     1     -34.654  16.281  -3.801  1.00 20.00     0.089 A 
HETATM    3  C3  UNL     1     -33.382  15.235  -5.803  1.00 20.00     0.168 A 
HETATM    4  N8  UNL     1     -34.061  14.210  -4.992  1.00 20.00    -0.289 NA
HETATM    5  S9  UNL     1     -33.724  16.912  -5.209  1.00 20.00    -0.132 SA
ENDROOT
BRANCH   2   6
HETATM    6  C6  UNL     1     -33.965  16.614  -2.489  1.00 20.00     0.016 C 
HETATM    7  C4  UNL     1     -34.947  16.930  -1.405  1.00 20.00     0.006 C 
ENDBRANCH   2   6
BRANCH   3   8
HETATM    8  C7  UNL     1     -33.839  15.091  -7.248  1.00 20.00     0.033 C 
HETATM    9  C5  UNL     1     -34.371  13.723  -7.531  1.00 20.00     0.008 C 
ENDBRANCH   3   8
TORSDOF 2
ENDMDL
MODEL 5
REMARK VINA RESULT:      -3.6     11.828     12.568
REMARK  2 active torsions:
REMARK  status: ('A' for Active; 'I' for Inactive)
REMARK    1  A    between atoms: C2_2  and  C6_6 
REMARK    2  A    between atoms: C3_3  and  C7_7 
ROOT
HETATM    1  C1  UNL     1     -33.233  15.275  -4.261  1.00 20.00     0.100 A 
HETATM    2  C2  UNL     1     -34.684  15.141  -3.867  1.00 20.00     0.089 A 
HETATM    3  C3  UNL     1     -34.060  15.744  -6.310  1.00 20.00     0.168 A 
HETATM    4  N8  UNL     1     -32.864  15.578  -5.466  1.00 20.00    -0.289 NA
HETATM    5  S9  UNL     1     -35.589  15.382  -5.406  1.00 20.00    -0.132 SA
ENDROOT
BRANCH   2   6
HETATM    6  C6  UNL     1     -35.048  16.199  -2.840  1.00 20.00     0.016 C 
HETATM    7  C4  UNL     1     -33.837  16.858  -2.259  1.00 20.00     0.006 C 
ENDBRANCH   2   6
BRANCH   3   8
HETATM    8  C7  UNL     1     -33.936  14.821  -7.514  1.00 20.00     0.033 C 
HETATM    9  C5  UNL     1     -34.616  13.509  -7.284  1.00 20.00     0.008 C 
ENDBRANCH   3   8
TORSDOF 2
ENDMDL
MODEL 6
REMARK VINA RESULT:      -3.6     11.809     12.696
REMARK  2 active torsions:
REMARK  status: ('A' for Active; 'I' for Inactive)
REMARK    1  A    between atoms: C2_2  and  C6_6 
REMARK    2  A    between atoms: C3_3  and  C7_7 
ROOT
HETATM    1  C1  UNL     1     -33.683  14.549  -4.902  1.00 20.00     0.100 A 
HETATM    2  C2  UNL     1     -33.179  15.640  -5.816  1.00 20.00     0.089 A 
HETATM    3  C3  UNL     1     -34.586  16.253  -3.727  1.00 20.00     0.168 A 
HETATM    4  N8  UNL     1     -34.393  14.798  -3.847  1.00 20.00    -0.289 NA
HETATM    5  S9  UNL     1     -33.702  17.168  -5.018  1.00 20.00    -0.132 SA
ENDROOT
BRANCH   2   6
HETATM    6  C6  UNL     1     -33.798  15.496  -7.195  1.00 20.00     0.016 C 
HETATM    7  C4  UNL     1     -34.237  14.093  -7.470  1.00 20.00     0.006 C 
ENDBRANCH   2   6
BRANCH   3   8
HETATM    8  C7  UNL     1     -34.103  16.694  -2.352  1.00 20.00     0.033 C 
HETATM    9  C5  UNL     1     -35.237  16.884  -1.397  1.00 20.00     0.008 C 
ENDBRANCH   3   8
TORSDOF 2
ENDMDL
MODEL 7
REMARK VINA RESULT:      -3.6     11.501     12.130
REMARK  2 active torsions:
REMARK  status: ('A' for Active; 'I' for Inactive)
REMARK    1  A    between atoms: C2_2  and  C6_6 
REMARK    2  A    between atoms: C3_3  and  C7_7 
ROOT
HETATM    1  C1  UNL     1     -35.916  16.041  -4.067  1.00 20.00     0.100 A 
HETATM    2  C2  UNL     1     -34.421  16.249  -4.028  1.00 20.00     0.089 A 
HETATM    3  C3  UNL     1     -35.385  13.947  -4.727  1.00 20.00     0.168 A 
HETATM    4  N8  UNL     1     -36.452  14.910  -4.404  1.00 20.00    -0.289 NA
HETATM    5  S9  UNL     1     -33.738  14.695  -4.629  1.00 20.00    -0.132 SA
ENDROOT
BRANCH   2   6
HETATM    6  C6  UNL     1     -33.968  16.541  -2.608  1.00 20.00     0.016 C 
HETATM    7  C4  UNL     1     -35.124  16.779  -1.688  1.00 20.00     0.006 C 
ENDBRANCH   2   6
BRANCH   3   8
HETATM    8  C7  UNL     1     -35.629  13.405  -6.128  1.00 20.00     0.033 C 
HETATM    9  C5  UNL     1     -34.481  13.687  -7.043  1.00 20.00     0.008 C 
ENDBRANCH   3   8
TORSDOF 2
ENDMDL
MODEL 8
REMARK VINA RESULT:      -3.5     11.626     12.285
REMARK  2 active torsions:
REMARK  status: ('A' for Active; 'I' for Inactive)
REMARK    1  A    between atoms: C2_2  and  C6_6 
REMARK    2  A    between atoms: C3_3  and  C7_7 
ROOT
HETATM    1  C1  UNL     1     -35.072  14.152  -4.655  1.00 20.00     0.100 A 
HETATM    2  C2  UNL     1     -33.889  14.358  -5.570  1.00 20.00     0.089 A 
HETATM    3  C3  UNL     1     -34.640  16.264  -3.983  1.00 20.00     0.168 A 
HETATM    4  N8  UNL     1     -35.493  15.071  -3.845  1.00 20.00    -0.289 NA
HETATM    5  S9  UNL     1     -33.276  15.998  -5.145  1.00 20.00    -0.132 SA
ENDROOT
BRANCH   2   6
HETATM    6  C6  UNL     1     -34.330  14.293  -7.022  1.00 20.00     0.016 C 
HETATM    7  C4  UNL     1     -35.191  13.099  -7.293  1.00 20.00     0.006 C 
ENDBRANCH   2   6
BRANCH   3   8
HETATM    8  C7  UNL     1     -34.092  16.629  -2.610  1.00 20.00     0.033 C 
HETATM    9  C5  UNL     1     -35.182  16.802  -1.602  1.00 20.00     0.008 C 
ENDBRANCH   3   8
TORSDOF 2
ENDMDL
MODEL 9
REMARK VINA RESULT:      -3.5     11.892     12.724
REMARK  2 active torsions:
REMARK  status: ('A' for Active; 'I' for Inactive)
REMARK    1  A    between atoms: C2_2  and  C6_6 
REMARK    2  A    between atoms: C3_3  and  C7_7 
ROOT
HETATM    1  C1  UNL     1     -33.675  16.495  -5.821  1.00 20.00     0.100 A 
HETATM    2  C2  UNL     1     -34.744  15.541  -6.297  1.00 20.00     0.089 A 
HETATM    3  C3  UNL     1     -34.083  15.592  -3.792  1.00 20.00     0.168 A 
HETATM    4  N8  UNL     1     -33.302  16.559  -4.582  1.00 20.00    -0.289 NA
HETATM    5  S9  UNL     1     -35.327  14.737  -4.795  1.00 20.00    -0.132 SA
ENDROOT
BRANCH   2   6
HETATM    6  C6  UNL     1     -34.154  14.535  -7.270  1.00 20.00     0.016 C 
HETATM    7  C4  UNL     1     -34.895  13.235  -7.251  1.00 20.00     0.006 C 
ENDBRANCH   2   6
BRANCH   3   8
HETATM    8  C7  UNL     1     -34.758  16.333  -2.646  1.00 20.00     0.033 C 
HETATM    9  C5  UNL     1     -33.778  17.122  -1.839  1.00 20.00     0.008 C 
ENDBRANCH   3   8
TORSDOF 2
ENDMDL
