MODEL 1
REMARK VINA RESULT:      -5.3      0.000      0.000
REMARK  3 active torsions:
REMARK  status: ('A' for Active; 'I' for Inactive)
REMARK    1  A    between atoms: C1_1  and  C3_3 
REMARK    2  A    between atoms: C2_2  and  C8_8 
REMARK    3  A    between atoms: C3_3  and  O10_10 
ROOT
HETATM    1  C1  UNL     1     -33.041   7.156   2.755  1.00 20.00     0.079 C 
HETATM    2  C2  UNL     1     -33.324   6.717   3.991  1.00 20.00    -0.012 C 
ENDROOT
BRANCH   1   3
HETATM    3  C3  UNL     1     -31.975   8.164   2.558  1.00 20.00     0.282 C 
HETATM    4  O9  UNL     1     -31.158   8.504   3.399  1.00 20.00    -0.260 OA
BRANCH   3   5
HETATM    5  O10 UNL     1     -32.080   8.631   1.285  1.00 20.00    -0.323 OA
HETATM    6  C7  UNL     1     -32.637   9.943   1.152  1.00 20.00     0.213 C 
ENDBRANCH   3   5
ENDBRANCH   1   3
BRANCH   2   7
HETATM    7  C8  UNL     1     -34.379   5.689   4.379  1.00 20.00    -0.034 C 
HETATM    8  C4  UNL     1     -33.998   4.235   4.045  1.00 20.00     0.018 C 
HETATM    9  C5  UNL     1     -34.618   5.794   5.896  1.00 20.00     0.018 C 
HETATM   10  C6  UNL     1     -35.683   6.034   3.639  1.00 20.00     0.018 C 
ENDBRANCH   2   7
TORSDOF 3
ENDMDL
MODEL 2
REMARK VINA RESULT:      -5.2      0.113      1.346
REMARK  3 active torsions:
REMARK  status: ('A' for Active; 'I' for Inactive)
REMARK    1  A    between atoms: C1_1  and  C3_3 
REMARK    2  A    between atoms: C2_2  and  C8_8 
REMARK    3  A    between atoms: C3_3  and  O10_10 
ROOT
HETATM    1  C1  UNL     1     -33.103   7.267   2.769  1.00 20.00     0.079 C 
HETATM    2  C2  UNL     1     -33.253   6.655   3.954  1.00 20.00    -0.012 C 
ENDROOT
BRANCH   1   3
HETATM    3  C3  UNL     1     -31.979   8.208   2.564  1.00 20.00     0.282 C 
HETATM    4  O9  UNL     1     -31.155   8.522   3.407  1.00 20.00    -0.260 OA
BRANCH   3   5
HETATM    5  O10 UNL     1     -32.040   8.647   1.278  1.00 20.00    -0.323 OA
HETATM    6  C7  UNL     1     -32.640   9.934   1.093  1.00 20.00     0.213 C 
ENDBRANCH   3   5
ENDBRANCH   1   3
BRANCH   2   7
HETATM    7  C8  UNL     1     -34.342   5.663   4.342  1.00 20.00    -0.034 C 
HETATM    8  C4  UNL     1     -34.622   5.589   5.854  1.00 20.00     0.018 C 
HETATM    9  C5  UNL     1     -35.642   6.070   3.624  1.00 20.00     0.018 C 
HETATM   10  C6  UNL     1     -33.915   4.266   3.856  1.00 20.00     0.018 C 
ENDBRANCH   2   7
TORSDOF 3
ENDMDL
MODEL 3
REMARK VINA RESULT:      -5.2      0.121      1.390
REMARK  3 active torsions:
REMARK  status: ('A' for Active; 'I' for Inactive)
REMARK    1  A    between atoms: C1_1  and  C3_3 
REMARK    2  A    between atoms: C2_2  and  C8_8 
REMARK    3  A    between atoms: C3_3  and  O10_10 
ROOT
HETATM    1  C1  UNL     1     -33.046   7.299   2.738  1.00 20.00     0.079 C 
HETATM    2  C2  UNL     1     -33.252   6.720   3.931  1.00 20.00    -0.012 C 
ENDROOT
BRANCH   1   3
HETATM    3  C3  UNL     1     -31.908   8.228   2.557  1.00 20.00     0.282 C 
HETATM    4  O9  UNL     1     -31.103   8.539   3.421  1.00 20.00    -0.260 OA
BRANCH   3   5
HETATM    5  O10 UNL     1     -31.929   8.659   1.267  1.00 20.00    -0.323 OA
HETATM    6  C7  UNL     1     -32.612   9.897   1.043  1.00 20.00     0.213 C 
ENDBRANCH   3   5
ENDBRANCH   1   3
BRANCH   2   7
HETATM    7  C8  UNL     1     -34.363   5.744   4.296  1.00 20.00    -0.034 C 
HETATM    8  C4  UNL     1     -35.716   6.047   3.627  1.00 20.00     0.018 C 
HETATM    9  C5  UNL     1     -33.919   4.331   3.878  1.00 20.00     0.018 C 
HETATM   10  C6  UNL     1     -34.554   5.781   5.822  1.00 20.00     0.018 C 
ENDBRANCH   2   7
TORSDOF 3
ENDMDL
MODEL 4
REMARK VINA RESULT:      -5.0      2.008      4.907
REMARK  3 active torsions:
REMARK  status: ('A' for Active; 'I' for Inactive)
REMARK    1  A    between atoms: C1_1  and  C3_3 
REMARK    2  A    between atoms: C2_2  and  C8_8 
REMARK    3  A    between atoms: C3_3  and  O10_10 
ROOT
HETATM    1  C1  UNL     1     -32.680   7.351   2.497  1.00 20.00     0.079 C 
HETATM    2  C2  UNL     1     -33.139   8.504   1.986  1.00 20.00    -0.012 C 
ENDROOT
BRANCH   1   3
HETATM    3  C3  UNL     1     -33.423   6.681   3.587  1.00 20.00     0.282 C 
HETATM    4  O9  UNL     1     -34.112   5.681   3.465  1.00 20.00    -0.260 OA
BRANCH   3   5
HETATM    5  O10 UNL     1     -33.197   7.381   4.732  1.00 20.00    -0.323 OA
HETATM    6  C7  UNL     1     -33.968   6.974   5.866  1.00 20.00     0.213 C 
ENDBRANCH   3   5
ENDBRANCH   1   3
BRANCH   2   7
HETATM    7  C8  UNL     1     -32.510   9.326   0.868  1.00 20.00    -0.034 C 
HETATM    8  C4  UNL     1     -33.294   9.297  -0.457  1.00 20.00     0.018 C 
HETATM    9  C5  UNL     1     -32.409  10.786   1.344  1.00 20.00     0.018 C 
HETATM   10  C6  UNL     1     -31.094   8.782   0.610  1.00 20.00     0.018 C 
ENDBRANCH   2   7
TORSDOF 3
ENDMDL
MODEL 5
REMARK VINA RESULT:      -5.0      1.885      4.871
REMARK  3 active torsions:
REMARK  status: ('A' for Active; 'I' for Inactive)
REMARK    1  A    between atoms: C1_1  and  C3_3 
REMARK    2  A    between atoms: C2_2  and  C8_8 
REMARK    3  A    between atoms: C3_3  and  O10_10 
ROOT
HETATM    1  C1  UNL     1     -32.531   7.701   2.886  1.00 20.00     0.079 C 
HETATM    2  C2  UNL     1     -33.158   8.474   1.986  1.00 20.00    -0.012 C 
ENDROOT
BRANCH   1   3
HETATM    3  C3  UNL     1     -33.317   6.975   3.908  1.00 20.00     0.282 C 
HETATM    4  O9  UNL     1     -33.492   7.341   5.059  1.00 20.00    -0.260 OA
BRANCH   3   5
HETATM    5  O10 UNL     1     -33.799   5.842   3.329  1.00 20.00    -0.323 OA
HETATM    6  C7  UNL     1     -34.499   4.952   4.205  1.00 20.00     0.213 C 
ENDBRANCH   3   5
ENDBRANCH   1   3
BRANCH   2   7
HETATM    7  C8  UNL     1     -32.515   9.287   0.869  1.00 20.00    -0.034 C 
HETATM    8  C4  UNL     1     -33.274   9.235  -0.469  1.00 20.00     0.018 C 
HETATM    9  C5  UNL     1     -32.435  10.755   1.328  1.00 20.00     0.018 C 
HETATM   10  C6  UNL     1     -31.090   8.752   0.644  1.00 20.00     0.018 C 
ENDBRANCH   2   7
TORSDOF 3
ENDMDL
MODEL 6
REMARK VINA RESULT:      -4.9      2.111      4.864
REMARK  3 active torsions:
REMARK  status: ('A' for Active; 'I' for Inactive)
REMARK    1  A    between atoms: C1_1  and  C3_3 
REMARK    2  A    between atoms: C2_2  and  C8_8 
REMARK    3  A    between atoms: C3_3  and  O10_10 
ROOT
HETATM    1  C1  UNL     1     -32.676   7.360   2.547  1.00 20.00     0.079 C 
HETATM    2  C2  UNL     1     -33.230   8.357   1.840  1.00 20.00    -0.012 C 
ENDROOT
BRANCH   1   3
HETATM    3  C3  UNL     1     -33.525   6.513   3.415  1.00 20.00     0.282 C 
HETATM    4  O9  UNL     1     -33.647   5.302   3.322  1.00 20.00    -0.260 OA
BRANCH   3   5
HETATM    5  O10 UNL     1     -34.132   7.328   4.320  1.00 20.00    -0.323 OA
HETATM    6  C7  UNL     1     -33.646   7.228   5.662  1.00 20.00     0.213 C 
ENDBRANCH   3   5
ENDBRANCH   1   3
BRANCH   2   7
HETATM    7  C8  UNL     1     -32.517   9.321   0.901  1.00 20.00    -0.034 C 
HETATM    8  C4  UNL     1     -32.442  10.769   1.419  1.00 20.00     0.018 C 
HETATM    9  C5  UNL     1     -31.082   8.806   0.682  1.00 20.00     0.018 C 
HETATM   10  C6  UNL     1     -33.261   9.322  -0.446  1.00 20.00     0.018 C 
ENDBRANCH   2   7
TORSDOF 3
ENDMDL
MODEL 7
REMARK VINA RESULT:      -4.8      1.938      4.877
REMARK  3 active torsions:
REMARK  status: ('A' for Active; 'I' for Inactive)
REMARK    1  A    between atoms: C1_1  and  C3_3 
REMARK    2  A    between atoms: C2_2  and  C8_8 
REMARK    3  A    between atoms: C3_3  and  O10_10 
ROOT
HETATM    1  C1  UNL     1     -32.632   7.685   2.920  1.00 20.00     0.079 C 
HETATM    2  C2  UNL     1     -33.200   8.417   1.950  1.00 20.00    -0.012 C 
ENDROOT
BRANCH   1   3
HETATM    3  C3  UNL     1     -33.483   6.945   3.878  1.00 20.00     0.282 C 
HETATM    4  O9  UNL     1     -33.771   7.319   5.004  1.00 20.00    -0.260 OA
BRANCH   3   5
HETATM    5  O10 UNL     1     -33.875   5.791   3.276  1.00 20.00    -0.323 OA
HETATM    6  C7  UNL     1     -34.379   4.778   4.153  1.00 20.00     0.213 C 
ENDBRANCH   3   5
ENDBRANCH   1   3
BRANCH   2   7
HETATM    7  C8  UNL     1     -32.486   9.236   0.882  1.00 20.00    -0.034 C 
HETATM    8  C4  UNL     1     -31.051   8.766   0.578  1.00 20.00     0.018 C 
HETATM    9  C5  UNL     1     -33.310   9.156  -0.416  1.00 20.00     0.018 C 
HETATM   10  C6  UNL     1     -32.431  10.699   1.354  1.00 20.00     0.018 C 
ENDBRANCH   2   7
TORSDOF 3
ENDMDL
MODEL 8
REMARK VINA RESULT:      -4.3     11.225     11.949
REMARK  3 active torsions:
REMARK  status: ('A' for Active; 'I' for Inactive)
REMARK    1  A    between atoms: C1_1  and  C3_3 
REMARK    2  A    between atoms: C2_2  and  C8_8 
REMARK    3  A    between atoms: C3_3  and  O10_10 
ROOT
HETATM    1  C1  UNL     1     -35.359  14.596  -4.445  1.00 20.00     0.079 C 
HETATM    2  C2  UNL     1     -35.849  15.636  -3.753  1.00 20.00    -0.012 C 
ENDROOT
BRANCH   1   3
HETATM    3  C3  UNL     1     -36.286  13.649  -5.104  1.00 20.00     0.282 C 
HETATM    4  O9  UNL     1     -37.503  13.667  -5.010  1.00 20.00    -0.260 OA
BRANCH   3   5
HETATM    5  O10 UNL     1     -35.535  12.771  -5.822  1.00 20.00    -0.323 OA
HETATM    6  C7  UNL     1     -34.961  13.291  -7.026  1.00 20.00     0.213 C 
ENDBRANCH   3   5
ENDBRANCH   1   3
BRANCH   2   7
HETATM    7  C8  UNL     1     -35.050  16.705  -3.016  1.00 20.00    -0.034 C 
HETATM    8  C4  UNL     1     -35.382  16.822  -1.518  1.00 20.00     0.018 C 
HETATM    9  C5  UNL     1     -33.554  16.370  -3.159  1.00 20.00     0.018 C 
HETATM   10  C6  UNL     1     -35.328  18.061  -3.687  1.00 20.00     0.018 C 
ENDBRANCH   2   7
TORSDOF 3
ENDMDL
MODEL 9
REMARK VINA RESULT:      -4.2     10.679     11.657
REMARK  3 active torsions:
REMARK  status: ('A' for Active; 'I' for Inactive)
REMARK    1  A    between atoms: C1_1  and  C3_3 
REMARK    2  A    between atoms: C2_2  and  C8_8 
REMARK    3  A    between atoms: C3_3  and  O10_10 
ROOT
HETATM    1  C1  UNL     1     -34.706  15.320  -3.535  1.00 20.00     0.079 C 
HETATM    2  C2  UNL     1     -33.828  16.159  -2.964  1.00 20.00    -0.012 C 
ENDROOT
BRANCH   1   3
HETATM    3  C3  UNL     1     -34.218  14.143  -4.287  1.00 20.00     0.282 C 
HETATM    4  O9  UNL     1     -33.055  13.927  -4.587  1.00 20.00    -0.260 OA
BRANCH   3   5
HETATM    5  O10 UNL     1     -35.294  13.362  -4.575  1.00 20.00    -0.323 OA
HETATM    6  C7  UNL     1     -36.061  13.764  -5.715  1.00 20.00     0.213 C 
ENDBRANCH   3   5
ENDBRANCH   1   3
BRANCH   2   7
HETATM    7  C8  UNL     1     -34.148  17.411  -2.156  1.00 20.00    -0.034 C 
HETATM    8  C4  UNL     1     -32.944  18.001  -1.400  1.00 20.00     0.018 C 
HETATM    9  C5  UNL     1     -34.689  18.481  -3.122  1.00 20.00     0.018 C 
HETATM   10  C6  UNL     1     -35.242  17.057  -1.134  1.00 20.00     0.018 C 
ENDBRANCH   2   7
TORSDOF 3
ENDMDL
