MODEL 1
REMARK VINA RESULT:      -6.0      0.000      0.000
REMARK  3 active torsions:
REMARK  status: ('A' for Active; 'I' for Inactive)
REMARK    1  A    between atoms: C1_1  and  C5_5 
REMARK    2  A    between atoms: C6_6  and  C8_8 
REMARK    3  A    between atoms: C8_8  and  C9_9 
ROOT
HETATM    1  C2  UNL     1     -32.025   8.044   3.986  1.00 20.00     0.028 C 
HETATM    2  C3  UNL     1     -33.867   8.168   2.930  1.00 20.00     0.028 C 
HETATM    3  C4  UNL     1     -32.680   6.409   2.795  1.00 20.00     0.028 C 
HETATM    4  C5  UNL     1     -33.309   7.179   3.982  1.00 20.00     0.038 C 
HETATM    5  C6  UNL     1     -32.378   7.924   2.447  1.00 20.00    -0.037 C 
ENDROOT
BRANCH   4   6
HETATM    6  C1  UNL     1     -34.022   6.611   5.157  1.00 20.00     0.227 C 
HETATM    7  O10 UNL     1     -34.069   7.203   6.232  1.00 20.00    -0.279 OA
HETATM    8 CL11 UNL     1     -34.741   5.069   4.805  1.00 20.00    -0.043 Cl
ENDBRANCH   4   6
BRANCH   5   9
HETATM    9  C8  UNL     1     -31.671   8.491   1.279  1.00 20.00     0.009 C 
BRANCH   9  10
HETATM   10  C9  UNL     1     -32.355   9.754   0.716  1.00 20.00    -0.004 C 
HETATM   11  C7  UNL     1     -33.212   9.467  -0.506  1.00 20.00     0.005 C 
ENDBRANCH   9  10
ENDBRANCH   5   9
TORSDOF 3
ENDMDL
MODEL 2
REMARK VINA RESULT:      -6.0      0.034      1.110
REMARK  3 active torsions:
REMARK  status: ('A' for Active; 'I' for Inactive)
REMARK    1  A    between atoms: C1_1  and  C5_5 
REMARK    2  A    between atoms: C6_6  and  C8_8 
REMARK    3  A    between atoms: C8_8  and  C9_9 
ROOT
HETATM    1  C2  UNL     1     -32.663   6.402   2.807  1.00 20.00     0.028 C 
HETATM    2  C3  UNL     1     -32.018   8.038   4.004  1.00 20.00     0.028 C 
HETATM    3  C4  UNL     1     -33.857   8.156   2.943  1.00 20.00     0.028 C 
HETATM    4  C5  UNL     1     -33.298   7.167   3.995  1.00 20.00     0.038 C 
HETATM    5  C6  UNL     1     -32.367   7.919   2.463  1.00 20.00    -0.037 C 
ENDROOT
BRANCH   4   6
HETATM    6  C1  UNL     1     -34.007   6.590   5.168  1.00 20.00     0.227 C 
HETATM    7  O10 UNL     1     -34.071   7.185   6.240  1.00 20.00    -0.279 OA
HETATM    8 CL11 UNL     1     -34.694   5.033   4.816  1.00 20.00    -0.043 Cl
ENDBRANCH   4   6
BRANCH   5   9
HETATM    9  C8  UNL     1     -31.659   8.492   1.299  1.00 20.00     0.009 C 
BRANCH   9  10
HETATM   10  C9  UNL     1     -32.333   9.768   0.752  1.00 20.00    -0.004 C 
HETATM   11  C7  UNL     1     -33.189   9.505  -0.476  1.00 20.00     0.005 C 
ENDBRANCH   9  10
ENDBRANCH   5   9
TORSDOF 3
ENDMDL
MODEL 3
REMARK VINA RESULT:      -5.7      1.150      1.588
REMARK  3 active torsions:
REMARK  status: ('A' for Active; 'I' for Inactive)
REMARK    1  A    between atoms: C1_1  and  C5_5 
REMARK    2  A    between atoms: C6_6  and  C8_8 
REMARK    3  A    between atoms: C8_8  and  C9_9 
ROOT
HETATM    1  C2  UNL     1     -33.917   8.096   2.779  1.00 20.00     0.028 C 
HETATM    2  C3  UNL     1     -32.743   6.340   2.531  1.00 20.00     0.028 C 
HETATM    3  C4  UNL     1     -32.149   7.829   3.928  1.00 20.00     0.028 C 
HETATM    4  C5  UNL     1     -33.439   6.991   3.752  1.00 20.00     0.038 C 
HETATM    5  C6  UNL     1     -32.404   7.879   2.366  1.00 20.00    -0.037 C 
ENDROOT
BRANCH   4   6
HETATM    6  C1  UNL     1     -34.232   6.311   4.810  1.00 20.00     0.227 C 
HETATM    7  O10 UNL     1     -34.907   5.313   4.570  1.00 20.00    -0.279 OA
HETATM    8 CL11 UNL     1     -34.072   7.094   6.353  1.00 20.00    -0.043 Cl
ENDBRANCH   4   6
BRANCH   5   9
HETATM    9  C8  UNL     1     -31.617   8.553   1.312  1.00 20.00     0.009 C 
BRANCH   9  10
HETATM   10  C9  UNL     1     -32.340   9.776   0.711  1.00 20.00    -0.004 C 
HETATM   11  C7  UNL     1     -33.156   9.434  -0.525  1.00 20.00     0.005 C 
ENDBRANCH   9  10
ENDBRANCH   5   9
TORSDOF 3
ENDMDL
MODEL 4
REMARK VINA RESULT:      -5.6      2.981      4.769
REMARK  3 active torsions:
REMARK  status: ('A' for Active; 'I' for Inactive)
REMARK    1  A    between atoms: C1_1  and  C5_5 
REMARK    2  A    between atoms: C6_6  and  C8_8 
REMARK    3  A    between atoms: C8_8  and  C9_9 
ROOT
HETATM    1  C2  UNL     1     -33.859   8.418   3.210  1.00 20.00     0.028 C 
HETATM    2  C3  UNL     1     -31.867   8.134   3.899  1.00 20.00     0.028 C 
HETATM    3  C4  UNL     1     -32.778   6.676   2.647  1.00 20.00     0.028 C 
HETATM    4  C5  UNL     1     -32.507   8.192   2.490  1.00 20.00     0.038 C 
HETATM    5  C6  UNL     1     -33.182   7.266   4.060  1.00 20.00    -0.037 C 
ENDROOT
BRANCH   4   6
HETATM    6  C1  UNL     1     -31.990   8.903   1.290  1.00 20.00     0.227 C 
HETATM    7  O10 UNL     1     -31.108   8.421   0.584  1.00 20.00    -0.279 OA
HETATM    8 CL11 UNL     1     -32.774  10.435   1.049  1.00 20.00    -0.043 Cl
ENDBRANCH   4   6
BRANCH   5   9
HETATM    9  C8  UNL     1     -33.695   6.561   5.254  1.00 20.00     0.009 C 
BRANCH   9  10
HETATM   10  C9  UNL     1     -34.857   5.598   4.932  1.00 20.00    -0.004 C 
HETATM   11  C7  UNL     1     -34.385   4.192   4.599  1.00 20.00     0.005 C 
ENDBRANCH   9  10
ENDBRANCH   5   9
TORSDOF 3
ENDMDL
MODEL 5
REMARK VINA RESULT:      -5.6      3.001      4.775
REMARK  3 active torsions:
REMARK  status: ('A' for Active; 'I' for Inactive)
REMARK    1  A    between atoms: C1_1  and  C5_5 
REMARK    2  A    between atoms: C6_6  and  C8_8 
REMARK    3  A    between atoms: C8_8  and  C9_9 
ROOT
HETATM    1  C2  UNL     1     -31.874   8.117   3.862  1.00 20.00     0.028 C 
HETATM    2  C3  UNL     1     -32.807   6.688   2.592  1.00 20.00     0.028 C 
HETATM    3  C4  UNL     1     -33.858   8.445   3.169  1.00 20.00     0.028 C 
HETATM    4  C5  UNL     1     -32.507   8.201   2.451  1.00 20.00     0.038 C 
HETATM    5  C6  UNL     1     -33.206   7.273   4.010  1.00 20.00    -0.037 C 
ENDROOT
BRANCH   4   6
HETATM    6  C1  UNL     1     -31.971   8.910   1.258  1.00 20.00     0.227 C 
HETATM    7  O10 UNL     1     -31.101   8.411   0.549  1.00 20.00    -0.279 OA
HETATM    8 CL11 UNL     1     -32.716  10.462   1.030  1.00 20.00    -0.043 Cl
ENDBRANCH   4   6
BRANCH   5   9
HETATM    9  C8  UNL     1     -33.737   6.566   5.195  1.00 20.00     0.009 C 
BRANCH   9  10
HETATM   10  C9  UNL     1     -34.881   5.590   4.851  1.00 20.00    -0.004 C 
HETATM   11  C7  UNL     1     -34.392   4.177   4.579  1.00 20.00     0.005 C 
ENDBRANCH   9  10
ENDBRANCH   5   9
TORSDOF 3
ENDMDL
MODEL 6
REMARK VINA RESULT:      -4.7     10.694     11.492
REMARK  3 active torsions:
REMARK  status: ('A' for Active; 'I' for Inactive)
REMARK    1  A    between atoms: C1_1  and  C5_5 
REMARK    2  A    between atoms: C6_6  and  C8_8 
REMARK    3  A    between atoms: C8_8  and  C9_9 
ROOT
HETATM    1  C2  UNL     1     -35.278  15.000  -4.145  1.00 20.00     0.028 C 
HETATM    2  C3  UNL     1     -33.912  16.088  -5.358  1.00 20.00     0.028 C 
HETATM    3  C4  UNL     1     -33.227  14.442  -4.199  1.00 20.00     0.028 C 
HETATM    4  C5  UNL     1     -34.316  14.595  -5.289  1.00 20.00     0.038 C 
HETATM    5  C6  UNL     1     -33.951  15.793  -3.803  1.00 20.00    -0.037 C 
ENDROOT
BRANCH   4   6
HETATM    6  C1  UNL     1     -34.598  13.680  -6.427  1.00 20.00     0.227 C 
HETATM    7  O10 UNL     1     -35.239  12.643  -6.278  1.00 20.00    -0.279 OA
HETATM    8 CL11 UNL     1     -33.921  14.262  -7.918  1.00 20.00    -0.043 Cl
ENDBRANCH   4   6
BRANCH   5   9
HETATM    9  C8  UNL     1     -33.673  16.705  -2.672  1.00 20.00     0.009 C 
BRANCH   9  10
HETATM   10  C9  UNL     1     -34.849  16.808  -1.679  1.00 20.00    -0.004 C 
HETATM   11  C7  UNL     1     -34.531  17.677  -0.473  1.00 20.00     0.005 C 
ENDBRANCH   9  10
ENDBRANCH   5   9
TORSDOF 3
ENDMDL
MODEL 7
REMARK VINA RESULT:      -4.6     10.625     11.494
REMARK  3 active torsions:
REMARK  status: ('A' for Active; 'I' for Inactive)
REMARK    1  A    between atoms: C1_1  and  C5_5 
REMARK    2  A    between atoms: C6_6  and  C8_8 
REMARK    3  A    between atoms: C8_8  and  C9_9 
ROOT
HETATM    1  C2  UNL     1     -33.877  16.024  -5.404  1.00 20.00     0.028 C 
HETATM    2  C3  UNL     1     -33.334  14.391  -4.155  1.00 20.00     0.028 C 
HETATM    3  C4  UNL     1     -35.341  15.093  -4.175  1.00 20.00     0.028 C 
HETATM    4  C5  UNL     1     -34.387  14.568  -5.276  1.00 20.00     0.038 C 
HETATM    5  C6  UNL     1     -33.968  15.807  -3.838  1.00 20.00    -0.037 C 
ENDROOT
BRANCH   4   6
HETATM    6  C1  UNL     1     -34.705  13.619  -6.377  1.00 20.00     0.227 C 
HETATM    7  O10 UNL     1     -35.376  12.609  -6.184  1.00 20.00    -0.279 OA
HETATM    8 CL11 UNL     1     -34.022  14.124  -7.892  1.00 20.00    -0.043 Cl
ENDBRANCH   4   6
BRANCH   5   9
HETATM    9  C8  UNL     1     -33.649  16.750  -2.744  1.00 20.00     0.009 C 
BRANCH   9  10
HETATM   10  C9  UNL     1     -34.783  16.871  -1.705  1.00 20.00    -0.004 C 
HETATM   11  C7  UNL     1     -34.403  17.733  -0.512  1.00 20.00     0.005 C 
ENDBRANCH   9  10
ENDBRANCH   5   9
TORSDOF 3
ENDMDL
MODEL 8
REMARK VINA RESULT:      -4.5     10.476     11.303
REMARK  3 active torsions:
REMARK  status: ('A' for Active; 'I' for Inactive)
REMARK    1  A    between atoms: C1_1  and  C5_5 
REMARK    2  A    between atoms: C6_6  and  C8_8 
REMARK    3  A    between atoms: C8_8  and  C9_9 
ROOT
HETATM    1  C2  UNL     1     -35.030  16.219  -5.134  1.00 20.00     0.028 C 
HETATM    2  C3  UNL     1     -34.079  14.767  -3.905  1.00 20.00     0.028 C 
HETATM    3  C4  UNL     1     -35.814  15.779  -3.207  1.00 20.00     0.028 C 
HETATM    4  C5  UNL     1     -35.518  14.914  -4.457  1.00 20.00     0.038 C 
HETATM    5  C6  UNL     1     -34.398  16.302  -3.684  1.00 20.00    -0.037 C 
ENDROOT
BRANCH   4   6
HETATM    6  C1  UNL     1     -36.373  13.852  -5.051  1.00 20.00     0.227 C 
HETATM    7  O10 UNL     1     -35.935  12.730  -5.289  1.00 20.00    -0.279 OA
HETATM    8 CL11 UNL     1     -37.995  14.404  -5.342  1.00 20.00    -0.043 Cl
ENDBRANCH   4   6
BRANCH   5   9
HETATM    9  C8  UNL     1     -33.545  17.358  -3.096  1.00 20.00     0.009 C 
BRANCH   9  10
HETATM   10  C9  UNL     1     -33.650  17.429  -1.558  1.00 20.00    -0.004 C 
HETATM   11  C7  UNL     1     -32.539  18.251  -0.926  1.00 20.00     0.005 C 
ENDBRANCH   9  10
ENDBRANCH   5   9
TORSDOF 3
ENDMDL
MODEL 9
REMARK VINA RESULT:      -4.2     10.835     11.460
REMARK  3 active torsions:
REMARK  status: ('A' for Active; 'I' for Inactive)
REMARK    1  A    between atoms: C1_1  and  C5_5 
REMARK    2  A    between atoms: C6_6  and  C8_8 
REMARK    3  A    between atoms: C8_8  and  C9_9 
ROOT
HETATM    1  C2  UNL     1     -35.468  15.603  -3.299  1.00 20.00     0.028 C 
HETATM    2  C3  UNL     1     -35.005  16.490  -5.176  1.00 20.00     0.028 C 
HETATM    3  C4  UNL     1     -33.664  15.090  -4.303  1.00 20.00     0.028 C 
HETATM    4  C5  UNL     1     -35.159  15.024  -4.702  1.00 20.00     0.038 C 
HETATM    5  C6  UNL     1     -34.239  16.473  -3.790  1.00 20.00    -0.037 C 
ENDROOT
BRANCH   4   6
HETATM    6  C1  UNL     1     -35.865  13.917  -5.400  1.00 20.00     0.227 C 
HETATM    7  O10 UNL     1     -35.672  12.740  -5.105  1.00 20.00    -0.279 OA
HETATM    8 CL11 UNL     1     -36.946  14.502  -6.629  1.00 20.00    -0.043 Cl
ENDBRANCH   4   6
BRANCH   5   9
HETATM    9  C8  UNL     1     -33.539  17.576  -3.097  1.00 20.00     0.009 C 
BRANCH   9  10
HETATM   10  C9  UNL     1     -33.443  17.364  -1.572  1.00 20.00    -0.004 C 
HETATM   11  C7  UNL     1     -32.515  18.357  -0.893  1.00 20.00     0.005 C 
ENDBRANCH   9  10
ENDBRANCH   5   9
TORSDOF 3
ENDMDL
