MODEL 1
REMARK VINA RESULT:      -4.7      0.000      0.000
REMARK  3 active torsions:
REMARK  status: ('A' for Active; 'I' for Inactive)
REMARK    1  A    between atoms: C1_1  and  C7_7 
REMARK    2  A    between atoms: C7_7  and  C8_8 
REMARK    3  A    between atoms: N9_9  and  N10_10 
ROOT
HETATM    1  C1  UNL     1     -33.153   6.002   2.791  1.00 20.00     0.023 C 
HETATM    2  C2  UNL     1     -33.198   4.513   2.524  1.00 20.00     0.067 C 
HETATM    3  N9  UNL     1     -32.297   6.830   2.271  1.00 20.00    -0.209 NA
ENDROOT
BRANCH   1   4
HETATM    4  C7  UNL     1     -34.163   6.566   3.778  1.00 20.00     0.059 C 
BRANCH   4   5
HETATM    5  C8  UNL     1     -33.821   6.196   5.228  1.00 20.00    -0.017 C 
HETATM    6  C3  UNL     1     -33.879   7.414   6.152  1.00 20.00     0.010 C 
HETATM    7  C4  UNL     1     -34.782   5.117   5.731  1.00 20.00     0.010 C 
ENDBRANCH   4   5
ENDBRANCH   1   4
BRANCH   3   8
HETATM    8  N10 UNL     1     -32.439   8.124   2.649  1.00 20.00    -0.217 NA
HETATM    9  C5  UNL     1     -32.497   9.073   1.531  1.00 20.00     0.138 C 
HETATM   10  C6  UNL     1     -31.415   8.575   3.597  1.00 20.00     0.138 C 
ENDBRANCH   3   8
TORSDOF 3
ENDMDL
MODEL 2
REMARK VINA RESULT:      -4.0      1.707      4.584
REMARK  3 active torsions:
REMARK  status: ('A' for Active; 'I' for Inactive)
REMARK    1  A    between atoms: C1_1  and  C7_7 
REMARK    2  A    between atoms: C7_7  and  C8_8 
REMARK    3  A    between atoms: N9_9  and  N10_10 
ROOT
HETATM    1  C1  UNL     1     -32.489   7.725   3.486  1.00 20.00     0.023 C 
HETATM    2  C2  UNL     1     -31.469   8.637   4.134  1.00 20.00     0.067 C 
HETATM    3  N9  UNL     1     -33.031   6.686   4.051  1.00 20.00    -0.209 NA
ENDROOT
BRANCH   1   4
HETATM    4  C7  UNL     1     -32.879   8.022   2.047  1.00 20.00     0.059 C 
BRANCH   4   5
HETATM    5  C8  UNL     1     -32.019   9.137   1.435  1.00 20.00    -0.017 C 
HETATM    6  C3  UNL     1     -31.237   8.643   0.216  1.00 20.00     0.010 C 
HETATM    7  C4  UNL     1     -32.904  10.321   1.040  1.00 20.00     0.010 C 
ENDBRANCH   4   5
ENDBRANCH   1   4
BRANCH   3   8
HETATM    8  N10 UNL     1     -33.922   6.010   3.287  1.00 20.00    -0.217 NA
HETATM    9  C5  UNL     1     -35.225   5.799   3.929  1.00 20.00     0.138 C 
HETATM   10  C6  UNL     1     -33.421   4.720   2.803  1.00 20.00     0.138 C 
ENDBRANCH   3   8
TORSDOF 3
ENDMDL
MODEL 3
REMARK VINA RESULT:      -3.8      1.506      2.714
REMARK  3 active torsions:
REMARK  status: ('A' for Active; 'I' for Inactive)
REMARK    1  A    between atoms: C1_1  and  C7_7 
REMARK    2  A    between atoms: C7_7  and  C8_8 
REMARK    3  A    between atoms: N9_9  and  N10_10 
ROOT
HETATM    1  C1  UNL     1     -32.566   8.089   3.289  1.00 20.00     0.023 C 
HETATM    2  C2  UNL     1     -32.418   7.979   4.791  1.00 20.00     0.067 C 
HETATM    3  N9  UNL     1     -32.031   9.016   2.550  1.00 20.00    -0.209 NA
ENDROOT
BRANCH   1   4
HETATM    4  C7  UNL     1     -33.443   7.059   2.595  1.00 20.00     0.059 C 
BRANCH   4   5
HETATM    5  C8  UNL     1     -33.688   5.824   3.474  1.00 20.00    -0.017 C 
HETATM    6  C3  UNL     1     -35.154   5.711   3.895  1.00 20.00     0.010 C 
HETATM    7  C4  UNL     1     -33.263   4.559   2.725  1.00 20.00     0.010 C 
ENDBRANCH   4   5
ENDBRANCH   1   4
BRANCH   3   8
HETATM    8  N10 UNL     1     -32.295   8.923   1.224  1.00 20.00    -0.217 NA
HETATM    9  C5  UNL     1     -31.128   8.573   0.404  1.00 20.00     0.138 C 
HETATM   10  C6  UNL     1     -32.920  10.124   0.664  1.00 20.00     0.138 C 
ENDBRANCH   3   8
TORSDOF 3
ENDMDL
MODEL 4
REMARK VINA RESULT:      -3.6     11.474     12.464
REMARK  3 active torsions:
REMARK  status: ('A' for Active; 'I' for Inactive)
REMARK    1  A    between atoms: C1_1  and  C7_7 
REMARK    2  A    between atoms: C7_7  and  C8_8 
REMARK    3  A    between atoms: N9_9  and  N10_10 
ROOT
HETATM    1  C1  UNL     1     -34.389  16.519  -4.617  1.00 20.00     0.023 C 
HETATM    2  C2  UNL     1     -33.542  17.629  -5.201  1.00 20.00     0.067 C 
HETATM    3  N9  UNL     1     -35.345  15.898  -5.244  1.00 20.00    -0.209 NA
ENDROOT
BRANCH   1   4
HETATM    4  C7  UNL     1     -34.131  16.128  -3.171  1.00 20.00     0.059 C 
BRANCH   4   5
HETATM    5  C8  UNL     1     -34.376  17.297  -2.205  1.00 20.00    -0.017 C 
HETATM    6  C3  UNL     1     -35.428  16.948  -1.151  1.00 20.00     0.010 C 
HETATM    7  C4  UNL     1     -33.066  17.692  -1.521  1.00 20.00     0.010 C 
ENDBRANCH   4   5
ENDBRANCH   1   4
BRANCH   3   8
HETATM    8  N10 UNL     1     -35.976  14.935  -4.529  1.00 20.00    -0.217 NA
HETATM    9  C5  UNL     1     -35.826  13.583  -5.081  1.00 20.00     0.138 C 
HETATM   10  C6  UNL     1     -37.401  15.201  -4.316  1.00 20.00     0.138 C 
ENDBRANCH   3   8
TORSDOF 3
ENDMDL
MODEL 5
REMARK VINA RESULT:      -3.6     10.996     12.029
REMARK  3 active torsions:
REMARK  status: ('A' for Active; 'I' for Inactive)
REMARK    1  A    between atoms: C1_1  and  C7_7 
REMARK    2  A    between atoms: C7_7  and  C8_8 
REMARK    3  A    between atoms: N9_9  and  N10_10 
ROOT
HETATM    1  C1  UNL     1     -33.632  14.557  -4.620  1.00 20.00     0.023 C 
HETATM    2  C2  UNL     1     -32.329  14.011  -4.078  1.00 20.00     0.067 C 
HETATM    3  N9  UNL     1     -34.462  13.901  -5.377  1.00 20.00    -0.209 NA
ENDROOT
BRANCH   1   4
HETATM    4  C7  UNL     1     -33.978  16.000  -4.289  1.00 20.00     0.059 C 
BRANCH   4   5
HETATM    5  C8  UNL     1     -34.315  16.185  -2.803  1.00 20.00    -0.017 C 
HETATM    6  C3  UNL     1     -33.431  17.251  -2.151  1.00 20.00     0.010 C 
HETATM    7  C4  UNL     1     -35.789  16.565  -2.645  1.00 20.00     0.010 C 
ENDBRANCH   4   5
ENDBRANCH   1   4
BRANCH   3   8
HETATM    8  N10 UNL     1     -35.571  14.585  -5.749  1.00 20.00    -0.217 NA
HETATM    9  C5  UNL     1     -36.824  14.027  -5.226  1.00 20.00     0.138 C 
HETATM   10  C6  UNL     1     -35.700  14.750  -7.200  1.00 20.00     0.138 C 
ENDBRANCH   3   8
TORSDOF 3
ENDMDL
MODEL 6
REMARK VINA RESULT:      -3.5     11.376     12.294
REMARK  3 active torsions:
REMARK  status: ('A' for Active; 'I' for Inactive)
REMARK    1  A    between atoms: C1_1  and  C7_7 
REMARK    2  A    between atoms: C7_7  and  C8_8 
REMARK    3  A    between atoms: N9_9  and  N10_10 
ROOT
HETATM    1  C1  UNL     1     -34.208  15.246  -4.408  1.00 20.00     0.023 C 
HETATM    2  C2  UNL     1     -32.930  14.446  -4.267  1.00 20.00     0.067 C 
HETATM    3  N9  UNL     1     -35.283  14.837  -5.016  1.00 20.00    -0.209 NA
ENDROOT
BRANCH   1   4
HETATM    4  C7  UNL     1     -34.221  16.651  -3.830  1.00 20.00     0.059 C 
BRANCH   4   5
HETATM    5  C8  UNL     1     -34.045  16.650  -2.305  1.00 20.00    -0.017 C 
HETATM    6  C3  UNL     1     -33.099  17.760  -1.843  1.00 20.00     0.010 C 
HETATM    7  C4  UNL     1     -35.405  16.809  -1.623  1.00 20.00     0.010 C 
ENDBRANCH   4   5
ENDBRANCH   1   4
BRANCH   3   8
HETATM    8  N10 UNL     1     -36.313  15.717  -5.023  1.00 20.00    -0.217 NA
HETATM    9  C5  UNL     1     -37.507  15.249  -4.309  1.00 20.00     0.138 C 
HETATM   10  C6  UNL     1     -36.708  16.149  -6.367  1.00 20.00     0.138 C 
ENDBRANCH   3   8
TORSDOF 3
ENDMDL
MODEL 7
REMARK VINA RESULT:      -3.5     11.196     12.229
REMARK  3 active torsions:
REMARK  status: ('A' for Active; 'I' for Inactive)
REMARK    1  A    between atoms: C1_1  and  C7_7 
REMARK    2  A    between atoms: C7_7  and  C8_8 
REMARK    3  A    between atoms: N9_9  and  N10_10 
ROOT
HETATM    1  C1  UNL     1     -35.895  16.946  -2.941  1.00 20.00     0.023 C 
HETATM    2  C2  UNL     1     -37.088  17.867  -2.796  1.00 20.00     0.067 C 
HETATM    3  N9  UNL     1     -35.538  16.351  -4.041  1.00 20.00    -0.209 NA
ENDROOT
BRANCH   1   4
HETATM    4  C7  UNL     1     -35.075  16.662  -1.693  1.00 20.00     0.059 C 
BRANCH   4   5
HETATM    5  C8  UNL     1     -34.402  17.928  -1.144  1.00 20.00    -0.017 C 
HETATM    6  C3  UNL     1     -34.601  18.065   0.367  1.00 20.00     0.010 C 
HETATM    7  C4  UNL     1     -32.908  17.909  -1.472  1.00 20.00     0.010 C 
ENDBRANCH   4   5
ENDBRANCH   1   4
BRANCH   3   8
HETATM    8  N10 UNL     1     -34.435  15.570  -3.945  1.00 20.00    -0.217 NA
HETATM    9  C5  UNL     1     -33.303  16.025  -4.761  1.00 20.00     0.138 C 
HETATM   10  C6  UNL     1     -34.690  14.156  -4.240  1.00 20.00     0.138 C 
ENDBRANCH   3   8
TORSDOF 3
ENDMDL
MODEL 8
REMARK VINA RESULT:      -3.3     11.549     12.788
REMARK  3 active torsions:
REMARK  status: ('A' for Active; 'I' for Inactive)
REMARK    1  A    between atoms: C1_1  and  C7_7 
REMARK    2  A    between atoms: C7_7  and  C8_8 
REMARK    3  A    between atoms: N9_9  and  N10_10 
ROOT
HETATM    1  C1  UNL     1     -33.870  15.576  -4.617  1.00 20.00     0.023 C 
HETATM    2  C2  UNL     1     -32.983  14.425  -4.193  1.00 20.00     0.067 C 
HETATM    3  N9  UNL     1     -33.805  16.188  -5.763  1.00 20.00    -0.209 NA
ENDROOT
BRANCH   1   4
HETATM    4  C7  UNL     1     -34.888  16.084  -3.609  1.00 20.00     0.059 C 
BRANCH   4   5
HETATM    5  C8  UNL     1     -34.222  16.581  -2.318  1.00 20.00    -0.017 C 
HETATM    6  C3  UNL     1     -33.340  17.805  -2.572  1.00 20.00     0.010 C 
HETATM    7  C4  UNL     1     -35.291  16.917  -1.276  1.00 20.00     0.010 C 
ENDBRANCH   4   5
ENDBRANCH   1   4
BRANCH   3   8
HETATM    8  N10 UNL     1     -34.697  17.194  -5.934  1.00 20.00    -0.217 NA
HETATM    9  C5  UNL     1     -35.702  16.935  -6.972  1.00 20.00     0.138 C 
HETATM   10  C6  UNL     1     -34.073  18.494  -6.197  1.00 20.00     0.138 C 
ENDBRANCH   3   8
TORSDOF 3
ENDMDL
MODEL 9
REMARK VINA RESULT:      -3.3     11.581     12.538
REMARK  3 active torsions:
REMARK  status: ('A' for Active; 'I' for Inactive)
REMARK    1  A    between atoms: C1_1  and  C7_7 
REMARK    2  A    between atoms: C7_7  and  C8_8 
REMARK    3  A    between atoms: N9_9  and  N10_10 
ROOT
HETATM    1  C1  UNL     1     -35.776  13.954  -6.187  1.00 20.00     0.023 C 
HETATM    2  C2  UNL     1     -34.909  13.218  -7.186  1.00 20.00     0.067 C 
HETATM    3  N9  UNL     1     -36.853  14.622  -6.479  1.00 20.00    -0.209 NA
ENDROOT
BRANCH   1   4
HETATM    4  C7  UNL     1     -35.330  13.946  -4.734  1.00 20.00     0.059 C 
BRANCH   4   5
HETATM    5  C8  UNL     1     -34.238  14.991  -4.460  1.00 20.00    -0.017 C 
HETATM    6  C3  UNL     1     -34.571  15.849  -3.238  1.00 20.00     0.010 C 
HETATM    7  C4  UNL     1     -32.890  14.296  -4.256  1.00 20.00     0.010 C 
ENDBRANCH   4   5
ENDBRANCH   1   4
BRANCH   3   8
HETATM    8  N10 UNL     1     -37.477  15.204  -5.426  1.00 20.00    -0.217 NA
HETATM    9  C5  UNL     1     -38.832  14.699  -5.177  1.00 20.00     0.138 C 
HETATM   10  C6  UNL     1     -37.528  16.667  -5.510  1.00 20.00     0.138 C 
ENDBRANCH   3   8
TORSDOF 3
ENDMDL
