MODEL 1
REMARK VINA RESULT:      -4.8      0.000      0.000
REMARK  2 active torsions:
REMARK  status: ('A' for Active; 'I' for Inactive)
REMARK    1  A    between atoms: C1_1  and  C8_8 
REMARK    2  A    between atoms: C2_2  and  C3_3 
ROOT
HETATM    1  C1  UNL     1     -33.588   7.209   2.679  1.00 20.00    -0.009 C 
HETATM    2  C3  UNL     1     -32.505   8.007   2.622  1.00 20.00    -0.027 C 
HETATM    3  C4  UNL     1     -31.385   8.142   3.604  1.00 20.00     0.051 C 
ENDROOT
BRANCH   1   4
HETATM    4  C8  UNL     1     -34.027   6.228   3.763  1.00 20.00    -0.033 C 
HETATM    5  C5  UNL     1     -35.553   6.017   3.634  1.00 20.00     0.018 C 
HETATM    6  C6  UNL     1     -33.352   4.858   3.574  1.00 20.00     0.018 C 
HETATM    7  C7  UNL     1     -33.762   6.769   5.179  1.00 20.00     0.018 C 
ENDBRANCH   1   4
BRANCH   2   8
HETATM    8  C2  UNL     1     -32.407   8.866   1.405  1.00 20.00     0.265 C 
HETATM    9  O9  UNL     1     -31.460   8.820   0.629  1.00 20.00    -0.302 OA
ENDBRANCH   2   8
TORSDOF 2
ENDMDL
MODEL 2
REMARK VINA RESULT:      -4.8      2.125      4.302
REMARK  2 active torsions:
REMARK  status: ('A' for Active; 'I' for Inactive)
REMARK    1  A    between atoms: C1_1  and  C8_8 
REMARK    2  A    between atoms: C2_2  and  C3_3 
ROOT
HETATM    1  C1  UNL     1     -33.153   8.289   1.800  1.00 20.00    -0.009 C 
HETATM    2  C3  UNL     1     -32.723   7.827   2.989  1.00 20.00    -0.027 C 
HETATM    3  C4  UNL     1     -31.466   8.160   3.728  1.00 20.00     0.051 C 
ENDROOT
BRANCH   1   4
HETATM    4  C8  UNL     1     -32.489   9.261   0.828  1.00 20.00    -0.033 C 
HETATM    5  C5  UNL     1     -33.309   9.268  -0.484  1.00 20.00     0.018 C 
HETATM    6  C6  UNL     1     -32.497  10.694   1.386  1.00 20.00     0.018 C 
HETATM    7  C7  UNL     1     -31.056   8.832   0.464  1.00 20.00     0.018 C 
ENDBRANCH   1   4
BRANCH   2   8
HETATM    8  C2  UNL     1     -33.634   6.856   3.664  1.00 20.00     0.265 C 
HETATM    9  O9  UNL     1     -33.976   6.964   4.836  1.00 20.00    -0.302 OA
ENDBRANCH   2   8
TORSDOF 2
ENDMDL
MODEL 3
REMARK VINA RESULT:      -4.7      2.130      4.287
REMARK  2 active torsions:
REMARK  status: ('A' for Active; 'I' for Inactive)
REMARK    1  A    between atoms: C1_1  and  C8_8 
REMARK    2  A    between atoms: C2_2  and  C3_3 
ROOT
HETATM    1  C1  UNL     1     -33.163   8.272   1.803  1.00 20.00    -0.009 C 
HETATM    2  C3  UNL     1     -32.706   7.834   2.991  1.00 20.00    -0.027 C 
HETATM    3  C4  UNL     1     -31.431   8.179   3.693  1.00 20.00     0.051 C 
ENDROOT
BRANCH   1   4
HETATM    4  C8  UNL     1     -32.520   9.222   0.795  1.00 20.00    -0.033 C 
HETATM    5  C5  UNL     1     -32.521  10.644   1.403  1.00 20.00     0.018 C 
HETATM    6  C6  UNL     1     -31.056   8.834   0.526  1.00 20.00     0.018 C 
HETATM    7  C7  UNL     1     -33.311   9.292  -0.523  1.00 20.00     0.018 C 
ENDBRANCH   1   4
BRANCH   2   8
HETATM    8  C2  UNL     1     -33.603   6.880   3.707  1.00 20.00     0.265 C 
HETATM    9  O9  UNL     1     -33.960   7.042   4.869  1.00 20.00    -0.302 OA
ENDBRANCH   2   8
TORSDOF 2
ENDMDL
MODEL 4
REMARK VINA RESULT:      -4.7      0.055      1.447
REMARK  2 active torsions:
REMARK  status: ('A' for Active; 'I' for Inactive)
REMARK    1  A    between atoms: C1_1  and  C8_8 
REMARK    2  A    between atoms: C2_2  and  C3_3 
ROOT
HETATM    1  C1  UNL     1     -33.585   7.234   2.673  1.00 20.00    -0.009 C 
HETATM    2  C3  UNL     1     -32.493   8.019   2.628  1.00 20.00    -0.027 C 
HETATM    3  C4  UNL     1     -31.393   8.158   3.632  1.00 20.00     0.051 C 
ENDROOT
BRANCH   1   4
HETATM    4  C8  UNL     1     -34.059   6.275   3.763  1.00 20.00    -0.033 C 
HETATM    5  C5  UNL     1     -33.316   4.931   3.580  1.00 20.00     0.018 C 
HETATM    6  C6  UNL     1     -33.709   6.812   5.161  1.00 20.00     0.018 C 
HETATM    7  C7  UNL     1     -35.566   5.978   3.660  1.00 20.00     0.018 C 
ENDBRANCH   1   4
BRANCH   2   8
HETATM    8  C2  UNL     1     -32.358   8.856   1.399  1.00 20.00     0.265 C 
HETATM    9  O9  UNL     1     -31.396   8.785   0.643  1.00 20.00    -0.302 OA
ENDBRANCH   2   8
TORSDOF 2
ENDMDL
MODEL 5
REMARK VINA RESULT:      -4.6      0.089      1.445
REMARK  2 active torsions:
REMARK  status: ('A' for Active; 'I' for Inactive)
REMARK    1  A    between atoms: C1_1  and  C8_8 
REMARK    2  A    between atoms: C2_2  and  C3_3 
ROOT
HETATM    1  C1  UNL     1     -33.590   7.247   2.604  1.00 20.00    -0.009 C 
HETATM    2  C3  UNL     1     -32.508   8.048   2.568  1.00 20.00    -0.027 C 
HETATM    3  C4  UNL     1     -31.389   8.162   3.553  1.00 20.00     0.051 C 
ENDROOT
BRANCH   1   4
HETATM    4  C8  UNL     1     -34.027   6.239   3.663  1.00 20.00    -0.033 C 
HETATM    5  C5  UNL     1     -33.686   6.822   5.054  1.00 20.00     0.018 C 
HETATM    6  C6  UNL     1     -35.549   6.014   3.617  1.00 20.00     0.018 C 
HETATM    7  C7  UNL     1     -33.279   4.900   3.536  1.00 20.00     0.018 C 
ENDBRANCH   1   4
BRANCH   2   8
HETATM    8  C2  UNL     1     -32.411   8.936   1.372  1.00 20.00     0.265 C 
HETATM    9  O9  UNL     1     -31.493   8.870   0.562  1.00 20.00    -0.302 OA
ENDBRANCH   2   8
TORSDOF 2
ENDMDL
MODEL 6
REMARK VINA RESULT:      -4.1     10.562     11.534
REMARK  2 active torsions:
REMARK  status: ('A' for Active; 'I' for Inactive)
REMARK    1  A    between atoms: C1_1  and  C8_8 
REMARK    2  A    between atoms: C2_2  and  C3_3 
ROOT
HETATM    1  C1  UNL     1     -33.803  16.541  -2.644  1.00 20.00    -0.009 C 
HETATM    2  C3  UNL     1     -34.678  15.816  -3.367  1.00 20.00    -0.027 C 
HETATM    3  C4  UNL     1     -36.157  15.989  -3.501  1.00 20.00     0.051 C 
ENDROOT
BRANCH   1   4
HETATM    4  C8  UNL     1     -34.045  17.731  -1.720  1.00 20.00    -0.033 C 
HETATM    5  C5  UNL     1     -32.690  18.141  -1.096  1.00 20.00     0.018 C 
HETATM    6  C6  UNL     1     -34.578  18.942  -2.505  1.00 20.00     0.018 C 
HETATM    7  C7  UNL     1     -34.992  17.383  -0.558  1.00 20.00     0.018 C 
ENDBRANCH   1   4
BRANCH   2   8
HETATM    8  C2  UNL     1     -34.083  14.692  -4.149  1.00 20.00     0.265 C 
HETATM    9  O9  UNL     1     -34.509  13.544  -4.100  1.00 20.00    -0.302 OA
ENDBRANCH   2   8
TORSDOF 2
ENDMDL
MODEL 7
REMARK VINA RESULT:      -4.0      2.298      4.061
REMARK  2 active torsions:
REMARK  status: ('A' for Active; 'I' for Inactive)
REMARK    1  A    between atoms: C1_1  and  C8_8 
REMARK    2  A    between atoms: C2_2  and  C3_3 
ROOT
HETATM    1  C1  UNL     1     -33.128   7.092   2.614  1.00 20.00    -0.009 C 
HETATM    2  C3  UNL     1     -33.699   6.694   3.766  1.00 20.00    -0.027 C 
HETATM    3  C4  UNL     1     -33.646   7.339   5.114  1.00 20.00     0.051 C 
ENDROOT
BRANCH   1   4
HETATM    4  C8  UNL     1     -32.230   8.293   2.329  1.00 20.00    -0.033 C 
HETATM    5  C5  UNL     1     -33.117   9.558   2.274  1.00 20.00     0.018 C 
HETATM    6  C6  UNL     1     -31.204   8.496   3.458  1.00 20.00     0.018 C 
HETATM    7  C7  UNL     1     -31.519   8.178   0.969  1.00 20.00     0.018 C 
ENDBRANCH   1   4
BRANCH   2   8
HETATM    8  C2  UNL     1     -34.506   5.441   3.679  1.00 20.00     0.265 C 
HETATM    9  O9  UNL     1     -34.389   4.514   4.471  1.00 20.00    -0.302 OA
ENDBRANCH   2   8
TORSDOF 2
ENDMDL
MODEL 8
REMARK VINA RESULT:      -4.0      2.284      4.080
REMARK  2 active torsions:
REMARK  status: ('A' for Active; 'I' for Inactive)
REMARK    1  A    between atoms: C1_1  and  C8_8 
REMARK    2  A    between atoms: C2_2  and  C3_3 
ROOT
HETATM    1  C1  UNL     1     -33.135   7.147   2.644  1.00 20.00    -0.009 C 
HETATM    2  C3  UNL     1     -33.711   6.715   3.781  1.00 20.00    -0.027 C 
HETATM    3  C4  UNL     1     -33.663   7.321   5.148  1.00 20.00     0.051 C 
ENDROOT
BRANCH   1   4
HETATM    4  C8  UNL     1     -32.234   8.354   2.398  1.00 20.00    -0.033 C 
HETATM    5  C5  UNL     1     -31.490   8.138   1.060  1.00 20.00     0.018 C 
HETATM    6  C6  UNL     1     -33.063   9.644   2.264  1.00 20.00     0.018 C 
HETATM    7  C7  UNL     1     -31.163   8.513   3.492  1.00 20.00     0.018 C 
ENDBRANCH   1   4
BRANCH   2   8
HETATM    8  C2  UNL     1     -34.519   5.466   3.654  1.00 20.00     0.265 C 
HETATM    9  O9  UNL     1     -34.363   4.492   4.382  1.00 20.00    -0.302 OA
ENDBRANCH   2   8
TORSDOF 2
ENDMDL
MODEL 9
REMARK VINA RESULT:      -4.0     10.572     11.711
REMARK  2 active torsions:
REMARK  status: ('A' for Active; 'I' for Inactive)
REMARK    1  A    between atoms: C1_1  and  C8_8 
REMARK    2  A    between atoms: C2_2  and  C3_3 
ROOT
HETATM    1  C1  UNL     1     -33.488  16.576  -3.366  1.00 20.00    -0.009 C 
HETATM    2  C3  UNL     1     -33.977  17.002  -2.186  1.00 20.00    -0.027 C 
HETATM    3  C4  UNL     1     -35.335  16.784  -1.598  1.00 20.00     0.051 C 
ENDROOT
BRANCH   1   4
HETATM    4  C8  UNL     1     -34.165  15.777  -4.476  1.00 20.00    -0.033 C 
HETATM    5  C5  UNL     1     -33.195  15.704  -5.679  1.00 20.00     0.018 C 
HETATM    6  C6  UNL     1     -34.450  14.334  -4.024  1.00 20.00     0.018 C 
HETATM    7  C7  UNL     1     -35.455  16.451  -4.975  1.00 20.00     0.018 C 
ENDBRANCH   1   4
BRANCH   2   8
HETATM    8  C2  UNL     1     -33.026  17.790  -1.347  1.00 20.00     0.265 C 
HETATM    9  O9  UNL     1     -32.403  18.756  -1.771  1.00 20.00    -0.302 OA
ENDBRANCH   2   8
TORSDOF 2
ENDMDL
