MODEL 1
REMARK VINA RESULT:      -5.4      0.000      0.000
REMARK  2 active torsions:
REMARK  status: ('A' for Active; 'I' for Inactive)
REMARK    1  A    between atoms: C2_2  and  C7_7 
REMARK    2  A    between atoms: C3_3  and  C7_7 
ROOT
HETATM    1  C6  UNL     1     -33.669   7.255   5.505  1.00 20.00     0.022 C 
HETATM    2  C7  UNL     1     -33.815   6.932   4.021  1.00 20.00     0.073 C 
ENDROOT
BRANCH   2   3
HETATM    3  C2  UNL     1     -32.639   7.433   3.233  1.00 20.00    -0.019 C 
HETATM    4  C1  UNL     1     -32.752   8.203   2.140  1.00 20.00    -0.034 C 
HETATM    5  C4  UNL     1     -31.587   8.707   1.354  1.00 20.00     0.036 C 
ENDBRANCH   2   3
BRANCH   2   6
HETATM    6  C3  UNL     1     -33.899   5.426   3.798  1.00 20.00     0.130 C 
HETATM    7  C5  UNL     1     -34.673   4.630   4.819  1.00 20.00     0.091 C 
HETATM    8  O8  UNL     1     -33.334   4.867   2.858  1.00 20.00    -0.298 OA
ENDBRANCH   2   6
TORSDOF 2
ENDMDL
MODEL 2
REMARK VINA RESULT:      -5.2      1.345      2.039
REMARK  2 active torsions:
REMARK  status: ('A' for Active; 'I' for Inactive)
REMARK    1  A    between atoms: C2_2  and  C7_7 
REMARK    2  A    between atoms: C3_3  and  C7_7 
ROOT
HETATM    1  C6  UNL     1     -33.143   5.011   2.647  1.00 20.00     0.022 C 
HETATM    2  C7  UNL     1     -33.029   6.300   3.456  1.00 20.00     0.073 C 
ENDROOT
BRANCH   2   3
HETATM    3  C2  UNL     1     -33.150   7.511   2.576  1.00 20.00    -0.019 C 
HETATM    4  C1  UNL     1     -32.108   8.283   2.230  1.00 20.00    -0.034 C 
HETATM    5  C4  UNL     1     -32.221   9.487   1.353  1.00 20.00     0.036 C 
ENDBRANCH   2   3
BRANCH   2   6
HETATM    6  C3  UNL     1     -34.137   6.387   4.499  1.00 20.00     0.130 C 
HETATM    7  C5  UNL     1     -33.845   7.204   5.733  1.00 20.00     0.091 C 
HETATM    8  O8  UNL     1     -35.208   5.791   4.374  1.00 20.00    -0.298 OA
ENDBRANCH   2   6
TORSDOF 2
ENDMDL
MODEL 3
REMARK VINA RESULT:      -5.2      0.943      1.198
REMARK  2 active torsions:
REMARK  status: ('A' for Active; 'I' for Inactive)
REMARK    1  A    between atoms: C2_2  and  C7_7 
REMARK    2  A    between atoms: C3_3  and  C7_7 
ROOT
HETATM    1  C6  UNL     1     -33.669   7.258   5.492  1.00 20.00     0.022 C 
HETATM    2  C7  UNL     1     -33.884   6.925   4.019  1.00 20.00     0.073 C 
ENDROOT
BRANCH   2   3
HETATM    3  C2  UNL     1     -32.701   7.334   3.187  1.00 20.00    -0.019 C 
HETATM    4  C1  UNL     1     -32.762   8.259   2.218  1.00 20.00    -0.034 C 
HETATM    5  C4  UNL     1     -31.590   8.672   1.390  1.00 20.00     0.036 C 
ENDBRANCH   2   3
BRANCH   2   6
HETATM    6  C3  UNL     1     -34.077   5.425   3.823  1.00 20.00     0.130 C 
HETATM    7  C5  UNL     1     -33.249   4.769   2.746  1.00 20.00     0.091 C 
HETATM    8  O8  UNL     1     -34.895   4.775   4.475  1.00 20.00    -0.298 OA
ENDBRANCH   2   6
TORSDOF 2
ENDMDL
MODEL 4
REMARK VINA RESULT:      -4.5      1.729      4.144
REMARK  2 active torsions:
REMARK  status: ('A' for Active; 'I' for Inactive)
REMARK    1  A    between atoms: C2_2  and  C7_7 
REMARK    2  A    between atoms: C3_3  and  C7_7 
ROOT
HETATM    1  C6  UNL     1     -32.916   5.586   2.220  1.00 20.00     0.022 C 
HETATM    2  C7  UNL     1     -33.382   6.927   2.779  1.00 20.00     0.073 C 
ENDROOT
BRANCH   2   3
HETATM    3  C2  UNL     1     -33.840   6.796   4.204  1.00 20.00    -0.019 C 
HETATM    4  C1  UNL     1     -34.376   5.676   4.711  1.00 20.00    -0.034 C 
HETATM    5  C4  UNL     1     -34.831   5.538   6.126  1.00 20.00     0.036 C 
ENDBRANCH   2   3
BRANCH   2   6
HETATM    6  C3  UNL     1     -32.249   7.947   2.761  1.00 20.00     0.130 C 
HETATM    7  C5  UNL     1     -31.994   8.656   1.454  1.00 20.00     0.091 C 
HETATM    8  O8  UNL     1     -31.541   8.163   3.745  1.00 20.00    -0.298 OA
ENDBRANCH   2   6
TORSDOF 2
ENDMDL
MODEL 5
REMARK VINA RESULT:      -4.5      2.364      4.409
REMARK  2 active torsions:
REMARK  status: ('A' for Active; 'I' for Inactive)
REMARK    1  A    between atoms: C2_2  and  C7_7 
REMARK    2  A    between atoms: C3_3  and  C7_7 
ROOT
HETATM    1  C6  UNL     1     -31.369   8.486   3.345  1.00 20.00     0.022 C 
HETATM    2  C7  UNL     1     -32.093   8.100   2.058  1.00 20.00     0.073 C 
ENDROOT
BRANCH   2   3
HETATM    3  C2  UNL     1     -33.349   7.329   2.348  1.00 20.00    -0.019 C 
HETATM    4  C1  UNL     1     -33.569   6.674   3.498  1.00 20.00    -0.034 C 
HETATM    5  C4  UNL     1     -34.816   5.908   3.792  1.00 20.00     0.036 C 
ENDBRANCH   2   3
BRANCH   2   6
HETATM    6  C3  UNL     1     -32.496   9.339   1.268  1.00 20.00     0.130 C 
HETATM    7  C5  UNL     1     -32.862   9.131  -0.181  1.00 20.00     0.091 C 
HETATM    8  O8  UNL     1     -32.487  10.467   1.761  1.00 20.00    -0.298 OA
ENDBRANCH   2   6
TORSDOF 2
ENDMDL
MODEL 6
REMARK VINA RESULT:      -4.3      1.248      1.882
REMARK  2 active torsions:
REMARK  status: ('A' for Active; 'I' for Inactive)
REMARK    1  A    between atoms: C2_2  and  C7_7 
REMARK    2  A    between atoms: C3_3  and  C7_7 
ROOT
HETATM    1  C6  UNL     1     -31.403   8.118   3.707  1.00 20.00     0.022 C 
HETATM    2  C7  UNL     1     -32.806   7.932   3.137  1.00 20.00     0.073 C 
ENDROOT
BRANCH   2   3
HETATM    3  C2  UNL     1     -32.836   8.197   1.659  1.00 20.00    -0.019 C 
HETATM    4  C1  UNL     1     -32.761   9.425   1.124  1.00 20.00    -0.034 C 
HETATM    5  C4  UNL     1     -32.788   9.695  -0.344  1.00 20.00     0.036 C 
ENDBRANCH   2   3
BRANCH   2   6
HETATM    6  C3  UNL     1     -33.295   6.503   3.350  1.00 20.00     0.130 C 
HETATM    7  C5  UNL     1     -34.324   6.292   4.432  1.00 20.00     0.091 C 
HETATM    8  O8  UNL     1     -32.850   5.552   2.706  1.00 20.00    -0.298 OA
ENDBRANCH   2   6
TORSDOF 2
ENDMDL
MODEL 7
REMARK VINA RESULT:      -4.3      1.960      2.971
REMARK  2 active torsions:
REMARK  status: ('A' for Active; 'I' for Inactive)
REMARK    1  A    between atoms: C2_2  and  C7_7 
REMARK    2  A    between atoms: C3_3  and  C7_7 
ROOT
HETATM    1  C6  UNL     1     -32.504   7.780   3.592  1.00 20.00     0.022 C 
HETATM    2  C7  UNL     1     -33.840   7.097   3.866  1.00 20.00     0.073 C 
ENDROOT
BRANCH   2   3
HETATM    3  C2  UNL     1     -33.955   5.799   3.118  1.00 20.00    -0.019 C 
HETATM    4  C1  UNL     1     -32.896   5.097   2.686  1.00 20.00    -0.034 C 
HETATM    5  C4  UNL     1     -33.003   3.805   1.945  1.00 20.00     0.036 C 
ENDBRANCH   2   3
BRANCH   2   6
HETATM    6  C3  UNL     1     -33.996   6.780   5.349  1.00 20.00     0.130 C 
HETATM    7  C5  UNL     1     -34.639   5.460   5.697  1.00 20.00     0.091 C 
HETATM    8  O8  UNL     1     -33.657   7.569   6.231  1.00 20.00    -0.298 OA
ENDBRANCH   2   6
TORSDOF 2
ENDMDL
MODEL 8
REMARK VINA RESULT:      -4.1      1.192      3.265
REMARK  2 active torsions:
REMARK  status: ('A' for Active; 'I' for Inactive)
REMARK    1  A    between atoms: C2_2  and  C7_7 
REMARK    2  A    between atoms: C3_3  and  C7_7 
ROOT
HETATM    1  C6  UNL     1     -34.459   4.198   4.609  1.00 20.00     0.022 C 
HETATM    2  C7  UNL     1     -34.504   5.453   3.744  1.00 20.00     0.073 C 
ENDROOT
BRANCH   2   3
HETATM    3  C2  UNL     1     -34.446   6.698   4.583  1.00 20.00    -0.019 C 
HETATM    4  C1  UNL     1     -33.862   6.753   5.789  1.00 20.00    -0.034 C 
HETATM    5  C4  UNL     1     -33.799   7.988   6.626  1.00 20.00     0.036 C 
ENDBRANCH   2   3
BRANCH   2   6
HETATM    6  C3  UNL     1     -33.317   5.498   2.788  1.00 20.00     0.130 C 
HETATM    7  C5  UNL     1     -32.764   6.861   2.455  1.00 20.00     0.091 C 
HETATM    8  O8  UNL     1     -32.848   4.482   2.273  1.00 20.00    -0.298 OA
ENDBRANCH   2   6
TORSDOF 2
ENDMDL
MODEL 9
REMARK VINA RESULT:      -4.0     11.281     11.723
REMARK  2 active torsions:
REMARK  status: ('A' for Active; 'I' for Inactive)
REMARK    1  A    between atoms: C2_2  and  C7_7 
REMARK    2  A    between atoms: C3_3  and  C7_7 
ROOT
HETATM    1  C6  UNL     1     -33.794  15.164  -5.777  1.00 20.00     0.022 C 
HETATM    2  C7  UNL     1     -34.409  14.477  -4.561  1.00 20.00     0.073 C 
ENDROOT
BRANCH   2   3
HETATM    3  C2  UNL     1     -34.646  15.452  -3.443  1.00 20.00    -0.019 C 
HETATM    4  C1  UNL     1     -33.716  16.310  -2.999  1.00 20.00    -0.034 C 
HETATM    5  C4  UNL     1     -33.945  17.284  -1.889  1.00 20.00     0.036 C 
ENDBRANCH   2   3
BRANCH   2   6
HETATM    6  C3  UNL     1     -35.757  13.856  -4.912  1.00 20.00     0.130 C 
HETATM    7  C5  UNL     1     -36.971  14.740  -4.764  1.00 20.00     0.091 C 
HETATM    8  O8  UNL     1     -35.870  12.681  -5.260  1.00 20.00    -0.298 OA
ENDBRANCH   2   6
TORSDOF 2
ENDMDL
