MODEL 1
REMARK VINA RESULT:      -4.9      0.000      0.000
REMARK  0 active torsions:
REMARK  status: ('A' for Active; 'I' for Inactive)
ROOT
HETATM    1  C1  UNL     1     -33.331   7.466   5.052  1.00 20.00     0.149 C 
HETATM    2  C2  UNL     1     -33.237   7.135   3.758  1.00 20.00     0.010 C 
HETATM    3  C3  UNL     1     -34.008   5.987   3.182  1.00 20.00     0.050 C 
HETATM    4  C4  UNL     1     -35.099   5.539   4.153  1.00 20.00     0.032 C 
HETATM    5  C5  UNL     1     -34.557   5.520   5.577  1.00 20.00     0.174 C 
HETATM    6  O6  UNL     1     -34.072   6.802   5.998  1.00 20.00    -0.362 OA
HETATM    7 BR7  UNL     1     -32.189   8.098   2.554  1.00 20.00    -0.054 Br
ENDROOT
TORSDOF 0
ENDMDL
MODEL 2
REMARK VINA RESULT:      -4.7      1.344      1.956
REMARK  0 active torsions:
REMARK  status: ('A' for Active; 'I' for Inactive)
ROOT
HETATM    1  C1  UNL     1     -33.308   5.619   2.979  1.00 20.00     0.149 C 
HETATM    2  C2  UNL     1     -33.167   6.881   3.406  1.00 20.00     0.010 C 
HETATM    3  C3  UNL     1     -33.752   7.340   4.707  1.00 20.00     0.050 C 
HETATM    4  C4  UNL     1     -34.173   6.139   5.554  1.00 20.00     0.032 C 
HETATM    5  C5  UNL     1     -34.856   5.095   4.679  1.00 20.00     0.174 C 
HETATM    6  O6  UNL     1     -34.014   4.630   3.616  1.00 20.00    -0.362 OA
HETATM    7 BR7  UNL     1     -32.196   8.156   2.455  1.00 20.00    -0.054 Br
ENDROOT
TORSDOF 0
ENDMDL
MODEL 3
REMARK VINA RESULT:      -3.4      2.391      3.020
REMARK  0 active torsions:
REMARK  status: ('A' for Active; 'I' for Inactive)
ROOT
HETATM    1  C1  UNL     1     -33.025   7.284   4.854  1.00 20.00     0.149 C 
HETATM    2  C2  UNL     1     -33.797   6.280   4.417  1.00 20.00     0.010 C 
HETATM    3  C3  UNL     1     -33.893   5.939   2.962  1.00 20.00     0.050 C 
HETATM    4  C4  UNL     1     -32.775   6.628   2.179  1.00 20.00     0.032 C 
HETATM    5  C5  UNL     1     -32.602   8.061   2.667  1.00 20.00     0.174 C 
HETATM    6  O6  UNL     1     -32.289   8.133   4.065  1.00 20.00    -0.362 OA
HETATM    7 BR7  UNL     1     -34.771   5.192   5.575  1.00 20.00    -0.054 Br
ENDROOT
TORSDOF 0
ENDMDL
MODEL 4
REMARK VINA RESULT:      -3.3      1.752      2.128
REMARK  0 active torsions:
REMARK  status: ('A' for Active; 'I' for Inactive)
ROOT
HETATM    1  C1  UNL     1     -33.446   6.773   3.620  1.00 20.00     0.149 C 
HETATM    2  C2  UNL     1     -33.600   5.442   3.588  1.00 20.00     0.010 C 
HETATM    3  C3  UNL     1     -34.186   4.692   4.745  1.00 20.00     0.050 C 
HETATM    4  C4  UNL     1     -34.858   5.658   5.720  1.00 20.00     0.032 C 
HETATM    5  C5  UNL     1     -33.991   6.895   5.912  1.00 20.00     0.174 C 
HETATM    6  O6  UNL     1     -33.742   7.590   4.682  1.00 20.00    -0.362 OA
HETATM    7 BR7  UNL     1     -33.152   4.420   2.096  1.00 20.00    -0.054 Br
ENDROOT
TORSDOF 0
ENDMDL
MODEL 5
REMARK VINA RESULT:      -3.3      2.544      3.460
REMARK  0 active torsions:
REMARK  status: ('A' for Active; 'I' for Inactive)
ROOT
HETATM    1  C1  UNL     1     -33.371   6.324   2.955  1.00 20.00     0.149 C 
HETATM    2  C2  UNL     1     -33.759   6.189   4.230  1.00 20.00     0.010 C 
HETATM    3  C3  UNL     1     -33.303   7.139   5.295  1.00 20.00     0.050 C 
HETATM    4  C4  UNL     1     -32.684   8.387   4.665  1.00 20.00     0.032 C 
HETATM    5  C5  UNL     1     -31.793   7.993   3.493  1.00 20.00     0.174 C 
HETATM    6  O6  UNL     1     -32.506   7.276   2.476  1.00 20.00    -0.362 OA
HETATM    7 BR7  UNL     1     -34.931   4.849   4.782  1.00 20.00    -0.054 Br
ENDROOT
TORSDOF 0
ENDMDL
MODEL 6
REMARK VINA RESULT:      -3.2     12.160     12.842
REMARK  0 active torsions:
REMARK  status: ('A' for Active; 'I' for Inactive)
ROOT
HETATM    1  C1  UNL     1     -35.212  13.784  -4.715  1.00 20.00     0.149 C 
HETATM    2  C2  UNL     1     -34.430  14.836  -4.989  1.00 20.00     0.010 C 
HETATM    3  C3  UNL     1     -34.027  15.171  -6.393  1.00 20.00     0.050 C 
HETATM    4  C4  UNL     1     -34.888  14.399  -7.392  1.00 20.00     0.032 C 
HETATM    5  C5  UNL     1     -35.073  12.961  -6.921  1.00 20.00     0.174 C 
HETATM    6  O6  UNL     1     -35.691  12.880  -5.630  1.00 20.00    -0.362 OA
HETATM    7 BR7  UNL     1     -33.820  16.000  -3.667  1.00 20.00    -0.054 Br
ENDROOT
TORSDOF 0
ENDMDL
MODEL 7
REMARK VINA RESULT:      -3.2      2.141      2.639
REMARK  0 active torsions:
REMARK  status: ('A' for Active; 'I' for Inactive)
ROOT
HETATM    1  C1  UNL     1     -34.473   5.160   5.273  1.00 20.00     0.149 C 
HETATM    2  C2  UNL     1     -33.916   6.349   5.004  1.00 20.00     0.010 C 
HETATM    3  C3  UNL     1     -33.376   6.674   3.645  1.00 20.00     0.050 C 
HETATM    4  C4  UNL     1     -33.864   5.650   2.620  1.00 20.00     0.032 C 
HETATM    5  C5  UNL     1     -33.791   4.246   3.208  1.00 20.00     0.174 C 
HETATM    6  O6  UNL     1     -34.577   4.106   4.399  1.00 20.00    -0.362 OA
HETATM    7 BR7  UNL     1     -33.812   7.712   6.270  1.00 20.00    -0.054 Br
ENDROOT
TORSDOF 0
ENDMDL
MODEL 8
REMARK VINA RESULT:      -3.2     11.646     12.217
REMARK  0 active torsions:
REMARK  status: ('A' for Active; 'I' for Inactive)
ROOT
HETATM    1  C1  UNL     1     -34.502  14.237  -4.131  1.00 20.00     0.149 C 
HETATM    2  C2  UNL     1     -35.035  15.417  -3.785  1.00 20.00     0.010 C 
HETATM    3  C3  UNL     1     -36.419  15.807  -4.205  1.00 20.00     0.050 C 
HETATM    4  C4  UNL     1     -37.180  14.589  -4.726  1.00 20.00     0.032 C 
HETATM    5  C5  UNL     1     -36.271  13.744  -5.611  1.00 20.00     0.174 C 
HETATM    6  O6  UNL     1     -35.100  13.287  -4.920  1.00 20.00    -0.362 OA
HETATM    7 BR7  UNL     1     -34.131  16.647  -2.716  1.00 20.00    -0.054 Br
ENDROOT
TORSDOF 0
ENDMDL
MODEL 9
REMARK VINA RESULT:      -3.1      9.684     10.421
REMARK  0 active torsions:
REMARK  status: ('A' for Active; 'I' for Inactive)
ROOT
HETATM    1  C1  UNL     1     -43.415   6.705  -1.211  1.00 20.00     0.149 C 
HETATM    2  C2  UNL     1     -42.727   5.620  -0.832  1.00 20.00     0.010 C 
HETATM    3  C3  UNL     1     -41.365   5.729  -0.217  1.00 20.00     0.050 C 
HETATM    4  C4  UNL     1     -41.087   7.171   0.207  1.00 20.00     0.032 C 
HETATM    5  C5  UNL     1     -41.570   8.135  -0.870  1.00 20.00     0.174 C 
HETATM    6  O6  UNL     1     -42.972   8.003  -1.138  1.00 20.00    -0.362 OA
HETATM    7 BR7  UNL     1     -43.415   3.896  -0.987  1.00 20.00    -0.054 Br
ENDROOT
TORSDOF 0
ENDMDL
