MODEL 1
REMARK VINA RESULT:      -6.8      0.000      0.000
REMARK  2 active torsions:
REMARK  status: ('A' for Active; 'I' for Inactive)
REMARK    1  A    between atoms: C2_2  and  C3_3 
REMARK    2  A    between atoms: C4_4  and  C5_5 
ROOT
HETATM    1  C1  UNL     1     -33.922   6.999   4.911  1.00 20.00    -0.020 C 
HETATM    2  C2  UNL     1     -33.717   6.498   3.688  1.00 20.00    -0.062 C 
HETATM    3  C6  UNL     1     -34.333   5.940   5.879  1.00 20.00     0.028 C 
HETATM    4  C7  UNL     1     -33.958   5.023   3.644  1.00 20.00     0.038 C 
HETATM    5  C8  UNL     1     -34.680   4.764   4.968  1.00 20.00     0.008 C 
ENDROOT
BRANCH   2   6
HETATM    6  C3  UNL     1     -33.297   7.229   2.534  1.00 20.00     0.010 C 
HETATM    7  C4  UNL     1     -32.411   8.237   2.584  1.00 20.00     0.050 C 
BRANCH   7   8
HETATM    8  C5  UNL     1     -32.012   8.961   1.345  1.00 20.00     0.145 C 
HETATM    9  C9  UNL     1     -32.723  10.259   1.062  1.00 20.00     0.096 C 
HETATM   10  O10 UNL     1     -31.130   8.544   0.598  1.00 20.00    -0.294 OA
ENDBRANCH   7   8
ENDBRANCH   2   6
TORSDOF 2
ENDMDL
MODEL 2
REMARK VINA RESULT:      -5.3      2.271      5.103
REMARK  2 active torsions:
REMARK  status: ('A' for Active; 'I' for Inactive)
REMARK    1  A    between atoms: C2_2  and  C3_3 
REMARK    2  A    between atoms: C4_4  and  C5_5 
ROOT
HETATM    1  C1  UNL     1     -31.660   7.948   1.634  1.00 20.00    -0.020 C 
HETATM    2  C2  UNL     1     -32.745   8.209   2.371  1.00 20.00    -0.062 C 
HETATM    3  C6  UNL     1     -31.418   9.010   0.614  1.00 20.00     0.028 C 
HETATM    4  C7  UNL     1     -33.402   9.488   1.961  1.00 20.00     0.038 C 
HETATM    5  C8  UNL     1     -32.731   9.791   0.620  1.00 20.00     0.008 C 
ENDROOT
BRANCH   2   6
HETATM    6  C3  UNL     1     -33.249   7.411   3.445  1.00 20.00     0.010 C 
HETATM    7  C4  UNL     1     -33.837   6.218   3.261  1.00 20.00     0.050 C 
BRANCH   7   8
HETATM    8  C5  UNL     1     -34.342   5.432   4.422  1.00 20.00     0.145 C 
HETATM    9  C9  UNL     1     -34.407   6.148   5.746  1.00 20.00     0.096 C 
HETATM   10  O10 UNL     1     -34.715   4.266   4.311  1.00 20.00    -0.294 OA
ENDBRANCH   7   8
ENDBRANCH   2   6
TORSDOF 2
ENDMDL
MODEL 3
REMARK VINA RESULT:      -4.9     10.751     11.397
REMARK  2 active torsions:
REMARK  status: ('A' for Active; 'I' for Inactive)
REMARK    1  A    between atoms: C2_2  and  C3_3 
REMARK    2  A    between atoms: C4_4  and  C5_5 
ROOT
HETATM    1  C1  UNL     1     -33.571  16.881  -2.734  1.00 20.00    -0.020 C 
HETATM    2  C2  UNL     1     -34.821  16.445  -2.542  1.00 20.00    -0.062 C 
HETATM    3  C6  UNL     1     -33.077  17.672  -1.570  1.00 20.00     0.028 C 
HETATM    4  C7  UNL     1     -35.361  16.876  -1.216  1.00 20.00     0.038 C 
HETATM    5  C8  UNL     1     -34.354  17.940  -0.776  1.00 20.00     0.008 C 
ENDROOT
BRANCH   2   6
HETATM    6  C3  UNL     1     -35.586  15.645  -3.446  1.00 20.00     0.010 C 
HETATM    7  C4  UNL     1     -35.084  14.581  -4.092  1.00 20.00     0.050 C 
BRANCH   7   8
HETATM    8  C5  UNL     1     -35.933  13.785  -5.022  1.00 20.00     0.145 C 
HETATM    9  C9  UNL     1     -37.290  14.352  -5.351  1.00 20.00     0.096 C 
HETATM   10  O10 UNL     1     -35.546  12.732  -5.523  1.00 20.00    -0.294 OA
ENDBRANCH   7   8
ENDBRANCH   2   6
TORSDOF 2
ENDMDL
MODEL 4
REMARK VINA RESULT:      -4.9     10.912     11.342
REMARK  2 active torsions:
REMARK  status: ('A' for Active; 'I' for Inactive)
REMARK    1  A    between atoms: C2_2  and  C3_3 
REMARK    2  A    between atoms: C4_4  and  C5_5 
ROOT
HETATM    1  C1  UNL     1     -35.453  16.664  -1.747  1.00 20.00    -0.020 C 
HETATM    2  C2  UNL     1     -34.408  16.441  -2.551  1.00 20.00    -0.062 C 
HETATM    3  C6  UNL     1     -35.166  17.740  -0.754  1.00 20.00     0.028 C 
HETATM    4  C7  UNL     1     -33.255  17.333  -2.223  1.00 20.00     0.038 C 
HETATM    5  C8  UNL     1     -33.651  17.902  -0.859  1.00 20.00     0.008 C 
ENDROOT
BRANCH   2   6
HETATM    6  C3  UNL     1     -34.351  15.495  -3.621  1.00 20.00     0.010 C 
HETATM    7  C4  UNL     1     -35.429  14.842  -4.084  1.00 20.00     0.050 C 
BRANCH   7   8
HETATM    8  C5  UNL     1     -35.305  13.867  -5.204  1.00 20.00     0.145 C 
HETATM    9  C9  UNL     1     -34.363  14.236  -6.320  1.00 20.00     0.096 C 
HETATM   10  O10 UNL     1     -35.916  12.801  -5.213  1.00 20.00    -0.294 OA
ENDBRANCH   7   8
ENDBRANCH   2   6
TORSDOF 2
ENDMDL
MODEL 5
REMARK VINA RESULT:      -4.7     10.876     11.307
REMARK  2 active torsions:
REMARK  status: ('A' for Active; 'I' for Inactive)
REMARK    1  A    between atoms: C2_2  and  C3_3 
REMARK    2  A    between atoms: C4_4  and  C5_5 
ROOT
HETATM    1  C1  UNL     1     -35.372  16.904  -1.151  1.00 20.00    -0.020 C 
HETATM    2  C2  UNL     1     -34.170  17.099  -1.705  1.00 20.00    -0.062 C 
HETATM    3  C6  UNL     1     -35.551  17.725   0.081  1.00 20.00     0.028 C 
HETATM    4  C7  UNL     1     -33.355  18.084  -0.930  1.00 20.00     0.038 C 
HETATM    5  C8  UNL     1     -34.131  18.197   0.383  1.00 20.00     0.008 C 
ENDROOT
BRANCH   2   6
HETATM    6  C3  UNL     1     -33.681  16.488  -2.901  1.00 20.00     0.010 C 
HETATM    7  C4  UNL     1     -34.358  15.543  -3.574  1.00 20.00     0.050 C 
BRANCH   7   8
HETATM    8  C5  UNL     1     -33.795  14.943  -4.816  1.00 20.00     0.145 C 
HETATM    9  C9  UNL     1     -33.268  15.902  -5.851  1.00 20.00     0.096 C 
HETATM   10  O10 UNL     1     -33.734  13.728  -4.986  1.00 20.00    -0.294 OA
ENDBRANCH   7   8
ENDBRANCH   2   6
TORSDOF 2
ENDMDL
MODEL 6
REMARK VINA RESULT:      -4.5     10.977     11.509
REMARK  2 active torsions:
REMARK  status: ('A' for Active; 'I' for Inactive)
REMARK    1  A    between atoms: C2_2  and  C3_3 
REMARK    2  A    between atoms: C4_4  and  C5_5 
ROOT
HETATM    1  C1  UNL     1     -33.138  17.769  -1.494  1.00 20.00    -0.020 C 
HETATM    2  C2  UNL     1     -33.930  16.904  -2.136  1.00 20.00    -0.062 C 
HETATM    3  C6  UNL     1     -33.804  18.336  -0.286  1.00 20.00     0.028 C 
HETATM    4  C7  UNL     1     -35.254  16.754  -1.458  1.00 20.00     0.038 C 
HETATM    5  C8  UNL     1     -35.265  17.935  -0.485  1.00 20.00     0.008 C 
ENDROOT
BRANCH   2   6
HETATM    6  C3  UNL     1     -33.598  16.168  -3.316  1.00 20.00     0.010 C 
HETATM    7  C4  UNL     1     -34.520  15.662  -4.151  1.00 20.00     0.050 C 
BRANCH   7   8
HETATM    8  C5  UNL     1     -34.112  14.904  -5.367  1.00 20.00     0.145 C 
HETATM    9  C9  UNL     1     -33.499  15.703  -6.487  1.00 20.00     0.096 C 
HETATM   10  O10 UNL     1     -34.238  13.685  -5.451  1.00 20.00    -0.294 OA
ENDBRANCH   7   8
ENDBRANCH   2   6
TORSDOF 2
ENDMDL
MODEL 7
REMARK VINA RESULT:      -4.4     10.806     11.410
REMARK  2 active torsions:
REMARK  status: ('A' for Active; 'I' for Inactive)
REMARK    1  A    between atoms: C2_2  and  C3_3 
REMARK    2  A    between atoms: C4_4  and  C5_5 
ROOT
HETATM    1  C1  UNL     1     -34.683  14.430  -4.154  1.00 20.00    -0.020 C 
HETATM    2  C2  UNL     1     -35.370  15.442  -3.613  1.00 20.00    -0.062 C 
HETATM    3  C6  UNL     1     -35.464  13.743  -5.223  1.00 20.00     0.028 C 
HETATM    4  C7  UNL     1     -36.721  15.592  -4.235  1.00 20.00     0.038 C 
HETATM    5  C8  UNL     1     -36.877  14.283  -5.011  1.00 20.00     0.008 C 
ENDROOT
BRANCH   2   6
HETATM    6  C3  UNL     1     -34.912  16.318  -2.581  1.00 20.00     0.010 C 
HETATM    7  C4  UNL     1     -33.688  16.869  -2.573  1.00 20.00     0.050 C 
BRANCH   7   8
HETATM    8  C5  UNL     1     -33.268  17.777  -1.469  1.00 20.00     0.145 C 
HETATM    9  C9  UNL     1     -34.225  17.925  -0.315  1.00 20.00     0.096 C 
HETATM   10  O10 UNL     1     -32.186  18.359  -1.476  1.00 20.00    -0.294 OA
ENDBRANCH   7   8
ENDBRANCH   2   6
TORSDOF 2
ENDMDL
MODEL 8
REMARK VINA RESULT:      -4.3     10.615     11.652
REMARK  2 active torsions:
REMARK  status: ('A' for Active; 'I' for Inactive)
REMARK    1  A    between atoms: C2_2  and  C3_3 
REMARK    2  A    between atoms: C4_4  and  C5_5 
ROOT
HETATM    1  C1  UNL     1     -32.705  17.986  -1.209  1.00 20.00    -0.020 C 
HETATM    2  C2  UNL     1     -33.964  17.564  -1.049  1.00 20.00    -0.062 C 
HETATM    3  C6  UNL     1     -32.231  18.767  -0.029  1.00 20.00     0.028 C 
HETATM    4  C7  UNL     1     -34.533  17.997   0.264  1.00 20.00     0.038 C 
HETATM    5  C8  UNL     1     -33.525  19.048   0.733  1.00 20.00     0.008 C 
ENDROOT
BRANCH   2   6
HETATM    6  C3  UNL     1     -34.716  16.776  -1.975  1.00 20.00     0.010 C 
HETATM    7  C4  UNL     1     -34.199  16.288  -3.114  1.00 20.00     0.050 C 
BRANCH   7   8
HETATM    8  C5  UNL     1     -35.034  15.472  -4.039  1.00 20.00     0.145 C 
HETATM    9  C9  UNL     1     -34.638  14.028  -4.212  1.00 20.00     0.096 C 
HETATM   10  O10 UNL     1     -36.015  15.935  -4.617  1.00 20.00    -0.294 OA
ENDBRANCH   7   8
ENDBRANCH   2   6
TORSDOF 2
ENDMDL
MODEL 9
REMARK VINA RESULT:      -4.3     10.809     11.473
REMARK  2 active torsions:
REMARK  status: ('A' for Active; 'I' for Inactive)
REMARK    1  A    between atoms: C2_2  and  C3_3 
REMARK    2  A    between atoms: C4_4  and  C5_5 
ROOT
HETATM    1  C1  UNL     1     -35.979  16.260  -3.358  1.00 20.00    -0.020 C 
HETATM    2  C2  UNL     1     -34.675  16.006  -3.202  1.00 20.00    -0.062 C 
HETATM    3  C6  UNL     1     -36.648  15.220  -4.192  1.00 20.00     0.028 C 
HETATM    4  C7  UNL     1     -34.265  14.753  -3.908  1.00 20.00     0.038 C 
HETATM    5  C8  UNL     1     -35.469  14.470  -4.808  1.00 20.00     0.008 C 
ENDROOT
BRANCH   2   6
HETATM    6  C3  UNL     1     -33.745  16.787  -2.448  1.00 20.00     0.010 C 
HETATM    7  C4  UNL     1     -34.076  17.437  -1.321  1.00 20.00     0.050 C 
BRANCH   7   8
HETATM    8  C5  UNL     1     -33.061  18.235  -0.577  1.00 20.00     0.145 C 
HETATM    9  C9  UNL     1     -33.503  18.845   0.727  1.00 20.00     0.096 C 
HETATM   10  O10 UNL     1     -31.909  18.372  -0.984  1.00 20.00    -0.294 OA
ENDBRANCH   7   8
ENDBRANCH   2   6
TORSDOF 2
ENDMDL
