MODEL 1
REMARK VINA RESULT:      -5.4      0.000      0.000
REMARK  1 active torsions:
REMARK  status: ('A' for Active; 'I' for Inactive)
REMARK    1  A    between atoms: C3_3  and  C6_6 
ROOT
HETATM    1  C1  UNL     1     -34.278   5.837   5.842  1.00 20.00    -0.030 C 
HETATM    2  C2  UNL     1     -34.805   5.169   4.812  1.00 20.00    -0.030 C 
HETATM    3  C4  UNL     1     -33.829   7.206   5.452  1.00 20.00     0.038 C 
HETATM    4  C5  UNL     1     -34.798   5.977   3.557  1.00 20.00     0.038 C 
HETATM    5  C6  UNL     1     -33.960   7.201   3.929  1.00 20.00     0.054 C 
ENDROOT
BRANCH   5   6
HETATM    6  C3  UNL     1     -32.600   7.120   3.296  1.00 20.00     0.236 C 
HETATM    7  O7  UNL     1     -31.756   8.005   3.393  1.00 20.00    -0.306 OA
ENDBRANCH   5   6
TORSDOF 1
ENDMDL
MODEL 2
REMARK VINA RESULT:      -5.2      1.554      1.603
REMARK  1 active torsions:
REMARK  status: ('A' for Active; 'I' for Inactive)
REMARK    1  A    between atoms: C3_3  and  C6_6 
ROOT
HETATM    1  C1  UNL     1     -33.928   6.560   5.936  1.00 20.00    -0.030 C 
HETATM    2  C2  UNL     1     -34.640   5.461   5.676  1.00 20.00    -0.030 C 
HETATM    3  C4  UNL     1     -33.714   7.391   4.714  1.00 20.00     0.038 C 
HETATM    4  C5  UNL     1     -35.024   5.368   4.236  1.00 20.00     0.038 C 
HETATM    5  C6  UNL     1     -34.228   6.499   3.585  1.00 20.00     0.054 C 
ENDROOT
BRANCH   5   6
HETATM    6  C3  UNL     1     -33.073   5.947   2.799  1.00 20.00     0.236 C 
HETATM    7  O7  UNL     1     -32.882   4.747   2.630  1.00 20.00    -0.306 OA
ENDBRANCH   5   6
TORSDOF 1
ENDMDL
MODEL 3
REMARK VINA RESULT:      -5.2      2.057      3.196
REMARK  1 active torsions:
REMARK  status: ('A' for Active; 'I' for Inactive)
REMARK    1  A    between atoms: C3_3  and  C6_6 
ROOT
HETATM    1  C1  UNL     1     -33.205   7.019   3.368  1.00 20.00    -0.030 C 
HETATM    2  C2  UNL     1     -32.993   7.428   4.622  1.00 20.00    -0.030 C 
HETATM    3  C4  UNL     1     -34.424   6.164   3.257  1.00 20.00     0.038 C 
HETATM    4  C5  UNL     1     -34.032   6.917   5.564  1.00 20.00     0.038 C 
HETATM    5  C6  UNL     1     -34.818   5.918   4.713  1.00 20.00     0.054 C 
ENDROOT
BRANCH   5   6
HETATM    6  C3  UNL     1     -34.479   4.509   5.107  1.00 20.00     0.236 C 
HETATM    7  O7  UNL     1     -34.215   3.625   4.298  1.00 20.00    -0.306 OA
ENDBRANCH   5   6
TORSDOF 1
ENDMDL
MODEL 4
REMARK VINA RESULT:      -5.0      2.087      2.858
REMARK  1 active torsions:
REMARK  status: ('A' for Active; 'I' for Inactive)
REMARK    1  A    between atoms: C3_3  and  C6_6 
ROOT
HETATM    1  C1  UNL     1     -33.153   7.638   4.818  1.00 20.00    -0.030 C 
HETATM    2  C2  UNL     1     -33.600   7.089   5.950  1.00 20.00    -0.030 C 
HETATM    3  C4  UNL     1     -33.853   7.092   3.617  1.00 20.00     0.038 C 
HETATM    4  C5  UNL     1     -34.674   6.083   5.702  1.00 20.00     0.038 C 
HETATM    5  C6  UNL     1     -34.668   5.929   4.181  1.00 20.00     0.054 C 
ENDROOT
BRANCH   5   6
HETATM    6  C3  UNL     1     -34.041   4.622   3.786  1.00 20.00     0.236 C 
HETATM    7  O7  UNL     1     -34.171   3.587   4.432  1.00 20.00    -0.306 OA
ENDBRANCH   5   6
TORSDOF 1
ENDMDL
MODEL 5
REMARK VINA RESULT:      -4.9      1.732      2.234
REMARK  1 active torsions:
REMARK  status: ('A' for Active; 'I' for Inactive)
REMARK    1  A    between atoms: C3_3  and  C6_6 
ROOT
HETATM    1  C1  UNL     1     -34.115   4.204   4.099  1.00 20.00    -0.030 C 
HETATM    2  C2  UNL     1     -33.397   4.646   3.063  1.00 20.00    -0.030 C 
HETATM    3  C4  UNL     1     -34.922   5.293   4.726  1.00 20.00     0.038 C 
HETATM    4  C5  UNL     1     -33.601   6.104   2.819  1.00 20.00     0.038 C 
HETATM    5  C6  UNL     1     -34.408   6.556   4.037  1.00 20.00     0.054 C 
ENDROOT
BRANCH   5   6
HETATM    6  C3  UNL     1     -33.542   7.341   4.981  1.00 20.00     0.236 C 
HETATM    7  O7  UNL     1     -33.744   7.404   6.190  1.00 20.00    -0.306 OA
ENDBRANCH   5   6
TORSDOF 1
ENDMDL
MODEL 6
REMARK VINA RESULT:      -4.5      1.228      2.064
REMARK  1 active torsions:
REMARK  status: ('A' for Active; 'I' for Inactive)
REMARK    1  A    between atoms: C3_3  and  C6_6 
ROOT
HETATM    1  C1  UNL     1     -34.553   5.705   3.705  1.00 20.00    -0.030 C 
HETATM    2  C2  UNL     1     -34.431   6.589   4.698  1.00 20.00    -0.030 C 
HETATM    3  C4  UNL     1     -33.382   5.737   2.780  1.00 20.00     0.038 C 
HETATM    4  C5  UNL     1     -33.158   7.363   4.609  1.00 20.00     0.038 C 
HETATM    5  C6  UNL     1     -32.598   6.965   3.242  1.00 20.00     0.054 C 
ENDROOT
BRANCH   5   6
HETATM    6  C3  UNL     1     -32.769   8.085   2.257  1.00 20.00     0.236 C 
HETATM    7  O7  UNL     1     -31.832   8.621   1.672  1.00 20.00    -0.306 OA
ENDBRANCH   5   6
TORSDOF 1
ENDMDL
MODEL 7
REMARK VINA RESULT:      -3.9      1.809      2.833
REMARK  1 active torsions:
REMARK  status: ('A' for Active; 'I' for Inactive)
REMARK    1  A    between atoms: C3_3  and  C6_6 
ROOT
HETATM    1  C1  UNL     1     -33.872   6.816   3.876  1.00 20.00    -0.030 C 
HETATM    2  C2  UNL     1     -33.155   7.557   4.726  1.00 20.00    -0.030 C 
HETATM    3  C4  UNL     1     -33.231   6.729   2.531  1.00 20.00     0.038 C 
HETATM    4  C5  UNL     1     -31.913   8.092   4.094  1.00 20.00     0.038 C 
HETATM    5  C6  UNL     1     -32.089   7.741   2.616  1.00 20.00     0.054 C 
ENDROOT
BRANCH   5   6
HETATM    6  C3  UNL     1     -32.428   8.968   1.820  1.00 20.00     0.236 C 
HETATM    7  O7  UNL     1     -32.625   8.956   0.609  1.00 20.00    -0.306 OA
ENDBRANCH   5   6
TORSDOF 1
ENDMDL
MODEL 8
REMARK VINA RESULT:      -3.8      3.187      4.918
REMARK  1 active torsions:
REMARK  status: ('A' for Active; 'I' for Inactive)
REMARK    1  A    between atoms: C3_3  and  C6_6 
ROOT
HETATM    1  C1  UNL     1     -33.253   9.941  -0.046  1.00 20.00    -0.030 C 
HETATM    2  C2  UNL     1     -32.439   9.014  -0.557  1.00 20.00    -0.030 C 
HETATM    3  C4  UNL     1     -32.962  10.210   1.394  1.00 20.00     0.038 C 
HETATM    4  C5  UNL     1     -31.464   8.504   0.452  1.00 20.00     0.038 C 
HETATM    5  C6  UNL     1     -31.960   9.117   1.763  1.00 20.00     0.054 C 
ENDROOT
BRANCH   5   6
HETATM    6  C3  UNL     1     -32.628   8.073   2.612  1.00 20.00     0.236 C 
HETATM    7  O7  UNL     1     -32.221   7.742   3.722  1.00 20.00    -0.306 OA
ENDBRANCH   5   6
TORSDOF 1
ENDMDL
MODEL 9
REMARK VINA RESULT:      -3.7      1.952      2.675
REMARK  1 active torsions:
REMARK  status: ('A' for Active; 'I' for Inactive)
REMARK    1  A    between atoms: C3_3  and  C6_6 
ROOT
HETATM    1  C1  UNL     1     -34.016   6.955   6.155  1.00 20.00    -0.030 C 
HETATM    2  C2  UNL     1     -33.309   7.791   5.390  1.00 20.00    -0.030 C 
HETATM    3  C4  UNL     1     -34.273   5.653   5.473  1.00 20.00     0.038 C 
HETATM    4  C5  UNL     1     -32.972   7.191   4.065  1.00 20.00     0.038 C 
HETATM    5  C6  UNL     1     -33.793   5.901   4.043  1.00 20.00     0.054 C 
ENDROOT
BRANCH   5   6
HETATM    6  C3  UNL     1     -34.971   6.042   3.122  1.00 20.00     0.236 C 
HETATM    7  O7  UNL     1     -36.136   6.056   3.510  1.00 20.00    -0.306 OA
ENDBRANCH   5   6
TORSDOF 1
ENDMDL
