MODEL 1
REMARK VINA RESULT:      -5.4      0.000      0.000
REMARK  0 active torsions:
REMARK  status: ('A' for Active; 'I' for Inactive)
ROOT
HETATM    1  C1  UNL     1     -33.121   7.340   4.461  1.00 20.00     0.011 C 
HETATM    2  C2  UNL     1     -32.063   8.381   4.222  1.00 20.00     0.054 C 
HETATM    3  C3  UNL     1     -31.861   8.289   2.709  1.00 20.00     0.006 C 
HETATM    4  C4  UNL     1     -35.039   5.318   4.557  1.00 20.00     0.022 C 
HETATM    5  C5  UNL     1     -32.329   6.883   2.327  1.00 20.00     0.011 C 
HETATM    6  C6  UNL     1     -34.003   5.263   3.442  1.00 20.00     0.012 C 
HETATM    7  C7  UNL     1     -34.447   5.915   5.831  1.00 20.00     0.148 C 
HETATM    8  C8  UNL     1     -33.570   6.686   3.186  1.00 20.00     0.033 C 
HETATM    9  N9  UNL     1     -33.538   7.053   5.641  1.00 20.00    -0.298 NA
ENDROOT
TORSDOF 0
ENDMDL
MODEL 2
REMARK VINA RESULT:      -5.3      1.119      2.065
REMARK  0 active torsions:
REMARK  status: ('A' for Active; 'I' for Inactive)
ROOT
HETATM    1  C1  UNL     1     -33.389   6.797   3.365  1.00 20.00     0.011 C 
HETATM    2  C2  UNL     1     -32.661   7.479   2.240  1.00 20.00     0.054 C 
HETATM    3  C3  UNL     1     -31.631   8.322   2.992  1.00 20.00     0.006 C 
HETATM    4  C4  UNL     1     -34.550   5.746   5.671  1.00 20.00     0.022 C 
HETATM    5  C5  UNL     1     -32.219   8.519   4.392  1.00 20.00     0.011 C 
HETATM    6  C6  UNL     1     -33.898   7.118   5.766  1.00 20.00     0.012 C 
HETATM    7  C7  UNL     1     -35.173   5.524   4.295  1.00 20.00     0.148 C 
HETATM    8  C8  UNL     1     -32.823   7.158   4.707  1.00 20.00     0.033 C 
HETATM    9  N9  UNL     1     -34.397   6.029   3.154  1.00 20.00    -0.298 NA
ENDROOT
TORSDOF 0
ENDMDL
MODEL 3
REMARK VINA RESULT:      -5.1      0.950      3.193
REMARK  0 active torsions:
REMARK  status: ('A' for Active; 'I' for Inactive)
ROOT
HETATM    1  C1  UNL     1     -33.213   7.120   4.700  1.00 20.00     0.011 C 
HETATM    2  C2  UNL     1     -34.023   6.710   5.899  1.00 20.00     0.054 C 
HETATM    3  C3  UNL     1     -34.868   5.567   5.336  1.00 20.00     0.006 C 
HETATM    4  C4  UNL     1     -31.916   7.651   2.290  1.00 20.00     0.022 C 
HETATM    5  C5  UNL     1     -34.920   5.812   3.825  1.00 20.00     0.011 C 
HETATM    6  C6  UNL     1     -33.316   7.054   2.228  1.00 20.00     0.012 C 
HETATM    7  C7  UNL     1     -31.764   8.574   3.496  1.00 20.00     0.148 C 
HETATM    8  C8  UNL     1     -33.504   6.265   3.501  1.00 20.00     0.033 C 
HETATM    9  N9  UNL     1     -32.402   8.115   4.737  1.00 20.00    -0.298 NA
ENDROOT
TORSDOF 0
ENDMDL
MODEL 4
REMARK VINA RESULT:      -5.0      1.290      3.698
REMARK  0 active torsions:
REMARK  status: ('A' for Active; 'I' for Inactive)
ROOT
HETATM    1  C1  UNL     1     -33.960   5.996   3.809  1.00 20.00     0.011 C 
HETATM    2  C2  UNL     1     -34.682   4.969   4.636  1.00 20.00     0.054 C 
HETATM    3  C3  UNL     1     -34.844   5.694   5.973  1.00 20.00     0.006 C 
HETATM    4  C4  UNL     1     -32.593   8.092   2.579  1.00 20.00     0.022 C 
HETATM    5  C5  UNL     1     -33.737   6.751   5.993  1.00 20.00     0.011 C 
HETATM    6  C6  UNL     1     -32.471   7.953   4.091  1.00 20.00     0.012 C 
HETATM    7  C7  UNL     1     -32.726   6.727   1.909  1.00 20.00     0.148 C 
HETATM    8  C8  UNL     1     -33.733   7.273   4.564  1.00 20.00     0.033 C 
HETATM    9  N9  UNL     1     -33.572   5.751   2.610  1.00 20.00    -0.298 NA
ENDROOT
TORSDOF 0
ENDMDL
MODEL 5
REMARK VINA RESULT:      -4.1     11.782     12.471
REMARK  0 active torsions:
REMARK  status: ('A' for Active; 'I' for Inactive)
ROOT
HETATM    1  C1  UNL     1     -33.261  17.788  -1.359  1.00 20.00     0.011 C 
HETATM    2  C2  UNL     1     -33.529  16.960  -2.585  1.00 20.00     0.054 C 
HETATM    3  C3  UNL     1     -35.041  16.748  -2.502  1.00 20.00     0.006 C 
HETATM    4  C4  UNL     1     -33.108  19.263   1.002  1.00 20.00     0.022 C 
HETATM    5  C5  UNL     1     -35.390  16.926  -1.022  1.00 20.00     0.011 C 
HETATM    6  C6  UNL     1     -34.228  18.239   0.874  1.00 20.00     0.012 C 
HETATM    7  C7  UNL     1     -31.851  18.799   0.271  1.00 20.00     0.148 C 
HETATM    8  C8  UNL     1     -34.518  18.100  -0.601  1.00 20.00     0.033 C 
HETATM    9  N9  UNL     1     -32.072  18.136  -1.022  1.00 20.00    -0.298 NA
ENDROOT
TORSDOF 0
ENDMDL
MODEL 6
REMARK VINA RESULT:      -3.8     11.777     12.352
REMARK  0 active torsions:
REMARK  status: ('A' for Active; 'I' for Inactive)
ROOT
HETATM    1  C1  UNL     1     -34.580  17.405  -0.806  1.00 20.00     0.011 C 
HETATM    2  C2  UNL     1     -35.452  16.676  -1.791  1.00 20.00     0.054 C 
HETATM    3  C3  UNL     1     -34.504  16.489  -2.976  1.00 20.00     0.006 C 
HETATM    4  C4  UNL     1     -32.722  18.778   0.755  1.00 20.00     0.022 C 
HETATM    5  C5  UNL     1     -33.450  17.589  -2.826  1.00 20.00     0.011 C 
HETATM    6  C6  UNL     1     -32.591  18.877  -0.759  1.00 20.00     0.012 C 
HETATM    7  C7  UNL     1     -34.186  18.664   1.176  1.00 20.00     0.148 C 
HETATM    8  C8  UNL     1     -33.188  17.613  -1.327  1.00 20.00     0.033 C 
HETATM    9  N9  UNL     1     -35.030  17.814   0.325  1.00 20.00    -0.298 NA
ENDROOT
TORSDOF 0
ENDMDL
MODEL 7
REMARK VINA RESULT:      -3.8     12.001     12.679
REMARK  0 active torsions:
REMARK  status: ('A' for Active; 'I' for Inactive)
ROOT
HETATM    1  C1  UNL     1     -33.712  16.997  -3.437  1.00 20.00     0.011 C 
HETATM    2  C2  UNL     1     -33.207  17.933  -2.373  1.00 20.00     0.054 C 
HETATM    3  C3  UNL     1     -33.997  17.475  -1.146  1.00 20.00     0.006 C 
HETATM    4  C4  UNL     1     -34.887  15.150  -5.164  1.00 20.00     0.022 C 
HETATM    5  C5  UNL     1     -35.245  16.786  -1.705  1.00 20.00     0.011 C 
HETATM    6  C6  UNL     1     -35.699  15.618  -3.963  1.00 20.00     0.012 C 
HETATM    7  C7  UNL     1     -33.983  16.264  -5.685  1.00 20.00     0.148 C 
HETATM    8  C8  UNL     1     -34.704  16.009  -2.897  1.00 20.00     0.033 C 
HETATM    9  N9  UNL     1     -33.334  17.093  -4.660  1.00 20.00    -0.298 NA
ENDROOT
TORSDOF 0
ENDMDL
MODEL 8
REMARK VINA RESULT:      -3.8     11.753     12.245
REMARK  0 active torsions:
REMARK  status: ('A' for Active; 'I' for Inactive)
ROOT
HETATM    1  C1  UNL     1     -33.935  17.555  -1.150  1.00 20.00     0.011 C 
HETATM    2  C2  UNL     1     -33.610  18.385   0.061  1.00 20.00     0.054 C 
HETATM    3  C3  UNL     1     -34.876  18.229   0.903  1.00 20.00     0.006 C 
HETATM    4  C4  UNL     1     -34.869  15.986  -3.257  1.00 20.00     0.022 C 
HETATM    5  C5  UNL     1     -35.979  17.864  -0.094  1.00 20.00     0.011 C 
HETATM    6  C6  UNL     1     -35.897  16.724  -2.409  1.00 20.00     0.012 C 
HETATM    7  C7  UNL     1     -33.574  16.786  -3.373  1.00 20.00     0.148 C 
HETATM    8  C8  UNL     1     -35.281  16.900  -1.043  1.00 20.00     0.033 C 
HETATM    9  N9  UNL     1     -33.135  17.473  -2.151  1.00 20.00    -0.298 NA
ENDROOT
TORSDOF 0
ENDMDL
MODEL 9
REMARK VINA RESULT:      -3.8     11.661     12.094
REMARK  0 active torsions:
REMARK  status: ('A' for Active; 'I' for Inactive)
ROOT
HETATM    1  C1  UNL     1     -33.480  18.535   0.508  1.00 20.00     0.011 C 
HETATM    2  C2  UNL     1     -32.289  18.489  -0.408  1.00 20.00     0.054 C 
HETATM    3  C3  UNL     1     -32.911  17.997  -1.715  1.00 20.00     0.006 C 
HETATM    4  C4  UNL     1     -35.872  18.461   1.939  1.00 20.00     0.022 C 
HETATM    5  C5  UNL     1     -34.189  17.263  -1.300  1.00 20.00     0.011 C 
HETATM    6  C6  UNL     1     -35.711  17.496   0.772  1.00 20.00     0.012 C 
HETATM    7  C7  UNL     1     -34.536  18.714   2.634  1.00 20.00     0.148 C 
HETATM    8  C8  UNL     1     -34.748  18.144  -0.193  1.00 20.00     0.033 C 
HETATM    9  N9  UNL     1     -33.371  18.847   1.749  1.00 20.00    -0.298 NA
ENDROOT
TORSDOF 0
ENDMDL
