MODEL 1
REMARK VINA RESULT:      -5.9      0.000      0.000
REMARK  1 active torsions:
REMARK  status: ('A' for Active; 'I' for Inactive)
REMARK    1  A    between atoms: C1_1  and  C6_6 
ROOT
HETATM    1  C2  UNL     1     -33.777   7.507   5.730  1.00 20.00     0.001 C 
HETATM    2  C3  UNL     1     -32.689   7.988   4.775  1.00 20.00     0.011 C 
HETATM    3  C4  UNL     1     -33.986   5.996   5.633  1.00 20.00     0.009 C 
HETATM    4  C5  UNL     1     -33.168   6.035   3.239  1.00 20.00     0.020 C 
HETATM    5  C6  UNL     1     -32.964   7.551   3.337  1.00 20.00     0.048 C 
HETATM    6  C7  UNL     1     -34.261   5.503   4.195  1.00 20.00    -0.047 C 
HETATM    7  C8  UNL     1     -34.233   3.964   4.179  1.00 20.00     0.015 C 
HETATM    8  C9  UNL     1     -35.658   5.956   3.725  1.00 20.00     0.015 C 
ENDROOT
BRANCH   5   9
HETATM    9  C1  UNL     1     -31.810   7.962   2.473  1.00 20.00     0.235 C 
HETATM   10  O10 UNL     1     -31.932   8.645   1.461  1.00 20.00    -0.306 OA
ENDBRANCH   5   9
TORSDOF 1
ENDMDL
MODEL 2
REMARK VINA RESULT:      -4.6     11.791     12.419
REMARK  1 active torsions:
REMARK  status: ('A' for Active; 'I' for Inactive)
REMARK    1  A    between atoms: C1_1  and  C6_6 
ROOT
HETATM    1  C2  UNL     1     -35.667  17.682  -0.464  1.00 20.00     0.001 C 
HETATM    2  C3  UNL     1     -34.401  18.039   0.307  1.00 20.00     0.011 C 
HETATM    3  C4  UNL     1     -35.382  16.691  -1.593  1.00 20.00     0.009 C 
HETATM    4  C5  UNL     1     -33.007  17.551  -1.747  1.00 20.00     0.020 C 
HETATM    5  C6  UNL     1     -33.297  18.547  -0.620  1.00 20.00     0.048 C 
HETATM    6  C7  UNL     1     -34.266  17.158  -2.555  1.00 20.00    -0.047 C 
HETATM    7  C8  UNL     1     -33.910  16.001  -3.506  1.00 20.00     0.015 C 
HETATM    8  C9  UNL     1     -34.752  18.344  -3.412  1.00 20.00     0.015 C 
ENDROOT
BRANCH   5   9
HETATM    9  C1  UNL     1     -32.053  18.778   0.183  1.00 20.00     0.235 C 
HETATM   10  O10 UNL     1     -30.954  18.331  -0.129  1.00 20.00    -0.306 OA
ENDBRANCH   5   9
TORSDOF 1
ENDMDL
MODEL 3
REMARK VINA RESULT:      -4.4     11.729     12.428
REMARK  1 active torsions:
REMARK  status: ('A' for Active; 'I' for Inactive)
REMARK    1  A    between atoms: C1_1  and  C6_6 
ROOT
HETATM    1  C2  UNL     1     -33.214  15.834  -4.576  1.00 20.00     0.001 C 
HETATM    2  C3  UNL     1     -34.094  14.670  -5.019  1.00 20.00     0.011 C 
HETATM    3  C4  UNL     1     -33.572  16.310  -3.168  1.00 20.00     0.009 C 
HETATM    4  C5  UNL     1     -35.940  15.476  -3.489  1.00 20.00     0.020 C 
HETATM    5  C6  UNL     1     -35.579  15.005  -4.902  1.00 20.00     0.048 C 
HETATM    6  C7  UNL     1     -35.069  16.656  -2.998  1.00 20.00    -0.047 C 
HETATM    7  C8  UNL     1     -35.358  16.904  -1.506  1.00 20.00     0.015 C 
HETATM    8  C9  UNL     1     -35.418  17.945  -3.768  1.00 20.00     0.015 C 
ENDROOT
BRANCH   5   9
HETATM    9  C1  UNL     1     -36.383  13.789  -5.249  1.00 20.00     0.235 C 
HETATM   10  O10 UNL     1     -35.912  12.657  -5.294  1.00 20.00    -0.306 OA
ENDBRANCH   5   9
TORSDOF 1
ENDMDL
MODEL 4
REMARK VINA RESULT:      -4.2     11.717     12.624
REMARK  1 active torsions:
REMARK  status: ('A' for Active; 'I' for Inactive)
REMARK    1  A    between atoms: C1_1  and  C6_6 
ROOT
HETATM    1  C2  UNL     1     -33.926  14.368  -5.031  1.00 20.00     0.001 C 
HETATM    2  C3  UNL     1     -35.420  14.078  -4.928  1.00 20.00     0.011 C 
HETATM    3  C4  UNL     1     -33.410  15.121  -3.804  1.00 20.00     0.009 C 
HETATM    4  C5  UNL     1     -35.714  16.101  -3.438  1.00 20.00     0.020 C 
HETATM    5  C6  UNL     1     -36.227  15.350  -4.671  1.00 20.00     0.048 C 
HETATM    6  C7  UNL     1     -34.201  16.413  -3.498  1.00 20.00    -0.047 C 
HETATM    7  C8  UNL     1     -33.749  16.965  -2.133  1.00 20.00     0.015 C 
HETATM    8  C9  UNL     1     -33.912  17.491  -4.563  1.00 20.00     0.015 C 
ENDROOT
BRANCH   5   9
HETATM    9  C1  UNL     1     -37.667  14.982  -4.475  1.00 20.00     0.235 C 
HETATM   10  O10 UNL     1     -38.165  13.948  -4.907  1.00 20.00    -0.306 OA
ENDBRANCH   5   9
TORSDOF 1
ENDMDL
MODEL 5
REMARK VINA RESULT:      -4.2     11.465     12.630
REMARK  1 active torsions:
REMARK  status: ('A' for Active; 'I' for Inactive)
REMARK    1  A    between atoms: C1_1  and  C6_6 
ROOT
HETATM    1  C2  UNL     1     -36.365  17.355  -4.519  1.00 20.00     0.001 C 
HETATM    2  C3  UNL     1     -36.064  16.003  -5.157  1.00 20.00     0.011 C 
HETATM    3  C4  UNL     1     -35.148  17.918  -3.785  1.00 20.00     0.009 C 
HETATM    4  C5  UNL     1     -34.289  15.568  -3.408  1.00 20.00     0.020 C 
HETATM    5  C6  UNL     1     -35.513  15.006  -4.139  1.00 20.00     0.048 C 
HETATM    6  C7  UNL     1     -34.549  16.942  -2.747  1.00 20.00    -0.047 C 
HETATM    7  C8  UNL     1     -33.213  17.512  -2.236  1.00 20.00     0.015 C 
HETATM    8  C9  UNL     1     -35.493  16.791  -1.537  1.00 20.00     0.015 C 
ENDROOT
BRANCH   5   9
HETATM    9  C1  UNL     1     -35.140  13.740  -4.849  1.00 20.00     0.235 C 
HETATM   10  O10 UNL     1     -35.950  12.869  -5.149  1.00 20.00    -0.306 OA
ENDBRANCH   5   9
TORSDOF 1
ENDMDL
MODEL 6
REMARK VINA RESULT:      -3.9     11.542     12.723
REMARK  1 active torsions:
REMARK  status: ('A' for Active; 'I' for Inactive)
REMARK    1  A    between atoms: C1_1  and  C6_6 
ROOT
HETATM    1  C2  UNL     1     -33.715  17.020  -5.400  1.00 20.00     0.001 C 
HETATM    2  C3  UNL     1     -33.332  17.707  -4.093  1.00 20.00     0.011 C 
HETATM    3  C4  UNL     1     -35.153  16.503  -5.368  1.00 20.00     0.009 C 
HETATM    4  C5  UNL     1     -35.019  16.289  -2.850  1.00 20.00     0.020 C 
HETATM    5  C6  UNL     1     -33.576  16.803  -2.886  1.00 20.00     0.048 C 
HETATM    6  C7  UNL     1     -35.451  15.588  -4.159  1.00 20.00    -0.047 C 
HETATM    7  C8  UNL     1     -36.965  15.311  -4.102  1.00 20.00     0.015 C 
HETATM    8  C9  UNL     1     -34.728  14.235  -4.312  1.00 20.00     0.015 C 
ENDROOT
BRANCH   5   9
HETATM    9  C1  UNL     1     -33.282  17.571  -1.633  1.00 20.00     0.235 C 
HETATM   10  O10 UNL     1     -32.387  18.406  -1.546  1.00 20.00    -0.306 OA
ENDBRANCH   5   9
TORSDOF 1
ENDMDL
MODEL 7
REMARK VINA RESULT:      -3.9     11.532     12.965
REMARK  1 active torsions:
REMARK  status: ('A' for Active; 'I' for Inactive)
REMARK    1  A    between atoms: C1_1  and  C6_6 
ROOT
HETATM    1  C2  UNL     1     -34.946  17.238  -5.809  1.00 20.00     0.001 C 
HETATM    2  C3  UNL     1     -36.292  16.519  -5.803  1.00 20.00     0.011 C 
HETATM    3  C4  UNL     1     -33.788  16.272  -5.562  1.00 20.00     0.009 C 
HETATM    4  C5  UNL     1     -35.339  14.741  -4.277  1.00 20.00     0.020 C 
HETATM    5  C6  UNL     1     -36.497  15.713  -4.521  1.00 20.00     0.048 C 
HETATM    6  C7  UNL     1     -33.953  15.428  -4.278  1.00 20.00    -0.047 C 
HETATM    7  C8  UNL     1     -32.858  14.346  -4.246  1.00 20.00     0.015 C 
HETATM    8  C9  UNL     1     -33.784  16.310  -3.025  1.00 20.00     0.015 C 
ENDROOT
BRANCH   5   9
HETATM    9  C1  UNL     1     -37.783  14.951  -4.625  1.00 20.00     0.235 C 
HETATM   10  O10 UNL     1     -37.848  13.779  -4.982  1.00 20.00    -0.306 OA
ENDBRANCH   5   9
TORSDOF 1
ENDMDL
MODEL 8
REMARK VINA RESULT:      -3.9      2.381      4.128
REMARK  1 active torsions:
REMARK  status: ('A' for Active; 'I' for Inactive)
REMARK    1  A    between atoms: C1_1  and  C6_6 
ROOT
HETATM    1  C2  UNL     1     -33.526   5.417   2.354  1.00 20.00     0.001 C 
HETATM    2  C3  UNL     1     -34.055   5.104   3.749  1.00 20.00     0.011 C 
HETATM    3  C4  UNL     1     -32.318   6.353   2.404  1.00 20.00     0.009 C 
HETATM    4  C5  UNL     1     -33.151   7.312   4.592  1.00 20.00     0.020 C 
HETATM    5  C6  UNL     1     -34.364   6.376   4.537  1.00 20.00     0.048 C 
HETATM    6  C7  UNL     1     -32.579   7.654   3.196  1.00 20.00    -0.047 C 
HETATM    7  C8  UNL     1     -31.248   8.408   3.372  1.00 20.00     0.015 C 
HETATM    8  C9  UNL     1     -33.546   8.574   2.425  1.00 20.00     0.015 C 
ENDROOT
BRANCH   5   9
HETATM    9  C1  UNL     1     -34.776   6.001   5.928  1.00 20.00     0.235 C 
HETATM   10  O10 UNL     1     -34.799   4.845   6.338  1.00 20.00    -0.306 OA
ENDBRANCH   5   9
TORSDOF 1
ENDMDL
MODEL 9
REMARK VINA RESULT:      -3.8      2.191      4.313
REMARK  1 active torsions:
REMARK  status: ('A' for Active; 'I' for Inactive)
REMARK    1  A    between atoms: C1_1  and  C6_6 
ROOT
HETATM    1  C2  UNL     1     -31.429   8.374   3.770  1.00 20.00     0.001 C 
HETATM    2  C3  UNL     1     -32.545   7.353   3.964  1.00 20.00     0.011 C 
HETATM    3  C4  UNL     1     -31.850   9.499   2.824  1.00 20.00     0.009 C 
HETATM    4  C5  UNL     1     -33.476   7.931   1.684  1.00 20.00     0.020 C 
HETATM    5  C6  UNL     1     -33.049   6.804   2.630  1.00 20.00     0.048 C 
HETATM    6  C7  UNL     1     -32.373   8.992   1.461  1.00 20.00    -0.047 C 
HETATM    7  C8  UNL     1     -32.972  10.179   0.683  1.00 20.00     0.015 C 
HETATM    8  C9  UNL     1     -31.220   8.408   0.620  1.00 20.00     0.015 C 
ENDROOT
BRANCH   5   9
HETATM    9  C1  UNL     1     -34.210   5.891   2.885  1.00 20.00     0.235 C 
HETATM   10  O10 UNL     1     -34.990   6.035   3.821  1.00 20.00    -0.306 OA
ENDBRANCH   5   9
TORSDOF 1
ENDMDL
