MODEL 1
REMARK VINA RESULT:      -5.3      0.000      0.000
REMARK  3 active torsions:
REMARK  status: ('A' for Active; 'I' for Inactive)
REMARK    1  A    between atoms: C2_2  and  C7_7 
REMARK    2  A    between atoms: C5_5  and  C8_8 
REMARK    3  A    between atoms: C7_7  and  C8_8 
ROOT
HETATM    1  C3  UNL     1     -33.989   6.708   5.757  1.00 20.00     0.281 C 
HETATM    2  C4  UNL     1     -34.622   5.335   5.920  1.00 20.00     0.106 C 
HETATM    3  C5  UNL     1     -34.142   6.156   3.461  1.00 20.00     0.282 C 
HETATM    4  N9  UNL     1     -34.369   7.233   4.436  1.00 20.00     0.098 N 
HETATM    5  S10 UNL     1     -34.407   4.564   4.301  1.00 20.00    -0.132 SA
HETATM    6  H25 UNL     1     -35.346   7.517   4.431  1.00 20.00     0.317 HD
ENDROOT
BRANCH   3   7
HETATM    7  C8  UNL     1     -32.730   6.227   2.888  1.00 20.00     0.050 C 
BRANCH   7   8
HETATM    8  C7  UNL     1     -32.114   7.611   3.092  1.00 20.00     0.030 C 
BRANCH   8   9
HETATM    9  C2  UNL     1     -31.981   8.345   1.790  1.00 20.00    -0.031 C 
HETATM   10  C1  UNL     1     -32.614   9.494   1.513  1.00 20.00    -0.035 C 
HETATM   11  C6  UNL     1     -32.486  10.221   0.215  1.00 20.00     0.036 C 
ENDBRANCH   8   9
ENDBRANCH   7   8
ENDBRANCH   3   7
TORSDOF 3
ENDMDL
MODEL 2
REMARK VINA RESULT:      -4.6     10.876     11.663
REMARK  3 active torsions:
REMARK  status: ('A' for Active; 'I' for Inactive)
REMARK    1  A    between atoms: C2_2  and  C7_7 
REMARK    2  A    between atoms: C5_5  and  C8_8 
REMARK    3  A    between atoms: C7_7  and  C8_8 
ROOT
HETATM    1  C3  UNL     1     -33.983  14.345  -6.609  1.00 20.00     0.281 C 
HETATM    2  C4  UNL     1     -35.169  13.428  -6.863  1.00 20.00     0.106 C 
HETATM    3  C5  UNL     1     -34.691  14.119  -4.363  1.00 20.00     0.282 C 
HETATM    4  N9  UNL     1     -33.508  14.111  -5.236  1.00 20.00     0.098 N 
HETATM    5  S10 UNL     1     -36.109  13.502  -5.323  1.00 20.00    -0.132 SA
HETATM    6  H25 UNL     1     -33.024  13.219  -5.172  1.00 20.00     0.317 HD
ENDROOT
BRANCH   3   7
HETATM    7  C8  UNL     1     -34.975  15.523  -3.839  1.00 20.00     0.050 C 
BRANCH   7   8
HETATM    8  C7  UNL     1     -33.705  16.187  -3.307  1.00 20.00     0.030 C 
BRANCH   8   9
HETATM    9  C2  UNL     1     -33.967  16.911  -2.020  1.00 20.00    -0.031 C 
HETATM   10  C1  UNL     1     -35.139  16.878  -1.370  1.00 20.00    -0.035 C 
HETATM   11  C6  UNL     1     -35.403  17.603  -0.092  1.00 20.00     0.036 C 
ENDBRANCH   8   9
ENDBRANCH   7   8
ENDBRANCH   3   7
TORSDOF 3
ENDMDL
MODEL 3
REMARK VINA RESULT:      -4.5      1.497      1.678
REMARK  3 active torsions:
REMARK  status: ('A' for Active; 'I' for Inactive)
REMARK    1  A    between atoms: C2_2  and  C7_7 
REMARK    2  A    between atoms: C5_5  and  C8_8 
REMARK    3  A    between atoms: C7_7  and  C8_8 
ROOT
HETATM    1  C3  UNL     1     -34.979   5.452   4.141  1.00 20.00     0.281 C 
HETATM    2  C4  UNL     1     -34.836   5.792   5.616  1.00 20.00     0.106 C 
HETATM    3  C5  UNL     1     -32.935   6.634   3.994  1.00 20.00     0.282 C 
HETATM    4  N9  UNL     1     -33.635   5.421   3.546  1.00 20.00     0.098 N 
HETATM    5  S10 UNL     1     -33.568   7.078   5.642  1.00 20.00    -0.132 SA
HETATM    6  H25 UNL     1     -33.130   4.589   3.843  1.00 20.00     0.317 HD
ENDROOT
BRANCH   3   7
HETATM    7  C8  UNL     1     -33.152   7.784   3.015  1.00 20.00     0.050 C 
BRANCH   7   8
HETATM    8  C7  UNL     1     -31.823   8.394   2.568  1.00 20.00     0.030 C 
BRANCH   8   9
HETATM    9  C2  UNL     1     -31.879   8.830   1.134  1.00 20.00    -0.031 C 
HETATM   10  C1  UNL     1     -32.990   9.281   0.534  1.00 20.00    -0.035 C 
HETATM   11  C6  UNL     1     -33.048   9.710  -0.895  1.00 20.00     0.036 C 
ENDBRANCH   8   9
ENDBRANCH   7   8
ENDBRANCH   3   7
TORSDOF 3
ENDMDL
MODEL 4
REMARK VINA RESULT:      -4.4     10.928     11.733
REMARK  3 active torsions:
REMARK  status: ('A' for Active; 'I' for Inactive)
REMARK    1  A    between atoms: C2_2  and  C7_7 
REMARK    2  A    between atoms: C5_5  and  C8_8 
REMARK    3  A    between atoms: C7_7  and  C8_8 
ROOT
HETATM    1  C3  UNL     1     -34.050  14.312  -6.572  1.00 20.00     0.281 C 
HETATM    2  C4  UNL     1     -35.473  13.775  -6.567  1.00 20.00     0.106 C 
HETATM    3  C5  UNL     1     -34.398  14.369  -4.233  1.00 20.00     0.282 C 
HETATM    4  N9  UNL     1     -33.434  13.990  -5.276  1.00 20.00     0.098 N 
HETATM    5  S10 UNL     1     -36.075  14.166  -4.909  1.00 20.00    -0.132 SA
HETATM    6  H25 UNL     1     -33.219  12.998  -5.218  1.00 20.00     0.317 HD
ENDROOT
BRANCH   3   7
HETATM    7  C8  UNL     1     -34.178  15.810  -3.783  1.00 20.00     0.050 C 
BRANCH   7   8
HETATM    8  C7  UNL     1     -35.130  16.191  -2.648  1.00 20.00     0.030 C 
BRANCH   8   9
HETATM    9  C2  UNL     1     -34.446  17.058  -1.632  1.00 20.00    -0.031 C 
HETATM   10  C1  UNL     1     -33.202  17.538  -1.776  1.00 20.00    -0.035 C 
HETATM   11  C6  UNL     1     -32.519  18.396  -0.763  1.00 20.00     0.036 C 
ENDBRANCH   8   9
ENDBRANCH   7   8
ENDBRANCH   3   7
TORSDOF 3
ENDMDL
MODEL 5
REMARK VINA RESULT:      -4.0     11.103     11.783
REMARK  3 active torsions:
REMARK  status: ('A' for Active; 'I' for Inactive)
REMARK    1  A    between atoms: C2_2  and  C7_7 
REMARK    2  A    between atoms: C5_5  and  C8_8 
REMARK    3  A    between atoms: C7_7  and  C8_8 
ROOT
HETATM    1  C3  UNL     1     -37.285  15.745  -4.537  1.00 20.00     0.281 C 
HETATM    2  C4  UNL     1     -37.596  14.420  -5.214  1.00 20.00     0.106 C 
HETATM    3  C5  UNL     1     -35.061  15.126  -5.054  1.00 20.00     0.282 C 
HETATM    4  N9  UNL     1     -36.012  16.247  -5.076  1.00 20.00     0.098 N 
HETATM    5  S10 UNL     1     -35.997  13.582  -5.281  1.00 20.00    -0.132 SA
HETATM    6  H25 UNL     1     -36.136  16.590  -6.025  1.00 20.00     0.317 HD
ENDROOT
BRANCH   3   7
HETATM    7  C8  UNL     1     -34.289  15.091  -3.739  1.00 20.00     0.050 C 
BRANCH   7   8
HETATM    8  C7  UNL     1     -33.622  16.436  -3.447  1.00 20.00     0.030 C 
BRANCH   8   9
HETATM    9  C2  UNL     1     -33.952  16.919  -2.065  1.00 20.00    -0.031 C 
HETATM   10  C1  UNL     1     -35.182  16.871  -1.532  1.00 20.00    -0.035 C 
HETATM   11  C6  UNL     1     -35.512  17.357  -0.160  1.00 20.00     0.036 C 
ENDBRANCH   8   9
ENDBRANCH   7   8
ENDBRANCH   3   7
TORSDOF 3
ENDMDL
MODEL 6
REMARK VINA RESULT:      -3.9     11.425     12.553
REMARK  3 active torsions:
REMARK  status: ('A' for Active; 'I' for Inactive)
REMARK    1  A    between atoms: C2_2  and  C7_7 
REMARK    2  A    between atoms: C5_5  and  C8_8 
REMARK    3  A    between atoms: C7_7  and  C8_8 
ROOT
HETATM    1  C3  UNL     1     -34.400  17.017  -6.431  1.00 20.00     0.281 C 
HETATM    2  C4  UNL     1     -34.498  15.812  -7.354  1.00 20.00     0.106 C 
HETATM    3  C5  UNL     1     -33.449  15.421  -4.966  1.00 20.00     0.282 C 
HETATM    4  N9  UNL     1     -33.293  16.786  -5.492  1.00 20.00     0.098 N 
HETATM    5  S10 UNL     1     -34.234  14.403  -6.254  1.00 20.00    -0.132 SA
HETATM    6  H25 UNL     1     -32.397  16.885  -5.963  1.00 20.00     0.317 HD
ENDROOT
BRANCH   3   7
HETATM    7  C8  UNL     1     -34.295  15.418  -3.697  1.00 20.00     0.050 C 
BRANCH   7   8
HETATM    8  C7  UNL     1     -33.940  16.594  -2.787  1.00 20.00     0.030 C 
BRANCH   8   9
HETATM    9  C2  UNL     1     -34.933  16.739  -1.672  1.00 20.00    -0.031 C 
HETATM   10  C1  UNL     1     -34.725  17.487  -0.579  1.00 20.00    -0.035 C 
HETATM   11  C6  UNL     1     -35.711  17.627   0.534  1.00 20.00     0.036 C 
ENDBRANCH   8   9
ENDBRANCH   7   8
ENDBRANCH   3   7
TORSDOF 3
ENDMDL
MODEL 7
REMARK VINA RESULT:      -3.9     11.247     12.018
REMARK  3 active torsions:
REMARK  status: ('A' for Active; 'I' for Inactive)
REMARK    1  A    between atoms: C2_2  and  C7_7 
REMARK    2  A    between atoms: C5_5  and  C8_8 
REMARK    3  A    between atoms: C7_7  and  C8_8 
ROOT
HETATM    1  C3  UNL     1     -33.217  14.570  -4.507  1.00 20.00     0.281 C 
HETATM    2  C4  UNL     1     -33.075  15.562  -5.649  1.00 20.00     0.106 C 
HETATM    3  C5  UNL     1     -34.691  16.221  -3.672  1.00 20.00     0.282 C 
HETATM    4  N9  UNL     1     -34.532  14.774  -3.881  1.00 20.00     0.098 N 
HETATM    5  S10 UNL     1     -33.777  17.089  -4.985  1.00 20.00    -0.132 SA
HETATM    6  H25 UNL     1     -35.273  14.419  -4.481  1.00 20.00     0.317 HD
ENDROOT
BRANCH   3   7
HETATM    7  C8  UNL     1     -34.169  16.635  -2.300  1.00 20.00     0.050 C 
BRANCH   7   8
HETATM    8  C7  UNL     1     -35.316  16.942  -1.336  1.00 20.00     0.030 C 
BRANCH   8   9
HETATM    9  C2  UNL     1     -34.833  17.707  -0.139  1.00 20.00    -0.031 C 
HETATM   10  C1  UNL     1     -33.627  18.289  -0.063  1.00 20.00    -0.035 C 
HETATM   11  C6  UNL     1     -33.143  19.045   1.130  1.00 20.00     0.036 C 
ENDBRANCH   8   9
ENDBRANCH   7   8
ENDBRANCH   3   7
TORSDOF 3
ENDMDL
MODEL 8
REMARK VINA RESULT:      -3.8      2.416      5.117
REMARK  3 active torsions:
REMARK  status: ('A' for Active; 'I' for Inactive)
REMARK    1  A    between atoms: C2_2  and  C7_7 
REMARK    2  A    between atoms: C5_5  and  C8_8 
REMARK    3  A    between atoms: C7_7  and  C8_8 
ROOT
HETATM    1  C3  UNL     1     -33.196  10.281   1.174  1.00 20.00     0.281 C 
HETATM    2  C4  UNL     1     -32.621   9.664  -0.092  1.00 20.00     0.106 C 
HETATM    3  C5  UNL     1     -31.699   8.771   2.212  1.00 20.00     0.282 C 
HETATM    4  N9  UNL     1     -32.193  10.156   2.241  1.00 20.00     0.098 N 
HETATM    5  S10 UNL     1     -31.785   8.175   0.495  1.00 20.00    -0.132 SA
HETATM    6  H25 UNL     1     -31.427  10.810   2.092  1.00 20.00     0.317 HD
ENDROOT
BRANCH   3   7
HETATM    7  C8  UNL     1     -32.529   7.876   3.128  1.00 20.00     0.050 C 
BRANCH   7   8
HETATM    8  C7  UNL     1     -33.148   6.711   2.356  1.00 20.00     0.030 C 
BRANCH   8   9
HETATM    9  C2  UNL     1     -33.727   5.687   3.288  1.00 20.00    -0.031 C 
HETATM   10  C1  UNL     1     -34.212   5.975   4.504  1.00 20.00    -0.035 C 
HETATM   11  C6  UNL     1     -34.783   4.956   5.434  1.00 20.00     0.036 C 
ENDBRANCH   8   9
ENDBRANCH   7   8
ENDBRANCH   3   7
TORSDOF 3
ENDMDL
MODEL 9
REMARK VINA RESULT:      -3.7     11.434     12.256
REMARK  3 active torsions:
REMARK  status: ('A' for Active; 'I' for Inactive)
REMARK    1  A    between atoms: C2_2  and  C7_7 
REMARK    2  A    between atoms: C5_5  and  C8_8 
REMARK    3  A    between atoms: C7_7  and  C8_8 
ROOT
HETATM    1  C3  UNL     1     -36.696  17.688  -3.141  1.00 20.00     0.281 C 
HETATM    2  C4  UNL     1     -37.241  18.539  -2.005  1.00 20.00     0.106 C 
HETATM    3  C5  UNL     1     -35.306  16.845  -1.422  1.00 20.00     0.282 C 
HETATM    4  N9  UNL     1     -36.145  16.452  -2.565  1.00 20.00     0.098 N 
HETATM    5  S10 UNL     1     -36.003  18.363  -0.702  1.00 20.00    -0.132 SA
HETATM    6  H25 UNL     1     -36.893  15.834  -2.260  1.00 20.00     0.317 HD
ENDROOT
BRANCH   3   7
HETATM    7  C8  UNL     1     -33.863  17.077  -1.859  1.00 20.00     0.050 C 
BRANCH   7   8
HETATM    8  C7  UNL     1     -33.380  18.475  -1.468  1.00 20.00     0.030 C 
BRANCH   8   9
HETATM    9  C2  UNL     1     -32.167  18.406  -0.589  1.00 20.00    -0.031 C 
HETATM   10  C1  UNL     1     -32.122  18.889   0.661  1.00 20.00    -0.035 C 
HETATM   11  C6  UNL     1     -30.912  18.826   1.534  1.00 20.00     0.036 C 
ENDBRANCH   8   9
ENDBRANCH   7   8
ENDBRANCH   3   7
TORSDOF 3
ENDMDL
