MODEL 1
REMARK VINA RESULT:      -3.1      0.000      0.000
REMARK  0 active torsions:
REMARK  status: ('A' for Active; 'I' for Inactive)
ROOT
HETATM    1  C1  UNL     1     -34.563  14.203  -4.212  1.00 20.00     0.292 C 
HETATM    2  C2  UNL     1     -36.788  14.737  -4.797  1.00 20.00     0.346 C 
HETATM    3  C3  UNL     1     -34.352  15.723  -4.366  1.00 20.00     0.029 C 
HETATM    4  C4  UNL     1     -33.474  16.100  -5.562  1.00 20.00     0.028 C 
HETATM    5  C5  UNL     1     -33.756  16.320  -3.087  1.00 20.00     0.028 C 
HETATM    6  C6  UNL     1     -35.479  13.401  -6.348  1.00 20.00     0.310 C 
HETATM    7  N7  UNL     1     -35.742  13.725  -4.952  1.00 20.00     0.094 N 
HETATM    8  S8  UNL     1     -36.037  16.376  -4.614  1.00 20.00    -0.128 SA
ENDROOT
TORSDOF 0
ENDMDL
MODEL 2
REMARK VINA RESULT:      -3.1      1.491      3.323
REMARK  0 active torsions:
REMARK  status: ('A' for Active; 'I' for Inactive)
ROOT
HETATM    1  C1  UNL     1     -34.324  14.411  -4.012  1.00 20.00     0.292 C 
HETATM    2  C2  UNL     1     -33.295  16.057  -5.357  1.00 20.00     0.346 C 
HETATM    3  C3  UNL     1     -35.534  14.679  -4.930  1.00 20.00     0.029 C 
HETATM    4  C4  UNL     1     -36.706  15.356  -4.215  1.00 20.00     0.028 C 
HETATM    5  C5  UNL     1     -36.017  13.380  -5.585  1.00 20.00     0.028 C 
HETATM    6  C6  UNL     1     -33.704  16.571  -3.018  1.00 20.00     0.310 C 
HETATM    7  N7  UNL     1     -33.378  15.537  -3.991  1.00 20.00     0.094 N 
HETATM    8  S8  UNL     1     -34.872  15.795  -6.212  1.00 20.00    -0.128 SA
ENDROOT
TORSDOF 0
ENDMDL
MODEL 3
REMARK VINA RESULT:      -3.0      1.625      1.910
REMARK  0 active torsions:
REMARK  status: ('A' for Active; 'I' for Inactive)
ROOT
HETATM    1  C1  UNL     1     -35.369  14.545  -5.139  1.00 20.00     0.292 C 
HETATM    2  C2  UNL     1     -34.880  15.931  -6.987  1.00 20.00     0.346 C 
HETATM    3  C3  UNL     1     -34.168  15.276  -4.506  1.00 20.00     0.029 C 
HETATM    4  C4  UNL     1     -32.949  14.375  -4.289  1.00 20.00     0.028 C 
HETATM    5  C5  UNL     1     -34.567  15.924  -3.175  1.00 20.00     0.028 C 
HETATM    6  C6  UNL     1     -34.556  13.536  -7.227  1.00 20.00     0.310 C 
HETATM    7  N7  UNL     1     -35.343  14.595  -6.609  1.00 20.00     0.094 N 
HETATM    8  S8  UNL     1     -33.760  16.578  -5.717  1.00 20.00    -0.128 SA
ENDROOT
TORSDOF 0
ENDMDL
MODEL 4
REMARK VINA RESULT:      -3.0      2.041      2.982
REMARK  0 active torsions:
REMARK  status: ('A' for Active; 'I' for Inactive)
ROOT
HETATM    1  C1  UNL     1     -35.455  15.753  -6.290  1.00 20.00     0.292 C 
HETATM    2  C2  UNL     1     -33.144  15.671  -5.811  1.00 20.00     0.346 C 
HETATM    3  C3  UNL     1     -35.562  14.882  -5.021  1.00 20.00     0.029 C 
HETATM    4  C4  UNL     1     -36.011  13.445  -5.303  1.00 20.00     0.028 C 
HETATM    5  C5  UNL     1     -36.511  15.523  -4.002  1.00 20.00     0.028 C 
HETATM    6  C6  UNL     1     -33.942  14.574  -7.826  1.00 20.00     0.310 C 
HETATM    7  N7  UNL     1     -34.119  15.686  -6.902  1.00 20.00     0.094 N 
HETATM    8  S8  UNL     1     -33.866  14.873  -4.352  1.00 20.00    -0.128 SA
ENDROOT
TORSDOF 0
ENDMDL
MODEL 5
REMARK VINA RESULT:      -3.0      1.813      3.201
REMARK  0 active torsions:
REMARK  status: ('A' for Active; 'I' for Inactive)
ROOT
HETATM    1  C1  UNL     1     -35.061  14.119  -4.779  1.00 20.00     0.292 C 
HETATM    2  C2  UNL     1     -33.375  15.692  -4.271  1.00 20.00     0.346 C 
HETATM    3  C3  UNL     1     -34.871  14.653  -6.214  1.00 20.00     0.029 C 
HETATM    4  C4  UNL     1     -36.074  15.442  -6.737  1.00 20.00     0.028 C 
HETATM    5  C5  UNL     1     -34.552  13.507  -7.181  1.00 20.00     0.028 C 
HETATM    6  C6  UNL     1     -35.601  16.060  -3.373  1.00 20.00     0.310 C 
HETATM    7  N7  UNL     1     -34.600  15.076  -3.761  1.00 20.00     0.094 N 
HETATM    8  S8  UNL     1     -33.425  15.757  -6.081  1.00 20.00    -0.128 SA
ENDROOT
TORSDOF 0
ENDMDL
MODEL 6
REMARK VINA RESULT:      -3.0      1.985      2.645
REMARK  0 active torsions:
REMARK  status: ('A' for Active; 'I' for Inactive)
ROOT
HETATM    1  C1  UNL     1     -35.741  15.834  -5.739  1.00 20.00     0.292 C 
HETATM    2  C2  UNL     1     -36.366  14.212  -7.337  1.00 20.00     0.346 C 
HETATM    3  C3  UNL     1     -34.497  14.936  -5.583  1.00 20.00     0.029 C 
HETATM    4  C4  UNL     1     -34.423  14.223  -4.230  1.00 20.00     0.028 C 
HETATM    5  C5  UNL     1     -33.214  15.744  -5.805  1.00 20.00     0.028 C 
HETATM    6  C6  UNL     1     -37.696  14.406  -5.314  1.00 20.00     0.310 C 
HETATM    7  N7  UNL     1     -36.888  15.107  -6.304  1.00 20.00     0.094 N 
HETATM    8  S8  UNL     1     -34.678  13.703  -6.915  1.00 20.00    -0.128 SA
ENDROOT
TORSDOF 0
ENDMDL
MODEL 7
REMARK VINA RESULT:      -3.0      1.901      3.378
REMARK  0 active torsions:
REMARK  status: ('A' for Active; 'I' for Inactive)
ROOT
HETATM    1  C1  UNL     1     -35.092  15.902  -6.405  1.00 20.00     0.292 C 
HETATM    2  C2  UNL     1     -35.257  14.915  -4.266  1.00 20.00     0.346 C 
HETATM    3  C3  UNL     1     -35.508  14.495  -6.884  1.00 20.00     0.029 C 
HETATM    4  C4  UNL     1     -34.399  13.752  -7.633  1.00 20.00     0.028 C 
HETATM    5  C5  UNL     1     -36.759  14.571  -7.766  1.00 20.00     0.028 C 
HETATM    6  C6  UNL     1     -33.064  15.610  -5.047  1.00 20.00     0.310 C 
HETATM    7  N7  UNL     1     -34.496  15.880  -5.060  1.00 20.00     0.094 N 
HETATM    8  S8  UNL     1     -35.906  13.608  -5.341  1.00 20.00    -0.128 SA
ENDROOT
TORSDOF 0
ENDMDL
MODEL 8
REMARK VINA RESULT:      -3.0      1.365      1.496
REMARK  0 active torsions:
REMARK  status: ('A' for Active; 'I' for Inactive)
ROOT
HETATM    1  C1  UNL     1     -33.268  15.239  -4.324  1.00 20.00     0.292 C 
HETATM    2  C2  UNL     1     -35.431  14.346  -4.641  1.00 20.00     0.346 C 
HETATM    3  C3  UNL     1     -34.050  16.479  -3.843  1.00 20.00     0.029 C 
HETATM    4  C4  UNL     1     -33.923  17.683  -4.780  1.00 20.00     0.028 C 
HETATM    5  C5  UNL     1     -33.612  16.882  -2.430  1.00 20.00     0.028 C 
HETATM    6  C6  UNL     1     -34.055  14.752  -6.601  1.00 20.00     0.310 C 
HETATM    7  N7  UNL     1     -34.077  14.372  -5.195  1.00 20.00     0.094 N 
HETATM    8  S8  UNL     1     -35.784  15.914  -3.803  1.00 20.00    -0.128 SA
ENDROOT
TORSDOF 0
ENDMDL
MODEL 9
REMARK VINA RESULT:      -3.0      1.768      3.364
REMARK  0 active torsions:
REMARK  status: ('A' for Active; 'I' for Inactive)
ROOT
HETATM    1  C1  UNL     1     -33.277  15.025  -5.226  1.00 20.00     0.292 C 
HETATM    2  C2  UNL     1     -34.183  17.190  -5.486  1.00 20.00     0.346 C 
HETATM    3  C3  UNL     1     -34.632  14.586  -5.819  1.00 20.00     0.029 C 
HETATM    4  C4  UNL     1     -35.526  13.846  -4.820  1.00 20.00     0.028 C 
HETATM    5  C5  UNL     1     -34.422  13.713  -7.061  1.00 20.00     0.028 C 
HETATM    6  C6  UNL     1     -33.786  16.372  -3.234  1.00 20.00     0.310 C 
HETATM    7  N7  UNL     1     -33.340  16.365  -4.621  1.00 20.00     0.094 N 
HETATM    8  S8  UNL     1     -35.425  16.155  -6.305  1.00 20.00    -0.128 SA
ENDROOT
TORSDOF 0
ENDMDL
