MODEL 1
REMARK VINA RESULT:      -4.8      0.000      0.000
REMARK  0 active torsions:
REMARK  status: ('A' for Active; 'I' for Inactive)
ROOT
HETATM    1  C1  UNL     1     -32.694   6.240   1.830  1.00 20.00     0.143 A 
HETATM    2  C2  UNL     1     -33.786   5.376   3.611  1.00 20.00     0.059 A 
HETATM    3  C3  UNL     1     -33.795   6.620   4.215  1.00 20.00     0.063 A 
HETATM    4  C4  UNL     1     -32.707   7.490   2.433  1.00 20.00     0.048 A 
HETATM    5  C5  UNL     1     -34.497   4.356   4.449  1.00 20.00     0.062 C 
HETATM    6  C6  UNL     1     -34.494   5.059   5.816  1.00 20.00     0.016 C 
HETATM    7  C7  UNL     1     -34.526   6.578   5.530  1.00 20.00     0.036 C 
HETATM    8  C8  UNL     1     -32.090   8.658   1.742  1.00 20.00     0.072 C 
HETATM    9  C9  UNL     1     -33.875   7.396   6.631  1.00 20.00     0.016 C 
HETATM   10  N10 UNL     1     -33.242   5.148   2.408  1.00 20.00    -0.261 NA
HETATM   11  N11 UNL     1     -33.268   7.711   3.643  1.00 20.00    -0.254 NA
ENDROOT
TORSDOF 0
ENDMDL
MODEL 2
REMARK VINA RESULT:      -4.7     12.080     12.819
REMARK  0 active torsions:
REMARK  status: ('A' for Active; 'I' for Inactive)
ROOT
HETATM    1  C1  UNL     1     -30.943  18.796   1.358  1.00 20.00     0.143 A 
HETATM    2  C2  UNL     1     -32.407  18.339  -0.303  1.00 20.00     0.059 A 
HETATM    3  C3  UNL     1     -33.460  18.466   0.584  1.00 20.00     0.063 A 
HETATM    4  C4  UNL     1     -32.000  18.930   2.248  1.00 20.00     0.048 A 
HETATM    5  C5  UNL     1     -32.893  18.051  -1.692  1.00 20.00     0.062 C 
HETATM    6  C6  UNL     1     -34.320  17.558  -1.397  1.00 20.00     0.016 C 
HETATM    7  C7  UNL     1     -34.781  18.287  -0.116  1.00 20.00     0.036 C 
HETATM    8  C8  UNL     1     -31.735  19.262   3.676  1.00 20.00     0.072 C 
HETATM    9  C9  UNL     1     -35.802  17.490   0.677  1.00 20.00     0.016 C 
HETATM   10  N10 UNL     1     -31.125  18.501   0.052  1.00 20.00    -0.261 NA
HETATM   11  N11 UNL     1     -33.291  18.774   1.877  1.00 20.00    -0.254 NA
ENDROOT
TORSDOF 0
ENDMDL
MODEL 3
REMARK VINA RESULT:      -4.3     12.019     12.493
REMARK  0 active torsions:
REMARK  status: ('A' for Active; 'I' for Inactive)
ROOT
HETATM    1  C1  UNL     1     -35.289  16.909  -1.313  1.00 20.00     0.143 A 
HETATM    2  C2  UNL     1     -34.736  18.061   0.552  1.00 20.00     0.059 A 
HETATM    3  C3  UNL     1     -33.477  18.305   0.032  1.00 20.00     0.063 A 
HETATM    4  C4  UNL     1     -34.029  17.158  -1.837  1.00 20.00     0.048 A 
HETATM    5  C5  UNL     1     -34.911  18.714   1.889  1.00 20.00     0.062 C 
HETATM    6  C6  UNL     1     -33.444  18.956   2.283  1.00 20.00     0.016 C 
HETATM    7  C7  UNL     1     -32.664  19.162   0.965  1.00 20.00     0.036 C 
HETATM    8  C8  UNL     1     -33.664  16.634  -3.184  1.00 20.00     0.072 C 
HETATM    9  C9  UNL     1     -31.206  18.752   1.077  1.00 20.00     0.016 C 
HETATM   10  N10 UNL     1     -35.675  17.363  -0.101  1.00 20.00    -0.261 NA
HETATM   11  N11 UNL     1     -33.091  17.872  -1.175  1.00 20.00    -0.254 NA
ENDROOT
TORSDOF 0
ENDMDL
MODEL 4
REMARK VINA RESULT:      -4.2      1.301      2.574
REMARK  0 active torsions:
REMARK  status: ('A' for Active; 'I' for Inactive)
ROOT
HETATM    1  C1  UNL     1     -31.542   8.855   3.184  1.00 20.00     0.143 A 
HETATM    2  C2  UNL     1     -32.759   7.693   4.694  1.00 20.00     0.059 A 
HETATM    3  C3  UNL     1     -33.371   6.994   3.669  1.00 20.00     0.063 A 
HETATM    4  C4  UNL     1     -32.153   8.151   2.155  1.00 20.00     0.048 A 
HETATM    5  C5  UNL     1     -33.231   7.221   6.036  1.00 20.00     0.062 C 
HETATM    6  C6  UNL     1     -34.535   6.505   5.643  1.00 20.00     0.016 C 
HETATM    7  C7  UNL     1     -34.324   5.962   4.212  1.00 20.00     0.036 C 
HETATM    8  C8  UNL     1     -31.788   8.435   0.738  1.00 20.00     0.072 C 
HETATM    9  C9  UNL     1     -35.622   5.842   3.433  1.00 20.00     0.016 C 
HETATM   10  N10 UNL     1     -31.830   8.636   4.486  1.00 20.00    -0.261 NA
HETATM   11  N11 UNL     1     -33.081   7.194   2.377  1.00 20.00    -0.254 NA
ENDROOT
TORSDOF 0
ENDMDL
MODEL 5
REMARK VINA RESULT:      -4.2     11.676     12.417
REMARK  0 active torsions:
REMARK  status: ('A' for Active; 'I' for Inactive)
ROOT
HETATM    1  C1  UNL     1     -36.661  13.663  -5.611  1.00 20.00     0.143 A 
HETATM    2  C2  UNL     1     -34.821  14.453  -4.562  1.00 20.00     0.059 A 
HETATM    3  C3  UNL     1     -35.598  15.378  -3.888  1.00 20.00     0.063 A 
HETATM    4  C4  UNL     1     -37.442  14.587  -4.931  1.00 20.00     0.048 A 
HETATM    5  C5  UNL     1     -33.383  14.541  -4.148  1.00 20.00     0.062 C 
HETATM    6  C6  UNL     1     -33.354  15.943  -3.514  1.00 20.00     0.016 C 
HETATM    7  C7  UNL     1     -34.764  16.191  -2.933  1.00 20.00     0.036 C 
HETATM    8  C8  UNL     1     -38.913  14.635  -5.164  1.00 20.00     0.072 C 
HETATM    9  C9  UNL     1     -35.128  17.664  -2.888  1.00 20.00     0.016 C 
HETATM   10  N10 UNL     1     -35.324  13.571  -5.436  1.00 20.00    -0.261 NA
HETATM   11  N11 UNL     1     -36.925  15.466  -4.044  1.00 20.00    -0.254 NA
ENDROOT
TORSDOF 0
ENDMDL
MODEL 6
REMARK VINA RESULT:      -4.0     11.560     13.251
REMARK  0 active torsions:
REMARK  status: ('A' for Active; 'I' for Inactive)
ROOT
HETATM    1  C1  UNL     1     -33.924  14.617  -3.943  1.00 20.00     0.143 A 
HETATM    2  C2  UNL     1     -34.638  14.164  -6.040  1.00 20.00     0.059 A 
HETATM    3  C3  UNL     1     -35.604  15.148  -5.928  1.00 20.00     0.063 A 
HETATM    4  C4  UNL     1     -34.890  15.608  -3.832  1.00 20.00     0.048 A 
HETATM    5  C5  UNL     1     -34.663  13.525  -7.396  1.00 20.00     0.062 C 
HETATM    6  C6  UNL     1     -36.068  13.930  -7.875  1.00 20.00     0.016 C 
HETATM    7  C7  UNL     1     -36.386  15.286  -7.207  1.00 20.00     0.036 C 
HETATM    8  C8  UNL     1     -35.004  16.400  -2.574  1.00 20.00     0.072 C 
HETATM    9  C9  UNL     1     -37.875  15.506  -7.006  1.00 20.00     0.016 C 
HETATM   10  N10 UNL     1     -33.773  13.872  -5.060  1.00 20.00    -0.261 NA
HETATM   11  N11 UNL     1     -35.752  15.902  -4.830  1.00 20.00    -0.254 NA
ENDROOT
TORSDOF 0
ENDMDL
MODEL 7
REMARK VINA RESULT:      -4.0     11.855     13.231
REMARK  0 active torsions:
REMARK  status: ('A' for Active; 'I' for Inactive)
ROOT
HETATM    1  C1  UNL     1     -33.667  17.408  -3.274  1.00 20.00     0.143 A 
HETATM    2  C2  UNL     1     -33.900  16.356  -5.262  1.00 20.00     0.059 A 
HETATM    3  C3  UNL     1     -34.966  15.632  -4.758  1.00 20.00     0.063 A 
HETATM    4  C4  UNL     1     -34.739  16.686  -2.770  1.00 20.00     0.048 A 
HETATM    5  C5  UNL     1     -33.650  16.029  -6.703  1.00 20.00     0.062 C 
HETATM    6  C6  UNL     1     -34.392  14.687  -6.824  1.00 20.00     0.016 C 
HETATM    7  C7  UNL     1     -35.560  14.739  -5.815  1.00 20.00     0.036 C 
HETATM    8  C8  UNL     1     -35.184  16.896  -1.363  1.00 20.00     0.072 C 
HETATM    9  C9  UNL     1     -35.962  13.363  -5.312  1.00 20.00     0.016 C 
HETATM   10  N10 UNL     1     -33.224  17.262  -4.543  1.00 20.00    -0.261 NA
HETATM   11  N11 UNL     1     -35.422  15.782  -3.507  1.00 20.00    -0.254 NA
ENDROOT
TORSDOF 0
ENDMDL
MODEL 8
REMARK VINA RESULT:      -4.0     11.753     13.057
REMARK  0 active torsions:
REMARK  status: ('A' for Active; 'I' for Inactive)
ROOT
HETATM    1  C1  UNL     1     -34.742  15.462  -6.124  1.00 20.00     0.143 A 
HETATM    2  C2  UNL     1     -33.919  17.018  -4.704  1.00 20.00     0.059 A 
HETATM    3  C3  UNL     1     -34.383  16.285  -3.626  1.00 20.00     0.063 A 
HETATM    4  C4  UNL     1     -35.203  14.724  -5.042  1.00 20.00     0.048 A 
HETATM    5  C5  UNL     1     -33.186  18.246  -4.256  1.00 20.00     0.062 C 
HETATM    6  C6  UNL     1     -33.701  18.374  -2.812  1.00 20.00     0.016 C 
HETATM    7  C7  UNL     1     -34.003  16.939  -2.325  1.00 20.00     0.036 C 
HETATM    8  C8  UNL     1     -35.923  13.439  -5.269  1.00 20.00     0.072 C 
HETATM    9  C9  UNL     1     -35.091  16.897  -1.266  1.00 20.00     0.016 C 
HETATM   10  N10 UNL     1     -34.080  16.631  -5.977  1.00 20.00    -0.261 NA
HETATM   11  N11 UNL     1     -35.027  15.118  -3.761  1.00 20.00    -0.254 NA
ENDROOT
TORSDOF 0
ENDMDL
MODEL 9
REMARK VINA RESULT:      -3.9     12.071     12.689
REMARK  0 active torsions:
REMARK  status: ('A' for Active; 'I' for Inactive)
ROOT
HETATM    1  C1  UNL     1     -35.218  18.009  -1.178  1.00 20.00     0.143 A 
HETATM    2  C2  UNL     1     -35.729  16.542  -2.820  1.00 20.00     0.059 A 
HETATM    3  C3  UNL     1     -34.385  16.265  -2.996  1.00 20.00     0.063 A 
HETATM    4  C4  UNL     1     -33.870  17.728  -1.350  1.00 20.00     0.048 A 
HETATM    5  C5  UNL     1     -36.582  15.712  -3.732  1.00 20.00     0.062 C 
HETATM    6  C6  UNL     1     -35.542  15.280  -4.780  1.00 20.00     0.016 C 
HETATM    7  C7  UNL     1     -34.184  15.205  -4.046  1.00 20.00     0.036 C 
HETATM    8  C8  UNL     1     -32.851  18.415  -0.506  1.00 20.00     0.072 C 
HETATM    9  C9  UNL     1     -33.005  15.458  -4.969  1.00 20.00     0.016 C 
HETATM   10  N10 UNL     1     -36.185  17.414  -1.911  1.00 20.00    -0.261 NA
HETATM   11  N11 UNL     1     -33.421  16.839  -2.264  1.00 20.00    -0.254 NA
ENDROOT
TORSDOF 0
ENDMDL
