MODEL 1
REMARK VINA RESULT:      -5.7      0.000      0.000
REMARK  2 active torsions:
REMARK  status: ('A' for Active; 'I' for Inactive)
REMARK       I    between atoms: C1_1  and  N9_9 
REMARK    1  A    between atoms: C7_7  and  C8_8 
REMARK    2  A    between atoms: C7_7  and  N9_9 
ROOT
HETATM    1  C3  UNL     1     -32.934   4.617   2.532  1.00 20.00     0.033 C 
HETATM    2  C7  UNL     1     -33.067   5.883   3.380  1.00 20.00     0.087 C 
ENDROOT
BRANCH   2   3
HETATM    3  C8  UNL     1     -34.259   5.877   4.391  1.00 20.00    -0.031 C 
HETATM    4  C4  UNL     1     -34.062   6.899   5.527  1.00 20.00     0.016 C 
HETATM    5  C5  UNL     1     -35.580   6.205   3.665  1.00 20.00     0.016 C 
HETATM    6  C6  UNL     1     -34.406   4.473   5.018  1.00 20.00     0.016 C 
ENDBRANCH   2   3
BRANCH   2   7
HETATM    7  N9  UNL     1     -33.109   7.033   2.499  1.00 20.00    -0.356 N 
HETATM    8  C1  UNL     1     -32.220   8.085   2.591  1.00 20.00     0.213 C 
HETATM    9  C2  UNL     1     -32.449   9.160   1.581  1.00 20.00     0.117 C 
HETATM   10  O10 UNL     1     -31.304   8.198   3.397  1.00 20.00    -0.274 OA
HETATM   11  H27 UNL     1     -33.824   7.065   1.781  1.00 20.00     0.162 HD
ENDBRANCH   2   7
TORSDOF 2
ENDMDL
MODEL 2
REMARK VINA RESULT:      -4.5      1.303      1.982
REMARK  2 active torsions:
REMARK  status: ('A' for Active; 'I' for Inactive)
REMARK       I    between atoms: C1_1  and  N9_9 
REMARK    1  A    between atoms: C7_7  and  C8_8 
REMARK    2  A    between atoms: C7_7  and  N9_9 
ROOT
HETATM    1  C3  UNL     1     -33.023   7.758   5.381  1.00 20.00     0.033 C 
HETATM    2  C7  UNL     1     -33.600   7.339   4.028  1.00 20.00     0.087 C 
ENDROOT
BRANCH   2   3
HETATM    3  C8  UNL     1     -34.272   5.927   4.005  1.00 20.00    -0.031 C 
HETATM    4  C4  UNL     1     -34.348   5.298   5.409  1.00 20.00     0.016 C 
HETATM    5  C5  UNL     1     -35.702   6.022   3.435  1.00 20.00     0.016 C 
HETATM    6  C6  UNL     1     -33.466   4.980   3.089  1.00 20.00     0.016 C 
ENDBRANCH   2   3
BRANCH   2   7
HETATM    7  N9  UNL     1     -32.566   7.463   3.020  1.00 20.00    -0.356 N 
HETATM    8  C1  UNL     1     -32.533   8.490   2.099  1.00 20.00     0.213 C 
HETATM    9  C2  UNL     1     -31.376   8.420   1.157  1.00 20.00     0.117 C 
HETATM   10  O10 UNL     1     -33.336   9.410   2.001  1.00 20.00    -0.274 OA
HETATM   11  H27 UNL     1     -31.834   6.763   2.991  1.00 20.00     0.162 HD
ENDBRANCH   2   7
TORSDOF 2
ENDMDL
MODEL 3
REMARK VINA RESULT:      -4.5      1.330      2.170
REMARK  2 active torsions:
REMARK  status: ('A' for Active; 'I' for Inactive)
REMARK       I    between atoms: C1_1  and  N9_9 
REMARK    1  A    between atoms: C7_7  and  C8_8 
REMARK    2  A    between atoms: C7_7  and  N9_9 
ROOT
HETATM    1  C3  UNL     1     -32.989   7.778   5.348  1.00 20.00     0.033 C 
HETATM    2  C7  UNL     1     -33.584   7.379   3.996  1.00 20.00     0.087 C 
ENDROOT
BRANCH   2   3
HETATM    3  C8  UNL     1     -34.279   5.979   3.968  1.00 20.00    -0.031 C 
HETATM    4  C4  UNL     1     -35.711   6.052   3.404  1.00 20.00     0.016 C 
HETATM    5  C5  UNL     1     -33.465   4.993   3.106  1.00 20.00     0.016 C 
HETATM    6  C6  UNL     1     -34.348   5.401   5.399  1.00 20.00     0.016 C 
ENDBRANCH   2   3
BRANCH   2   7
HETATM    7  N9  UNL     1     -32.556   7.494   2.981  1.00 20.00    -0.356 N 
HETATM    8  C1  UNL     1     -32.521   8.520   2.059  1.00 20.00     0.213 C 
HETATM    9  C2  UNL     1     -31.372   8.440   1.109  1.00 20.00     0.117 C 
HETATM   10  O10 UNL     1     -33.318   9.446   1.966  1.00 20.00    -0.274 OA
HETATM   11  H27 UNL     1     -31.830   6.788   2.948  1.00 20.00     0.162 HD
ENDBRANCH   2   7
TORSDOF 2
ENDMDL
MODEL 4
REMARK VINA RESULT:      -3.9     11.462     12.525
REMARK  2 active torsions:
REMARK  status: ('A' for Active; 'I' for Inactive)
REMARK       I    between atoms: C1_1  and  N9_9 
REMARK    1  A    between atoms: C7_7  and  C8_8 
REMARK    2  A    between atoms: C7_7  and  N9_9 
ROOT
HETATM    1  C3  UNL     1     -36.427  16.008  -3.734  1.00 20.00     0.033 C 
HETATM    2  C7  UNL     1     -35.367  15.136  -4.409  1.00 20.00     0.087 C 
ENDROOT
BRANCH   2   3
HETATM    3  C8  UNL     1     -33.894  15.628  -4.228  1.00 20.00    -0.031 C 
HETATM    4  C4  UNL     1     -32.889  14.461  -4.213  1.00 20.00     0.016 C 
HETATM    5  C5  UNL     1     -33.507  16.591  -5.370  1.00 20.00     0.016 C 
HETATM    6  C6  UNL     1     -33.762  16.404  -2.899  1.00 20.00     0.016 C 
ENDBRANCH   2   3
BRANCH   2   7
HETATM    7  N9  UNL     1     -35.717  14.973  -5.806  1.00 20.00    -0.356 N 
HETATM    8  C1  UNL     1     -35.740  13.747  -6.438  1.00 20.00     0.213 C 
HETATM    9  C2  UNL     1     -36.130  13.816  -7.878  1.00 20.00     0.117 C 
HETATM   10  O10 UNL     1     -35.481  12.661  -5.934  1.00 20.00    -0.274 OA
HETATM   11  H27 UNL     1     -35.955  15.799  -6.343  1.00 20.00     0.162 HD
ENDBRANCH   2   7
TORSDOF 2
ENDMDL
MODEL 5
REMARK VINA RESULT:      -3.9     11.535     12.495
REMARK  2 active torsions:
REMARK  status: ('A' for Active; 'I' for Inactive)
REMARK       I    between atoms: C1_1  and  N9_9 
REMARK    1  A    between atoms: C7_7  and  C8_8 
REMARK    2  A    between atoms: C7_7  and  N9_9 
ROOT
HETATM    1  C3  UNL     1     -36.462  16.272  -3.622  1.00 20.00     0.033 C 
HETATM    2  C7  UNL     1     -35.391  15.343  -4.197  1.00 20.00     0.087 C 
ENDROOT
BRANCH   2   3
HETATM    3  C8  UNL     1     -33.922  15.858  -4.049  1.00 20.00    -0.031 C 
HETATM    4  C4  UNL     1     -33.682  16.547  -2.692  1.00 20.00     0.016 C 
HETATM    5  C5  UNL     1     -32.927  14.687  -4.183  1.00 20.00     0.016 C 
HETATM    6  C6  UNL     1     -33.607  16.869  -5.173  1.00 20.00     0.016 C 
ENDBRANCH   2   3
BRANCH   2   7
HETATM    7  N9  UNL     1     -35.724  15.043  -5.575  1.00 20.00    -0.356 N 
HETATM    8  C1  UNL     1     -35.937  13.760  -6.035  1.00 20.00     0.213 C 
HETATM    9  C2  UNL     1     -36.269  13.687  -7.490  1.00 20.00     0.117 C 
HETATM   10  O10 UNL     1     -35.881  12.729  -5.376  1.00 20.00    -0.274 OA
HETATM   11  H27 UNL     1     -35.803  15.812  -6.231  1.00 20.00     0.162 HD
ENDBRANCH   2   7
TORSDOF 2
ENDMDL
MODEL 6
REMARK VINA RESULT:      -3.8      1.717      4.490
REMARK  2 active torsions:
REMARK  status: ('A' for Active; 'I' for Inactive)
REMARK       I    between atoms: C1_1  and  N9_9 
REMARK    1  A    between atoms: C7_7  and  C8_8 
REMARK    2  A    between atoms: C7_7  and  N9_9 
ROOT
HETATM    1  C3  UNL     1     -31.326   8.430   3.541  1.00 20.00     0.033 C 
HETATM    2  C7  UNL     1     -32.183   7.898   2.391  1.00 20.00     0.087 C 
ENDROOT
BRANCH   2   3
HETATM    3  C8  UNL     1     -32.345   8.876   1.182  1.00 20.00    -0.031 C 
HETATM    4  C4  UNL     1     -33.501   8.462   0.251  1.00 20.00     0.016 C 
HETATM    5  C5  UNL     1     -32.611  10.310   1.684  1.00 20.00     0.016 C 
HETATM    6  C6  UNL     1     -31.040   8.905   0.355  1.00 20.00     0.016 C 
ENDBRANCH   2   3
BRANCH   2   7
HETATM    7  N9  UNL     1     -33.463   7.473   2.919  1.00 20.00    -0.356 N 
HETATM    8  C1  UNL     1     -33.803   6.147   3.094  1.00 20.00     0.213 C 
HETATM    9  C2  UNL     1     -35.172   5.942   3.654  1.00 20.00     0.117 C 
HETATM   10  O10 UNL     1     -33.103   5.174   2.839  1.00 20.00    -0.274 OA
HETATM   11  H27 UNL     1     -34.140   8.183   3.173  1.00 20.00     0.162 HD
ENDBRANCH   2   7
TORSDOF 2
ENDMDL
MODEL 7
REMARK VINA RESULT:      -3.8      1.718      4.406
REMARK  2 active torsions:
REMARK  status: ('A' for Active; 'I' for Inactive)
REMARK       I    between atoms: C1_1  and  N9_9 
REMARK    1  A    between atoms: C7_7  and  C8_8 
REMARK    2  A    between atoms: C7_7  and  N9_9 
ROOT
HETATM    1  C3  UNL     1     -31.343   8.421   3.577  1.00 20.00     0.033 C 
HETATM    2  C7  UNL     1     -32.194   7.894   2.420  1.00 20.00     0.087 C 
ENDROOT
BRANCH   2   3
HETATM    3  C8  UNL     1     -32.357   8.881   1.219  1.00 20.00    -0.031 C 
HETATM    4  C4  UNL     1     -32.655  10.319   1.684  1.00 20.00     0.016 C 
HETATM    5  C5  UNL     1     -31.074   8.902   0.363  1.00 20.00     0.016 C 
HETATM    6  C6  UNL     1     -33.516   8.412   0.311  1.00 20.00     0.016 C 
ENDBRANCH   2   3
BRANCH   2   7
HETATM    7  N9  UNL     1     -33.474   7.460   2.942  1.00 20.00    -0.356 N 
HETATM    8  C1  UNL     1     -33.810   6.130   3.101  1.00 20.00     0.213 C 
HETATM    9  C2  UNL     1     -35.179   5.915   3.657  1.00 20.00     0.117 C 
HETATM   10  O10 UNL     1     -33.107   5.163   2.835  1.00 20.00    -0.274 OA
HETATM   11  H27 UNL     1     -34.153   8.165   3.204  1.00 20.00     0.162 HD
ENDBRANCH   2   7
TORSDOF 2
ENDMDL
MODEL 8
REMARK VINA RESULT:      -3.5     11.225     12.314
REMARK  2 active torsions:
REMARK  status: ('A' for Active; 'I' for Inactive)
REMARK       I    between atoms: C1_1  and  N9_9 
REMARK    1  A    between atoms: C7_7  and  C8_8 
REMARK    2  A    between atoms: C7_7  and  N9_9 
ROOT
HETATM    1  C3  UNL     1     -33.832  17.657  -5.039  1.00 20.00     0.033 C 
HETATM    2  C7  UNL     1     -33.626  16.463  -4.105  1.00 20.00     0.087 C 
ENDROOT
BRANCH   2   3
HETATM    3  C8  UNL     1     -33.719  15.063  -4.794  1.00 20.00    -0.031 C 
HETATM    4  C4  UNL     1     -33.690  15.168  -6.331  1.00 20.00     0.016 C 
HETATM    5  C5  UNL     1     -32.547  14.165  -4.345  1.00 20.00     0.016 C 
HETATM    6  C6  UNL     1     -35.031  14.362  -4.378  1.00 20.00     0.016 C 
ENDBRANCH   2   3
BRANCH   2   7
HETATM    7  N9  UNL     1     -34.542  16.580  -2.989  1.00 20.00    -0.356 N 
HETATM    8  C1  UNL     1     -34.176  17.108  -1.767  1.00 20.00     0.213 C 
HETATM    9  C2  UNL     1     -35.282  17.132  -0.764  1.00 20.00     0.117 C 
HETATM   10  O10 UNL     1     -33.072  17.538  -1.459  1.00 20.00    -0.274 OA
HETATM   11  H27 UNL     1     -35.495  16.258  -3.111  1.00 20.00     0.162 HD
ENDBRANCH   2   7
TORSDOF 2
ENDMDL
MODEL 9
REMARK VINA RESULT:      -3.5     11.654     12.828
REMARK  2 active torsions:
REMARK  status: ('A' for Active; 'I' for Inactive)
REMARK       I    between atoms: C1_1  and  N9_9 
REMARK    1  A    between atoms: C7_7  and  C8_8 
REMARK    2  A    between atoms: C7_7  and  N9_9 
ROOT
HETATM    1  C3  UNL     1     -35.248  15.994  -3.119  1.00 20.00     0.033 C 
HETATM    2  C7  UNL     1     -35.403  15.145  -4.382  1.00 20.00     0.087 C 
ENDROOT
BRANCH   2   3
HETATM    3  C8  UNL     1     -34.108  15.006  -5.247  1.00 20.00    -0.031 C 
HETATM    4  C4  UNL     1     -33.649  16.358  -5.826  1.00 20.00     0.016 C 
HETATM    5  C5  UNL     1     -32.957  14.423  -4.401  1.00 20.00     0.016 C 
HETATM    6  C6  UNL     1     -34.364  14.035  -6.420  1.00 20.00     0.016 C 
ENDBRANCH   2   3
BRANCH   2   7
HETATM    7  N9  UNL     1     -36.518  15.655  -5.154  1.00 20.00    -0.356 N 
HETATM    8  C1  UNL     1     -37.685  14.944  -5.351  1.00 20.00     0.213 C 
HETATM    9  C2  UNL     1     -38.700  15.665  -6.176  1.00 20.00     0.117 C 
HETATM   10  O10 UNL     1     -37.940  13.826  -4.920  1.00 20.00    -0.274 OA
HETATM   11  H27 UNL     1     -36.437  16.576  -5.568  1.00 20.00     0.162 HD
ENDBRANCH   2   7
TORSDOF 2
ENDMDL
