MODEL 1
REMARK VINA RESULT:      -4.7      0.000      0.000
REMARK  3 active torsions:
REMARK  status: ('A' for Active; 'I' for Inactive)
REMARK    1  A    between atoms: C5_5  and  N8_8 
REMARK    2  A    between atoms: C6_6  and  C7_7 
REMARK    3  A    between atoms: C7_7  and  N8_8 
ROOT
HETATM    1  C1  UNL     1     -32.178   9.438   0.863  1.00 20.00     0.013 C 
HETATM    2  C2  UNL     1     -32.167   8.692   1.804  1.00 20.00    -0.087 C 
HETATM    3  C5  UNL     1     -32.150   7.783   2.954  1.00 20.00     0.364 C 
ENDROOT
BRANCH   3   4
HETATM    4  N8  UNL     1     -33.344   6.940   2.964  1.00 20.00     0.095 N 
HETATM    5  C4  UNL     1     -33.012   5.577   2.552  1.00 20.00     0.310 C 
BRANCH   4   6
HETATM    6  C7  UNL     1     -33.958   6.938   4.292  1.00 20.00     0.272 C 
BRANCH   6   7
HETATM    7  C6  UNL     1     -34.870   5.737   4.508  1.00 20.00     0.026 C 
HETATM    8  C3  UNL     1     -34.588   5.011   5.816  1.00 20.00     0.007 C 
ENDBRANCH   6   7
ENDBRANCH   4   6
ENDBRANCH   3   4
TORSDOF 3
ENDMDL
MODEL 2
REMARK VINA RESULT:      -4.6      1.094      4.550
REMARK  3 active torsions:
REMARK  status: ('A' for Active; 'I' for Inactive)
REMARK    1  A    between atoms: C5_5  and  N8_8 
REMARK    2  A    between atoms: C6_6  and  C7_7 
REMARK    3  A    between atoms: C7_7  and  N8_8 
ROOT
HETATM    1  C1  UNL     1     -35.015   5.809   4.094  1.00 20.00     0.013 C 
HETATM    2  C2  UNL     1     -34.056   6.122   3.443  1.00 20.00    -0.087 C 
HETATM    3  C5  UNL     1     -32.885   6.502   2.648  1.00 20.00     0.364 C 
ENDROOT
BRANCH   3   4
HETATM    4  N8  UNL     1     -32.605   7.929   2.791  1.00 20.00     0.095 N 
HETATM    5  C4  UNL     1     -31.804   8.176   3.990  1.00 20.00     0.310 C 
BRANCH   4   6
HETATM    6  C7  UNL     1     -31.916   8.436   1.603  1.00 20.00     0.272 C 
BRANCH   6   7
HETATM    7  C6  UNL     1     -32.584   9.681   1.033  1.00 20.00     0.026 C 
HETATM    8  C3  UNL     1     -33.108   9.471  -0.381  1.00 20.00     0.007 C 
ENDBRANCH   6   7
ENDBRANCH   4   6
ENDBRANCH   3   4
TORSDOF 3
ENDMDL
MODEL 3
REMARK VINA RESULT:      -4.5      0.694      4.420
REMARK  3 active torsions:
REMARK  status: ('A' for Active; 'I' for Inactive)
REMARK    1  A    between atoms: C5_5  and  N8_8 
REMARK    2  A    between atoms: C6_6  and  C7_7 
REMARK    3  A    between atoms: C7_7  and  N8_8 
ROOT
HETATM    1  C1  UNL     1     -34.748   5.060   5.568  1.00 20.00     0.013 C 
HETATM    2  C2  UNL     1     -34.242   6.069   5.161  1.00 20.00    -0.087 C 
HETATM    3  C5  UNL     1     -33.626   7.303   4.666  1.00 20.00     0.364 C 
ENDROOT
BRANCH   3   4
HETATM    4  N8  UNL     1     -32.669   7.011   3.600  1.00 20.00     0.095 N 
HETATM    5  C4  UNL     1     -33.347   6.402   2.456  1.00 20.00     0.310 C 
BRANCH   4   6
HETATM    6  C7  UNL     1     -31.972   8.231   3.190  1.00 20.00     0.272 C 
BRANCH   6   7
HETATM    7  C6  UNL     1     -31.977   8.422   1.679  1.00 20.00     0.026 C 
HETATM    8  C3  UNL     1     -32.421   9.818   1.264  1.00 20.00     0.007 C 
ENDBRANCH   6   7
ENDBRANCH   4   6
ENDBRANCH   3   4
TORSDOF 3
ENDMDL
MODEL 4
REMARK VINA RESULT:      -4.5      1.118      4.417
REMARK  3 active torsions:
REMARK  status: ('A' for Active; 'I' for Inactive)
REMARK    1  A    between atoms: C5_5  and  N8_8 
REMARK    2  A    between atoms: C6_6  and  C7_7 
REMARK    3  A    between atoms: C7_7  and  N8_8 
ROOT
HETATM    1  C1  UNL     1     -34.142   3.892   4.538  1.00 20.00     0.013 C 
HETATM    2  C2  UNL     1     -34.497   4.989   4.203  1.00 20.00    -0.087 C 
HETATM    3  C5  UNL     1     -34.934   6.326   3.794  1.00 20.00     0.364 C 
ENDROOT
BRANCH   3   4
HETATM    4  N8  UNL     1     -33.864   7.302   3.993  1.00 20.00     0.095 N 
HETATM    5  C4  UNL     1     -33.477   7.358   5.402  1.00 20.00     0.310 C 
BRANCH   4   6
HETATM    6  C7  UNL     1     -32.708   6.971   3.159  1.00 20.00     0.272 C 
BRANCH   6   7
HETATM    7  C6  UNL     1     -31.834   8.184   2.870  1.00 20.00     0.026 C 
HETATM    8  C3  UNL     1     -32.190   8.867   1.558  1.00 20.00     0.007 C 
ENDBRANCH   6   7
ENDBRANCH   4   6
ENDBRANCH   3   4
TORSDOF 3
ENDMDL
MODEL 5
REMARK VINA RESULT:      -4.2      1.231      1.637
REMARK  3 active torsions:
REMARK  status: ('A' for Active; 'I' for Inactive)
REMARK    1  A    between atoms: C5_5  and  N8_8 
REMARK    2  A    between atoms: C6_6  and  C7_7 
REMARK    3  A    between atoms: C7_7  and  N8_8 
ROOT
HETATM    1  C1  UNL     1     -32.691  10.260   1.281  1.00 20.00     0.013 C 
HETATM    2  C2  UNL     1     -32.573   9.083   1.490  1.00 20.00    -0.087 C 
HETATM    3  C5  UNL     1     -32.430   7.647   1.741  1.00 20.00     0.364 C 
ENDROOT
BRANCH   3   4
HETATM    4  N8  UNL     1     -32.364   7.378   3.176  1.00 20.00     0.095 N 
HETATM    5  C4  UNL     1     -31.503   8.355   3.841  1.00 20.00     0.310 C 
BRANCH   4   6
HETATM    6  C7  UNL     1     -33.705   7.396   3.762  1.00 20.00     0.272 C 
BRANCH   6   7
HETATM    7  C6  UNL     1     -33.682   7.177   5.270  1.00 20.00     0.026 C 
HETATM    8  C3  UNL     1     -34.423   5.917   5.692  1.00 20.00     0.007 C 
ENDBRANCH   6   7
ENDBRANCH   4   6
ENDBRANCH   3   4
TORSDOF 3
ENDMDL
MODEL 6
REMARK VINA RESULT:      -4.1      1.694      3.954
REMARK  3 active torsions:
REMARK  status: ('A' for Active; 'I' for Inactive)
REMARK    1  A    between atoms: C5_5  and  N8_8 
REMARK    2  A    between atoms: C6_6  and  C7_7 
REMARK    3  A    between atoms: C7_7  and  N8_8 
ROOT
HETATM    1  C1  UNL     1     -33.725   7.560   6.180  1.00 20.00     0.013 C 
HETATM    2  C2  UNL     1     -34.069   6.448   5.883  1.00 20.00    -0.087 C 
HETATM    3  C5  UNL     1     -34.489   5.091   5.524  1.00 20.00     0.364 C 
ENDROOT
BRANCH   3   4
HETATM    4  N8  UNL     1     -34.686   4.977   4.081  1.00 20.00     0.095 N 
HETATM    5  C4  UNL     1     -35.666   5.959   3.618  1.00 20.00     0.310 C 
BRANCH   4   6
HETATM    6  C7  UNL     1     -33.416   5.151   3.375  1.00 20.00     0.272 C 
BRANCH   6   7
HETATM    7  C6  UNL     1     -33.431   6.354   2.441  1.00 20.00     0.026 C 
HETATM    8  C3  UNL     1     -32.330   7.357   2.756  1.00 20.00     0.007 C 
ENDBRANCH   6   7
ENDBRANCH   4   6
ENDBRANCH   3   4
TORSDOF 3
ENDMDL
MODEL 7
REMARK VINA RESULT:      -3.9      1.000      1.490
REMARK  3 active torsions:
REMARK  status: ('A' for Active; 'I' for Inactive)
REMARK    1  A    between atoms: C5_5  and  N8_8 
REMARK    2  A    between atoms: C6_6  and  C7_7 
REMARK    3  A    between atoms: C7_7  and  N8_8 
ROOT
HETATM    1  C1  UNL     1     -31.362   8.790   0.655  1.00 20.00     0.013 C 
HETATM    2  C2  UNL     1     -32.169   8.592   1.522  1.00 20.00    -0.087 C 
HETATM    3  C5  UNL     1     -33.156   8.353   2.578  1.00 20.00     0.364 C 
ENDROOT
BRANCH   3   4
HETATM    4  N8  UNL     1     -32.739   7.243   3.433  1.00 20.00     0.095 N 
HETATM    5  C4  UNL     1     -33.030   7.540   4.835  1.00 20.00     0.310 C 
BRANCH   4   6
HETATM    6  C7  UNL     1     -33.404   6.005   3.024  1.00 20.00     0.272 C 
BRANCH   6   7
HETATM    7  C6  UNL     1     -34.624   5.692   3.881  1.00 20.00     0.026 C 
HETATM    8  C3  UNL     1     -34.540   4.325   4.547  1.00 20.00     0.007 C 
ENDBRANCH   6   7
ENDBRANCH   4   6
ENDBRANCH   3   4
TORSDOF 3
ENDMDL
MODEL 8
REMARK VINA RESULT:      -3.9      1.308      3.040
REMARK  3 active torsions:
REMARK  status: ('A' for Active; 'I' for Inactive)
REMARK    1  A    between atoms: C5_5  and  N8_8 
REMARK    2  A    between atoms: C6_6  and  C7_7 
REMARK    3  A    between atoms: C7_7  and  N8_8 
ROOT
HETATM    1  C1  UNL     1     -33.933   7.253   6.219  1.00 20.00     0.013 C 
HETATM    2  C2  UNL     1     -33.207   7.596   5.327  1.00 20.00    -0.087 C 
HETATM    3  C5  UNL     1     -32.318   8.015   4.240  1.00 20.00     0.364 C 
ENDROOT
BRANCH   3   4
HETATM    4  N8  UNL     1     -32.890   7.668   2.941  1.00 20.00     0.095 N 
HETATM    5  C4  UNL     1     -32.186   8.368   1.867  1.00 20.00     0.310 C 
BRANCH   4   6
HETATM    6  C7  UNL     1     -32.837   6.221   2.729  1.00 20.00     0.272 C 
BRANCH   6   7
HETATM    7  C6  UNL     1     -34.194   5.556   2.919  1.00 20.00     0.026 C 
HETATM    8  C3  UNL     1     -34.158   4.424   3.936  1.00 20.00     0.007 C 
ENDBRANCH   6   7
ENDBRANCH   4   6
ENDBRANCH   3   4
TORSDOF 3
ENDMDL
MODEL 9
REMARK VINA RESULT:      -3.8      1.462      2.910
REMARK  3 active torsions:
REMARK  status: ('A' for Active; 'I' for Inactive)
REMARK    1  A    between atoms: C5_5  and  N8_8 
REMARK    2  A    between atoms: C6_6  and  C7_7 
REMARK    3  A    between atoms: C7_7  and  N8_8 
ROOT
HETATM    1  C1  UNL     1     -33.229   4.082   2.795  1.00 20.00     0.013 C 
HETATM    2  C2  UNL     1     -33.116   5.271   2.669  1.00 20.00    -0.087 C 
HETATM    3  C5  UNL     1     -32.980   6.721   2.511  1.00 20.00     0.364 C 
ENDROOT
BRANCH   3   4
HETATM    4  N8  UNL     1     -32.532   7.336   3.759  1.00 20.00     0.095 N 
HETATM    5  C4  UNL     1     -31.627   8.452   3.484  1.00 20.00     0.310 C 
BRANCH   4   6
HETATM    6  C7  UNL     1     -33.680   7.791   4.545  1.00 20.00     0.272 C 
BRANCH   6   7
HETATM    7  C6  UNL     1     -33.781   7.079   5.889  1.00 20.00     0.026 C 
HETATM    8  C3  UNL     1     -34.556   5.772   5.804  1.00 20.00     0.007 C 
ENDBRANCH   6   7
ENDBRANCH   4   6
ENDBRANCH   3   4
TORSDOF 3
ENDMDL
