MODEL 1
REMARK VINA RESULT:      -5.4      0.000      0.000
REMARK  0 active torsions:
REMARK  status: ('A' for Active; 'I' for Inactive)
ROOT
HETATM    1  C1  UNL     1     -33.271   7.252   4.615  1.00 20.00     0.131 C 
HETATM    2  C2  UNL     1     -34.501   6.511   4.163  1.00 20.00     0.079 C 
HETATM    3  C3  UNL     1     -34.018   5.828   2.890  1.00 20.00     0.013 C 
HETATM    4  C4  UNL     1     -31.920   8.816   3.148  1.00 20.00     0.021 C 
HETATM    5  C5  UNL     1     -33.449   7.926   1.510  1.00 20.00     0.014 C 
HETATM    6  C6  UNL     1     -32.225   7.363   3.523  1.00 20.00     0.060 C 
HETATM    7  C7  UNL     1     -32.936   6.733   2.318  1.00 20.00    -0.002 C 
HETATM    8  C8  UNL     1     -32.346   8.981   1.674  1.00 20.00    -0.047 C 
HETATM    9  C9  UNL     1     -32.879  10.389   1.397  1.00 20.00     0.015 C 
HETATM   10  C10 UNL     1     -31.161   8.701   0.733  1.00 20.00     0.015 C 
HETATM   11  O11 UNL     1     -33.145   7.735   5.733  1.00 20.00    -0.298 OA
ENDROOT
TORSDOF 0
ENDMDL
MODEL 2
REMARK VINA RESULT:      -5.2      1.937      3.122
REMARK  0 active torsions:
REMARK  status: ('A' for Active; 'I' for Inactive)
ROOT
HETATM    1  C1  UNL     1     -34.292   4.573   4.344  1.00 20.00     0.131 C 
HETATM    2  C2  UNL     1     -34.193   4.788   5.831  1.00 20.00     0.079 C 
HETATM    3  C3  UNL     1     -34.792   6.179   5.996  1.00 20.00     0.013 C 
HETATM    4  C4  UNL     1     -33.429   6.196   2.599  1.00 20.00     0.021 C 
HETATM    5  C5  UNL     1     -33.091   7.509   4.593  1.00 20.00     0.014 C 
HETATM    6  C6  UNL     1     -34.551   5.860   3.585  1.00 20.00     0.060 C 
HETATM    7  C7  UNL     1     -34.497   6.916   4.697  1.00 20.00    -0.002 C 
HETATM    8  C8  UNL     1     -32.810   7.524   3.083  1.00 20.00    -0.047 C 
HETATM    9  C9  UNL     1     -31.307   7.582   2.799  1.00 20.00     0.015 C 
HETATM   10  C10 UNL     1     -33.495   8.721   2.400  1.00 20.00     0.015 C 
HETATM   11  O11 UNL     1     -34.149   3.481   3.808  1.00 20.00    -0.298 OA
ENDROOT
TORSDOF 0
ENDMDL
MODEL 3
REMARK VINA RESULT:      -4.7     10.196     11.635
REMARK  0 active torsions:
REMARK  status: ('A' for Active; 'I' for Inactive)
ROOT
HETATM    1  C1  UNL     1     -34.712  13.679  -6.550  1.00 20.00     0.131 C 
HETATM    2  C2  UNL     1     -34.908  14.578  -7.742  1.00 20.00     0.079 C 
HETATM    3  C3  UNL     1     -33.865  15.661  -7.505  1.00 20.00     0.013 C 
HETATM    4  C4  UNL     1     -34.694  14.474  -4.144  1.00 20.00     0.021 C 
HETATM    5  C5  UNL     1     -34.768  16.597  -5.283  1.00 20.00     0.014 C 
HETATM    6  C6  UNL     1     -33.906  14.340  -5.449  1.00 20.00     0.060 C 
HETATM    7  C7  UNL     1     -33.704  15.759  -5.994  1.00 20.00    -0.002 C 
HETATM    8  C8  UNL     1     -34.834  15.987  -3.875  1.00 20.00    -0.047 C 
HETATM    9  C9  UNL     1     -36.162  16.316  -3.189  1.00 20.00     0.015 C 
HETATM   10  C10 UNL     1     -33.678  16.490  -2.993  1.00 20.00     0.015 C 
HETATM   11  O11 UNL     1     -35.180  12.550  -6.470  1.00 20.00    -0.298 OA
ENDROOT
TORSDOF 0
ENDMDL
MODEL 4
REMARK VINA RESULT:      -4.7      9.948     11.204
REMARK  0 active torsions:
REMARK  status: ('A' for Active; 'I' for Inactive)
ROOT
HETATM    1  C1  UNL     1     -36.948  14.028  -5.661  1.00 20.00     0.131 C 
HETATM    2  C2  UNL     1     -36.981  14.606  -7.051  1.00 20.00     0.079 C 
HETATM    3  C3  UNL     1     -35.662  14.116  -7.635  1.00 20.00     0.013 C 
HETATM    4  C4  UNL     1     -35.023  14.310  -4.036  1.00 20.00     0.021 C 
HETATM    5  C5  UNL     1     -34.050  15.296  -6.010  1.00 20.00     0.014 C 
HETATM    6  C6  UNL     1     -35.563  13.561  -5.257  1.00 20.00     0.060 C 
HETATM    7  C7  UNL     1     -34.707  13.988  -6.456  1.00 20.00    -0.002 C 
HETATM    8  C8  UNL     1     -33.772  15.074  -4.516  1.00 20.00    -0.047 C 
HETATM    9  C9  UNL     1     -33.608  16.406  -3.779  1.00 20.00     0.015 C 
HETATM   10  C10 UNL     1     -32.505  14.226  -4.304  1.00 20.00     0.015 C 
HETATM   11  O11 UNL     1     -37.928  13.972  -4.929  1.00 20.00    -0.298 OA
ENDROOT
TORSDOF 0
ENDMDL
MODEL 5
REMARK VINA RESULT:      -4.5     10.219     11.376
REMARK  0 active torsions:
REMARK  status: ('A' for Active; 'I' for Inactive)
ROOT
HETATM    1  C1  UNL     1     -36.068  13.850  -5.368  1.00 20.00     0.131 C 
HETATM    2  C2  UNL     1     -37.394  14.407  -5.815  1.00 20.00     0.079 C 
HETATM    3  C3  UNL     1     -37.000  15.769  -6.371  1.00 20.00     0.013 C 
HETATM    4  C4  UNL     1     -34.441  15.064  -3.851  1.00 20.00     0.021 C 
HETATM    5  C5  UNL     1     -36.057  16.816  -4.216  1.00 20.00     0.014 C 
HETATM    6  C6  UNL     1     -34.992  14.913  -5.271  1.00 20.00     0.060 C 
HETATM    7  C7  UNL     1     -35.768  16.198  -5.585  1.00 20.00    -0.002 C 
HETATM    8  C8  UNL     1     -34.798  16.495  -3.397  1.00 20.00    -0.047 C 
HETATM    9  C9  UNL     1     -35.083  16.554  -1.894  1.00 20.00     0.015 C 
HETATM   10  C10 UNL     1     -33.653  17.469  -3.728  1.00 20.00     0.015 C 
HETATM   11  O11 UNL     1     -35.891  12.671  -5.085  1.00 20.00    -0.298 OA
ENDROOT
TORSDOF 0
ENDMDL
MODEL 6
REMARK VINA RESULT:      -4.5     10.319     11.320
REMARK  0 active torsions:
REMARK  status: ('A' for Active; 'I' for Inactive)
ROOT
HETATM    1  C1  UNL     1     -33.465  18.465  -1.876  1.00 20.00     0.131 C 
HETATM    2  C2  UNL     1     -34.641  18.896  -1.041  1.00 20.00     0.079 C 
HETATM    3  C3  UNL     1     -35.227  17.563  -0.596  1.00 20.00     0.013 C 
HETATM    4  C4  UNL     1     -33.594  16.798  -3.781  1.00 20.00     0.021 C 
HETATM    5  C5  UNL     1     -35.834  16.609  -2.910  1.00 20.00     0.014 C 
HETATM    6  C6  UNL     1     -33.532  17.001  -2.265  1.00 20.00     0.060 C 
HETATM    7  C7  UNL     1     -34.894  16.572  -1.703  1.00 20.00    -0.002 C 
HETATM    8  C8  UNL     1     -34.954  16.131  -4.074  1.00 20.00    -0.047 C 
HETATM    9  C9  UNL     1     -35.523  16.582  -5.421  1.00 20.00     0.015 C 
HETATM   10  C10 UNL     1     -34.816  14.598  -4.077  1.00 20.00     0.015 C 
HETATM   11  O11 UNL     1     -32.569  19.223  -2.226  1.00 20.00    -0.298 OA
ENDROOT
TORSDOF 0
ENDMDL
MODEL 7
REMARK VINA RESULT:      -4.5     10.272     11.785
REMARK  0 active torsions:
REMARK  status: ('A' for Active; 'I' for Inactive)
ROOT
HETATM    1  C1  UNL     1     -34.029  14.881  -5.917  1.00 20.00     0.131 C 
HETATM    2  C2  UNL     1     -34.673  15.789  -6.932  1.00 20.00     0.079 C 
HETATM    3  C3  UNL     1     -33.943  17.104  -6.698  1.00 20.00     0.013 C 
HETATM    4  C4  UNL     1     -33.803  15.421  -3.451  1.00 20.00     0.021 C 
HETATM    5  C5  UNL     1     -34.660  17.524  -4.261  1.00 20.00     0.014 C 
HETATM    6  C6  UNL     1     -33.254  15.646  -4.862  1.00 20.00     0.060 C 
HETATM    7  C7  UNL     1     -33.550  17.106  -5.227  1.00 20.00    -0.002 C 
HETATM    8  C8  UNL     1     -34.304  16.794  -2.957  1.00 20.00    -0.047 C 
HETATM    9  C9  UNL     1     -35.528  16.653  -2.049  1.00 20.00     0.015 C 
HETATM   10  C10 UNL     1     -33.194  17.532  -2.189  1.00 20.00     0.015 C 
HETATM   11  O11 UNL     1     -34.146  13.662  -5.929  1.00 20.00    -0.298 OA
ENDROOT
TORSDOF 0
ENDMDL
MODEL 8
REMARK VINA RESULT:      -4.3     10.243     11.260
REMARK  0 active torsions:
REMARK  status: ('A' for Active; 'I' for Inactive)
ROOT
HETATM    1  C1  UNL     1     -36.084  17.255  -2.907  1.00 20.00     0.131 C 
HETATM    2  C2  UNL     1     -35.280  16.886  -1.689  1.00 20.00     0.079 C 
HETATM    3  C3  UNL     1     -33.877  16.732  -2.262  1.00 20.00     0.013 C 
HETATM    4  C4  UNL     1     -36.081  15.944  -5.076  1.00 20.00     0.021 C 
HETATM    5  C5  UNL     1     -34.330  14.788  -3.889  1.00 20.00     0.014 C 
HETATM    6  C6  UNL     1     -35.348  16.963  -4.200  1.00 20.00     0.060 C 
HETATM    7  C7  UNL     1     -34.066  16.283  -3.705  1.00 20.00    -0.002 C 
HETATM    8  C8  UNL     1     -35.151  14.718  -5.185  1.00 20.00    -0.047 C 
HETATM    9  C9  UNL     1     -35.947  13.413  -5.268  1.00 20.00     0.015 C 
HETATM   10  C10 UNL     1     -34.247  14.832  -6.425  1.00 20.00     0.015 C 
HETATM   11  O11 UNL     1     -37.220  17.711  -2.855  1.00 20.00    -0.298 OA
ENDROOT
TORSDOF 0
ENDMDL
MODEL 9
REMARK VINA RESULT:      -4.2      9.889     11.255
REMARK  0 active torsions:
REMARK  status: ('A' for Active; 'I' for Inactive)
ROOT
HETATM    1  C1  UNL     1     -33.730  14.518  -4.188  1.00 20.00     0.131 C 
HETATM    2  C2  UNL     1     -33.384  15.967  -3.974  1.00 20.00     0.079 C 
HETATM    3  C3  UNL     1     -34.652  16.509  -3.327  1.00 20.00     0.013 C 
HETATM    4  C4  UNL     1     -35.822  13.701  -5.363  1.00 20.00     0.021 C 
HETATM    5  C5  UNL     1     -36.299  16.062  -5.255  1.00 20.00     0.014 C 
HETATM    6  C6  UNL     1     -35.217  14.249  -4.068  1.00 20.00     0.060 C 
HETATM    7  C7  UNL     1     -35.792  15.657  -3.870  1.00 20.00    -0.002 C 
HETATM    8  C8  UNL     1     -36.845  14.752  -5.842  1.00 20.00    -0.047 C 
HETATM    9  C9  UNL     1     -36.914  14.814  -7.370  1.00 20.00     0.015 C 
HETATM   10  C10 UNL     1     -38.246  14.434  -5.291  1.00 20.00     0.015 C 
HETATM   11  O11 UNL     1     -32.900  13.658  -4.460  1.00 20.00    -0.298 OA
ENDROOT
TORSDOF 0
ENDMDL
