MODEL 1
REMARK VINA RESULT:      -4.7      0.000      0.000
REMARK  2 active torsions:
REMARK  status: ('A' for Active; 'I' for Inactive)
REMARK    1  A    between atoms: C1_1  and  C6_6 
REMARK    2  A    between atoms: C7_7  and  N8_8 
ROOT
HETATM    1  C3  UNL     1     -35.615   6.130   3.586  1.00 20.00     0.039 C 
HETATM    2  C4  UNL     1     -34.226   4.219   4.445  1.00 20.00     0.039 C 
HETATM    3  C5  UNL     1     -34.149   6.447   5.606  1.00 20.00     0.039 C 
HETATM    4  C7  UNL     1     -34.303   5.735   4.264  1.00 20.00     0.042 C 
ENDROOT
BRANCH   4   5
HETATM    5  N8  UNL     1     -33.191   6.141   3.393  1.00 20.00    -0.296 NA
HETATM    6  C1  UNL     1     -32.975   7.406   3.431  1.00 20.00     0.084 C 
BRANCH   6   7
HETATM    7  C6  UNL     1     -31.879   8.013   2.599  1.00 20.00     0.042 C 
HETATM    8  C2  UNL     1     -32.467   9.015   1.625  1.00 20.00     0.010 C 
ENDBRANCH   6   7
ENDBRANCH   4   5
TORSDOF 2
ENDMDL
MODEL 2
REMARK VINA RESULT:      -4.7      0.050      1.533
REMARK  2 active torsions:
REMARK  status: ('A' for Active; 'I' for Inactive)
REMARK    1  A    between atoms: C1_1  and  C6_6 
REMARK    2  A    between atoms: C7_7  and  N8_8 
ROOT
HETATM    1  C3  UNL     1     -34.123   6.508   5.566  1.00 20.00     0.039 C 
HETATM    2  C4  UNL     1     -35.624   6.136   3.585  1.00 20.00     0.039 C 
HETATM    3  C5  UNL     1     -34.226   4.245   4.471  1.00 20.00     0.039 C 
HETATM    4  C7  UNL     1     -34.301   5.755   4.248  1.00 20.00     0.042 C 
ENDROOT
BRANCH   4   5
HETATM    5  N8  UNL     1     -33.213   6.145   3.340  1.00 20.00    -0.296 NA
HETATM    6  C1  UNL     1     -32.959   7.403   3.392  1.00 20.00     0.084 C 
BRANCH   6   7
HETATM    7  C6  UNL     1     -31.880   7.994   2.529  1.00 20.00     0.042 C 
HETATM    8  C2  UNL     1     -32.473   9.043   1.608  1.00 20.00     0.010 C 
ENDBRANCH   6   7
ENDBRANCH   4   5
TORSDOF 2
ENDMDL
MODEL 3
REMARK VINA RESULT:      -4.1      1.842      4.775
REMARK  2 active torsions:
REMARK  status: ('A' for Active; 'I' for Inactive)
REMARK    1  A    between atoms: C1_1  and  C6_6 
REMARK    2  A    between atoms: C7_7  and  N8_8 
ROOT
HETATM    1  C3  UNL     1     -32.525  10.719   1.400  1.00 20.00     0.039 C 
HETATM    2  C4  UNL     1     -31.099   8.789   0.651  1.00 20.00     0.039 C 
HETATM    3  C5  UNL     1     -33.232   9.321  -0.568  1.00 20.00     0.039 C 
HETATM    4  C7  UNL     1     -32.527   9.319   0.787  1.00 20.00     0.042 C 
ENDROOT
BRANCH   4   5
HETATM    5  N8  UNL     1     -33.257   8.419   1.690  1.00 20.00    -0.296 NA
HETATM    6  C1  UNL     1     -32.498   7.905   2.590  1.00 20.00     0.084 C 
BRANCH   6   7
HETATM    7  C6  UNL     1     -33.064   6.951   3.604  1.00 20.00     0.042 C 
HETATM    8  C2  UNL     1     -33.574   5.703   2.910  1.00 20.00     0.010 C 
ENDBRANCH   6   7
ENDBRANCH   4   5
TORSDOF 2
ENDMDL
MODEL 4
REMARK VINA RESULT:      -4.1      1.851      4.772
REMARK  2 active torsions:
REMARK  status: ('A' for Active; 'I' for Inactive)
REMARK    1  A    between atoms: C1_1  and  C6_6 
REMARK    2  A    between atoms: C7_7  and  N8_8 
ROOT
HETATM    1  C3  UNL     1     -31.099   8.792   0.659  1.00 20.00     0.039 C 
HETATM    2  C4  UNL     1     -33.236   9.326  -0.551  1.00 20.00     0.039 C 
HETATM    3  C5  UNL     1     -32.505  10.745   1.391  1.00 20.00     0.039 C 
HETATM    4  C7  UNL     1     -32.520   9.336   0.799  1.00 20.00     0.042 C 
ENDROOT
BRANCH   4   5
HETATM    5  N8  UNL     1     -33.265   8.457   1.711  1.00 20.00    -0.296 NA
HETATM    6  C1  UNL     1     -32.503   7.883   2.570  1.00 20.00     0.084 C 
BRANCH   6   7
HETATM    7  C6  UNL     1     -33.083   6.938   3.586  1.00 20.00     0.042 C 
HETATM    8  C2  UNL     1     -33.552   5.669   2.901  1.00 20.00     0.010 C 
ENDBRANCH   6   7
ENDBRANCH   4   5
TORSDOF 2
ENDMDL
MODEL 5
REMARK VINA RESULT:      -4.1      1.872      2.893
REMARK  2 active torsions:
REMARK  status: ('A' for Active; 'I' for Inactive)
REMARK    1  A    between atoms: C1_1  and  C6_6 
REMARK    2  A    between atoms: C7_7  and  N8_8 
ROOT
HETATM    1  C3  UNL     1     -32.620   6.030   2.675  1.00 20.00     0.039 C 
HETATM    2  C4  UNL     1     -31.478   7.973   3.787  1.00 20.00     0.039 C 
HETATM    3  C5  UNL     1     -33.870   7.438   4.344  1.00 20.00     0.039 C 
HETATM    4  C7  UNL     1     -32.804   7.435   3.250  1.00 20.00     0.042 C 
ENDROOT
BRANCH   4   5
HETATM    5  N8  UNL     1     -33.246   8.324   2.168  1.00 20.00    -0.296 NA
HETATM    6  C1  UNL     1     -32.314   9.112   1.768  1.00 20.00     0.084 C 
BRANCH   6   7
HETATM    7  C6  UNL     1     -32.577  10.103   0.669  1.00 20.00     0.042 C 
HETATM    8  C2  UNL     1     -33.170   9.394  -0.533  1.00 20.00     0.010 C 
ENDBRANCH   6   7
ENDBRANCH   4   5
TORSDOF 2
ENDMDL
MODEL 6
REMARK VINA RESULT:      -4.0      1.914      4.727
REMARK  2 active torsions:
REMARK  status: ('A' for Active; 'I' for Inactive)
REMARK    1  A    between atoms: C1_1  and  C6_6 
REMARK    2  A    between atoms: C7_7  and  N8_8 
ROOT
HETATM    1  C3  UNL     1     -33.269   9.360  -0.492  1.00 20.00     0.039 C 
HETATM    2  C4  UNL     1     -32.576  10.734   1.495  1.00 20.00     0.039 C 
HETATM    3  C5  UNL     1     -31.143   8.813   0.736  1.00 20.00     0.039 C 
HETATM    4  C7  UNL     1     -32.571   9.340   0.867  1.00 20.00     0.042 C 
ENDROOT
BRANCH   4   5
HETATM    5  N8  UNL     1     -33.317   8.442   1.759  1.00 20.00    -0.296 NA
HETATM    6  C1  UNL     1     -32.557   7.592   2.348  1.00 20.00     0.084 C 
BRANCH   6   7
HETATM    7  C6  UNL     1     -33.140   6.582   3.297  1.00 20.00     0.042 C 
HETATM    8  C2  UNL     1     -33.640   7.278   4.548  1.00 20.00     0.010 C 
ENDBRANCH   6   7
ENDBRANCH   4   5
TORSDOF 2
ENDMDL
MODEL 7
REMARK VINA RESULT:      -3.8      1.294      4.393
REMARK  2 active torsions:
REMARK  status: ('A' for Active; 'I' for Inactive)
REMARK    1  A    between atoms: C1_1  and  C6_6 
REMARK    2  A    between atoms: C7_7  and  N8_8 
ROOT
HETATM    1  C3  UNL     1     -31.351   8.692   3.104  1.00 20.00     0.039 C 
HETATM    2  C4  UNL     1     -31.320   8.464   0.601  1.00 20.00     0.039 C 
HETATM    3  C5  UNL     1     -32.838  10.147   1.688  1.00 20.00     0.039 C 
HETATM    4  C7  UNL     1     -32.183   8.773   1.824  1.00 20.00     0.042 C 
ENDROOT
BRANCH   4   5
HETATM    5  N8  UNL     1     -33.243   7.758   1.895  1.00 20.00    -0.296 NA
HETATM    6  C1  UNL     1     -33.079   6.946   2.876  1.00 20.00     0.084 C 
BRANCH   6   7
HETATM    7  C6  UNL     1     -34.060   5.831   3.110  1.00 20.00     0.042 C 
HETATM    8  C2  UNL     1     -34.617   5.920   4.517  1.00 20.00     0.010 C 
ENDBRANCH   6   7
ENDBRANCH   4   5
TORSDOF 2
ENDMDL
MODEL 8
REMARK VINA RESULT:      -3.3     11.338     12.018
REMARK  2 active torsions:
REMARK  status: ('A' for Active; 'I' for Inactive)
REMARK    1  A    between atoms: C1_1  and  C6_6 
REMARK    2  A    between atoms: C7_7  and  N8_8 
ROOT
HETATM    1  C3  UNL     1     -35.462  13.935  -4.710  1.00 20.00     0.039 C 
HETATM    2  C4  UNL     1     -34.527  16.032  -5.731  1.00 20.00     0.039 C 
HETATM    3  C5  UNL     1     -33.033  14.512  -4.400  1.00 20.00     0.039 C 
HETATM    4  C7  UNL     1     -34.448  15.067  -4.548  1.00 20.00     0.042 C 
ENDROOT
BRANCH   4   5
HETATM    5  N8  UNL     1     -34.783  15.819  -3.331  1.00 20.00    -0.296 NA
HETATM    6  C1  UNL     1     -33.779  16.471  -2.866  1.00 20.00     0.084 C 
BRANCH   6   7
HETATM    7  C6  UNL     1     -33.924  17.297  -1.618  1.00 20.00     0.042 C 
HETATM    8  C2  UNL     1     -35.283  17.051  -0.992  1.00 20.00     0.010 C 
ENDBRANCH   6   7
ENDBRANCH   4   5
TORSDOF 2
ENDMDL
MODEL 9
REMARK VINA RESULT:      -3.3     11.312     11.984
REMARK  2 active torsions:
REMARK  status: ('A' for Active; 'I' for Inactive)
REMARK    1  A    between atoms: C1_1  and  C6_6 
REMARK    2  A    between atoms: C7_7  and  N8_8 
ROOT
HETATM    1  C3  UNL     1     -34.482  15.906  -5.823  1.00 20.00     0.039 C 
HETATM    2  C4  UNL     1     -33.015  14.445  -4.397  1.00 20.00     0.039 C 
HETATM    3  C5  UNL     1     -35.431  13.844  -4.740  1.00 20.00     0.039 C 
HETATM    4  C7  UNL     1     -34.429  14.988  -4.602  1.00 20.00     0.042 C 
ENDROOT
BRANCH   4   5
HETATM    5  N8  UNL     1     -34.785  15.777  -3.414  1.00 20.00    -0.296 NA
HETATM    6  C1  UNL     1     -33.779  16.406  -2.923  1.00 20.00     0.084 C 
BRANCH   6   7
HETATM    7  C6  UNL     1     -33.944  17.263  -1.699  1.00 20.00     0.042 C 
HETATM    8  C2  UNL     1     -35.309  17.027  -1.085  1.00 20.00     0.010 C 
ENDBRANCH   6   7
ENDBRANCH   4   5
TORSDOF 2
ENDMDL
