MODEL 1
REMARK VINA RESULT:      -4.9      0.000      0.000
REMARK  1 active torsions:
REMARK  status: ('A' for Active; 'I' for Inactive)
REMARK    1  A    between atoms: C1_1  and  C5_5 
ROOT
HETATM    1  C2  UNL     1     -34.553  16.020  -3.145  1.00 20.00     0.006 C 
HETATM    2  C3  UNL     1     -33.549  16.882  -3.925  1.00 20.00     0.006 C 
HETATM    3  C4  UNL     1     -33.128  14.620  -4.428  1.00 20.00     0.011 C 
HETATM    4  C5  UNL     1     -35.362  14.952  -5.263  1.00 20.00     0.059 C 
HETATM    5  C6  UNL     1     -34.579  14.708  -3.950  1.00 20.00    -0.003 C 
HETATM    6  C7  UNL     1     -33.178  15.985  -5.123  1.00 20.00    -0.006 C 
HETATM    7  C8  UNL     1     -34.373  15.804  -6.117  1.00 20.00    -0.034 C 
HETATM    8  C9  UNL     1     -33.880  15.110  -7.405  1.00 20.00     0.016 C 
HETATM    9  C10 UNL     1     -35.020  17.132  -6.544  1.00 20.00     0.016 C 
ENDROOT
BRANCH   4  10
HETATM   10  C1  UNL     1     -35.776  13.649  -5.882  1.00 20.00     0.236 C 
HETATM   11  O11 UNL     1     -35.886  12.604  -5.250  1.00 20.00    -0.306 OA
ENDBRANCH   4  10
TORSDOF 1
ENDMDL
MODEL 2
REMARK VINA RESULT:      -4.4     11.488     12.891
REMARK  1 active torsions:
REMARK  status: ('A' for Active; 'I' for Inactive)
REMARK    1  A    between atoms: C1_1  and  C5_5 
ROOT
HETATM    1  C2  UNL     1     -33.758   6.136   5.840  1.00 20.00     0.006 C 
HETATM    2  C3  UNL     1     -34.704   5.131   5.165  1.00 20.00     0.006 C 
HETATM    3  C4  UNL     1     -35.052   7.244   4.185  1.00 20.00     0.011 C 
HETATM    4  C5  UNL     1     -32.759   6.761   3.628  1.00 20.00     0.059 C 
HETATM    5  C6  UNL     1     -33.648   7.260   4.793  1.00 20.00    -0.003 C 
HETATM    6  C7  UNL     1     -34.960   5.767   3.784  1.00 20.00    -0.006 C 
HETATM    7  C8  UNL     1     -33.683   5.749   2.880  1.00 20.00    -0.034 C 
HETATM    8  C9  UNL     1     -34.056   6.169   1.442  1.00 20.00     0.016 C 
HETATM    9  C10 UNL     1     -33.019   4.366   2.786  1.00 20.00     0.016 C 
ENDROOT
BRANCH   4  10
HETATM   10  C1  UNL     1     -32.277   7.914   2.798  1.00 20.00     0.236 C 
HETATM   11  O11 UNL     1     -31.298   8.594   3.088  1.00 20.00    -0.306 OA
ENDBRANCH   4  10
TORSDOF 1
ENDMDL
MODEL 3
REMARK VINA RESULT:      -4.3      1.169      2.614
REMARK  1 active torsions:
REMARK  status: ('A' for Active; 'I' for Inactive)
REMARK    1  A    between atoms: C1_1  and  C5_5 
ROOT
HETATM    1  C2  UNL     1     -32.958  15.792  -5.483  1.00 20.00     0.006 C 
HETATM    2  C3  UNL     1     -33.413  17.160  -4.953  1.00 20.00     0.006 C 
HETATM    3  C4  UNL     1     -35.093  16.324  -6.376  1.00 20.00     0.011 C 
HETATM    4  C5  UNL     1     -35.033  14.700  -4.599  1.00 20.00     0.059 C 
HETATM    5  C6  UNL     1     -34.284  15.121  -5.886  1.00 20.00    -0.003 C 
HETATM    6  C7  UNL     1     -34.950  17.077  -5.048  1.00 20.00    -0.006 C 
HETATM    7  C8  UNL     1     -35.550  16.057  -4.025  1.00 20.00    -0.034 C 
HETATM    8  C9  UNL     1     -37.088  16.192  -3.994  1.00 20.00     0.016 C 
HETATM    9  C10 UNL     1     -35.052  16.270  -2.586  1.00 20.00     0.016 C 
ENDROOT
BRANCH   4  10
HETATM   10  C1  UNL     1     -36.102  13.695  -4.912  1.00 20.00     0.236 C 
HETATM   11  O11 UNL     1     -35.874  12.601  -5.417  1.00 20.00    -0.306 OA
ENDBRANCH   4  10
TORSDOF 1
ENDMDL
MODEL 4
REMARK VINA RESULT:      -4.3      1.138      1.941
REMARK  1 active torsions:
REMARK  status: ('A' for Active; 'I' for Inactive)
REMARK    1  A    between atoms: C1_1  and  C5_5 
ROOT
HETATM    1  C2  UNL     1     -35.948  17.437  -4.426  1.00 20.00     0.006 C 
HETATM    2  C3  UNL     1     -34.479  17.881  -4.356  1.00 20.00     0.006 C 
HETATM    3  C4  UNL     1     -34.803  16.152  -2.790  1.00 20.00     0.011 C 
HETATM    4  C5  UNL     1     -35.265  15.071  -4.892  1.00 20.00     0.059 C 
HETATM    5  C6  UNL     1     -35.905  16.013  -3.843  1.00 20.00    -0.003 C 
HETATM    6  C7  UNL     1     -33.763  16.630  -3.810  1.00 20.00    -0.006 C 
HETATM    7  C8  UNL     1     -33.753  15.457  -4.845  1.00 20.00    -0.034 C 
HETATM    8  C9  UNL     1     -32.822  14.330  -4.348  1.00 20.00     0.016 C 
HETATM    9  C10 UNL     1     -33.249  15.873  -6.236  1.00 20.00     0.016 C 
ENDROOT
BRANCH   4  10
HETATM   10  C1  UNL     1     -35.565  13.637  -4.569  1.00 20.00     0.236 C 
HETATM   11  O11 UNL     1     -35.912  12.813  -5.408  1.00 20.00    -0.306 OA
ENDBRANCH   4  10
TORSDOF 1
ENDMDL
MODEL 5
REMARK VINA RESULT:      -4.1      1.644      2.680
REMARK  1 active torsions:
REMARK  status: ('A' for Active; 'I' for Inactive)
REMARK    1  A    between atoms: C1_1  and  C5_5 
ROOT
HETATM    1  C2  UNL     1     -34.940  16.700  -1.805  1.00 20.00     0.006 C 
HETATM    2  C3  UNL     1     -36.056  17.365  -2.624  1.00 20.00     0.006 C 
HETATM    3  C4  UNL     1     -34.027  17.633  -3.788  1.00 20.00     0.011 C 
HETATM    4  C5  UNL     1     -34.313  15.243  -3.745  1.00 20.00     0.059 C 
HETATM    5  C6  UNL     1     -33.853  16.428  -2.862  1.00 20.00    -0.003 C 
HETATM    6  C7  UNL     1     -35.503  17.326  -4.062  1.00 20.00    -0.006 C 
HETATM    7  C8  UNL     1     -35.436  15.869  -4.629  1.00 20.00    -0.034 C 
HETATM    8  C9  UNL     1     -35.112  15.910  -6.138  1.00 20.00     0.016 C 
HETATM    9  C10 UNL     1     -36.754  15.092  -4.475  1.00 20.00     0.016 C 
ENDROOT
BRANCH   4  10
HETATM   10  C1  UNL     1     -33.153  14.668  -4.504  1.00 20.00     0.236 C 
HETATM   11  O11 UNL     1     -32.574  13.638  -4.177  1.00 20.00    -0.306 OA
ENDBRANCH   4  10
TORSDOF 1
ENDMDL
MODEL 6
REMARK VINA RESULT:      -4.1      2.297      3.761
REMARK  1 active torsions:
REMARK  status: ('A' for Active; 'I' for Inactive)
REMARK    1  A    between atoms: C1_1  and  C5_5 
ROOT
HETATM    1  C2  UNL     1     -34.572  14.635  -6.348  1.00 20.00     0.006 C 
HETATM    2  C3  UNL     1     -35.166  13.868  -5.157  1.00 20.00     0.006 C 
HETATM    3  C4  UNL     1     -33.077  14.737  -4.506  1.00 20.00     0.011 C 
HETATM    4  C5  UNL     1     -34.365  16.718  -4.970  1.00 20.00     0.059 C 
HETATM    5  C6  UNL     1     -33.570  15.592  -5.675  1.00 20.00    -0.003 C 
HETATM    6  C7  UNL     1     -34.487  14.530  -3.942  1.00 20.00    -0.006 C 
HETATM    7  C8  UNL     1     -34.973  16.001  -3.724  1.00 20.00    -0.034 C 
HETATM    8  C9  UNL     1     -34.454  16.527  -2.368  1.00 20.00     0.016 C 
HETATM    9  C10 UNL     1     -36.504  16.142  -3.702  1.00 20.00     0.016 C 
ENDROOT
BRANCH   4  10
HETATM   10  C1  UNL     1     -33.471  17.882  -4.659  1.00 20.00     0.236 C 
HETATM   11  O11 UNL     1     -33.723  19.036  -4.991  1.00 20.00    -0.306 OA
ENDBRANCH   4  10
TORSDOF 1
ENDMDL
MODEL 7
REMARK VINA RESULT:      -4.0      1.211      3.031
REMARK  1 active torsions:
REMARK  status: ('A' for Active; 'I' for Inactive)
REMARK    1  A    between atoms: C1_1  and  C5_5 
ROOT
HETATM    1  C2  UNL     1     -34.525  15.287  -7.448  1.00 20.00     0.006 C 
HETATM    2  C3  UNL     1     -33.362  15.930  -6.676  1.00 20.00     0.006 C 
HETATM    3  C4  UNL     1     -35.356  17.011  -6.043  1.00 20.00     0.011 C 
HETATM    4  C5  UNL     1     -35.714  14.746  -5.309  1.00 20.00     0.059 C 
HETATM    5  C6  UNL     1     -35.748  15.632  -6.578  1.00 20.00    -0.003 C 
HETATM    6  C7  UNL     1     -34.051  16.501  -5.421  1.00 20.00    -0.006 C 
HETATM    7  C8  UNL     1     -34.562  15.373  -4.464  1.00 20.00    -0.034 C 
HETATM    8  C9  UNL     1     -35.018  15.992  -3.125  1.00 20.00     0.016 C 
HETATM    9  C10 UNL     1     -33.490  14.322  -4.131  1.00 20.00     0.016 C 
ENDROOT
BRANCH   4  10
HETATM   10  C1  UNL     1     -37.057  14.729  -4.640  1.00 20.00     0.236 C 
HETATM   11  O11 UNL     1     -37.936  13.917  -4.908  1.00 20.00    -0.306 OA
ENDBRANCH   4  10
TORSDOF 1
ENDMDL
MODEL 8
REMARK VINA RESULT:      -3.9      1.923      3.415
REMARK  1 active torsions:
REMARK  status: ('A' for Active; 'I' for Inactive)
REMARK    1  A    between atoms: C1_1  and  C5_5 
ROOT
HETATM    1  C2  UNL     1     -36.250  13.582  -5.260  1.00 20.00     0.006 C 
HETATM    2  C3  UNL     1     -35.119  13.769  -6.283  1.00 20.00     0.006 C 
HETATM    3  C4  UNL     1     -36.151  15.857  -5.932  1.00 20.00     0.011 C 
HETATM    4  C5  UNL     1     -35.253  15.327  -3.762  1.00 20.00     0.059 C 
HETATM    5  C6  UNL     1     -36.443  15.002  -4.697  1.00 20.00    -0.003 C 
HETATM    6  C7  UNL     1     -34.753  15.259  -6.128  1.00 20.00    -0.006 C 
HETATM    7  C8  UNL     1     -34.070  15.559  -4.753  1.00 20.00    -0.034 C 
HETATM    8  C9  UNL     1     -33.510  16.997  -4.751  1.00 20.00     0.016 C 
HETATM    9  C10 UNL     1     -32.895  14.619  -4.436  1.00 20.00     0.016 C 
ENDROOT
BRANCH   4  10
HETATM   10  C1  UNL     1     -35.579  16.493  -2.876  1.00 20.00     0.236 C 
HETATM   11  O11 UNL     1     -35.267  16.552  -1.692  1.00 20.00    -0.306 OA
ENDBRANCH   4  10
TORSDOF 1
ENDMDL
MODEL 9
REMARK VINA RESULT:      -3.9      2.063      3.205
REMARK  1 active torsions:
REMARK  status: ('A' for Active; 'I' for Inactive)
REMARK    1  A    between atoms: C1_1  and  C5_5 
ROOT
HETATM    1  C2  UNL     1     -32.949  15.536  -5.283  1.00 20.00     0.006 C 
HETATM    2  C3  UNL     1     -33.965  14.961  -6.282  1.00 20.00     0.006 C 
HETATM    3  C4  UNL     1     -34.431  14.064  -4.154  1.00 20.00     0.011 C 
HETATM    4  C5  UNL     1     -34.794  16.423  -3.837  1.00 20.00     0.059 C 
HETATM    5  C6  UNL     1     -33.664  15.369  -3.930  1.00 20.00    -0.003 C 
HETATM    6  C7  UNL     1     -35.168  14.602  -5.387  1.00 20.00    -0.006 C 
HETATM    7  C8  UNL     1     -35.878  15.874  -4.816  1.00 20.00    -0.034 C 
HETATM    8  C9  UNL     1     -37.205  15.470  -4.137  1.00 20.00     0.016 C 
HETATM    9  C10 UNL     1     -36.225  16.915  -5.892  1.00 20.00     0.016 C 
ENDROOT
BRANCH   4  10
HETATM   10  C1  UNL     1     -35.246  16.591  -2.417  1.00 20.00     0.236 C 
HETATM   11  O11 UNL     1     -34.479  16.788  -1.481  1.00 20.00    -0.306 OA
ENDBRANCH   4  10
TORSDOF 1
ENDMDL
