MODEL 1
REMARK VINA RESULT:      -4.7      0.000      0.000
REMARK  3 active torsions:
REMARK  status: ('A' for Active; 'I' for Inactive)
REMARK    1  A    between atoms: C1_1  and  C7_7 
REMARK    2  A    between atoms: C6_6  and  C7_7 
REMARK    3  A    between atoms: C6_6  and  C8_8 
ROOT
HETATM    1  C6  UNL     1     -33.536   7.215   4.217  1.00 20.00     0.019 C 
ENDROOT
BRANCH   1   2
HETATM    2  C7  UNL     1     -32.432   7.443   3.169  1.00 20.00     0.043 C 
HETATM    3  C2  UNL     1     -31.283   8.253   3.770  1.00 20.00     0.017 C 
BRANCH   2   4
HETATM    4  C1  UNL     1     -32.955   8.229   1.986  1.00 20.00     0.235 C 
HETATM    5  O9  UNL     1     -32.377   9.206   1.519  1.00 20.00    -0.306 OA
ENDBRANCH   2   4
ENDBRANCH   1   2
BRANCH   1   6
HETATM    6  C8  UNL     1     -34.276   5.845   4.181  1.00 20.00    -0.051 C 
HETATM    7  C3  UNL     1     -33.529   4.801   3.337  1.00 20.00     0.014 C 
HETATM    8  C4  UNL     1     -34.481   5.292   5.602  1.00 20.00     0.014 C 
HETATM    9  C5  UNL     1     -35.664   6.074   3.549  1.00 20.00     0.014 C 
ENDBRANCH   1   6
TORSDOF 3
ENDMDL
MODEL 2
REMARK VINA RESULT:      -4.7      0.035      1.440
REMARK  3 active torsions:
REMARK  status: ('A' for Active; 'I' for Inactive)
REMARK    1  A    between atoms: C1_1  and  C7_7 
REMARK    2  A    between atoms: C6_6  and  C7_7 
REMARK    3  A    between atoms: C6_6  and  C8_8 
ROOT
HETATM    1  C6  UNL     1     -33.501   7.214   4.244  1.00 20.00     0.019 C 
ENDROOT
BRANCH   1   2
HETATM    2  C7  UNL     1     -32.415   7.445   3.178  1.00 20.00     0.043 C 
HETATM    3  C2  UNL     1     -31.264   8.269   3.757  1.00 20.00     0.017 C 
BRANCH   2   4
HETATM    4  C1  UNL     1     -32.962   8.219   1.998  1.00 20.00     0.235 C 
HETATM    5  O9  UNL     1     -32.402   9.200   1.518  1.00 20.00    -0.306 OA
ENDBRANCH   2   4
ENDBRANCH   1   2
BRANCH   1   6
HETATM    6  C8  UNL     1     -34.297   5.878   4.168  1.00 20.00    -0.051 C 
HETATM    7  C3  UNL     1     -35.691   6.064   3.550  1.00 20.00     0.014 C 
HETATM    8  C4  UNL     1     -33.524   4.821   3.361  1.00 20.00     0.014 C 
HETATM    9  C5  UNL     1     -34.473   5.351   5.607  1.00 20.00     0.014 C 
ENDBRANCH   1   6
TORSDOF 3
ENDMDL
MODEL 3
REMARK VINA RESULT:      -4.7      0.085      1.441
REMARK  3 active torsions:
REMARK  status: ('A' for Active; 'I' for Inactive)
REMARK    1  A    between atoms: C1_1  and  C7_7 
REMARK    2  A    between atoms: C6_6  and  C7_7 
REMARK    3  A    between atoms: C6_6  and  C8_8 
ROOT
HETATM    1  C6  UNL     1     -33.513   7.224   4.230  1.00 20.00     0.019 C 
ENDROOT
BRANCH   1   2
HETATM    2  C7  UNL     1     -32.435   7.445   3.155  1.00 20.00     0.043 C 
HETATM    3  C2  UNL     1     -31.255   8.227   3.733  1.00 20.00     0.017 C 
BRANCH   2   4
HETATM    4  C1  UNL     1     -32.975   8.254   1.996  1.00 20.00     0.235 C 
HETATM    5  O9  UNL     1     -32.303   9.068   1.371  1.00 20.00    -0.306 OA
ENDBRANCH   2   4
ENDBRANCH   1   2
BRANCH   1   6
HETATM    6  C8  UNL     1     -34.292   5.877   4.188  1.00 20.00    -0.051 C 
HETATM    7  C3  UNL     1     -34.470   5.262   5.584  1.00 20.00     0.014 C 
HETATM    8  C4  UNL     1     -35.675   6.060   3.538  1.00 20.00     0.014 C 
HETATM    9  C5  UNL     1     -33.481   4.889   3.324  1.00 20.00     0.014 C 
ENDBRANCH   1   6
TORSDOF 3
ENDMDL
MODEL 4
REMARK VINA RESULT:      -4.4      2.146      4.522
REMARK  3 active torsions:
REMARK  status: ('A' for Active; 'I' for Inactive)
REMARK    1  A    between atoms: C1_1  and  C7_7 
REMARK    2  A    between atoms: C6_6  and  C7_7 
REMARK    3  A    between atoms: C6_6  and  C8_8 
ROOT
HETATM    1  C6  UNL     1     -33.372   8.343   1.878  1.00 20.00     0.019 C 
ENDROOT
BRANCH   1   2
HETATM    2  C7  UNL     1     -32.540   7.370   2.734  1.00 20.00     0.043 C 
HETATM    3  C2  UNL     1     -33.214   5.999   2.792  1.00 20.00     0.017 C 
BRANCH   2   4
HETATM    4  C1  UNL     1     -32.417   7.863   4.159  1.00 20.00     0.235 C 
HETATM    5  O9  UNL     1     -33.119   7.450   5.077  1.00 20.00    -0.306 OA
ENDBRANCH   2   4
ENDBRANCH   1   2
BRANCH   1   6
HETATM    6  C8  UNL     1     -32.595   9.265   0.893  1.00 20.00    -0.051 C 
HETATM    7  C3  UNL     1     -33.215   9.272  -0.512  1.00 20.00     0.014 C 
HETATM    8  C4  UNL     1     -32.530  10.708   1.424  1.00 20.00     0.014 C 
HETATM    9  C5  UNL     1     -31.153   8.728   0.782  1.00 20.00     0.014 C 
ENDBRANCH   1   6
TORSDOF 3
ENDMDL
MODEL 5
REMARK VINA RESULT:      -4.4      2.145      4.512
REMARK  3 active torsions:
REMARK  status: ('A' for Active; 'I' for Inactive)
REMARK    1  A    between atoms: C1_1  and  C7_7 
REMARK    2  A    between atoms: C6_6  and  C7_7 
REMARK    3  A    between atoms: C6_6  and  C8_8 
ROOT
HETATM    1  C6  UNL     1     -33.335   8.398   1.891  1.00 20.00     0.019 C 
ENDROOT
BRANCH   1   2
HETATM    2  C7  UNL     1     -32.536   7.373   2.715  1.00 20.00     0.043 C 
HETATM    3  C2  UNL     1     -33.276   6.037   2.771  1.00 20.00     0.017 C 
BRANCH   2   4
HETATM    4  C1  UNL     1     -32.358   7.839   4.144  1.00 20.00     0.235 C 
HETATM    5  O9  UNL     1     -33.094   7.493   5.062  1.00 20.00    -0.306 OA
ENDBRANCH   2   4
ENDBRANCH   1   2
BRANCH   1   6
HETATM    6  C8  UNL     1     -32.541   9.254   0.860  1.00 20.00    -0.051 C 
HETATM    7  C3  UNL     1     -31.098   8.759   0.679  1.00 20.00     0.014 C 
HETATM    8  C4  UNL     1     -33.247   9.266  -0.507  1.00 20.00     0.014 C 
HETATM    9  C5  UNL     1     -32.492  10.703   1.388  1.00 20.00     0.014 C 
ENDBRANCH   1   6
TORSDOF 3
ENDMDL
MODEL 6
REMARK VINA RESULT:      -4.3      2.141      4.513
REMARK  3 active torsions:
REMARK  status: ('A' for Active; 'I' for Inactive)
REMARK    1  A    between atoms: C1_1  and  C7_7 
REMARK    2  A    between atoms: C6_6  and  C7_7 
REMARK    3  A    between atoms: C6_6  and  C8_8 
ROOT
HETATM    1  C6  UNL     1     -33.343   8.369   1.872  1.00 20.00     0.019 C 
ENDROOT
BRANCH   1   2
HETATM    2  C7  UNL     1     -32.539   7.366   2.719  1.00 20.00     0.043 C 
HETATM    3  C2  UNL     1     -33.263   6.020   2.784  1.00 20.00     0.017 C 
BRANCH   2   4
HETATM    4  C1  UNL     1     -32.383   7.852   4.143  1.00 20.00     0.235 C 
HETATM    5  O9  UNL     1     -33.114   7.493   5.061  1.00 20.00    -0.306 OA
ENDBRANCH   2   4
ENDBRANCH   1   2
BRANCH   1   6
HETATM    6  C8  UNL     1     -32.539   9.279   0.897  1.00 20.00    -0.051 C 
HETATM    7  C3  UNL     1     -32.458  10.732   1.389  1.00 20.00     0.014 C 
HETATM    8  C4  UNL     1     -31.114   8.738   0.686  1.00 20.00     0.014 C 
HETATM    9  C5  UNL     1     -33.264   9.269  -0.464  1.00 20.00     0.014 C 
ENDBRANCH   1   6
TORSDOF 3
ENDMDL
MODEL 7
REMARK VINA RESULT:      -4.3      1.370      1.789
REMARK  3 active torsions:
REMARK  status: ('A' for Active; 'I' for Inactive)
REMARK    1  A    between atoms: C1_1  and  C7_7 
REMARK    2  A    between atoms: C6_6  and  C7_7 
REMARK    3  A    between atoms: C6_6  and  C8_8 
ROOT
HETATM    1  C6  UNL     1     -33.154   6.187   3.124  1.00 20.00     0.019 C 
ENDROOT
BRANCH   1   2
HETATM    2  C7  UNL     1     -32.890   7.693   2.943  1.00 20.00     0.043 C 
HETATM    3  C2  UNL     1     -32.904   8.064   1.460  1.00 20.00     0.017 C 
BRANCH   2   4
HETATM    4  C1  UNL     1     -31.530   8.079   3.482  1.00 20.00     0.235 C 
HETATM    5  O9  UNL     1     -31.374   8.759   4.491  1.00 20.00    -0.306 OA
ENDBRANCH   2   4
ENDBRANCH   1   2
BRANCH   1   6
HETATM    6  C8  UNL     1     -34.250   5.777   4.151  1.00 20.00    -0.051 C 
HETATM    7  C3  UNL     1     -34.243   4.268   4.439  1.00 20.00     0.014 C 
HETATM    8  C4  UNL     1     -34.080   6.545   5.474  1.00 20.00     0.014 C 
HETATM    9  C5  UNL     1     -35.622   6.148   3.552  1.00 20.00     0.014 C 
ENDBRANCH   1   6
TORSDOF 3
ENDMDL
MODEL 8
REMARK VINA RESULT:      -4.1      1.718      3.092
REMARK  3 active torsions:
REMARK  status: ('A' for Active; 'I' for Inactive)
REMARK    1  A    between atoms: C1_1  and  C7_7 
REMARK    2  A    between atoms: C6_6  and  C7_7 
REMARK    3  A    between atoms: C6_6  and  C8_8 
ROOT
HETATM    1  C6  UNL     1     -33.416   8.443   2.153  1.00 20.00     0.019 C 
ENDROOT
BRANCH   1   2
HETATM    2  C7  UNL     1     -32.418   9.310   1.365  1.00 20.00     0.043 C 
HETATM    3  C2  UNL     1     -32.727  10.794   1.562  1.00 20.00     0.017 C 
BRANCH   2   4
HETATM    4  C1  UNL     1     -32.507   9.034  -0.120  1.00 20.00     0.235 C 
HETATM    5  O9  UNL     1     -33.519   9.238  -0.784  1.00 20.00    -0.306 OA
ENDBRANCH   2   4
ENDBRANCH   1   2
BRANCH   1   6
HETATM    6  C8  UNL     1     -32.828   7.488   3.233  1.00 20.00    -0.051 C 
HETATM    7  C3  UNL     1     -33.671   7.470   4.517  1.00 20.00     0.014 C 
HETATM    8  C4  UNL     1     -32.702   6.054   2.691  1.00 20.00     0.014 C 
HETATM    9  C5  UNL     1     -31.414   7.992   3.591  1.00 20.00     0.014 C 
ENDBRANCH   1   6
TORSDOF 3
ENDMDL
MODEL 9
REMARK VINA RESULT:      -4.1      1.950      4.238
REMARK  3 active torsions:
REMARK  status: ('A' for Active; 'I' for Inactive)
REMARK    1  A    between atoms: C1_1  and  C7_7 
REMARK    2  A    between atoms: C6_6  and  C7_7 
REMARK    3  A    between atoms: C6_6  and  C8_8 
ROOT
HETATM    1  C6  UNL     1     -33.297   7.652   2.096  1.00 20.00     0.019 C 
ENDROOT
BRANCH   1   2
HETATM    2  C7  UNL     1     -33.039   6.665   3.249  1.00 20.00     0.043 C 
HETATM    3  C2  UNL     1     -33.239   5.226   2.776  1.00 20.00     0.017 C 
BRANCH   2   4
HETATM    4  C1  UNL     1     -34.005   6.894   4.391  1.00 20.00     0.235 C 
HETATM    5  O9  UNL     1     -33.650   7.235   5.515  1.00 20.00    -0.306 OA
ENDBRANCH   2   4
ENDBRANCH   1   2
BRANCH   1   6
HETATM    6  C8  UNL     1     -32.209   8.735   1.832  1.00 20.00    -0.051 C 
HETATM    7  C3  UNL     1     -31.384   8.438   0.571  1.00 20.00     0.014 C 
HETATM    8  C4  UNL     1     -32.842  10.132   1.704  1.00 20.00     0.014 C 
HETATM    9  C5  UNL     1     -31.253   8.750   3.042  1.00 20.00     0.014 C 
ENDBRANCH   1   6
TORSDOF 3
ENDMDL
