MODEL 1
REMARK VINA RESULT:      -3.7      0.000      0.000
REMARK  2 active torsions:
REMARK  status: ('A' for Active; 'I' for Inactive)
REMARK    1  A    between atoms: C1_1  and  S9_9 
REMARK    2  A    between atoms: C2_2  and  N7_7 
ROOT
HETATM    1  C1  UNL     1     -33.139   8.142   1.890  1.00 20.00     0.102 C 
HETATM    2  C2  UNL     1     -32.756   7.731   3.113  1.00 20.00     0.011 C 
HETATM    3  C3  UNL     1     -31.412   8.169   3.642  1.00 20.00     0.068 C 
ENDROOT
BRANCH   2   4
HETATM    4  N7  UNL     1     -33.464   6.932   3.970  1.00 20.00    -0.393 N 
HETATM    5  C4  UNL     1     -33.628   7.284   5.371  1.00 20.00     0.148 C 
HETATM    6  C5  UNL     1     -34.287   5.838   3.476  1.00 20.00     0.148 C 
ENDBRANCH   2   4
BRANCH   1   7
HETATM    7  S9  UNL     1     -32.104   9.191   0.876  1.00 20.00     0.036 S 
HETATM    8  C6  UNL     1     -32.744  10.770   1.477  1.00 20.00     0.132 C 
HETATM    9  O8  UNL     1     -32.586   8.996  -0.530  1.00 20.00    -0.254 OA
ENDBRANCH   1   7
TORSDOF 2
ENDMDL
MODEL 2
REMARK VINA RESULT:      -3.5     10.102     10.485
REMARK  2 active torsions:
REMARK  status: ('A' for Active; 'I' for Inactive)
REMARK    1  A    between atoms: C1_1  and  S9_9 
REMARK    2  A    between atoms: C2_2  and  N7_7 
ROOT
HETATM    1  C1  UNL     1     -35.743  15.154  -4.333  1.00 20.00     0.102 C 
HETATM    2  C2  UNL     1     -34.649  15.606  -3.690  1.00 20.00     0.011 C 
HETATM    3  C3  UNL     1     -33.288  15.159  -4.165  1.00 20.00     0.068 C 
ENDROOT
BRANCH   2   4
HETATM    4  N7  UNL     1     -34.620  16.455  -2.617  1.00 20.00    -0.393 N 
HETATM    5  C4  UNL     1     -33.391  17.121  -2.214  1.00 20.00     0.148 C 
HETATM    6  C5  UNL     1     -35.847  16.923  -1.989  1.00 20.00     0.148 C 
ENDBRANCH   2   4
BRANCH   1   7
HETATM    7  S9  UNL     1     -35.630  14.042  -5.729  1.00 20.00     0.036 S 
HETATM    8  C6  UNL     1     -37.118  14.614  -6.579  1.00 20.00     0.132 C 
HETATM    9  O8  UNL     1     -35.902  12.675  -5.178  1.00 20.00    -0.254 OA
ENDBRANCH   1   7
TORSDOF 2
ENDMDL
MODEL 3
REMARK VINA RESULT:      -3.5      3.048      4.310
REMARK  2 active torsions:
REMARK  status: ('A' for Active; 'I' for Inactive)
REMARK    1  A    between atoms: C1_1  and  S9_9 
REMARK    2  A    between atoms: C2_2  and  N7_7 
ROOT
HETATM    1  C1  UNL     1     -33.567   7.499   2.944  1.00 20.00     0.102 C 
HETATM    2  C2  UNL     1     -32.490   8.231   2.601  1.00 20.00     0.011 C 
HETATM    3  C3  UNL     1     -31.296   8.248   3.524  1.00 20.00     0.068 C 
ENDROOT
BRANCH   2   4
HETATM    4  N7  UNL     1     -32.341   8.993   1.473  1.00 20.00    -0.393 N 
HETATM    5  C4  UNL     1     -32.974  10.297   1.353  1.00 20.00     0.148 C 
HETATM    6  C5  UNL     1     -31.354   8.655   0.459  1.00 20.00     0.148 C 
ENDBRANCH   2   4
BRANCH   1   7
HETATM    7  S9  UNL     1     -33.623   6.548   4.458  1.00 20.00     0.036 S 
HETATM    8  C6  UNL     1     -35.129   5.627   4.076  1.00 20.00     0.132 C 
HETATM    9  O8  UNL     1     -33.938   7.533   5.542  1.00 20.00    -0.254 OA
ENDBRANCH   1   7
TORSDOF 2
ENDMDL
MODEL 4
REMARK VINA RESULT:      -3.2     10.161     10.993
REMARK  2 active torsions:
REMARK  status: ('A' for Active; 'I' for Inactive)
REMARK    1  A    between atoms: C1_1  and  S9_9 
REMARK    2  A    between atoms: C2_2  and  N7_7 
ROOT
HETATM    1  C1  UNL     1     -35.495  15.307  -5.134  1.00 20.00     0.102 C 
HETATM    2  C2  UNL     1     -34.502  15.726  -4.327  1.00 20.00     0.011 C 
HETATM    3  C3  UNL     1     -33.232  14.913  -4.251  1.00 20.00     0.068 C 
ENDROOT
BRANCH   2   4
HETATM    4  N7  UNL     1     -34.503  16.843  -3.536  1.00 20.00    -0.393 N 
HETATM    5  C4  UNL     1     -33.639  16.943  -2.369  1.00 20.00     0.148 C 
HETATM    6  C5  UNL     1     -35.170  18.066  -3.955  1.00 20.00     0.148 C 
ENDBRANCH   2   4
BRANCH   1   7
HETATM    7  S9  UNL     1     -35.354  13.819  -6.116  1.00 20.00     0.036 S 
HETATM    8  C6  UNL     1     -36.577  14.271  -7.367  1.00 20.00     0.132 C 
HETATM    9  O8  UNL     1     -35.930  12.723  -5.273  1.00 20.00    -0.254 OA
ENDBRANCH   1   7
TORSDOF 2
ENDMDL
MODEL 5
REMARK VINA RESULT:      -3.2      2.108      2.702
REMARK  2 active torsions:
REMARK  status: ('A' for Active; 'I' for Inactive)
REMARK    1  A    between atoms: C1_1  and  S9_9 
REMARK    2  A    between atoms: C2_2  and  N7_7 
ROOT
HETATM    1  C1  UNL     1     -33.092   6.971   3.167  1.00 20.00     0.102 C 
HETATM    2  C2  UNL     1     -33.605   6.575   4.347  1.00 20.00     0.011 C 
HETATM    3  C3  UNL     1     -33.525   7.512   5.528  1.00 20.00     0.068 C 
ENDROOT
BRANCH   2   4
HETATM    4  N7  UNL     1     -34.213   5.379   4.618  1.00 20.00    -0.393 N 
HETATM    5  C4  UNL     1     -34.108   4.253   3.704  1.00 20.00     0.148 C 
HETATM    6  C5  UNL     1     -34.775   5.098   5.931  1.00 20.00     0.148 C 
ENDBRANCH   2   4
BRANCH   1   7
HETATM    7  S9  UNL     1     -32.322   8.571   2.957  1.00 20.00     0.036 S 
HETATM    8  C6  UNL     1     -32.374   8.599   1.151  1.00 20.00     0.132 C 
HETATM    9  O8  UNL     1     -30.896   8.391   3.381  1.00 20.00    -0.254 OA
ENDBRANCH   1   7
TORSDOF 2
ENDMDL
MODEL 6
REMARK VINA RESULT:      -3.1      9.986     10.381
REMARK  2 active torsions:
REMARK  status: ('A' for Active; 'I' for Inactive)
REMARK    1  A    between atoms: C1_1  and  S9_9 
REMARK    2  A    between atoms: C2_2  and  N7_7 
ROOT
HETATM    1  C1  UNL     1     -35.182  15.864  -3.176  1.00 20.00     0.102 C 
HETATM    2  C2  UNL     1     -34.915  16.761  -2.208  1.00 20.00     0.011 C 
HETATM    3  C3  UNL     1     -33.481  17.162  -1.960  1.00 20.00     0.068 C 
ENDROOT
BRANCH   2   4
HETATM    4  N7  UNL     1     -35.821  17.378  -1.388  1.00 20.00    -0.393 N 
HETATM    5  C4  UNL     1     -35.590  17.492   0.044  1.00 20.00     0.148 C 
HETATM    6  C5  UNL     1     -36.922  18.160  -1.931  1.00 20.00     0.148 C 
ENDBRANCH   2   4
BRANCH   1   7
HETATM    7  S9  UNL     1     -33.890  15.136  -4.175  1.00 20.00     0.036 S 
HETATM    8  C6  UNL     1     -34.469  15.764  -5.767  1.00 20.00     0.132 C 
HETATM    9  O8  UNL     1     -34.135  13.658  -4.137  1.00 20.00    -0.254 OA
ENDBRANCH   1   7
TORSDOF 2
ENDMDL
MODEL 7
REMARK VINA RESULT:      -3.1     10.311     11.145
REMARK  2 active torsions:
REMARK  status: ('A' for Active; 'I' for Inactive)
REMARK    1  A    between atoms: C1_1  and  S9_9 
REMARK    2  A    between atoms: C2_2  and  N7_7 
ROOT
HETATM    1  C1  UNL     1     -36.427  15.163  -4.582  1.00 20.00     0.102 C 
HETATM    2  C2  UNL     1     -36.345  16.163  -3.685  1.00 20.00     0.011 C 
HETATM    3  C3  UNL     1     -35.149  16.223  -2.767  1.00 20.00     0.068 C 
ENDROOT
BRANCH   2   4
HETATM    4  N7  UNL     1     -37.251  17.171  -3.494  1.00 20.00    -0.393 N 
HETATM    5  C4  UNL     1     -38.605  17.079  -4.018  1.00 20.00     0.148 C 
HETATM    6  C5  UNL     1     -36.990  18.255  -2.560  1.00 20.00     0.148 C 
ENDBRANCH   2   4
BRANCH   1   7
HETATM    7  S9  UNL     1     -35.161  13.907  -4.719  1.00 20.00     0.036 S 
HETATM    8  C6  UNL     1     -34.276  14.646  -6.110  1.00 20.00     0.132 C 
HETATM    9  O8  UNL     1     -35.863  12.678  -5.211  1.00 20.00    -0.254 OA
ENDBRANCH   1   7
TORSDOF 2
ENDMDL
MODEL 8
REMARK VINA RESULT:      -3.1      1.738      2.480
REMARK  2 active torsions:
REMARK  status: ('A' for Active; 'I' for Inactive)
REMARK    1  A    between atoms: C1_1  and  S9_9 
REMARK    2  A    between atoms: C2_2  and  N7_7 
ROOT
HETATM    1  C1  UNL     1     -33.401   7.565   3.402  1.00 20.00     0.102 C 
HETATM    2  C2  UNL     1     -33.590   6.246   3.598  1.00 20.00     0.011 C 
HETATM    3  C3  UNL     1     -33.010   5.271   2.603  1.00 20.00     0.068 C 
ENDROOT
BRANCH   2   4
HETATM    4  N7  UNL     1     -34.270   5.658   4.630  1.00 20.00    -0.393 N 
HETATM    5  C4  UNL     1     -34.615   4.245   4.601  1.00 20.00     0.148 C 
HETATM    6  C5  UNL     1     -34.460   6.345   5.899  1.00 20.00     0.148 C 
ENDBRANCH   2   4
BRANCH   1   7
HETATM    7  S9  UNL     1     -32.485   8.193   2.001  1.00 20.00     0.036 S 
HETATM    8  C6  UNL     1     -30.952   8.549   2.889  1.00 20.00     0.132 C 
HETATM    9  O8  UNL     1     -33.134   9.496   1.645  1.00 20.00    -0.254 OA
ENDBRANCH   1   7
TORSDOF 2
ENDMDL
MODEL 9
REMARK VINA RESULT:      -3.1     10.089     10.542
REMARK  2 active torsions:
REMARK  status: ('A' for Active; 'I' for Inactive)
REMARK    1  A    between atoms: C1_1  and  S9_9 
REMARK    2  A    between atoms: C2_2  and  N7_7 
ROOT
HETATM    1  C1  UNL     1     -34.868  15.802  -3.816  1.00 20.00     0.102 C 
HETATM    2  C2  UNL     1     -34.353  14.802  -4.556  1.00 20.00     0.011 C 
HETATM    3  C3  UNL     1     -32.903  14.428  -4.369  1.00 20.00     0.068 C 
ENDROOT
BRANCH   2   4
HETATM    4  N7  UNL     1     -35.010  14.053  -5.495  1.00 20.00    -0.393 N 
HETATM    5  C4  UNL     1     -36.391  13.639  -5.300  1.00 20.00     0.148 C 
HETATM    6  C5  UNL     1     -34.454  13.849  -6.824  1.00 20.00     0.148 C 
ENDBRANCH   2   4
BRANCH   1   7
HETATM    7  S9  UNL     1     -33.885  16.699  -2.621  1.00 20.00     0.036 S 
HETATM    8  C6  UNL     1     -35.200  16.946  -1.406  1.00 20.00     0.132 C 
HETATM    9  O8  UNL     1     -33.582  18.021  -3.258  1.00 20.00    -0.254 OA
ENDBRANCH   1   7
TORSDOF 2
ENDMDL
