MODEL 1
REMARK VINA RESULT:      -5.6      0.000      0.000
REMARK  2 active torsions:
REMARK  status: ('A' for Active; 'I' for Inactive)
REMARK    1  A    between atoms: C6_6  and  C10_10 
REMARK    2  A    between atoms: C7_7  and  C11_11 
ROOT
HETATM    1  C1  UNL     1     -32.417   9.683   1.326  1.00 20.00     0.059 C 
HETATM    2  C10 UNL     1     -31.300   8.805   1.649  1.00 20.00     0.128 C 
HETATM    3  N12 UNL     1     -33.287  10.402   1.051  1.00 20.00    -0.197 NA
ENDROOT
BRANCH   2   4
HETATM    4  C6  UNL     1     -31.922   7.711   2.515  1.00 20.00    -0.002 C 
HETATM    5  C2  UNL     1     -32.527   8.311   3.792  1.00 20.00     0.006 C 
HETATM    6  C4  UNL     1     -33.201   7.244   4.653  1.00 20.00     0.005 C 
HETATM    7  C7  UNL     1     -34.260   6.464   3.863  1.00 20.00    -0.011 C 
HETATM    8  C5  UNL     1     -33.654   5.864   2.587  1.00 20.00     0.005 C 
HETATM    9  C3  UNL     1     -32.981   6.931   1.726  1.00 20.00     0.006 C 
BRANCH   7  10
HETATM   10  C11 UNL     1     -34.883   5.371   4.730  1.00 20.00    -0.019 C 
HETATM   11  C8  UNL     1     -34.292   4.008   4.381  1.00 20.00     0.010 C 
HETATM   12  C9  UNL     1     -34.681   5.682   6.211  1.00 20.00     0.010 C 
ENDBRANCH   7  10
ENDBRANCH   2   4
TORSDOF 2
ENDMDL
MODEL 2
REMARK VINA RESULT:      -5.3     10.799     11.724
REMARK  2 active torsions:
REMARK  status: ('A' for Active; 'I' for Inactive)
REMARK    1  A    between atoms: C6_6  and  C10_10 
REMARK    2  A    between atoms: C7_7  and  C11_11 
ROOT
HETATM    1  C1  UNL     1     -34.578  14.798  -3.946  1.00 20.00     0.059 C 
HETATM    2  C10 UNL     1     -35.326  15.979  -3.534  1.00 20.00     0.128 C 
HETATM    3  N12 UNL     1     -34.003  13.854  -4.299  1.00 20.00    -0.197 NA
ENDROOT
BRANCH   2   4
HETATM    4  C6  UNL     1     -34.597  16.466  -2.283  1.00 20.00    -0.002 C 
HETATM    5  C2  UNL     1     -33.468  17.434  -2.657  1.00 20.00     0.006 C 
HETATM    6  C4  UNL     1     -32.755  17.976  -1.419  1.00 20.00     0.005 C 
HETATM    7  C7  UNL     1     -33.737  18.637  -0.443  1.00 20.00    -0.011 C 
HETATM    8  C5  UNL     1     -34.867  17.667  -0.069  1.00 20.00     0.005 C 
HETATM    9  C3  UNL     1     -35.579  17.126  -1.307  1.00 20.00     0.006 C 
BRANCH   7  10
HETATM   10  C11 UNL     1     -33.009  19.125   0.808  1.00 20.00    -0.019 C 
HETATM   11  C8  UNL     1     -33.666  18.562   2.065  1.00 20.00     0.010 C 
HETATM   12  C9  UNL     1     -31.532  18.739   0.754  1.00 20.00     0.010 C 
ENDBRANCH   7  10
ENDBRANCH   2   4
TORSDOF 2
ENDMDL
MODEL 3
REMARK VINA RESULT:      -5.3      2.328      4.907
REMARK  2 active torsions:
REMARK  status: ('A' for Active; 'I' for Inactive)
REMARK    1  A    between atoms: C6_6  and  C10_10 
REMARK    2  A    between atoms: C7_7  and  C11_11 
ROOT
HETATM    1  C1  UNL     1     -34.424   4.573   4.903  1.00 20.00     0.059 C 
HETATM    2  C10 UNL     1     -34.554   5.832   5.624  1.00 20.00     0.128 C 
HETATM    3  N12 UNL     1     -34.332   3.554   4.355  1.00 20.00    -0.197 NA
ENDROOT
BRANCH   2   4
HETATM    4  C6  UNL     1     -34.106   6.889   4.616  1.00 20.00    -0.002 C 
HETATM    5  C2  UNL     1     -32.821   7.579   5.091  1.00 20.00     0.006 C 
HETATM    6  C4  UNL     1     -32.323   8.606   4.075  1.00 20.00     0.005 C 
HETATM    7  C7  UNL     1     -32.125   7.981   2.688  1.00 20.00    -0.011 C 
HETATM    8  C5  UNL     1     -33.411   7.291   2.214  1.00 20.00     0.005 C 
HETATM    9  C3  UNL     1     -33.909   6.265   3.229  1.00 20.00     0.006 C 
BRANCH   7  10
HETATM   10  C11 UNL     1     -31.676   9.038   1.680  1.00 20.00    -0.019 C 
HETATM   11  C8  UNL     1     -31.353   8.392   0.335  1.00 20.00     0.010 C 
HETATM   12  C9  UNL     1     -32.748  10.113   1.516  1.00 20.00     0.010 C 
ENDBRANCH   7  10
ENDBRANCH   2   4
TORSDOF 2
ENDMDL
MODEL 4
REMARK VINA RESULT:      -5.2      1.056      1.744
REMARK  2 active torsions:
REMARK  status: ('A' for Active; 'I' for Inactive)
REMARK    1  A    between atoms: C6_6  and  C10_10 
REMARK    2  A    between atoms: C7_7  and  C11_11 
ROOT
HETATM    1  C1  UNL     1     -32.594   9.241  -0.129  1.00 20.00     0.059 C 
HETATM    2  C10 UNL     1     -31.738   8.900   0.999  1.00 20.00     0.128 C 
HETATM    3  N12 UNL     1     -33.250   9.522  -1.045  1.00 20.00    -0.197 NA
ENDROOT
BRANCH   2   4
HETATM    4  C6  UNL     1     -32.704   8.368   2.056  1.00 20.00    -0.002 C 
HETATM    5  C2  UNL     1     -33.416   7.106   1.552  1.00 20.00     0.006 C 
HETATM    6  C4  UNL     1     -34.352   6.524   2.611  1.00 20.00     0.005 C 
HETATM    7  C7  UNL     1     -33.615   6.245   3.927  1.00 20.00    -0.011 C 
HETATM    8  C5  UNL     1     -32.904   7.509   4.430  1.00 20.00     0.005 C 
HETATM    9  C3  UNL     1     -31.968   8.090   3.373  1.00 20.00     0.006 C 
BRANCH   7  10
HETATM   10  C11 UNL     1     -34.581   5.712   4.983  1.00 20.00    -0.019 C 
HETATM   11  C8  UNL     1     -34.400   4.208   5.164  1.00 20.00     0.010 C 
HETATM   12  C9  UNL     1     -34.381   6.442   6.310  1.00 20.00     0.010 C 
ENDBRANCH   7  10
ENDBRANCH   2   4
TORSDOF 2
ENDMDL
MODEL 5
REMARK VINA RESULT:      -4.9     11.120     11.895
REMARK  2 active torsions:
REMARK  status: ('A' for Active; 'I' for Inactive)
REMARK    1  A    between atoms: C6_6  and  C10_10 
REMARK    2  A    between atoms: C7_7  and  C11_11 
ROOT
HETATM    1  C1  UNL     1     -35.854  13.877  -5.623  1.00 20.00     0.059 C 
HETATM    2  C10 UNL     1     -35.823  15.222  -6.180  1.00 20.00     0.128 C 
HETATM    3  N12 UNL     1     -35.887  12.793  -5.208  1.00 20.00    -0.197 NA
ENDROOT
BRANCH   2   4
HETATM    4  C6  UNL     1     -35.423  16.107  -5.000  1.00 20.00    -0.002 C 
HETATM    5  C2  UNL     1     -36.507  16.083  -3.915  1.00 20.00     0.006 C 
HETATM    6  C4  UNL     1     -36.108  16.920  -2.700  1.00 20.00     0.005 C 
HETATM    7  C7  UNL     1     -34.755  16.480  -2.128  1.00 20.00    -0.011 C 
HETATM    8  C5  UNL     1     -33.671  16.505  -3.214  1.00 20.00     0.005 C 
HETATM    9  C3  UNL     1     -34.069  15.668  -4.428  1.00 20.00     0.006 C 
BRANCH   7  10
HETATM   10  C11 UNL     1     -34.355  17.364  -0.947  1.00 20.00    -0.019 C 
HETATM   11  C8  UNL     1     -33.062  18.114  -1.253  1.00 20.00     0.010 C 
HETATM   12  C9  UNL     1     -35.477  18.343  -0.606  1.00 20.00     0.010 C 
ENDBRANCH   7  10
ENDBRANCH   2   4
TORSDOF 2
ENDMDL
MODEL 6
REMARK VINA RESULT:      -4.9     10.894     11.575
REMARK  2 active torsions:
REMARK  status: ('A' for Active; 'I' for Inactive)
REMARK    1  A    between atoms: C6_6  and  C10_10 
REMARK    2  A    between atoms: C7_7  and  C11_11 
ROOT
HETATM    1  C1  UNL     1     -35.282  13.895  -5.088  1.00 20.00     0.059 C 
HETATM    2  C10 UNL     1     -34.426  15.073  -5.115  1.00 20.00     0.128 C 
HETATM    3  N12 UNL     1     -35.958  12.951  -5.097  1.00 20.00    -0.197 NA
ENDROOT
BRANCH   2   4
HETATM    4  C6  UNL     1     -34.477  15.607  -3.685  1.00 20.00    -0.002 C 
HETATM    5  C2  UNL     1     -33.352  16.622  -3.446  1.00 20.00     0.006 C 
HETATM    6  C4  UNL     1     -33.412  17.210  -2.036  1.00 20.00     0.005 C 
HETATM    7  C7  UNL     1     -34.781  17.834  -1.740  1.00 20.00    -0.011 C 
HETATM    8  C5  UNL     1     -35.906  16.818  -1.979  1.00 20.00     0.005 C 
HETATM    9  C3  UNL     1     -35.847  16.231  -3.388  1.00 20.00     0.006 C 
BRANCH   7  10
HETATM   10  C11 UNL     1     -34.832  18.369  -0.310  1.00 20.00    -0.019 C 
HETATM   11  C8  UNL     1     -35.692  17.465   0.570  1.00 20.00     0.010 C 
HETATM   12  C9  UNL     1     -33.423  18.497   0.265  1.00 20.00     0.010 C 
ENDBRANCH   7  10
ENDBRANCH   2   4
TORSDOF 2
ENDMDL
MODEL 7
REMARK VINA RESULT:      -4.7     11.016     11.994
REMARK  2 active torsions:
REMARK  status: ('A' for Active; 'I' for Inactive)
REMARK    1  A    between atoms: C6_6  and  C10_10 
REMARK    2  A    between atoms: C7_7  and  C11_11 
ROOT
HETATM    1  C1  UNL     1     -35.209  13.594  -5.859  1.00 20.00     0.059 C 
HETATM    2  C10 UNL     1     -34.475  14.749  -6.359  1.00 20.00     0.128 C 
HETATM    3  N12 UNL     1     -35.788  12.658  -5.488  1.00 20.00    -0.197 NA
ENDROOT
BRANCH   2   4
HETATM    4  C6  UNL     1     -34.588  15.779  -5.237  1.00 20.00    -0.002 C 
HETATM    5  C2  UNL     1     -34.761  15.085  -3.879  1.00 20.00     0.006 C 
HETATM    6  C4  UNL     1     -34.826  16.093  -2.733  1.00 20.00     0.005 C 
HETATM    7  C7  UNL     1     -33.601  17.016  -2.720  1.00 20.00    -0.011 C 
HETATM    8  C5  UNL     1     -33.428  17.710  -4.078  1.00 20.00     0.005 C 
HETATM    9  C3  UNL     1     -33.363  16.703  -5.224  1.00 20.00     0.006 C 
BRANCH   7  10
HETATM   10  C11 UNL     1     -33.713  18.046  -1.598  1.00 20.00    -0.019 C 
HETATM   11  C8  UNL     1     -34.742  17.600  -0.562  1.00 20.00     0.010 C 
HETATM   12  C9  UNL     1     -32.353  18.274  -0.941  1.00 20.00     0.010 C 
ENDBRANCH   7  10
ENDBRANCH   2   4
TORSDOF 2
ENDMDL
MODEL 8
REMARK VINA RESULT:      -4.7     11.021     11.988
REMARK  2 active torsions:
REMARK  status: ('A' for Active; 'I' for Inactive)
REMARK    1  A    between atoms: C6_6  and  C10_10 
REMARK    2  A    between atoms: C7_7  and  C11_11 
ROOT
HETATM    1  C1  UNL     1     -32.183  18.398  -0.280  1.00 20.00     0.059 C 
HETATM    2  C10 UNL     1     -33.607  18.384  -0.584  1.00 20.00     0.128 C 
HETATM    3  N12 UNL     1     -31.053  18.430  -0.014  1.00 20.00    -0.197 NA
ENDROOT
BRANCH   2   4
HETATM    4  C6  UNL     1     -33.742  17.353  -1.704  1.00 20.00    -0.002 C 
HETATM    5  C2  UNL     1     -35.170  16.796  -1.757  1.00 20.00     0.006 C 
HETATM    6  C4  UNL     1     -35.344  15.799  -2.903  1.00 20.00     0.005 C 
HETATM    7  C7  UNL     1     -34.948  16.411  -4.252  1.00 20.00    -0.011 C 
HETATM    8  C5  UNL     1     -33.519  16.968  -4.198  1.00 20.00     0.005 C 
HETATM    9  C3  UNL     1     -33.345  17.965  -3.054  1.00 20.00     0.006 C 
BRANCH   7  10
HETATM   10  C11 UNL     1     -35.083  15.381  -5.372  1.00 20.00    -0.019 C 
HETATM   11  C8  UNL     1     -33.832  15.372  -6.246  1.00 20.00     0.010 C 
HETATM   12  C9  UNL     1     -35.344  13.991  -4.794  1.00 20.00     0.010 C 
ENDBRANCH   7  10
ENDBRANCH   2   4
TORSDOF 2
ENDMDL
MODEL 9
REMARK VINA RESULT:      -4.5     10.803     11.609
REMARK  2 active torsions:
REMARK  status: ('A' for Active; 'I' for Inactive)
REMARK    1  A    between atoms: C6_6  and  C10_10 
REMARK    2  A    between atoms: C7_7  and  C11_11 
ROOT
HETATM    1  C1  UNL     1     -34.582  14.550  -4.514  1.00 20.00     0.059 C 
HETATM    2  C10 UNL     1     -34.775  15.869  -5.102  1.00 20.00     0.128 C 
HETATM    3  N12 UNL     1     -34.428  13.486  -4.074  1.00 20.00    -0.197 NA
ENDROOT
BRANCH   2   4
HETATM    4  C6  UNL     1     -34.800  16.814  -3.903  1.00 20.00    -0.002 C 
HETATM    5  C2  UNL     1     -36.021  16.532  -3.017  1.00 20.00     0.006 C 
HETATM    6  C4  UNL     1     -36.042  17.431  -1.782  1.00 20.00     0.005 C 
HETATM    7  C7  UNL     1     -34.744  17.314  -0.973  1.00 20.00    -0.011 C 
HETATM    8  C5  UNL     1     -33.524  17.597  -1.860  1.00 20.00     0.005 C 
HETATM    9  C3  UNL     1     -33.502  16.698  -3.094  1.00 20.00     0.006 C 
BRANCH   7  10
HETATM   10  C11 UNL     1     -34.769  18.259   0.227  1.00 20.00    -0.019 C 
HETATM   11  C8  UNL     1     -35.672  17.704   1.326  1.00 20.00     0.010 C 
HETATM   12  C9  UNL     1     -33.356  18.490   0.758  1.00 20.00     0.010 C 
ENDBRANCH   7  10
ENDBRANCH   2   4
TORSDOF 2
ENDMDL
