MODEL 1
REMARK VINA RESULT:      -4.5      0.000      0.000
REMARK  0 active torsions:
REMARK  status: ('A' for Active; 'I' for Inactive)
ROOT
HETATM    1  C1  UNL     1     -34.499  16.643  -2.283  1.00 20.00     0.015 C 
HETATM    2  C2  UNL     1     -34.490  15.824  -3.160  1.00 20.00    -0.071 C 
HETATM    3  C3  UNL     1     -36.159  15.921  -5.738  1.00 20.00     0.039 C 
HETATM    4  C4  UNL     1     -35.758  13.487  -5.892  1.00 20.00     0.039 C 
HETATM    5  C5  UNL     1     -35.049  16.115  -6.784  1.00 20.00     0.273 C 
HETATM    6  C6  UNL     1     -34.611  13.750  -6.880  1.00 20.00     0.273 C 
HETATM    7  C7  UNL     1     -33.419  15.137  -5.306  1.00 20.00     0.329 C 
HETATM    8  C8  UNL     1     -35.857  14.664  -4.903  1.00 20.00     0.043 C 
HETATM    9  C9  UNL     1     -34.479  14.820  -4.234  1.00 20.00     0.195 C 
HETATM   10  N10 UNL     1     -33.998  15.080  -6.672  1.00 20.00     0.092 N 
HETATM   11  F11 UNL     1     -34.154  13.631  -3.648  1.00 20.00    -0.227 F 
ENDROOT
TORSDOF 0
ENDMDL
MODEL 2
REMARK VINA RESULT:      -4.3      1.776      2.613
REMARK  0 active torsions:
REMARK  status: ('A' for Active; 'I' for Inactive)
ROOT
HETATM    1  C1  UNL     1     -34.930  16.939  -1.184  1.00 20.00     0.015 C 
HETATM    2  C2  UNL     1     -34.588  16.876  -2.333  1.00 20.00    -0.071 C 
HETATM    3  C3  UNL     1     -34.507  14.332  -4.055  1.00 20.00     0.039 C 
HETATM    4  C4  UNL     1     -32.940  15.568  -5.512  1.00 20.00     0.039 C 
HETATM    5  C5  UNL     1     -35.617  14.647  -5.072  1.00 20.00     0.273 C 
HETATM    6  C6  UNL     1     -34.104  15.911  -6.454  1.00 20.00     0.273 C 
HETATM    7  C7  UNL     1     -35.349  17.012  -4.705  1.00 20.00     0.329 C 
HETATM    8  C8  UNL     1     -33.467  15.467  -4.069  1.00 20.00     0.043 C 
HETATM    9  C9  UNL     1     -34.167  16.799  -3.739  1.00 20.00     0.195 C 
HETATM   10  N10 UNL     1     -35.399  15.949  -5.740  1.00 20.00     0.092 N 
HETATM   11  F11 UNL     1     -33.270  17.809  -3.930  1.00 20.00    -0.227 F 
ENDROOT
TORSDOF 0
ENDMDL
MODEL 3
REMARK VINA RESULT:      -4.3      2.018      2.673
REMARK  0 active torsions:
REMARK  status: ('A' for Active; 'I' for Inactive)
ROOT
HETATM    1  C1  UNL     1     -35.678  17.200  -0.676  1.00 20.00     0.015 C 
HETATM    2  C2  UNL     1     -34.975  17.020  -1.632  1.00 20.00    -0.071 C 
HETATM    3  C3  UNL     1     -35.718  15.402  -4.137  1.00 20.00     0.039 C 
HETATM    4  C4  UNL     1     -33.287  15.242  -4.551  1.00 20.00     0.039 C 
HETATM    5  C5  UNL     1     -35.769  16.522  -5.190  1.00 20.00     0.273 C 
HETATM    6  C6  UNL     1     -33.390  16.414  -5.540  1.00 20.00     0.273 C 
HETATM    7  C7  UNL     1     -34.298  17.897  -3.867  1.00 20.00     0.329 C 
HETATM    8  C8  UNL     1     -34.343  15.417  -3.445  1.00 20.00     0.043 C 
HETATM    9  C9  UNL     1     -34.115  16.798  -2.803  1.00 20.00     0.195 C 
HETATM   10  N10 UNL     1     -34.518  17.313  -5.215  1.00 20.00     0.092 N 
HETATM   11  F11 UNL     1     -32.828  16.849  -2.352  1.00 20.00    -0.227 F 
ENDROOT
TORSDOF 0
ENDMDL
MODEL 4
REMARK VINA RESULT:      -4.2      1.375      1.933
REMARK  0 active torsions:
REMARK  status: ('A' for Active; 'I' for Inactive)
ROOT
HETATM    1  C1  UNL     1     -34.842  16.883  -1.550  1.00 20.00     0.015 C 
HETATM    2  C2  UNL     1     -35.089  16.338  -2.591  1.00 20.00    -0.071 C 
HETATM    3  C3  UNL     1     -33.794  16.964  -5.307  1.00 20.00     0.039 C 
HETATM    4  C4  UNL     1     -35.764  15.861  -6.312  1.00 20.00     0.039 C 
HETATM    5  C5  UNL     1     -33.010  15.664  -5.550  1.00 20.00     0.273 C 
HETATM    6  C6  UNL     1     -34.948  14.568  -6.464  1.00 20.00     0.273 C 
HETATM    7  C7  UNL     1     -34.492  14.441  -4.098  1.00 20.00     0.329 C 
HETATM    8  C8  UNL     1     -35.277  16.626  -5.068  1.00 20.00     0.043 C 
HETATM    9  C9  UNL     1     -35.391  15.671  -3.865  1.00 20.00     0.195 C 
HETATM   10  N10 UNL     1     -33.877  14.469  -5.449  1.00 20.00     0.092 N 
HETATM   11  F11 UNL     1     -36.685  15.246  -3.781  1.00 20.00    -0.227 F 
ENDROOT
TORSDOF 0
ENDMDL
MODEL 5
REMARK VINA RESULT:      -4.2      1.509      2.572
REMARK  0 active torsions:
REMARK  status: ('A' for Active; 'I' for Inactive)
ROOT
HETATM    1  C1  UNL     1     -38.377  15.087  -4.512  1.00 20.00     0.015 C 
HETATM    2  C2  UNL     1     -37.188  15.234  -4.433  1.00 20.00    -0.071 C 
HETATM    3  C3  UNL     1     -35.076  13.800  -6.143  1.00 20.00     0.039 C 
HETATM    4  C4  UNL     1     -33.473  14.387  -4.356  1.00 20.00     0.039 C 
HETATM    5  C5  UNL     1     -34.521  14.983  -6.954  1.00 20.00     0.273 C 
HETATM    6  C6  UNL     1     -33.010  15.595  -5.184  1.00 20.00     0.273 C 
HETATM    7  C7  UNL     1     -35.229  16.540  -5.259  1.00 20.00     0.329 C 
HETATM    8  C8  UNL     1     -34.961  14.115  -4.641  1.00 20.00     0.043 C 
HETATM    9  C9  UNL     1     -35.733  15.413  -4.336  1.00 20.00     0.195 C 
HETATM   10  N10 UNL     1     -34.077  16.091  -6.080  1.00 20.00     0.092 N 
HETATM   11  F11 UNL     1     -35.473  15.769  -3.044  1.00 20.00    -0.227 F 
ENDROOT
TORSDOF 0
ENDMDL
MODEL 6
REMARK VINA RESULT:      -4.2      1.547      3.440
REMARK  0 active torsions:
REMARK  status: ('A' for Active; 'I' for Inactive)
ROOT
HETATM    1  C1  UNL     1     -34.420  13.636  -7.162  1.00 20.00     0.015 C 
HETATM    2  C2  UNL     1     -34.542  14.092  -6.058  1.00 20.00    -0.071 C 
HETATM    3  C3  UNL     1     -34.133  17.033  -5.266  1.00 20.00     0.039 C 
HETATM    4  C4  UNL     1     -33.851  16.197  -2.957  1.00 20.00     0.039 C 
HETATM    5  C5  UNL     1     -35.572  17.425  -4.890  1.00 20.00     0.273 C 
HETATM    6  C6  UNL     1     -35.318  16.546  -2.664  1.00 20.00     0.273 C 
HETATM    7  C7  UNL     1     -36.131  15.126  -4.437  1.00 20.00     0.329 C 
HETATM    8  C8  UNL     1     -33.708  15.805  -4.439  1.00 20.00     0.043 C 
HETATM    9  C9  UNL     1     -34.691  14.650  -4.707  1.00 20.00     0.195 C 
HETATM   10  N10 UNL     1     -36.150  16.505  -3.886  1.00 20.00     0.092 N 
HETATM   11  F11 UNL     1     -34.404  13.638  -3.837  1.00 20.00    -0.227 F 
ENDROOT
TORSDOF 0
ENDMDL
MODEL 7
REMARK VINA RESULT:      -4.1      1.440      3.436
REMARK  0 active torsions:
REMARK  status: ('A' for Active; 'I' for Inactive)
ROOT
HETATM    1  C1  UNL     1     -35.142  12.972  -7.130  1.00 20.00     0.015 C 
HETATM    2  C2  UNL     1     -35.306  13.785  -6.262  1.00 20.00    -0.071 C 
HETATM    3  C3  UNL     1     -33.115  15.513  -4.974  1.00 20.00     0.039 C 
HETATM    4  C4  UNL     1     -34.692  15.815  -3.095  1.00 20.00     0.039 C 
HETATM    5  C5  UNL     1     -33.527  16.908  -5.473  1.00 20.00     0.273 C 
HETATM    6  C6  UNL     1     -35.115  17.170  -3.682  1.00 20.00     0.273 C 
HETATM    7  C7  UNL     1     -35.804  16.180  -5.772  1.00 20.00     0.329 C 
HETATM    8  C8  UNL     1     -34.303  14.863  -4.241  1.00 20.00     0.043 C 
HETATM    9  C9  UNL     1     -35.505  14.781  -5.200  1.00 20.00     0.195 C 
HETATM   10  N10 UNL     1     -34.939  17.214  -5.150  1.00 20.00     0.092 N 
HETATM   11  F11 UNL     1     -36.592  14.369  -4.484  1.00 20.00    -0.227 F 
ENDROOT
TORSDOF 0
ENDMDL
MODEL 8
REMARK VINA RESULT:      -4.0      2.662      4.417
REMARK  0 active torsions:
REMARK  status: ('A' for Active; 'I' for Inactive)
ROOT
HETATM    1  C1  UNL     1     -33.115  14.678  -4.485  1.00 20.00     0.015 C 
HETATM    2  C2  UNL     1     -33.901  15.416  -3.958  1.00 20.00    -0.071 C 
HETATM    3  C3  UNL     1     -33.240  17.542  -1.840  1.00 20.00     0.039 C 
HETATM    4  C4  UNL     1     -35.636  17.451  -1.241  1.00 20.00     0.039 C 
HETATM    5  C5  UNL     1     -33.542  18.827  -2.629  1.00 20.00     0.273 C 
HETATM    6  C6  UNL     1     -35.888  18.697  -2.103  1.00 20.00     0.273 C 
HETATM    7  C7  UNL     1     -35.035  17.634  -4.094  1.00 20.00     0.329 C 
HETATM    8  C8  UNL     1     -34.483  16.634  -1.852  1.00 20.00     0.043 C 
HETATM    9  C9  UNL     1     -34.864  16.318  -3.311  1.00 20.00     0.195 C 
HETATM   10  N10 UNL     1     -34.906  18.814  -3.203  1.00 20.00     0.092 N 
HETATM   11  F11 UNL     1     -36.062  15.664  -3.305  1.00 20.00    -0.227 F 
ENDROOT
TORSDOF 0
ENDMDL
MODEL 9
REMARK VINA RESULT:      -4.0      2.045      3.536
REMARK  0 active torsions:
REMARK  status: ('A' for Active; 'I' for Inactive)
ROOT
HETATM    1  C1  UNL     1     -37.406  14.310  -5.173  1.00 20.00     0.015 C 
HETATM    2  C2  UNL     1     -36.695  15.152  -4.698  1.00 20.00    -0.071 C 
HETATM    3  C3  UNL     1     -33.655  14.935  -4.304  1.00 20.00     0.039 C 
HETATM    4  C4  UNL     1     -33.910  16.741  -2.636  1.00 20.00     0.039 C 
HETATM    5  C5  UNL     1     -33.166  15.999  -5.301  1.00 20.00     0.273 C 
HETATM    6  C6  UNL     1     -33.483  17.766  -3.698  1.00 20.00     0.273 C 
HETATM    7  C7  UNL     1     -35.280  17.148  -5.185  1.00 20.00     0.329 C 
HETATM    8  C8  UNL     1     -34.651  15.578  -3.322  1.00 20.00     0.043 C 
HETATM    9  C9  UNL     1     -35.825  16.183  -4.115  1.00 20.00     0.195 C 
HETATM   10  N10 UNL     1     -33.809  17.311  -5.067  1.00 20.00     0.092 N 
HETATM   11  F11 UNL     1     -36.600  16.898  -3.248  1.00 20.00    -0.227 F 
ENDROOT
TORSDOF 0
ENDMDL
