MODEL 1
REMARK VINA RESULT:      -4.7      0.000      0.000
REMARK  1 active torsions:
REMARK  status: ('A' for Active; 'I' for Inactive)
REMARK    1  A    between atoms: C10_10  and  O11_11 
ROOT
HETATM    1  C1  UNL     1     -32.119   6.450   3.198  1.00 20.00    -0.025 C 
HETATM    2  C2  UNL     1     -32.806   5.367   2.808  1.00 20.00    -0.025 C 
HETATM    3  C3  UNL     1     -33.721   7.241   5.661  1.00 20.00     0.008 C 
HETATM    4  C4  UNL     1     -33.864   5.737   5.867  1.00 20.00     0.032 C 
HETATM    5  C5  UNL     1     -33.860   7.194   1.892  1.00 20.00     0.018 C 
HETATM    6  C6  UNL     1     -33.062   7.626   3.134  1.00 20.00     0.013 C 
HETATM    7  C7  UNL     1     -34.209   5.818   2.481  1.00 20.00     0.015 C 
HETATM    8  C8  UNL     1     -34.163   7.516   4.223  1.00 20.00     0.000 C 
HETATM    9  C9  UNL     1     -34.969   6.261   3.761  1.00 20.00     0.027 C 
HETATM   10  C10 UNL     1     -35.035   5.336   4.976  1.00 20.00     0.123 C 
ENDROOT
BRANCH  10  11
HETATM   11  O11 UNL     1     -34.974   3.966   4.634  1.00 20.00    -0.395 OA
HETATM   12  H25 UNL     1     -34.170   3.601   5.044  1.00 20.00     0.210 HD
ENDBRANCH  10  11
TORSDOF 1
ENDMDL
MODEL 2
REMARK VINA RESULT:      -4.7     11.842     13.075
REMARK  1 active torsions:
REMARK  status: ('A' for Active; 'I' for Inactive)
REMARK    1  A    between atoms: C10_10  and  O11_11 
ROOT
HETATM    1  C1  UNL     1     -34.873  16.416  -4.259  1.00 20.00    -0.025 C 
HETATM    2  C2  UNL     1     -34.619  15.187  -3.788  1.00 20.00    -0.025 C 
HETATM    3  C3  UNL     1     -36.330  15.712  -6.835  1.00 20.00     0.008 C 
HETATM    4  C4  UNL     1     -36.913  14.565  -6.016  1.00 20.00     0.032 C 
HETATM    5  C5  UNL     1     -32.914  15.715  -5.237  1.00 20.00     0.018 C 
HETATM    6  C6  UNL     1     -34.161  16.546  -5.582  1.00 20.00     0.013 C 
HETATM    7  C7  UNL     1     -33.736  14.493  -4.796  1.00 20.00     0.015 C 
HETATM    8  C8  UNL     1     -34.813  15.633  -6.656  1.00 20.00     0.000 C 
HETATM    9  C9  UNL     1     -34.507  14.201  -6.112  1.00 20.00     0.027 C 
HETATM   10  C10 UNL     1     -35.850  13.473  -6.072  1.00 20.00     0.123 C 
ENDROOT
BRANCH  10  11
HETATM   11  O11 UNL     1     -35.968  12.586  -4.978  1.00 20.00    -0.395 OA
HETATM   12  H25 UNL     1     -36.493  13.038  -4.295  1.00 20.00     0.210 HD
ENDBRANCH  10  11
TORSDOF 1
ENDMDL
MODEL 3
REMARK VINA RESULT:      -4.7     11.673     12.863
REMARK  1 active torsions:
REMARK  status: ('A' for Active; 'I' for Inactive)
REMARK    1  A    between atoms: C10_10  and  O11_11 
ROOT
HETATM    1  C1  UNL     1     -34.698  16.727  -5.593  1.00 20.00    -0.025 C 
HETATM    2  C2  UNL     1     -35.700  16.466  -4.742  1.00 20.00    -0.025 C 
HETATM    3  C3  UNL     1     -34.333  13.981  -6.850  1.00 20.00     0.008 C 
HETATM    4  C4  UNL     1     -35.850  13.889  -6.729  1.00 20.00     0.032 C 
HETATM    5  C5  UNL     1     -33.744  15.914  -3.666  1.00 20.00     0.018 C 
HETATM    6  C6  UNL     1     -33.527  15.867  -5.187  1.00 20.00     0.013 C 
HETATM    7  C7  UNL     1     -35.200  15.430  -3.764  1.00 20.00     0.015 C 
HETATM    8  C8  UNL     1     -33.819  14.366  -5.462  1.00 20.00     0.000 C 
HETATM    9  C9  UNL     1     -34.979  14.060  -4.461  1.00 20.00     0.027 C 
HETATM   10  C10 UNL     1     -36.095  13.432  -5.294  1.00 20.00     0.123 C 
ENDROOT
BRANCH  10  11
HETATM   11  O11 UNL     1     -37.388  13.795  -4.854  1.00 20.00    -0.395 OA
HETATM   12  H25 UNL     1     -37.875  12.971  -4.679  1.00 20.00     0.210 HD
ENDBRANCH  10  11
TORSDOF 1
ENDMDL
MODEL 4
REMARK VINA RESULT:      -4.6     11.795     12.903
REMARK  1 active torsions:
REMARK  status: ('A' for Active; 'I' for Inactive)
REMARK    1  A    between atoms: C10_10  and  O11_11 
ROOT
HETATM    1  C1  UNL     1     -35.764  14.696  -7.028  1.00 20.00    -0.025 C 
HETATM    2  C2  UNL     1     -35.268  13.581  -6.473  1.00 20.00    -0.025 C 
HETATM    3  C3  UNL     1     -34.254  16.804  -5.437  1.00 20.00     0.008 C 
HETATM    4  C4  UNL     1     -33.100  15.810  -5.499  1.00 20.00     0.032 C 
HETATM    5  C5  UNL     1     -37.025  14.261  -5.155  1.00 20.00     0.018 C 
HETATM    6  C6  UNL     1     -36.472  15.463  -5.939  1.00 20.00     0.013 C 
HETATM    7  C7  UNL     1     -35.644  13.601  -5.011  1.00 20.00     0.015 C 
HETATM    8  C8  UNL     1     -35.458  16.025  -4.906  1.00 20.00     0.000 C 
HETATM    9  C9  UNL     1     -34.889  14.725  -4.252  1.00 20.00     0.027 C 
HETATM   10  C10 UNL     1     -33.368  14.837  -4.355  1.00 20.00     0.123 C 
ENDROOT
BRANCH  10  11
HETATM   11  O11 UNL     1     -32.735  13.593  -4.580  1.00 20.00    -0.395 OA
HETATM   12  H25 UNL     1     -31.913  13.772  -5.070  1.00 20.00     0.210 HD
ENDBRANCH  10  11
TORSDOF 1
ENDMDL
MODEL 5
REMARK VINA RESULT:      -4.5     12.014     13.050
REMARK  1 active torsions:
REMARK  status: ('A' for Active; 'I' for Inactive)
REMARK    1  A    between atoms: C10_10  and  O11_11 
ROOT
HETATM    1  C1  UNL     1     -33.812  15.642  -3.589  1.00 20.00    -0.025 C 
HETATM    2  C2  UNL     1     -33.022  15.136  -4.547  1.00 20.00    -0.025 C 
HETATM    3  C3  UNL     1     -36.542  14.853  -4.677  1.00 20.00     0.008 C 
HETATM    4  C4  UNL     1     -35.826  13.588  -5.138  1.00 20.00     0.032 C 
HETATM    5  C5  UNL     1     -33.669  17.229  -5.247  1.00 20.00     0.018 C 
HETATM    6  C6  UNL     1     -34.691  16.683  -4.236  1.00 20.00     0.013 C 
HETATM    7  C7  UNL     1     -33.371  15.840  -5.836  1.00 20.00     0.015 C 
HETATM    8  C8  UNL     1     -35.713  16.025  -5.203  1.00 20.00     0.000 C 
HETATM    9  C9  UNL     1     -34.792  15.447  -6.324  1.00 20.00     0.027 C 
HETATM   10  C10 UNL     1     -35.177  13.975  -6.463  1.00 20.00     0.123 C 
ENDROOT
BRANCH  10  11
HETATM   11  O11 UNL     1     -34.077  13.138  -6.759  1.00 20.00    -0.395 OA
HETATM   12  H25 UNL     1     -34.182  12.838  -7.679  1.00 20.00     0.210 HD
ENDBRANCH  10  11
TORSDOF 1
ENDMDL
MODEL 6
REMARK VINA RESULT:      -4.5     11.689     12.684
REMARK  1 active torsions:
REMARK  status: ('A' for Active; 'I' for Inactive)
REMARK    1  A    between atoms: C10_10  and  O11_11 
ROOT
HETATM    1  C1  UNL     1     -33.605  14.315  -4.201  1.00 20.00    -0.025 C 
HETATM    2  C2  UNL     1     -34.902  14.222  -4.528  1.00 20.00    -0.025 C 
HETATM    3  C3  UNL     1     -33.626  16.950  -2.680  1.00 20.00     0.008 C 
HETATM    4  C4  UNL     1     -34.988  16.479  -2.180  1.00 20.00     0.032 C 
HETATM    5  C5  UNL     1     -33.893  15.500  -6.151  1.00 20.00     0.018 C 
HETATM    6  C6  UNL     1     -33.067  15.564  -4.856  1.00 20.00     0.013 C 
HETATM    7  C7  UNL     1     -35.233  15.407  -5.402  1.00 20.00     0.015 C 
HETATM    8  C8  UNL     1     -33.671  16.837  -4.204  1.00 20.00     0.000 C 
HETATM    9  C9  UNL     1     -35.180  16.733  -4.595  1.00 20.00     0.027 C 
HETATM   10  C10 UNL     1     -35.960  16.870  -3.288  1.00 20.00     0.123 C 
ENDROOT
BRANCH  10  11
HETATM   11  O11 UNL     1     -37.127  16.072  -3.252  1.00 20.00    -0.395 OA
HETATM   12  H25 UNL     1     -37.862  16.621  -3.577  1.00 20.00     0.210 HD
ENDBRANCH  10  11
TORSDOF 1
ENDMDL
MODEL 7
REMARK VINA RESULT:      -4.5     11.489     12.977
REMARK  1 active torsions:
REMARK  status: ('A' for Active; 'I' for Inactive)
REMARK    1  A    between atoms: C10_10  and  O11_11 
ROOT
HETATM    1  C1  UNL     1     -34.299  16.397  -4.459  1.00 20.00    -0.025 C 
HETATM    2  C2  UNL     1     -35.002  15.532  -3.715  1.00 20.00    -0.025 C 
HETATM    3  C3  UNL     1     -35.290  15.644  -7.235  1.00 20.00     0.008 C 
HETATM    4  C4  UNL     1     -36.628  15.429  -6.536  1.00 20.00     0.032 C 
HETATM    5  C5  UNL     1     -33.106  14.432  -4.410  1.00 20.00     0.018 C 
HETATM    6  C6  UNL     1     -33.417  15.586  -5.377  1.00 20.00     0.013 C 
HETATM    7  C7  UNL     1     -34.590  14.141  -4.133  1.00 20.00     0.015 C 
HETATM    8  C8  UNL     1     -34.262  14.837  -6.441  1.00 20.00     0.000 C 
HETATM    9  C9  UNL     1     -35.072  13.821  -5.574  1.00 20.00     0.027 C 
HETATM   10  C10 UNL     1     -36.538  14.021  -5.957  1.00 20.00     0.123 C 
ENDROOT
BRANCH  10  11
HETATM   11  O11 UNL     1     -37.424  13.857  -4.867  1.00 20.00    -0.395 OA
HETATM   12  H25 UNL     1     -38.324  14.015  -5.201  1.00 20.00     0.210 HD
ENDBRANCH  10  11
TORSDOF 1
ENDMDL
MODEL 8
REMARK VINA RESULT:      -4.4     11.763     13.162
REMARK  1 active torsions:
REMARK  status: ('A' for Active; 'I' for Inactive)
REMARK    1  A    between atoms: C10_10  and  O11_11 
ROOT
HETATM    1  C1  UNL     1     -35.380  16.848  -4.794  1.00 20.00    -0.025 C 
HETATM    2  C2  UNL     1     -35.775  15.710  -4.207  1.00 20.00    -0.025 C 
HETATM    3  C3  UNL     1     -33.825  15.722  -7.155  1.00 20.00     0.008 C 
HETATM    4  C4  UNL     1     -34.907  14.647  -7.162  1.00 20.00     0.032 C 
HETATM    5  C5  UNL     1     -33.668  16.178  -3.414  1.00 20.00     0.018 C 
HETATM    6  C6  UNL     1     -33.872  16.864  -4.775  1.00 20.00     0.013 C 
HETATM    7  C7  UNL     1     -34.530  14.963  -3.793  1.00 20.00     0.015 C 
HETATM    8  C8  UNL     1     -33.293  15.779  -5.722  1.00 20.00     0.000 C 
HETATM    9  C9  UNL     1     -33.743  14.453  -5.031  1.00 20.00     0.027 C 
HETATM   10  C10 UNL     1     -34.452  13.638  -6.112  1.00 20.00     0.123 C 
ENDROOT
BRANCH  10  11
HETATM   11  O11 UNL     1     -35.543  12.888  -5.615  1.00 20.00    -0.395 OA
HETATM   12  H25 UNL     1     -36.313  13.095  -6.172  1.00 20.00     0.210 HD
ENDBRANCH  10  11
TORSDOF 1
ENDMDL
MODEL 9
REMARK VINA RESULT:      -4.3     11.327     12.849
REMARK  1 active torsions:
REMARK  status: ('A' for Active; 'I' for Inactive)
REMARK    1  A    between atoms: C10_10  and  O11_11 
ROOT
HETATM    1  C1  UNL     1     -35.188  16.169  -6.751  1.00 20.00    -0.025 C 
HETATM    2  C2  UNL     1     -34.312  15.169  -6.921  1.00 20.00    -0.025 C 
HETATM    3  C3  UNL     1     -35.654  15.968  -3.751  1.00 20.00     0.008 C 
HETATM    4  C4  UNL     1     -34.172  15.610  -3.697  1.00 20.00     0.032 C 
HETATM    5  C5  UNL     1     -36.414  14.242  -7.017  1.00 20.00     0.018 C 
HETATM    6  C6  UNL     1     -36.467  15.561  -6.230  1.00 20.00     0.013 C 
HETATM    7  C7  UNL     1     -35.004  13.891  -6.515  1.00 20.00     0.015 C 
HETATM    8  C8  UNL     1     -36.279  15.029  -4.783  1.00 20.00     0.000 C 
HETATM    9  C9  UNL     1     -35.267  13.856  -4.984  1.00 20.00     0.027 C 
HETATM   10  C10 UNL     1     -34.126  14.116  -4.002  1.00 20.00     0.123 C 
ENDROOT
BRANCH  10  11
HETATM   11  O11 UNL     1     -32.861  13.734  -4.505  1.00 20.00    -0.395 OA
HETATM   12  H25 UNL     1     -32.875  12.768  -4.617  1.00 20.00     0.210 HD
ENDBRANCH  10  11
TORSDOF 1
ENDMDL
