MODEL 1
REMARK VINA RESULT:      -4.2      0.000      0.000
REMARK  0 active torsions:
REMARK  status: ('A' for Active; 'I' for Inactive)
ROOT
HETATM    1  C1  UNL     1     -32.916   7.425   2.786  1.00 20.00     0.135 C 
HETATM    2  C2  UNL     1     -34.465   6.921   4.569  1.00 20.00     0.092 C 
HETATM    3  C3  UNL     1     -34.458   5.594   3.797  1.00 20.00     0.073 C 
HETATM    4  C4  UNL     1     -33.777   6.890   5.934  1.00 20.00     0.033 C 
HETATM    5  C5  UNL     1     -34.518   4.323   4.626  1.00 20.00     0.024 C 
HETATM    6  N6  UNL     1     -33.814   7.898   3.713  1.00 20.00    -0.370 N 
HETATM    7  S7  UNL     1     -31.984   8.382   1.799  1.00 20.00    -0.053 SA
HETATM    8  S8  UNL     1     -32.924   5.671   2.804  1.00 20.00    -0.094 SA
HETATM    9  H17 UNL     1     -33.960   8.895   3.847  1.00 20.00     0.161 HD
ENDROOT
TORSDOF 0
ENDMDL
MODEL 2
REMARK VINA RESULT:      -3.2     11.968     13.162
REMARK  0 active torsions:
REMARK  status: ('A' for Active; 'I' for Inactive)
ROOT
HETATM    1  C1  UNL     1     -34.510  14.334  -6.464  1.00 20.00     0.135 C 
HETATM    2  C2  UNL     1     -33.298  15.376  -4.654  1.00 20.00     0.092 C 
HETATM    3  C3  UNL     1     -33.393  16.536  -5.655  1.00 20.00     0.073 C 
HETATM    4  C4  UNL     1     -34.157  15.521  -3.398  1.00 20.00     0.033 C 
HETATM    5  C5  UNL     1     -33.624  17.920  -5.075  1.00 20.00     0.024 C 
HETATM    6  N6  UNL     1     -33.684  14.176  -5.377  1.00 20.00    -0.370 N 
HETATM    7  S7  UNL     1     -35.158  13.086  -7.348  1.00 20.00    -0.053 SA
HETATM    8  S8  UNL     1     -34.755  16.043  -6.771  1.00 20.00    -0.094 SA
HETATM    9  H17 UNL     1     -33.416  13.254  -5.046  1.00 20.00     0.161 HD
ENDROOT
TORSDOF 0
ENDMDL
MODEL 3
REMARK VINA RESULT:      -3.2     11.977     12.520
REMARK  0 active torsions:
REMARK  status: ('A' for Active; 'I' for Inactive)
ROOT
HETATM    1  C1  UNL     1     -34.155  14.796  -6.315  1.00 20.00     0.135 C 
HETATM    2  C2  UNL     1     -34.980  14.717  -4.046  1.00 20.00     0.092 C 
HETATM    3  C3  UNL     1     -33.682  15.516  -3.863  1.00 20.00     0.073 C 
HETATM    4  C4  UNL     1     -36.271  15.516  -3.878  1.00 20.00     0.033 C 
HETATM    5  C5  UNL     1     -33.719  16.656  -2.861  1.00 20.00     0.024 C 
HETATM    6  N6  UNL     1     -34.926  14.145  -5.381  1.00 20.00    -0.370 N 
HETATM    7  S7  UNL     1     -34.055  14.375  -7.918  1.00 20.00    -0.053 SA
HETATM    8  S8  UNL     1     -33.294  16.117  -5.546  1.00 20.00    -0.094 SA
HETATM    9  H17 UNL     1     -35.496  13.343  -5.633  1.00 20.00     0.161 HD
ENDROOT
TORSDOF 0
ENDMDL
MODEL 4
REMARK VINA RESULT:      -3.1     11.848     12.655
REMARK  0 active torsions:
REMARK  status: ('A' for Active; 'I' for Inactive)
ROOT
HETATM    1  C1  UNL     1     -34.921  14.471  -6.523  1.00 20.00     0.135 C 
HETATM    2  C2  UNL     1     -33.181  15.321  -5.081  1.00 20.00     0.092 C 
HETATM    3  C3  UNL     1     -34.417  16.018  -4.496  1.00 20.00     0.073 C 
HETATM    4  C4  UNL     1     -32.573  14.223  -4.208  1.00 20.00     0.033 C 
HETATM    5  C5  UNL     1     -34.469  16.162  -2.986  1.00 20.00     0.024 C 
HETATM    6  N6  UNL     1     -33.588  14.763  -6.359  1.00 20.00    -0.370 N 
HETATM    7  S7  UNL     1     -35.568  13.723  -7.857  1.00 20.00    -0.053 SA
HETATM    8  S8  UNL     1     -35.819  15.022  -5.120  1.00 20.00    -0.094 SA
HETATM    9  H17 UNL     1     -32.904  14.528  -7.073  1.00 20.00     0.161 HD
ENDROOT
TORSDOF 0
ENDMDL
MODEL 5
REMARK VINA RESULT:      -3.0     12.239     13.206
REMARK  0 active torsions:
REMARK  status: ('A' for Active; 'I' for Inactive)
ROOT
HETATM    1  C1  UNL     1     -33.906  16.893  -6.183  1.00 20.00     0.135 C 
HETATM    2  C2  UNL     1     -33.344  15.449  -4.331  1.00 20.00     0.092 C 
HETATM    3  C3  UNL     1     -33.675  16.757  -3.598  1.00 20.00     0.073 C 
HETATM    4  C4  UNL     1     -34.362  14.323  -4.153  1.00 20.00     0.033 C 
HETATM    5  C5  UNL     1     -34.414  16.631  -2.278  1.00 20.00     0.024 C 
HETATM    6  N6  UNL     1     -33.224  15.785  -5.740  1.00 20.00    -0.370 N 
HETATM    7  S7  UNL     1     -33.995  17.376  -7.770  1.00 20.00    -0.053 SA
HETATM    8  S8  UNL     1     -34.646  17.711  -4.820  1.00 20.00    -0.094 SA
HETATM    9  H17 UNL     1     -32.720  15.182  -6.383  1.00 20.00     0.161 HD
ENDROOT
TORSDOF 0
ENDMDL
MODEL 6
REMARK VINA RESULT:      -3.0     12.167     12.880
REMARK  0 active torsions:
REMARK  status: ('A' for Active; 'I' for Inactive)
ROOT
HETATM    1  C1  UNL     1     -34.514  15.961  -3.734  1.00 20.00     0.135 C 
HETATM    2  C2  UNL     1     -33.271  15.700  -5.788  1.00 20.00     0.092 C 
HETATM    3  C3  UNL     1     -33.989  14.347  -5.702  1.00 20.00     0.073 C 
HETATM    4  C4  UNL     1     -33.771  16.641  -6.884  1.00 20.00     0.033 C 
HETATM    5  C5  UNL     1     -34.491  13.757  -7.007  1.00 20.00     0.024 C 
HETATM    6  N6  UNL     1     -33.427  16.333  -4.489  1.00 20.00    -0.370 N 
HETATM    7  S7  UNL     1     -34.936  16.648  -2.282  1.00 20.00    -0.053 SA
HETATM    8  S8  UNL     1     -35.364  14.653  -4.535  1.00 20.00    -0.094 SA
HETATM    9  H17 UNL     1     -32.802  17.074  -4.186  1.00 20.00     0.161 HD
ENDROOT
TORSDOF 0
ENDMDL
MODEL 7
REMARK VINA RESULT:      -3.0     11.868     12.729
REMARK  0 active torsions:
REMARK  status: ('A' for Active; 'I' for Inactive)
ROOT
HETATM    1  C1  UNL     1     -34.263  16.065  -4.031  1.00 20.00     0.135 C 
HETATM    2  C2  UNL     1     -35.758  14.934  -5.554  1.00 20.00     0.092 C 
HETATM    3  C3  UNL     1     -34.584  15.270  -6.485  1.00 20.00     0.073 C 
HETATM    4  C4  UNL     1     -35.917  13.454  -5.207  1.00 20.00     0.033 C 
HETATM    5  C5  UNL     1     -34.215  14.225  -7.522  1.00 20.00     0.024 C 
HETATM    6  N6  UNL     1     -35.553  15.704  -4.339  1.00 20.00    -0.370 N 
HETATM    7  S7  UNL     1     -33.805  16.839  -2.635  1.00 20.00    -0.053 SA
HETATM    8  S8  UNL     1     -33.194  15.593  -5.340  1.00 20.00    -0.094 SA
HETATM    9  H17 UNL     1     -36.322  15.901  -3.705  1.00 20.00     0.161 HD
ENDROOT
TORSDOF 0
ENDMDL
MODEL 8
REMARK VINA RESULT:      -3.0     11.813     12.510
REMARK  0 active torsions:
REMARK  status: ('A' for Active; 'I' for Inactive)
ROOT
HETATM    1  C1  UNL     1     -33.990  16.573  -3.945  1.00 20.00     0.135 C 
HETATM    2  C2  UNL     1     -33.715  14.649  -5.378  1.00 20.00     0.092 C 
HETATM    3  C3  UNL     1     -34.915  14.215  -4.525  1.00 20.00     0.073 C 
HETATM    4  C4  UNL     1     -34.030  14.972  -6.839  1.00 20.00     0.033 C 
HETATM    5  C5  UNL     1     -36.010  13.437  -5.234  1.00 20.00     0.024 C 
HETATM    6  N6  UNL     1     -33.148  15.818  -4.727  1.00 20.00    -0.370 N 
HETATM    7  S7  UNL     1     -33.571  18.005  -3.215  1.00 20.00    -0.053 SA
HETATM    8  S8  UNL     1     -35.552  15.783  -3.833  1.00 20.00    -0.094 SA
HETATM    9  H17 UNL     1     -32.191  16.107  -4.905  1.00 20.00     0.161 HD
ENDROOT
TORSDOF 0
ENDMDL
MODEL 9
REMARK VINA RESULT:      -3.0     11.579     12.301
REMARK  0 active torsions:
REMARK  status: ('A' for Active; 'I' for Inactive)
ROOT
HETATM    1  C1  UNL     1     -37.105  15.071  -4.515  1.00 20.00     0.135 C 
HETATM    2  C2  UNL     1     -35.142  15.887  -3.369  1.00 20.00     0.092 C 
HETATM    3  C3  UNL     1     -34.622  14.561  -3.942  1.00 20.00     0.073 C 
HETATM    4  C4  UNL     1     -34.581  17.149  -4.022  1.00 20.00     0.033 C 
HETATM    5  C5  UNL     1     -33.193  14.554  -4.455  1.00 20.00     0.024 C 
HETATM    6  N6  UNL     1     -36.588  15.859  -3.515  1.00 20.00    -0.370 N 
HETATM    7  S7  UNL     1     -38.714  14.994  -4.921  1.00 20.00    -0.053 SA
HETATM    8  S8  UNL     1     -35.811  14.162  -5.273  1.00 20.00    -0.094 SA
HETATM    9  H17 UNL     1     -37.185  16.457  -2.951  1.00 20.00     0.161 HD
ENDROOT
TORSDOF 0
ENDMDL
