MODEL 1
REMARK VINA RESULT:      -5.1      0.000      0.000
REMARK  2 active torsions:
REMARK  status: ('A' for Active; 'I' for Inactive)
REMARK    1  A    between atoms: C7_7  and  C10_10 
REMARK    2  A    between atoms: C7_7  and  O11_11 
ROOT
HETATM    1  C1  UNL     1     -34.683   6.060   4.921  1.00 20.00     0.000 C 
HETATM    2  C2  UNL     1     -34.171   4.984   3.969  1.00 20.00     0.000 C 
HETATM    3  C3  UNL     1     -33.716   7.213   5.189  1.00 20.00     0.003 C 
HETATM    4  C4  UNL     1     -33.694   5.487   2.607  1.00 20.00     0.003 C 
HETATM    5  C5  UNL     1     -33.576   8.153   3.990  1.00 20.00     0.038 C 
HETATM    6  C6  UNL     1     -32.372   6.245   2.696  1.00 20.00     0.038 C 
HETATM    7  C7  UNL     1     -32.490   7.754   2.976  1.00 20.00     0.061 C 
ENDROOT
BRANCH   7   8
HETATM    8  C10 UNL     1     -32.708   8.537   1.674  1.00 20.00     0.012 C 
HETATM    9  C8  UNL     1     -33.034   9.994   1.981  1.00 20.00     0.012 C 
HETATM   10  C9  UNL     1     -31.477   8.433   0.781  1.00 20.00     0.012 C 
ENDBRANCH   7   8
BRANCH   7  11
HETATM   11  O11 UNL     1     -31.230   8.183   3.516  1.00 20.00    -0.389 OA
HETATM   12  H31 UNL     1     -30.653   7.408   3.488  1.00 20.00     0.210 HD
ENDBRANCH   7  11
TORSDOF 2
ENDMDL
MODEL 2
REMARK VINA RESULT:      -5.1      1.420      2.594
REMARK  2 active torsions:
REMARK  status: ('A' for Active; 'I' for Inactive)
REMARK    1  A    between atoms: C7_7  and  C10_10 
REMARK    2  A    between atoms: C7_7  and  O11_11 
ROOT
HETATM    1  C1  UNL     1     -34.191   4.494   5.240  1.00 20.00     0.000 C 
HETATM    2  C2  UNL     1     -34.590   5.809   5.902  1.00 20.00     0.000 C 
HETATM    3  C3  UNL     1     -34.171   4.509   3.711  1.00 20.00     0.003 C 
HETATM    4  C4  UNL     1     -33.770   7.029   5.483  1.00 20.00     0.003 C 
HETATM    5  C5  UNL     1     -32.992   5.305   3.148  1.00 20.00     0.038 C 
HETATM    6  C6  UNL     1     -34.085   7.481   4.060  1.00 20.00     0.038 C 
HETATM    7  C7  UNL     1     -33.257   6.807   2.951  1.00 20.00     0.061 C 
ENDROOT
BRANCH   7   8
HETATM    8  C10 UNL     1     -31.918   7.531   2.752  1.00 20.00     0.012 C 
HETATM    9  C8  UNL     1     -31.971   8.408   1.507  1.00 20.00     0.012 C 
HETATM   10  C9  UNL     1     -31.574   8.358   3.985  1.00 20.00     0.012 C 
ENDBRANCH   7   8
BRANCH   7  11
HETATM   11  O11 UNL     1     -33.994   6.949   1.727  1.00 20.00    -0.389 OA
HETATM   12  H31 UNL     1     -33.343   7.180   1.051  1.00 20.00     0.210 HD
ENDBRANCH   7  11
TORSDOF 2
ENDMDL
MODEL 3
REMARK VINA RESULT:      -4.4     10.640     11.582
REMARK  2 active torsions:
REMARK  status: ('A' for Active; 'I' for Inactive)
REMARK    1  A    between atoms: C7_7  and  C10_10 
REMARK    2  A    between atoms: C7_7  and  O11_11 
ROOT
HETATM    1  C1  UNL     1     -34.991  17.001  -3.031  1.00 20.00     0.000 C 
HETATM    2  C2  UNL     1     -36.173  16.046  -3.170  1.00 20.00     0.000 C 
HETATM    3  C3  UNL     1     -33.612  16.372  -3.230  1.00 20.00     0.003 C 
HETATM    4  C4  UNL     1     -36.230  15.261  -4.480  1.00 20.00     0.003 C 
HETATM    5  C5  UNL     1     -33.331  16.024  -4.693  1.00 20.00     0.038 C 
HETATM    6  C6  UNL     1     -35.156  14.178  -4.557  1.00 20.00     0.038 C 
HETATM    7  C7  UNL     1     -33.800  14.627  -5.131  1.00 20.00     0.061 C 
ENDROOT
BRANCH   7   8
HETATM    8  C10 UNL     1     -33.805  14.557  -6.665  1.00 20.00     0.012 C 
HETATM    9  C8  UNL     1     -34.759  13.468  -7.141  1.00 20.00     0.012 C 
HETATM   10  C9  UNL     1     -34.185  15.909  -7.255  1.00 20.00     0.012 C 
ENDBRANCH   7   8
BRANCH   7  11
HETATM   11  O11 UNL     1     -32.816  13.687  -4.673  1.00 20.00    -0.389 OA
HETATM   12  H31 UNL     1     -32.688  13.876  -3.732  1.00 20.00     0.210 HD
ENDBRANCH   7  11
TORSDOF 2
ENDMDL
MODEL 4
REMARK VINA RESULT:      -4.4     10.719     12.077
REMARK  2 active torsions:
REMARK  status: ('A' for Active; 'I' for Inactive)
REMARK    1  A    between atoms: C7_7  and  C10_10 
REMARK    2  A    between atoms: C7_7  and  O11_11 
ROOT
HETATM    1  C1  UNL     1     -33.892  16.773  -6.381  1.00 20.00     0.000 C 
HETATM    2  C2  UNL     1     -33.440  15.360  -6.025  1.00 20.00     0.000 C 
HETATM    3  C3  UNL     1     -35.133  17.271  -5.641  1.00 20.00     0.003 C 
HETATM    4  C4  UNL     1     -33.200  15.105  -4.537  1.00 20.00     0.003 C 
HETATM    5  C5  UNL     1     -34.852  17.588  -4.171  1.00 20.00     0.038 C 
HETATM    6  C6  UNL     1     -34.499  15.049  -3.738  1.00 20.00     0.038 C 
HETATM    7  C7  UNL     1     -35.011  16.400  -3.208  1.00 20.00     0.061 C 
ENDROOT
BRANCH   7   8
HETATM    8  C10 UNL     1     -34.348  16.748  -1.867  1.00 20.00     0.012 C 
HETATM    9  C8  UNL     1     -33.299  17.836  -2.063  1.00 20.00     0.012 C 
HETATM   10  C9  UNL     1     -35.399  17.183  -0.854  1.00 20.00     0.012 C 
ENDBRANCH   7   8
BRANCH   7  11
HETATM   11  O11 UNL     1     -36.416  16.248  -2.952  1.00 20.00    -0.389 OA
HETATM   12  H31 UNL     1     -36.642  16.932  -2.305  1.00 20.00     0.210 HD
ENDBRANCH   7  11
TORSDOF 2
ENDMDL
MODEL 5
REMARK VINA RESULT:      -4.4     10.437     12.199
REMARK  2 active torsions:
REMARK  status: ('A' for Active; 'I' for Inactive)
REMARK    1  A    between atoms: C7_7  and  C10_10 
REMARK    2  A    between atoms: C7_7  and  O11_11 
ROOT
HETATM    1  C1  UNL     1     -38.047  16.014  -6.561  1.00 20.00     0.000 C 
HETATM    2  C2  UNL     1     -36.866  16.082  -7.525  1.00 20.00     0.000 C 
HETATM    3  C3  UNL     1     -38.124  14.748  -5.707  1.00 20.00     0.003 C 
HETATM    4  C4  UNL     1     -35.489  15.893  -6.889  1.00 20.00     0.003 C 
HETATM    5  C5  UNL     1     -37.057  14.713  -4.612  1.00 20.00     0.038 C 
HETATM    6  C6  UNL     1     -35.241  14.450  -6.455  1.00 20.00     0.038 C 
HETATM    7  C7  UNL     1     -35.713  14.094  -5.034  1.00 20.00     0.061 C 
ENDROOT
BRANCH   7   8
HETATM    8  C10 UNL     1     -34.644  14.459  -3.995  1.00 20.00     0.012 C 
HETATM    9  C8  UNL     1     -33.262  14.461  -4.636  1.00 20.00     0.012 C 
HETATM   10  C9  UNL     1     -34.955  15.813  -3.369  1.00 20.00     0.012 C 
ENDBRANCH   7   8
BRANCH   7  11
HETATM   11  O11 UNL     1     -35.872  12.667  -4.987  1.00 20.00    -0.389 OA
HETATM   12  H31 UNL     1     -35.902  12.435  -4.048  1.00 20.00     0.210 HD
ENDBRANCH   7  11
TORSDOF 2
ENDMDL
MODEL 6
REMARK VINA RESULT:      -4.3     10.699     11.770
REMARK  2 active torsions:
REMARK  status: ('A' for Active; 'I' for Inactive)
REMARK    1  A    between atoms: C7_7  and  C10_10 
REMARK    2  A    between atoms: C7_7  and  O11_11 
ROOT
HETATM    1  C1  UNL     1     -35.177  17.208  -0.662  1.00 20.00     0.000 C 
HETATM    2  C2  UNL     1     -33.924  18.074  -0.743  1.00 20.00     0.000 C 
HETATM    3  C3  UNL     1     -35.951  17.050  -1.971  1.00 20.00     0.003 C 
HETATM    4  C4  UNL     1     -32.910  17.661  -1.809  1.00 20.00     0.003 C 
HETATM    5  C5  UNL     1     -35.230  16.147  -2.974  1.00 20.00     0.038 C 
HETATM    6  C6  UNL     1     -33.393  17.970  -3.224  1.00 20.00     0.038 C 
HETATM    7  C7  UNL     1     -34.231  16.868  -3.895  1.00 20.00     0.061 C 
ENDROOT
BRANCH   7   8
HETATM    8  C10 UNL     1     -33.326  15.825  -4.567  1.00 20.00     0.012 C 
HETATM    9  C8  UNL     1     -33.782  14.416  -4.204  1.00 20.00     0.012 C 
HETATM   10  C9  UNL     1     -33.321  16.022  -6.078  1.00 20.00     0.012 C 
ENDBRANCH   7   8
BRANCH   7  11
HETATM   11  O11 UNL     1     -34.993  17.493  -4.939  1.00 20.00    -0.389 OA
HETATM   12  H31 UNL     1     -35.323  16.772  -5.494  1.00 20.00     0.210 HD
ENDBRANCH   7  11
TORSDOF 2
ENDMDL
MODEL 7
REMARK VINA RESULT:      -4.2     10.518     12.136
REMARK  2 active torsions:
REMARK  status: ('A' for Active; 'I' for Inactive)
REMARK    1  A    between atoms: C7_7  and  C10_10 
REMARK    2  A    between atoms: C7_7  and  O11_11 
ROOT
HETATM    1  C1  UNL     1     -33.351  15.592  -6.655  1.00 20.00     0.000 C 
HETATM    2  C2  UNL     1     -32.889  15.617  -5.201  1.00 20.00     0.000 C 
HETATM    3  C3  UNL     1     -34.387  14.521  -6.996  1.00 20.00     0.003 C 
HETATM    4  C4  UNL     1     -34.003  15.734  -4.162  1.00 20.00     0.003 C 
HETATM    5  C5  UNL     1     -35.770  14.838  -6.423  1.00 20.00     0.038 C 
HETATM    6  C6  UNL     1     -34.818  14.449  -4.034  1.00 20.00     0.038 C 
HETATM    7  C7  UNL     1     -36.014  14.324  -4.994  1.00 20.00     0.061 C 
ENDROOT
BRANCH   7   8
HETATM    8  C10 UNL     1     -37.255  15.020  -4.415  1.00 20.00     0.012 C 
HETATM    9  C8  UNL     1     -37.128  16.532  -4.560  1.00 20.00     0.012 C 
HETATM   10  C9  UNL     1     -38.516  14.512  -5.104  1.00 20.00     0.012 C 
ENDBRANCH   7   8
BRANCH   7  11
HETATM   11  O11 UNL     1     -36.330  12.927  -5.096  1.00 20.00    -0.389 OA
HETATM   12  H31 UNL     1     -36.704  12.676  -4.240  1.00 20.00     0.210 HD
ENDBRANCH   7  11
TORSDOF 2
ENDMDL
MODEL 8
REMARK VINA RESULT:      -4.1      1.550      2.621
REMARK  2 active torsions:
REMARK  status: ('A' for Active; 'I' for Inactive)
REMARK    1  A    between atoms: C7_7  and  C10_10 
REMARK    2  A    between atoms: C7_7  and  O11_11 
ROOT
HETATM    1  C1  UNL     1     -33.696   4.076   4.813  1.00 20.00     0.000 C 
HETATM    2  C2  UNL     1     -34.601   5.036   5.579  1.00 20.00     0.000 C 
HETATM    3  C3  UNL     1     -33.628   4.305   3.303  1.00 20.00     0.003 C 
HETATM    4  C4  UNL     1     -34.308   6.521   5.370  1.00 20.00     0.003 C 
HETATM    5  C5  UNL     1     -32.833   5.559   2.934  1.00 20.00     0.038 C 
HETATM    6  C6  UNL     1     -34.722   7.006   3.983  1.00 20.00     0.038 C 
HETATM    7  C7  UNL     1     -33.657   6.857   2.882  1.00 20.00     0.061 C 
ENDROOT
BRANCH   7   8
HETATM    8  C10 UNL     1     -32.700   8.058   2.880  1.00 20.00     0.012 C 
HETATM    9  C8  UNL     1     -31.444   7.735   3.681  1.00 20.00     0.012 C 
HETATM   10  C9  UNL     1     -32.347   8.451   1.450  1.00 20.00     0.012 C 
ENDBRANCH   7   8
BRANCH   7  11
HETATM   11  O11 UNL     1     -34.346   6.870   1.622  1.00 20.00    -0.389 OA
HETATM   12  H31 UNL     1     -35.039   7.540   1.707  1.00 20.00     0.210 HD
ENDBRANCH   7  11
TORSDOF 2
ENDMDL
MODEL 9
REMARK VINA RESULT:      -4.1     10.682     12.004
REMARK  2 active torsions:
REMARK  status: ('A' for Active; 'I' for Inactive)
REMARK    1  A    between atoms: C7_7  and  C10_10 
REMARK    2  A    between atoms: C7_7  and  O11_11 
ROOT
HETATM    1  C1  UNL     1     -35.962  14.247  -7.577  1.00 20.00     0.000 C 
HETATM    2  C2  UNL     1     -35.021  15.407  -7.889  1.00 20.00     0.000 C 
HETATM    3  C3  UNL     1     -35.473  13.277  -6.502  1.00 20.00     0.003 C 
HETATM    4  C4  UNL     1     -34.603  16.253  -6.687  1.00 20.00     0.003 C 
HETATM    5  C5  UNL     1     -35.533  13.879  -5.097  1.00 20.00     0.038 C 
HETATM    6  C6  UNL     1     -33.630  15.519  -5.768  1.00 20.00     0.038 C 
HETATM    7  C7  UNL     1     -34.277  14.657  -4.669  1.00 20.00     0.061 C 
ENDROOT
BRANCH   7   8
HETATM    8  C10 UNL     1     -34.609  15.505  -3.433  1.00 20.00     0.012 C 
HETATM    9  C8  UNL     1     -33.611  16.648  -3.292  1.00 20.00     0.012 C 
HETATM   10  C9  UNL     1     -36.035  16.037  -3.524  1.00 20.00     0.012 C 
ENDBRANCH   7   8
BRANCH   7  11
HETATM   11  O11 UNL     1     -33.299  13.689  -4.260  1.00 20.00    -0.389 OA
HETATM   12  H31 UNL     1     -33.799  12.939  -3.909  1.00 20.00     0.210 HD
ENDBRANCH   7  11
TORSDOF 2
ENDMDL
