MODEL 1
REMARK VINA RESULT:      -5.4      0.000      0.000
REMARK  2 active torsions:
REMARK  status: ('A' for Active; 'I' for Inactive)
REMARK    1  A    between atoms: C1_1  and  C3_3 
REMARK    2  A    between atoms: C1_1  and  C8_8 
ROOT
HETATM    1  C1  UNL     1     -32.395   7.947   2.929  1.00 20.00     0.134 C 
HETATM    2  O9  UNL     1     -31.430   8.340   3.586  1.00 20.00    -0.297 OA
ENDROOT
BRANCH   1   3
HETATM    3  C3  UNL     1     -32.401   8.065   1.426  1.00 20.00     0.060 A 
HETATM    4  C2  UNL     1     -31.260   8.763   0.775  1.00 20.00     0.017 A 
HETATM    5  C4  UNL     1     -32.624   9.394   0.791  1.00 20.00    -0.007 A 
HETATM    6  C5  UNL     1     -32.856  10.646   1.565  1.00 20.00     0.011 C 
ENDBRANCH   1   3
BRANCH   1   7
HETATM    7  C8  UNL     1     -33.614   7.297   3.576  1.00 20.00     0.048 C 
HETATM    8  C6  UNL     1     -33.784   5.876   3.052  1.00 20.00     0.017 C 
HETATM    9  C7  UNL     1     -33.493   7.302   5.098  1.00 20.00     0.017 C 
ENDBRANCH   1   7
TORSDOF 2
ENDMDL
MODEL 2
REMARK VINA RESULT:      -5.1      1.660      4.488
REMARK  2 active torsions:
REMARK  status: ('A' for Active; 'I' for Inactive)
REMARK    1  A    between atoms: C1_1  and  C3_3 
REMARK    2  A    between atoms: C1_1  and  C8_8 
ROOT
HETATM    1  C1  UNL     1     -33.304   6.729   3.152  1.00 20.00     0.134 C 
HETATM    2  O9  UNL     1     -32.892   5.697   2.621  1.00 20.00    -0.297 OA
ENDROOT
BRANCH   1   3
HETATM    3  C3  UNL     1     -34.467   6.691   4.110  1.00 20.00     0.060 A 
HETATM    4  C2  UNL     1     -34.179   6.447   5.550  1.00 20.00     0.017 A 
HETATM    5  C4  UNL     1     -34.871   5.397   4.728  1.00 20.00    -0.007 A 
HETATM    6  C5  UNL     1     -34.188   4.102   4.446  1.00 20.00     0.011 C 
ENDBRANCH   1   3
BRANCH   1   7
HETATM    7  C8  UNL     1     -32.655   8.088   2.908  1.00 20.00     0.048 C 
HETATM    8  C6  UNL     1     -31.367   8.201   3.714  1.00 20.00     0.017 C 
HETATM    9  C7  UNL     1     -32.385   8.306   1.421  1.00 20.00     0.017 C 
ENDBRANCH   1   7
TORSDOF 2
ENDMDL
MODEL 3
REMARK VINA RESULT:      -5.1      0.580      3.910
REMARK  2 active torsions:
REMARK  status: ('A' for Active; 'I' for Inactive)
REMARK    1  A    between atoms: C1_1  and  C3_3 
REMARK    2  A    between atoms: C1_1  and  C8_8 
ROOT
HETATM    1  C1  UNL     1     -32.439   8.230   2.687  1.00 20.00     0.134 C 
HETATM    2  O9  UNL     1     -31.381   8.192   3.318  1.00 20.00    -0.297 OA
ENDROOT
BRANCH   1   3
HETATM    3  C3  UNL     1     -33.716   7.711   3.296  1.00 20.00     0.060 A 
HETATM    4  C2  UNL     1     -33.624   6.957   4.576  1.00 20.00     0.017 A 
HETATM    5  C4  UNL     1     -33.988   6.246   3.303  1.00 20.00    -0.007 A 
HETATM    6  C5  UNL     1     -33.059   5.235   2.724  1.00 20.00     0.011 C 
ENDBRANCH   1   3
BRANCH   1   7
HETATM    7  C8  UNL     1     -32.533   8.825   1.286  1.00 20.00     0.048 C 
HETATM    8  C6  UNL     1     -32.838  10.315   1.373  1.00 20.00     0.017 C 
HETATM    9  C7  UNL     1     -31.247   8.579   0.500  1.00 20.00     0.017 C 
ENDBRANCH   1   7
TORSDOF 2
ENDMDL
MODEL 4
REMARK VINA RESULT:      -4.9      1.351      2.025
REMARK  2 active torsions:
REMARK  status: ('A' for Active; 'I' for Inactive)
REMARK    1  A    between atoms: C1_1  and  C3_3 
REMARK    2  A    between atoms: C1_1  and  C8_8 
ROOT
HETATM    1  C1  UNL     1     -33.473   7.005   3.490  1.00 20.00     0.134 C 
HETATM    2  O9  UNL     1     -34.032   7.858   4.181  1.00 20.00    -0.297 OA
ENDROOT
BRANCH   1   3
HETATM    3  C3  UNL     1     -32.090   7.245   2.940  1.00 20.00     0.060 A 
HETATM    4  C2  UNL     1     -31.385   8.491   3.344  1.00 20.00     0.017 A 
HETATM    5  C4  UNL     1     -31.873   8.321   1.933  1.00 20.00    -0.007 A 
HETATM    6  C5  UNL     1     -32.965   9.193   1.414  1.00 20.00     0.011 C 
ENDBRANCH   1   3
BRANCH   1   7
HETATM    7  C8  UNL     1     -34.117   5.658   3.176  1.00 20.00     0.048 C 
HETATM    8  C6  UNL     1     -33.081   4.713   2.580  1.00 20.00     0.017 C 
HETATM    9  C7  UNL     1     -34.750   5.050   4.426  1.00 20.00     0.017 C 
ENDBRANCH   1   7
TORSDOF 2
ENDMDL
MODEL 5
REMARK VINA RESULT:      -4.8      1.697      2.322
REMARK  2 active torsions:
REMARK  status: ('A' for Active; 'I' for Inactive)
REMARK    1  A    between atoms: C1_1  and  C3_3 
REMARK    2  A    between atoms: C1_1  and  C8_8 
ROOT
HETATM    1  C1  UNL     1     -33.507   6.283   3.237  1.00 20.00     0.134 C 
HETATM    2  O9  UNL     1     -32.819   5.362   2.793  1.00 20.00    -0.297 OA
ENDROOT
BRANCH   1   3
HETATM    3  C3  UNL     1     -33.463   7.650   2.603  1.00 20.00     0.060 A 
HETATM    4  C2  UNL     1     -32.458   7.893   1.534  1.00 20.00     0.017 A 
HETATM    5  C4  UNL     1     -32.311   8.553   2.876  1.00 20.00    -0.007 A 
HETATM    6  C5  UNL     1     -31.172   8.186   3.765  1.00 20.00     0.011 C 
ENDBRANCH   1   3
BRANCH   1   7
HETATM    7  C8  UNL     1     -34.458   6.097   4.415  1.00 20.00     0.048 C 
HETATM    8  C6  UNL     1     -34.598   4.616   4.741  1.00 20.00     0.017 C 
HETATM    9  C7  UNL     1     -33.975   6.878   5.636  1.00 20.00     0.017 C 
ENDBRANCH   1   7
TORSDOF 2
ENDMDL
MODEL 6
REMARK VINA RESULT:      -4.8      1.639      4.277
REMARK  2 active torsions:
REMARK  status: ('A' for Active; 'I' for Inactive)
REMARK    1  A    between atoms: C1_1  and  C3_3 
REMARK    2  A    between atoms: C1_1  and  C8_8 
ROOT
HETATM    1  C1  UNL     1     -33.314   7.083   3.867  1.00 20.00     0.134 C 
HETATM    2  O9  UNL     1     -33.567   7.598   4.957  1.00 20.00    -0.297 OA
ENDROOT
BRANCH   1   3
HETATM    3  C3  UNL     1     -34.149   5.941   3.345  1.00 20.00     0.060 A 
HETATM    4  C2  UNL     1     -35.602   5.935   3.665  1.00 20.00     0.017 A 
HETATM    5  C4  UNL     1     -34.684   4.924   4.293  1.00 20.00    -0.007 A 
HETATM    6  C5  UNL     1     -34.434   4.959   5.762  1.00 20.00     0.011 C 
ENDBRANCH   1   3
BRANCH   1   7
HETATM    7  C8  UNL     1     -32.183   7.578   2.972  1.00 20.00     0.048 C 
HETATM    8  C6  UNL     1     -32.752   8.391   1.816  1.00 20.00     0.017 C 
HETATM    9  C7  UNL     1     -31.174   8.402   3.770  1.00 20.00     0.017 C 
ENDBRANCH   1   7
TORSDOF 2
ENDMDL
MODEL 7
REMARK VINA RESULT:      -4.7      0.710      3.761
REMARK  2 active torsions:
REMARK  status: ('A' for Active; 'I' for Inactive)
REMARK    1  A    between atoms: C1_1  and  C3_3 
REMARK    2  A    between atoms: C1_1  and  C8_8 
ROOT
HETATM    1  C1  UNL     1     -32.166   7.945   2.745  1.00 20.00     0.134 C 
HETATM    2  O9  UNL     1     -31.412   8.408   3.603  1.00 20.00    -0.297 OA
ENDROOT
BRANCH   1   3
HETATM    3  C3  UNL     1     -32.840   6.613   2.953  1.00 20.00     0.060 A 
HETATM    4  C2  UNL     1     -34.327   6.569   2.916  1.00 20.00     0.017 A 
HETATM    5  C4  UNL     1     -33.594   6.356   4.211  1.00 20.00    -0.007 A 
HETATM    6  C5  UNL     1     -33.723   7.354   5.311  1.00 20.00     0.011 C 
ENDBRANCH   1   3
BRANCH   1   7
HETATM    7  C8  UNL     1     -32.489   8.689   1.454  1.00 20.00     0.048 C 
HETATM    8  C6  UNL     1     -32.838  10.140   1.763  1.00 20.00     0.017 C 
HETATM    9  C7  UNL     1     -31.324   8.610   0.470  1.00 20.00     0.017 C 
ENDBRANCH   1   7
TORSDOF 2
ENDMDL
MODEL 8
REMARK VINA RESULT:      -4.5      2.603      4.787
REMARK  2 active torsions:
REMARK  status: ('A' for Active; 'I' for Inactive)
REMARK    1  A    between atoms: C1_1  and  C3_3 
REMARK    2  A    between atoms: C1_1  and  C8_8 
ROOT
HETATM    1  C1  UNL     1     -34.708   5.754   3.628  1.00 20.00     0.134 C 
HETATM    2  O9  UNL     1     -35.882   6.123   3.560  1.00 20.00    -0.297 OA
ENDROOT
BRANCH   1   3
HETATM    3  C3  UNL     1     -34.178   5.104   4.881  1.00 20.00     0.060 A 
HETATM    4  C2  UNL     1     -35.006   5.185   6.114  1.00 20.00     0.017 A 
HETATM    5  C4  UNL     1     -33.719   5.953   6.015  1.00 20.00    -0.007 A 
HETATM    6  C5  UNL     1     -33.741   7.443   5.988  1.00 20.00     0.011 C 
ENDBRANCH   1   3
BRANCH   1   7
HETATM    7  C8  UNL     1     -33.738   5.896   2.460  1.00 20.00     0.048 C 
HETATM    8  C6  UNL     1     -32.924   7.175   2.612  1.00 20.00     0.017 C 
HETATM    9  C7  UNL     1     -32.822   4.678   2.359  1.00 20.00     0.017 C 
ENDBRANCH   1   7
TORSDOF 2
ENDMDL
MODEL 9
REMARK VINA RESULT:      -4.2      2.625      3.631
REMARK  2 active torsions:
REMARK  status: ('A' for Active; 'I' for Inactive)
REMARK    1  A    between atoms: C1_1  and  C3_3 
REMARK    2  A    between atoms: C1_1  and  C8_8 
ROOT
HETATM    1  C1  UNL     1     -34.767   6.383   4.077  1.00 20.00     0.134 C 
HETATM    2  O9  UNL     1     -35.763   6.117   3.403  1.00 20.00    -0.297 OA
ENDROOT
BRANCH   1   3
HETATM    3  C3  UNL     1     -33.533   6.960   3.432  1.00 20.00     0.060 A 
HETATM    4  C2  UNL     1     -33.500   7.055   1.948  1.00 20.00     0.017 A 
HETATM    5  C4  UNL     1     -32.617   6.071   2.664  1.00 20.00    -0.007 A 
HETATM    6  C5  UNL     1     -32.844   4.608   2.495  1.00 20.00     0.011 C 
ENDBRANCH   1   3
BRANCH   1   7
HETATM    7  C8  UNL     1     -34.727   6.184   5.589  1.00 20.00     0.048 C 
HETATM    8  C6  UNL     1     -34.407   4.730   5.913  1.00 20.00     0.017 C 
HETATM    9  C7  UNL     1     -33.710   7.121   6.238  1.00 20.00     0.017 C 
ENDBRANCH   1   7
TORSDOF 2
ENDMDL
