MODEL 1
REMARK VINA RESULT:      -4.9      0.000      0.000
REMARK  1 active torsions:
REMARK  status: ('A' for Active; 'I' for Inactive)
REMARK    1  A    between atoms: C4_4  and  C7_7 
ROOT
HETATM    1  C1  UNL     1     -34.036   4.768   3.558  1.00 20.00     0.035 A 
HETATM    2  C2  UNL     1     -33.601   5.612   2.619  1.00 20.00    -0.008 A 
HETATM    3  C3  UNL     1     -34.346   5.453   4.819  1.00 20.00     0.085 A 
HETATM    4  C4  UNL     1     -33.496   7.065   2.959  1.00 20.00     0.080 A 
HETATM    5  N8  UNL     1     -34.780   4.906   5.897  1.00 20.00    -0.293 NA
HETATM    6  S9  UNL     1     -34.052   7.173   4.697  1.00 20.00    -0.102 SA
HETATM    7  H20 UNL     1     -34.883   3.894   5.751  1.00 20.00     0.187 HD
ENDROOT
BRANCH   4   8
HETATM    8  C7  UNL     1     -32.074   7.592   2.824  1.00 20.00    -0.005 C 
HETATM    9  C5  UNL     1     -31.947   8.503   1.603  1.00 20.00     0.011 C 
HETATM   10  C6  UNL     1     -31.649   8.335   4.090  1.00 20.00     0.011 C 
ENDBRANCH   4   8
TORSDOF 1
ENDMDL
MODEL 2
REMARK VINA RESULT:      -4.9      2.318      3.921
REMARK  1 active torsions:
REMARK  status: ('A' for Active; 'I' for Inactive)
REMARK    1  A    between atoms: C4_4  and  C7_7 
ROOT
HETATM    1  C1  UNL     1     -32.893   7.895   5.071  1.00 20.00     0.035 A 
HETATM    2  C2  UNL     1     -34.038   7.231   5.249  1.00 20.00    -0.008 A 
HETATM    3  C3  UNL     1     -32.370   7.746   3.707  1.00 20.00     0.085 A 
HETATM    4  C4  UNL     1     -34.605   6.467   4.095  1.00 20.00     0.080 A 
HETATM    5  N8  UNL     1     -31.291   8.264   3.243  1.00 20.00    -0.293 NA
HETATM    6  S9  UNL     1     -33.420   6.741   2.732  1.00 20.00    -0.102 SA
HETATM    7  H20 UNL     1     -30.831   8.814   3.978  1.00 20.00     0.187 HD
ENDROOT
BRANCH   4   8
HETATM    8  C7  UNL     1     -34.736   4.979   4.392  1.00 20.00    -0.005 C 
HETATM    9  C5  UNL     1     -33.722   4.173   3.580  1.00 20.00     0.011 C 
HETATM   10  C6  UNL     1     -34.559   4.708   5.887  1.00 20.00     0.011 C 
ENDBRANCH   4   8
TORSDOF 1
ENDMDL
MODEL 3
REMARK VINA RESULT:      -4.6     11.406     11.815
REMARK  1 active torsions:
REMARK  status: ('A' for Active; 'I' for Inactive)
REMARK    1  A    between atoms: C4_4  and  C7_7 
ROOT
HETATM    1  C1  UNL     1     -33.723  14.128  -4.661  1.00 20.00     0.035 A 
HETATM    2  C2  UNL     1     -33.300  15.308  -4.198  1.00 20.00    -0.008 A 
HETATM    3  C3  UNL     1     -35.185  14.004  -4.608  1.00 20.00     0.085 A 
HETATM    4  C4  UNL     1     -34.319  16.292  -3.716  1.00 20.00     0.080 A 
HETATM    5  N8  UNL     1     -35.878  12.989  -4.982  1.00 20.00    -0.293 NA
HETATM    6  S9  UNL     1     -35.923  15.451  -3.956  1.00 20.00    -0.102 SA
HETATM    7  H20 UNL     1     -35.250  12.255  -5.331  1.00 20.00     0.187 HD
ENDROOT
BRANCH   4   8
HETATM    8  C7  UNL     1     -34.126  16.657  -2.251  1.00 20.00    -0.005 C 
HETATM    9  C5  UNL     1     -33.241  17.896  -2.113  1.00 20.00     0.011 C 
HETATM   10  C6  UNL     1     -35.475  16.885  -1.567  1.00 20.00     0.011 C 
ENDBRANCH   4   8
TORSDOF 1
ENDMDL
MODEL 4
REMARK VINA RESULT:      -4.2      2.607      3.846
REMARK  1 active torsions:
REMARK  status: ('A' for Active; 'I' for Inactive)
REMARK    1  A    between atoms: C4_4  and  C7_7 
ROOT
HETATM    1  C1  UNL     1     -33.382   7.090   1.605  1.00 20.00     0.035 A 
HETATM    2  C2  UNL     1     -33.688   6.168   2.522  1.00 20.00    -0.008 A 
HETATM    3  C3  UNL     1     -32.532   8.155   2.152  1.00 20.00     0.085 A 
HETATM    4  C4  UNL     1     -33.151   6.335   3.908  1.00 20.00     0.080 A 
HETATM    5  N8  UNL     1     -32.081   9.174   1.513  1.00 20.00    -0.293 NA
HETATM    6  S9  UNL     1     -32.179   7.881   3.844  1.00 20.00    -0.102 SA
HETATM    7  H20 UNL     1     -32.405   9.140   0.539  1.00 20.00     0.187 HD
ENDROOT
BRANCH   4   8
HETATM    8  C7  UNL     1     -34.256   6.446   4.949  1.00 20.00    -0.005 C 
HETATM    9  C5  UNL     1     -34.641   5.065   5.481  1.00 20.00     0.011 C 
HETATM   10  C6  UNL     1     -33.828   7.360   6.098  1.00 20.00     0.011 C 
ENDBRANCH   4   8
TORSDOF 1
ENDMDL
MODEL 5
REMARK VINA RESULT:      -4.2     11.977     12.534
REMARK  1 active torsions:
REMARK  status: ('A' for Active; 'I' for Inactive)
REMARK    1  A    between atoms: C4_4  and  C7_7 
ROOT
HETATM    1  C1  UNL     1     -33.140  15.935  -5.569  1.00 20.00     0.035 A 
HETATM    2  C2  UNL     1     -33.494  16.872  -4.686  1.00 20.00    -0.008 A 
HETATM    3  C3  UNL     1     -33.986  14.738  -5.478  1.00 20.00     0.085 A 
HETATM    4  C4  UNL     1     -34.645  16.592  -3.772  1.00 20.00     0.080 A 
HETATM    5  N8  UNL     1     -33.885  13.677  -6.194  1.00 20.00    -0.293 NA
HETATM    6  S9  UNL     1     -35.205  14.916  -4.235  1.00 20.00    -0.102 SA
HETATM    7  H20 UNL     1     -33.109  13.783  -6.858  1.00 20.00     0.187 HD
ENDROOT
BRANCH   4   8
HETATM    8  C7  UNL     1     -34.243  16.630  -2.304  1.00 20.00    -0.005 C 
HETATM    9  C5  UNL     1     -33.169  17.691  -2.064  1.00 20.00     0.011 C 
HETATM   10  C6  UNL     1     -35.460  16.892  -1.416  1.00 20.00     0.011 C 
ENDBRANCH   4   8
TORSDOF 1
ENDMDL
MODEL 6
REMARK VINA RESULT:      -4.1      1.484      2.054
REMARK  1 active torsions:
REMARK  status: ('A' for Active; 'I' for Inactive)
REMARK    1  A    between atoms: C4_4  and  C7_7 
ROOT
HETATM    1  C1  UNL     1     -33.078   4.867   2.773  1.00 20.00     0.035 A 
HETATM    2  C2  UNL     1     -33.110   6.194   2.625  1.00 20.00    -0.008 A 
HETATM    3  C3  UNL     1     -33.961   4.407   3.852  1.00 20.00     0.085 A 
HETATM    4  C4  UNL     1     -33.997   6.991   3.529  1.00 20.00     0.080 A 
HETATM    5  N8  UNL     1     -34.138   3.192   4.228  1.00 20.00    -0.293 NA
HETATM    6  S9  UNL     1     -34.791   5.749   4.609  1.00 20.00    -0.102 SA
HETATM    7  H20 UNL     1     -33.559   2.568   3.652  1.00 20.00     0.187 HD
ENDROOT
BRANCH   4   8
HETATM    8  C7  UNL     1     -33.220   8.000   4.362  1.00 20.00    -0.005 C 
HETATM    9  C5  UNL     1     -33.233   7.607   5.840  1.00 20.00     0.011 C 
HETATM   10  C6  UNL     1     -31.782   8.127   3.858  1.00 20.00     0.011 C 
ENDBRANCH   4   8
TORSDOF 1
ENDMDL
MODEL 7
REMARK VINA RESULT:      -4.1      1.451      2.214
REMARK  1 active torsions:
REMARK  status: ('A' for Active; 'I' for Inactive)
REMARK    1  A    between atoms: C4_4  and  C7_7 
ROOT
HETATM    1  C1  UNL     1     -33.641   7.258   4.898  1.00 20.00     0.035 A 
HETATM    2  C2  UNL     1     -32.661   7.868   4.227  1.00 20.00    -0.008 A 
HETATM    3  C3  UNL     1     -34.245   6.165   4.127  1.00 20.00     0.085 A 
HETATM    4  C4  UNL     1     -32.327   7.380   2.853  1.00 20.00     0.080 A 
HETATM    5  N8  UNL     1     -35.206   5.402   4.509  1.00 20.00    -0.293 NA
HETATM    6  S9  UNL     1     -33.485   5.997   2.560  1.00 20.00    -0.102 SA
HETATM    7  H20 UNL     1     -35.501   5.671   5.455  1.00 20.00     0.187 HD
ENDROOT
BRANCH   4   8
HETATM    8  C7  UNL     1     -32.509   8.458   1.793  1.00 20.00    -0.005 C 
HETATM    9  C5  UNL     1     -32.445   9.850   2.420  1.00 20.00     0.011 C 
HETATM   10  C6  UNL     1     -31.457   8.319   0.692  1.00 20.00     0.011 C 
ENDBRANCH   4   8
TORSDOF 1
ENDMDL
MODEL 8
REMARK VINA RESULT:      -4.0     11.708     12.389
REMARK  1 active torsions:
REMARK  status: ('A' for Active; 'I' for Inactive)
REMARK    1  A    between atoms: C4_4  and  C7_7 
ROOT
HETATM    1  C1  UNL     1     -34.124  14.303  -5.892  1.00 20.00     0.035 A 
HETATM    2  C2  UNL     1     -33.730  15.566  -5.706  1.00 20.00    -0.008 A 
HETATM    3  C3  UNL     1     -35.323  13.975  -5.110  1.00 20.00     0.085 A 
HETATM    4  C4  UNL     1     -34.522  16.431  -4.777  1.00 20.00     0.080 A 
HETATM    5  N8  UNL     1     -35.929  12.843  -5.082  1.00 20.00    -0.293 NA
HETATM    6  S9  UNL     1     -35.867  15.351  -4.175  1.00 20.00    -0.102 SA
HETATM    7  H20 UNL     1     -35.446  12.181  -5.700  1.00 20.00     0.187 HD
ENDROOT
BRANCH   4   8
HETATM    8  C7  UNL     1     -33.689  16.942  -3.609  1.00 20.00    -0.005 C 
HETATM    9  C5  UNL     1     -33.410  18.438  -3.757  1.00 20.00     0.011 C 
HETATM   10  C6  UNL     1     -34.389  16.658  -2.280  1.00 20.00     0.011 C 
ENDBRANCH   4   8
TORSDOF 1
ENDMDL
MODEL 9
REMARK VINA RESULT:      -3.9     11.770     12.426
REMARK  1 active torsions:
REMARK  status: ('A' for Active; 'I' for Inactive)
REMARK    1  A    between atoms: C4_4  and  C7_7 
ROOT
HETATM    1  C1  UNL     1     -36.910  15.525  -4.120  1.00 20.00     0.035 A 
HETATM    2  C2  UNL     1     -35.601  15.547  -3.854  1.00 20.00    -0.008 A 
HETATM    3  C3  UNL     1     -37.280  14.404  -4.992  1.00 20.00     0.085 A 
HETATM    4  C4  UNL     1     -34.735  14.482  -4.448  1.00 20.00     0.080 A 
HETATM    5  N8  UNL     1     -38.459  14.126  -5.419  1.00 20.00    -0.293 NA
HETATM    6  S9  UNL     1     -35.882  13.436  -5.411  1.00 20.00    -0.102 SA
HETATM    7  H20 UNL     1     -39.126  14.816  -5.055  1.00 20.00     0.187 HD
ENDROOT
BRANCH   4   8
HETATM    8  C7  UNL     1     -33.651  15.052  -5.352  1.00 20.00    -0.005 C 
HETATM    9  C5  UNL     1     -34.036  14.896  -6.824  1.00 20.00     0.011 C 
HETATM   10  C6  UNL     1     -33.388  16.522  -5.023  1.00 20.00     0.011 C 
ENDBRANCH   4   8
TORSDOF 1
ENDMDL
