MODEL 1
REMARK VINA RESULT:      -4.8      0.000      0.000
REMARK  0 active torsions:
REMARK  status: ('A' for Active; 'I' for Inactive)
ROOT
HETATM    1  C1  UNL     1     -33.995   7.433   5.945  1.00 20.00     0.004 C 
HETATM    2  C2  UNL     1     -34.180   5.930   5.783  1.00 20.00     0.027 C 
HETATM    3  C3  UNL     1     -32.785   7.882   5.137  1.00 20.00     0.027 C 
HETATM    4  C4  UNL     1     -34.306   5.496   4.307  1.00 20.00     0.037 C 
HETATM    5  C5  UNL     1     -32.880   7.492   3.647  1.00 20.00     0.037 C 
HETATM    6  C6  UNL     1     -35.714   5.809   3.767  1.00 20.00     0.034 C 
HETATM    7  C7  UNL     1     -34.120   3.963   4.248  1.00 20.00     0.034 C 
HETATM    8  C8  UNL     1     -31.476   7.663   3.023  1.00 20.00     0.034 C 
HETATM    9  C9  UNL     1     -33.834   8.440   2.897  1.00 20.00     0.034 C 
HETATM   10  N10 UNL     1     -33.239   6.076   3.474  1.00 20.00    -0.137 NA
HETATM   11  F11 UNL     1     -33.364   5.727   2.150  1.00 20.00    -0.132 F 
ENDROOT
TORSDOF 0
ENDMDL
MODEL 2
REMARK VINA RESULT:      -4.3     12.164     13.547
REMARK  0 active torsions:
REMARK  status: ('A' for Active; 'I' for Inactive)
ROOT
HETATM    1  C1  UNL     1     -33.194  14.667  -4.509  1.00 20.00     0.004 C 
HETATM    2  C2  UNL     1     -32.986  15.718  -5.591  1.00 20.00     0.027 C 
HETATM    3  C3  UNL     1     -34.556  14.875  -3.859  1.00 20.00     0.027 C 
HETATM    4  C4  UNL     1     -34.111  15.721  -6.649  1.00 20.00     0.037 C 
HETATM    5  C5  UNL     1     -35.715  14.858  -4.878  1.00 20.00     0.037 C 
HETATM    6  C6  UNL     1     -33.931  14.552  -7.635  1.00 20.00     0.034 C 
HETATM    7  C7  UNL     1     -33.993  17.031  -7.459  1.00 20.00     0.034 C 
HETATM    8  C8  UNL     1     -36.967  15.432  -4.178  1.00 20.00     0.034 C 
HETATM    9  C9  UNL     1     -36.046  13.415  -5.302  1.00 20.00     0.034 C 
HETATM   10  N10 UNL     1     -35.445  15.736  -6.027  1.00 20.00    -0.137 NA
HETATM   11  F11 UNL     1     -36.455  15.700  -6.960  1.00 20.00    -0.132 F 
ENDROOT
TORSDOF 0
ENDMDL
MODEL 3
REMARK VINA RESULT:      -4.3      1.591      3.668
REMARK  0 active torsions:
REMARK  status: ('A' for Active; 'I' for Inactive)
ROOT
HETATM    1  C1  UNL     1     -33.089   4.919   2.364  1.00 20.00     0.004 C 
HETATM    2  C2  UNL     1     -32.094   6.048   2.598  1.00 20.00     0.027 C 
HETATM    3  C3  UNL     1     -33.713   4.513   3.693  1.00 20.00     0.027 C 
HETATM    4  C4  UNL     1     -32.723   7.264   3.310  1.00 20.00     0.037 C 
HETATM    5  C5  UNL     1     -34.378   5.696   4.429  1.00 20.00     0.037 C 
HETATM    6  C6  UNL     1     -33.560   8.098   2.322  1.00 20.00     0.034 C 
HETATM    7  C7  UNL     1     -31.572   8.164   3.812  1.00 20.00     0.034 C 
HETATM    8  C8  UNL     1     -34.641   5.257   5.888  1.00 20.00     0.034 C 
HETATM    9  C9  UNL     1     -35.742   6.031   3.798  1.00 20.00     0.034 C 
HETATM   10  N10 UNL     1     -33.488   6.865   4.503  1.00 20.00    -0.137 NA
HETATM   11  F11 UNL     1     -34.085   7.937   5.123  1.00 20.00    -0.132 F 
ENDROOT
TORSDOF 0
ENDMDL
MODEL 4
REMARK VINA RESULT:      -4.2     11.883     13.315
REMARK  0 active torsions:
REMARK  status: ('A' for Active; 'I' for Inactive)
ROOT
HETATM    1  C1  UNL     1     -33.669  16.587  -6.827  1.00 20.00     0.004 C 
HETATM    2  C2  UNL     1     -34.976  16.009  -7.351  1.00 20.00     0.027 C 
HETATM    3  C3  UNL     1     -33.778  16.799  -5.323  1.00 20.00     0.027 C 
HETATM    4  C4  UNL     1     -35.386  14.704  -6.635  1.00 20.00     0.037 C 
HETATM    5  C5  UNL     1     -34.160  15.512  -4.562  1.00 20.00     0.037 C 
HETATM    6  C6  UNL     1     -34.557  13.516  -7.157  1.00 20.00     0.034 C 
HETATM    7  C7  UNL     1     -36.865  14.421  -6.978  1.00 20.00     0.034 C 
HETATM    8  C8  UNL     1     -34.593  15.918  -3.135  1.00 20.00     0.034 C 
HETATM    9  C9  UNL     1     -32.942  14.581  -4.423  1.00 20.00     0.034 C 
HETATM   10  N10 UNL     1     -35.319  14.841  -5.171  1.00 20.00    -0.137 NA
HETATM   11  F11 UNL     1     -35.645  13.672  -4.523  1.00 20.00    -0.132 F 
ENDROOT
TORSDOF 0
ENDMDL
MODEL 5
REMARK VINA RESULT:      -4.0     11.218     13.146
REMARK  0 active torsions:
REMARK  status: ('A' for Active; 'I' for Inactive)
ROOT
HETATM    1  C1  UNL     1     -33.782  16.545  -6.631  1.00 20.00     0.004 C 
HETATM    2  C2  UNL     1     -32.974  15.826  -5.560  1.00 20.00     0.027 C 
HETATM    3  C3  UNL     1     -34.453  15.516  -7.532  1.00 20.00     0.027 C 
HETATM    4  C4  UNL     1     -33.820  14.833  -4.734  1.00 20.00     0.037 C 
HETATM    5  C5  UNL     1     -35.332  14.517  -6.751  1.00 20.00     0.037 C 
HETATM    6  C6  UNL     1     -34.679  15.583  -3.699  1.00 20.00     0.034 C 
HETATM    7  C7  UNL     1     -32.849  13.920  -3.953  1.00 20.00     0.034 C 
HETATM    8  C8  UNL     1     -35.652  13.334  -7.691  1.00 20.00     0.034 C 
HETATM    9  C9  UNL     1     -36.672  15.166  -6.356  1.00 20.00     0.034 C 
HETATM   10  N10 UNL     1     -34.619  13.948  -5.597  1.00 20.00    -0.137 NA
HETATM   11  F11 UNL     1     -35.407  13.085  -4.871  1.00 20.00    -0.132 F 
ENDROOT
TORSDOF 0
ENDMDL
MODEL 6
REMARK VINA RESULT:      -4.0     12.126     13.455
REMARK  0 active torsions:
REMARK  status: ('A' for Active; 'I' for Inactive)
ROOT
HETATM    1  C1  UNL     1     -35.841  13.482  -5.572  1.00 20.00     0.004 C 
HETATM    2  C2  UNL     1     -35.470  14.258  -4.316  1.00 20.00     0.027 C 
HETATM    3  C3  UNL     1     -36.115  14.461  -6.706  1.00 20.00     0.027 C 
HETATM    4  C4  UNL     1     -34.273  15.209  -4.529  1.00 20.00     0.037 C 
HETATM    5  C5  UNL     1     -34.933  15.416  -6.973  1.00 20.00     0.037 C 
HETATM    6  C6  UNL     1     -32.949  14.423  -4.533  1.00 20.00     0.034 C 
HETATM    7  C7  UNL     1     -34.226  16.185  -3.332  1.00 20.00     0.034 C 
HETATM    8  C8  UNL     1     -35.449  16.570  -7.863  1.00 20.00     0.034 C 
HETATM    9  C9  UNL     1     -33.819  14.697  -7.755  1.00 20.00     0.034 C 
HETATM   10  N10 UNL     1     -34.442  16.039  -5.734  1.00 20.00    -0.137 NA
HETATM   11  F11 UNL     1     -33.363  16.863  -5.955  1.00 20.00    -0.132 F 
ENDROOT
TORSDOF 0
ENDMDL
MODEL 7
REMARK VINA RESULT:      -4.0     12.126     13.349
REMARK  0 active torsions:
REMARK  status: ('A' for Active; 'I' for Inactive)
ROOT
HETATM    1  C1  UNL     1     -33.207  14.791  -4.291  1.00 20.00     0.004 C 
HETATM    2  C2  UNL     1     -34.649  14.309  -4.213  1.00 20.00     0.027 C 
HETATM    3  C3  UNL     1     -33.006  15.576  -5.580  1.00 20.00     0.027 C 
HETATM    4  C4  UNL     1     -35.673  15.459  -4.327  1.00 20.00     0.037 C 
HETATM    5  C5  UNL     1     -33.992  16.754  -5.724  1.00 20.00     0.037 C 
HETATM    6  C6  UNL     1     -35.773  16.230  -2.998  1.00 20.00     0.034 C 
HETATM    7  C7  UNL     1     -37.058  14.833  -4.602  1.00 20.00     0.034 C 
HETATM    8  C8  UNL     1     -33.944  17.234  -7.192  1.00 20.00     0.034 C 
HETATM    9  C9  UNL     1     -33.559  17.938  -4.840  1.00 20.00     0.034 C 
HETATM   10  N10 UNL     1     -35.381  16.339  -5.471  1.00 20.00    -0.137 NA
HETATM   11  F11 UNL     1     -36.264  17.389  -5.559  1.00 20.00    -0.132 F 
ENDROOT
TORSDOF 0
ENDMDL
MODEL 8
REMARK VINA RESULT:      -3.9     11.969     13.304
REMARK  0 active torsions:
REMARK  status: ('A' for Active; 'I' for Inactive)
ROOT
HETATM    1  C1  UNL     1     -34.097  14.939  -7.423  1.00 20.00     0.004 C 
HETATM    2  C2  UNL     1     -35.611  14.979  -7.261  1.00 20.00     0.027 C 
HETATM    3  C3  UNL     1     -33.466  15.992  -6.522  1.00 20.00     0.027 C 
HETATM    4  C4  UNL     1     -36.062  14.799  -5.796  1.00 20.00     0.037 C 
HETATM    5  C5  UNL     1     -33.869  15.834  -5.041  1.00 20.00     0.037 C 
HETATM    6  C6  UNL     1     -35.976  13.319  -5.379  1.00 20.00     0.034 C 
HETATM    7  C7  UNL     1     -37.547  15.217  -5.705  1.00 20.00     0.034 C 
HETATM    8  C8  UNL     1     -33.482  17.136  -4.304  1.00 20.00     0.034 C 
HETATM    9  C9  UNL     1     -33.085  14.684  -4.383  1.00 20.00     0.034 C 
HETATM   10  N10 UNL     1     -35.325  15.688  -4.884  1.00 20.00    -0.137 NA
HETATM   11  F11 UNL     1     -35.693  15.508  -3.571  1.00 20.00    -0.132 F 
ENDROOT
TORSDOF 0
ENDMDL
MODEL 9
REMARK VINA RESULT:      -3.9     11.947     13.153
REMARK  0 active torsions:
REMARK  status: ('A' for Active; 'I' for Inactive)
ROOT
HETATM    1  C1  UNL     1     -33.357  16.024  -5.875  1.00 20.00     0.004 C 
HETATM    2  C2  UNL     1     -33.378  16.434  -4.409  1.00 20.00     0.027 C 
HETATM    3  C3  UNL     1     -34.100  14.704  -6.040  1.00 20.00     0.027 C 
HETATM    4  C4  UNL     1     -34.807  16.526  -3.832  1.00 20.00     0.037 C 
HETATM    5  C5  UNL     1     -35.545  14.758  -5.500  1.00 20.00     0.037 C 
HETATM    6  C6  UNL     1     -35.495  17.826  -4.290  1.00 20.00     0.034 C 
HETATM    7  C7  UNL     1     -34.691  16.584  -2.292  1.00 20.00     0.034 C 
HETATM    8  C8  UNL     1     -36.059  13.305  -5.383  1.00 20.00     0.034 C 
HETATM    9  C9  UNL     1     -36.468  15.494  -6.488  1.00 20.00     0.034 C 
HETATM   10  N10 UNL     1     -35.600  15.326  -4.143  1.00 20.00    -0.137 NA
HETATM   11  F11 UNL     1     -36.887  15.414  -3.667  1.00 20.00    -0.132 F 
ENDROOT
TORSDOF 0
ENDMDL
