MODEL 1
REMARK VINA RESULT:      -4.9      0.000      0.000
REMARK  0 active torsions:
REMARK  status: ('A' for Active; 'I' for Inactive)
ROOT
HETATM    1  C1  UNL     1     -33.352   7.211   3.449  1.00 20.00     0.134 C 
HETATM    2  C2  UNL     1     -33.097   7.198   4.944  1.00 20.00     0.109 C 
HETATM    3  C3  UNL     1     -33.455   4.731   3.245  1.00 20.00     0.044 C 
HETATM    4  C4  UNL     1     -34.257   6.543   5.707  1.00 20.00     0.280 C 
HETATM    5  C5  UNL     1     -34.007   4.366   4.627  1.00 20.00     0.273 C 
HETATM    6  C6  UNL     1     -35.440   5.949   3.703  1.00 20.00     0.284 C 
HETATM    7  C7  UNL     1     -34.155   6.040   2.903  1.00 20.00     0.085 C 
HETATM    8  N8  UNL     1     -34.949   5.442   5.000  1.00 20.00     0.089 N 
HETATM    9  O9  UNL     1     -32.877   8.074   2.714  1.00 20.00    -0.297 OA
ENDROOT
TORSDOF 0
ENDMDL
MODEL 2
REMARK VINA RESULT:      -4.2      2.043      3.022
REMARK  0 active torsions:
REMARK  status: ('A' for Active; 'I' for Inactive)
ROOT
HETATM    1  C1  UNL     1     -34.005   4.363   3.998  1.00 20.00     0.134 C 
HETATM    2  C2  UNL     1     -32.852   5.009   3.252  1.00 20.00     0.109 C 
HETATM    3  C3  UNL     1     -34.092   6.107   5.774  1.00 20.00     0.044 C 
HETATM    4  C4  UNL     1     -33.223   6.413   2.751  1.00 20.00     0.280 C 
HETATM    5  C5  UNL     1     -33.615   7.329   4.981  1.00 20.00     0.273 C 
HETATM    6  C6  UNL     1     -35.383   6.383   3.801  1.00 20.00     0.284 C 
HETATM    7  C7  UNL     1     -34.912   5.312   4.766  1.00 20.00     0.085 C 
HETATM    8  N8  UNL     1     -34.152   7.177   3.612  1.00 20.00     0.089 N 
HETATM    9  O9  UNL     1     -34.152   3.144   4.039  1.00 20.00    -0.297 OA
ENDROOT
TORSDOF 0
ENDMDL
MODEL 3
REMARK VINA RESULT:      -4.2     11.930     12.975
REMARK  0 active torsions:
REMARK  status: ('A' for Active; 'I' for Inactive)
ROOT
HETATM    1  C1  UNL     1     -35.402  13.804  -5.223  1.00 20.00     0.134 C 
HETATM    2  C2  UNL     1     -35.479  14.712  -6.436  1.00 20.00     0.109 C 
HETATM    3  C3  UNL     1     -33.150  14.602  -4.520  1.00 20.00     0.044 C 
HETATM    4  C4  UNL     1     -35.424  16.193  -6.033  1.00 20.00     0.280 C 
HETATM    5  C5  UNL     1     -33.203  16.048  -5.026  1.00 20.00     0.273 C 
HETATM    6  C6  UNL     1     -35.088  15.705  -3.705  1.00 20.00     0.284 C 
HETATM    7  C7  UNL     1     -34.575  14.322  -4.057  1.00 20.00     0.085 C 
HETATM    8  N8  UNL     1     -34.597  16.505  -4.846  1.00 20.00     0.089 N 
HETATM    9  O9  UNL     1     -35.915  12.687  -5.212  1.00 20.00    -0.297 OA
ENDROOT
TORSDOF 0
ENDMDL
MODEL 4
REMARK VINA RESULT:      -4.1     12.407     13.302
REMARK  0 active torsions:
REMARK  status: ('A' for Active; 'I' for Inactive)
ROOT
HETATM    1  C1  UNL     1     -35.299  13.682  -5.500  1.00 20.00     0.134 C 
HETATM    2  C2  UNL     1     -34.568  13.816  -6.823  1.00 20.00     0.109 C 
HETATM    3  C3  UNL     1     -33.566  14.905  -4.193  1.00 20.00     0.044 C 
HETATM    4  C4  UNL     1     -34.389  15.288  -7.221  1.00 20.00     0.280 C 
HETATM    5  C5  UNL     1     -33.042  15.865  -5.266  1.00 20.00     0.273 C 
HETATM    6  C6  UNL     1     -35.354  16.114  -5.181  1.00 20.00     0.284 C 
HETATM    7  C7  UNL     1     -35.056  14.796  -4.493  1.00 20.00     0.085 C 
HETATM    8  N8  UNL     1     -34.204  16.237  -6.100  1.00 20.00     0.089 N 
HETATM    9  O9  UNL     1     -35.985  12.699  -5.231  1.00 20.00    -0.297 OA
ENDROOT
TORSDOF 0
ENDMDL
MODEL 5
REMARK VINA RESULT:      -4.0      1.574      2.213
REMARK  0 active torsions:
REMARK  status: ('A' for Active; 'I' for Inactive)
ROOT
HETATM    1  C1  UNL     1     -33.997   6.753   5.414  1.00 20.00     0.134 C 
HETATM    2  C2  UNL     1     -33.859   5.278   5.744  1.00 20.00     0.109 C 
HETATM    3  C3  UNL     1     -32.736   6.595   3.272  1.00 20.00     0.044 C 
HETATM    4  C4  UNL     1     -34.523   4.398   4.675  1.00 20.00     0.280 C 
HETATM    5  C5  UNL     1     -33.080   5.161   2.857  1.00 20.00     0.273 C 
HETATM    6  C6  UNL     1     -35.087   6.264   3.272  1.00 20.00     0.284 C 
HETATM    7  C7  UNL     1     -34.012   7.103   3.934  1.00 20.00     0.085 C 
HETATM    8  N8  UNL     1     -34.473   4.921   3.292  1.00 20.00     0.089 N 
HETATM    9  O9  UNL     1     -34.022   7.616   6.288  1.00 20.00    -0.297 OA
ENDROOT
TORSDOF 0
ENDMDL
MODEL 6
REMARK VINA RESULT:      -3.9     12.159     12.851
REMARK  0 active torsions:
REMARK  status: ('A' for Active; 'I' for Inactive)
ROOT
HETATM    1  C1  UNL     1     -35.350  13.911  -4.996  1.00 20.00     0.134 C 
HETATM    2  C2  UNL     1     -35.986  15.037  -4.203  1.00 20.00     0.109 C 
HETATM    3  C3  UNL     1     -34.034  15.427  -6.471  1.00 20.00     0.044 C 
HETATM    4  C4  UNL     1     -34.929  15.879  -3.473  1.00 20.00     0.280 C 
HETATM    5  C5  UNL     1     -33.799  16.601  -5.515  1.00 20.00     0.273 C 
HETATM    6  C6  UNL     1     -33.087  14.670  -4.430  1.00 20.00     0.284 C 
HETATM    7  C7  UNL     1     -33.971  14.200  -5.569  1.00 20.00     0.085 C 
HETATM    8  N8  UNL     1     -33.629  16.018  -4.167  1.00 20.00     0.089 N 
HETATM    9  O9  UNL     1     -35.942  12.858  -5.223  1.00 20.00    -0.297 OA
ENDROOT
TORSDOF 0
ENDMDL
MODEL 7
REMARK VINA RESULT:      -3.9     12.305     13.365
REMARK  0 active torsions:
REMARK  status: ('A' for Active; 'I' for Inactive)
ROOT
HETATM    1  C1  UNL     1     -35.266  13.815  -5.279  1.00 20.00     0.134 C 
HETATM    2  C2  UNL     1     -34.351  14.246  -4.147  1.00 20.00     0.109 C 
HETATM    3  C3  UNL     1     -35.792  16.140  -6.002  1.00 20.00     0.044 C 
HETATM    4  C4  UNL     1     -33.145  15.040  -4.670  1.00 20.00     0.280 C 
HETATM    5  C5  UNL     1     -34.488  16.847  -5.619  1.00 20.00     0.273 C 
HETATM    6  C6  UNL     1     -33.923  15.018  -6.943  1.00 20.00     0.284 C 
HETATM    7  C7  UNL     1     -35.340  14.761  -6.468  1.00 20.00     0.085 C 
HETATM    8  N8  UNL     1     -33.398  15.878  -5.863  1.00 20.00     0.089 N 
HETATM    9  O9  UNL     1     -35.959  12.803  -5.207  1.00 20.00    -0.297 OA
ENDROOT
TORSDOF 0
ENDMDL
MODEL 8
REMARK VINA RESULT:      -3.8     12.162     13.114
REMARK  0 active torsions:
REMARK  status: ('A' for Active; 'I' for Inactive)
ROOT
HETATM    1  C1  UNL     1     -37.132  14.334  -5.243  1.00 20.00     0.134 C 
HETATM    2  C2  UNL     1     -36.882  15.750  -5.727  1.00 20.00     0.109 C 
HETATM    3  C3  UNL     1     -35.333  13.326  -6.641  1.00 20.00     0.044 C 
HETATM    4  C4  UNL     1     -35.462  16.221  -5.378  1.00 20.00     0.280 C 
HETATM    5  C5  UNL     1     -34.344  14.496  -6.698  1.00 20.00     0.273 C 
HETATM    6  C6  UNL     1     -34.821  14.098  -4.454  1.00 20.00     0.284 C 
HETATM    7  C7  UNL     1     -35.923  13.411  -5.238  1.00 20.00     0.085 C 
HETATM    8  N8  UNL     1     -34.418  15.173  -5.385  1.00 20.00     0.089 N 
HETATM    9  O9  UNL     1     -38.256  13.937  -4.944  1.00 20.00    -0.297 OA
ENDROOT
TORSDOF 0
ENDMDL
MODEL 9
REMARK VINA RESULT:      -3.8     12.260     13.220
REMARK  0 active torsions:
REMARK  status: ('A' for Active; 'I' for Inactive)
ROOT
HETATM    1  C1  UNL     1     -34.150  14.820  -4.128  1.00 20.00     0.134 C 
HETATM    2  C2  UNL     1     -33.123  15.393  -5.087  1.00 20.00     0.109 C 
HETATM    3  C3  UNL     1     -33.909  16.656  -2.462  1.00 20.00     0.044 C 
HETATM    4  C4  UNL     1     -33.542  16.779  -5.599  1.00 20.00     0.280 C 
HETATM    5  C5  UNL     1     -33.544  17.820  -3.389  1.00 20.00     0.273 C 
HETATM    6  C6  UNL     1     -35.501  16.865  -4.211  1.00 20.00     0.284 C 
HETATM    7  C7  UNL     1     -34.900  15.833  -3.277  1.00 20.00     0.085 C 
HETATM    8  N8  UNL     1     -34.302  17.613  -4.642  1.00 20.00     0.089 N 
HETATM    9  O9  UNL     1     -34.312  13.609  -3.995  1.00 20.00    -0.297 OA
ENDROOT
TORSDOF 0
ENDMDL
