MODEL 1
REMARK VINA RESULT:      -5.4      0.000      0.000
REMARK  5 active torsions:
REMARK  status: ('A' for Active; 'I' for Inactive)
REMARK    1  A    between atoms: C5_5  and  C6_6 
REMARK    2  A    between atoms: C5_5  and  C7_7 
REMARK    3  A    between atoms: C6_6  and  C8_8 
REMARK    4  A    between atoms: C7_7  and  C9_9 
REMARK    5  A    between atoms: C8_8  and  O10_10 
ROOT
HETATM    1  C5  UNL     1     -32.525   7.315   3.203  1.00 20.00     0.003 C 
ENDROOT
BRANCH   1   2
HETATM    2  C6  UNL     1     -32.965   8.061   1.936  1.00 20.00     0.031 C 
BRANCH   2   3
HETATM    3  C8  UNL     1     -31.979   9.167   1.546  1.00 20.00     0.114 C 
HETATM    4  C1  UNL     1     -32.702  10.452   1.163  1.00 20.00     0.039 C 
BRANCH   3   5
HETATM    5  O10 UNL     1     -31.181   8.746   0.443  1.00 20.00    -0.396 OA
HETATM    6  H30 UNL     1     -30.497   9.423   0.322  1.00 20.00     0.210 HD
ENDBRANCH   3   5
ENDBRANCH   2   3
ENDBRANCH   1   2
BRANCH   1   7
HETATM    7  C7  UNL     1     -33.162   5.921   3.268  1.00 20.00     0.008 C 
BRANCH   7   8
HETATM    8  C9  UNL     1     -34.280   5.739   4.329  1.00 20.00    -0.051 C 
HETATM    9  C2  UNL     1     -34.069   6.679   5.527  1.00 20.00     0.014 C 
HETATM   10  C3  UNL     1     -35.630   6.086   3.669  1.00 20.00     0.014 C 
HETATM   11  C4  UNL     1     -34.341   4.286   4.829  1.00 20.00     0.014 C 
ENDBRANCH   7   8
ENDBRANCH   1   7
TORSDOF 5
ENDMDL
MODEL 2
REMARK VINA RESULT:      -5.4      0.038      1.370
REMARK  5 active torsions:
REMARK  status: ('A' for Active; 'I' for Inactive)
REMARK    1  A    between atoms: C5_5  and  C6_6 
REMARK    2  A    between atoms: C5_5  and  C7_7 
REMARK    3  A    between atoms: C6_6  and  C8_8 
REMARK    4  A    between atoms: C7_7  and  C9_9 
REMARK    5  A    between atoms: C8_8  and  O10_10 
ROOT
HETATM    1  C5  UNL     1     -32.506   7.316   3.212  1.00 20.00     0.003 C 
ENDROOT
BRANCH   1   2
HETATM    2  C6  UNL     1     -32.981   8.089   1.974  1.00 20.00     0.031 C 
BRANCH   2   3
HETATM    3  C8  UNL     1     -31.982   9.173   1.553  1.00 20.00     0.114 C 
HETATM    4  C1  UNL     1     -32.692  10.453   1.131  1.00 20.00     0.039 C 
BRANCH   3   5
HETATM    5  O10 UNL     1     -31.188   8.711   0.464  1.00 20.00    -0.396 OA
HETATM    6  H30 UNL     1     -30.265   8.896   0.696  1.00 20.00     0.210 HD
ENDBRANCH   3   5
ENDBRANCH   2   3
ENDBRANCH   1   2
BRANCH   1   7
HETATM    7  C7  UNL     1     -33.137   5.918   3.261  1.00 20.00     0.008 C 
BRANCH   7   8
HETATM    8  C9  UNL     1     -34.294   5.736   4.279  1.00 20.00    -0.051 C 
HETATM    9  C2  UNL     1     -34.346   4.294   4.810  1.00 20.00     0.014 C 
HETATM   10  C3  UNL     1     -34.042   6.684   5.468  1.00 20.00     0.014 C 
HETATM   11  C4  UNL     1     -35.650   6.093   3.650  1.00 20.00     0.014 C 
ENDBRANCH   7   8
ENDBRANCH   1   7
TORSDOF 5
ENDMDL
MODEL 3
REMARK VINA RESULT:      -5.3      2.298      5.122
REMARK  5 active torsions:
REMARK  status: ('A' for Active; 'I' for Inactive)
REMARK    1  A    between atoms: C5_5  and  C6_6 
REMARK    2  A    between atoms: C5_5  and  C7_7 
REMARK    3  A    between atoms: C6_6  and  C8_8 
REMARK    4  A    between atoms: C7_7  and  C9_9 
REMARK    5  A    between atoms: C8_8  and  O10_10 
ROOT
HETATM    1  C5  UNL     1     -32.524   7.491   2.790  1.00 20.00     0.003 C 
ENDROOT
BRANCH   1   2
HETATM    2  C6  UNL     1     -33.298   6.218   3.160  1.00 20.00     0.031 C 
BRANCH   2   3
HETATM    3  C8  UNL     1     -34.424   6.498   4.162  1.00 20.00     0.114 C 
HETATM    4  C1  UNL     1     -33.874   6.960   5.505  1.00 20.00     0.039 C 
BRANCH   3   5
HETATM    5  O10 UNL     1     -35.200   5.321   4.367  1.00 20.00    -0.396 OA
HETATM    6  H30 UNL     1     -36.044   5.464   3.911  1.00 20.00     0.210 HD
ENDBRANCH   3   5
ENDBRANCH   2   3
ENDBRANCH   1   2
BRANCH   1   7
HETATM    7  C7  UNL     1     -33.368   8.405   1.892  1.00 20.00     0.008 C 
BRANCH   7   8
HETATM    8  C9  UNL     1     -32.573   9.290   0.895  1.00 20.00    -0.051 C 
HETATM    9  C2  UNL     1     -32.483  10.743   1.390  1.00 20.00     0.014 C 
HETATM   10  C3  UNL     1     -31.144   8.724   0.783  1.00 20.00     0.014 C 
HETATM   11  C4  UNL     1     -33.216   9.270  -0.501  1.00 20.00     0.014 C 
ENDBRANCH   7   8
ENDBRANCH   1   7
TORSDOF 5
ENDMDL
MODEL 4
REMARK VINA RESULT:      -5.3      2.305      5.121
REMARK  5 active torsions:
REMARK  status: ('A' for Active; 'I' for Inactive)
REMARK    1  A    between atoms: C5_5  and  C6_6 
REMARK    2  A    between atoms: C5_5  and  C7_7 
REMARK    3  A    between atoms: C6_6  and  C8_8 
REMARK    4  A    between atoms: C7_7  and  C9_9 
REMARK    5  A    between atoms: C8_8  and  O10_10 
ROOT
HETATM    1  C5  UNL     1     -32.526   7.390   2.722  1.00 20.00     0.003 C 
ENDROOT
BRANCH   1   2
HETATM    2  C6  UNL     1     -33.381   6.161   3.060  1.00 20.00     0.031 C 
BRANCH   2   3
HETATM    3  C8  UNL     1     -34.460   6.477   4.101  1.00 20.00     0.114 C 
HETATM    4  C1  UNL     1     -33.851   6.990   5.399  1.00 20.00     0.039 C 
BRANCH   3   5
HETATM    5  O10 UNL     1     -35.223   5.308   4.385  1.00 20.00    -0.396 OA
HETATM    6  H30 UNL     1     -35.526   5.392   5.303  1.00 20.00     0.210 HD
ENDBRANCH   3   5
ENDBRANCH   2   3
ENDBRANCH   1   2
BRANCH   1   7
HETATM    7  C7  UNL     1     -33.340   8.426   1.935  1.00 20.00     0.008 C 
BRANCH   7   8
HETATM    8  C9  UNL     1     -32.545   9.259   0.895  1.00 20.00    -0.051 C 
HETATM    9  C2  UNL     1     -33.237   9.240  -0.479  1.00 20.00     0.014 C 
HETATM   10  C3  UNL     1     -32.487  10.717   1.390  1.00 20.00     0.014 C 
HETATM   11  C4  UNL     1     -31.107   8.736   0.745  1.00 20.00     0.014 C 
ENDBRANCH   7   8
ENDBRANCH   1   7
TORSDOF 5
ENDMDL
MODEL 5
REMARK VINA RESULT:      -5.1      1.866      5.073
REMARK  5 active torsions:
REMARK  status: ('A' for Active; 'I' for Inactive)
REMARK    1  A    between atoms: C5_5  and  C6_6 
REMARK    2  A    between atoms: C5_5  and  C7_7 
REMARK    3  A    between atoms: C6_6  and  C8_8 
REMARK    4  A    between atoms: C7_7  and  C9_9 
REMARK    5  A    between atoms: C8_8  and  O10_10 
ROOT
HETATM    1  C5  UNL     1     -32.444   7.693   2.940  1.00 20.00     0.003 C 
ENDROOT
BRANCH   1   2
HETATM    2  C6  UNL     1     -33.349   7.182   4.069  1.00 20.00     0.031 C 
BRANCH   2   3
HETATM    3  C8  UNL     1     -34.144   5.940   3.654  1.00 20.00     0.114 C 
HETATM    4  C1  UNL     1     -34.725   5.218   4.863  1.00 20.00     0.039 C 
BRANCH   3   5
HETATM    5  O10 UNL     1     -33.303   5.035   2.943  1.00 20.00    -0.396 OA
HETATM    6  H30 UNL     1     -32.564   4.823   3.534  1.00 20.00     0.210 HD
ENDBRANCH   3   5
ENDBRANCH   2   3
ENDBRANCH   1   2
BRANCH   1   7
HETATM    7  C7  UNL     1     -33.276   8.302   1.803  1.00 20.00     0.008 C 
BRANCH   7   8
HETATM    8  C9  UNL     1     -32.516   9.269   0.856  1.00 20.00    -0.051 C 
HETATM    9  C2  UNL     1     -31.068   8.805   0.631  1.00 20.00     0.014 C 
HETATM   10  C3  UNL     1     -33.242   9.278  -0.505  1.00 20.00     0.014 C 
HETATM   11  C4  UNL     1     -32.508  10.702   1.413  1.00 20.00     0.014 C 
ENDBRANCH   7   8
ENDBRANCH   1   7
TORSDOF 5
ENDMDL
MODEL 6
REMARK VINA RESULT:      -4.3     10.627     11.549
REMARK  5 active torsions:
REMARK  status: ('A' for Active; 'I' for Inactive)
REMARK    1  A    between atoms: C5_5  and  C6_6 
REMARK    2  A    between atoms: C5_5  and  C7_7 
REMARK    3  A    between atoms: C6_6  and  C8_8 
REMARK    4  A    between atoms: C7_7  and  C9_9 
REMARK    5  A    between atoms: C8_8  and  O10_10 
ROOT
HETATM    1  C5  UNL     1     -35.022  15.757  -3.447  1.00 20.00     0.003 C 
ENDROOT
BRANCH   1   2
HETATM    2  C6  UNL     1     -34.645  14.479  -4.210  1.00 20.00     0.031 C 
BRANCH   2   3
HETATM    3  C8  UNL     1     -35.773  14.006  -5.134  1.00 20.00     0.114 C 
HETATM    4  C1  UNL     1     -37.099  14.665  -4.780  1.00 20.00     0.039 C 
BRANCH   3   5
HETATM    5  O10 UNL     1     -35.925  12.593  -5.036  1.00 20.00    -0.396 OA
HETATM    6  H30 UNL     1     -35.802  12.365  -4.101  1.00 20.00     0.210 HD
ENDBRANCH   3   5
ENDBRANCH   2   3
ENDBRANCH   1   2
BRANCH   1   7
HETATM    7  C7  UNL     1     -33.774  16.442  -2.874  1.00 20.00     0.008 C 
BRANCH   7   8
HETATM    8  C9  UNL     1     -34.039  17.613  -1.891  1.00 20.00    -0.051 C 
HETATM    9  C2  UNL     1     -32.740  18.071  -1.207  1.00 20.00     0.014 C 
HETATM   10  C3  UNL     1     -34.610  18.797  -2.696  1.00 20.00     0.014 C 
HETATM   11  C4  UNL     1     -35.063  17.215  -0.815  1.00 20.00     0.014 C 
ENDBRANCH   7   8
ENDBRANCH   1   7
TORSDOF 5
ENDMDL
MODEL 7
REMARK VINA RESULT:      -4.3     10.591     11.577
REMARK  5 active torsions:
REMARK  status: ('A' for Active; 'I' for Inactive)
REMARK    1  A    between atoms: C5_5  and  C6_6 
REMARK    2  A    between atoms: C5_5  and  C7_7 
REMARK    3  A    between atoms: C6_6  and  C8_8 
REMARK    4  A    between atoms: C7_7  and  C9_9 
REMARK    5  A    between atoms: C8_8  and  O10_10 
ROOT
HETATM    1  C5  UNL     1     -34.950  15.637  -3.279  1.00 20.00     0.003 C 
ENDROOT
BRANCH   1   2
HETATM    2  C6  UNL     1     -34.554  14.458  -4.178  1.00 20.00     0.031 C 
BRANCH   2   3
HETATM    3  C8  UNL     1     -35.697  14.028  -5.103  1.00 20.00     0.114 C 
HETATM    4  C1  UNL     1     -36.999  14.733  -4.746  1.00 20.00     0.039 C 
BRANCH   3   5
HETATM    5  O10 UNL     1     -35.899  12.621  -5.009  1.00 20.00    -0.396 OA
HETATM    6  H30 UNL     1     -36.561  12.391  -5.681  1.00 20.00     0.210 HD
ENDBRANCH   3   5
ENDBRANCH   2   3
ENDBRANCH   1   2
BRANCH   1   7
HETATM    7  C7  UNL     1     -33.727  16.493  -2.924  1.00 20.00     0.008 C 
BRANCH   7   8
HETATM    8  C9  UNL     1     -33.985  17.662  -1.937  1.00 20.00    -0.051 C 
HETATM    9  C2  UNL     1     -34.555  18.890  -2.666  1.00 20.00     0.014 C 
HETATM   10  C3  UNL     1     -35.018  17.191  -0.894  1.00 20.00     0.014 C 
HETATM   11  C4  UNL     1     -32.697  18.064  -1.201  1.00 20.00     0.014 C 
ENDBRANCH   7   8
ENDBRANCH   1   7
TORSDOF 5
ENDMDL
MODEL 8
REMARK VINA RESULT:      -4.3     10.638     11.608
REMARK  5 active torsions:
REMARK  status: ('A' for Active; 'I' for Inactive)
REMARK    1  A    between atoms: C5_5  and  C6_6 
REMARK    2  A    between atoms: C5_5  and  C7_7 
REMARK    3  A    between atoms: C6_6  and  C8_8 
REMARK    4  A    between atoms: C7_7  and  C9_9 
REMARK    5  A    between atoms: C8_8  and  O10_10 
ROOT
HETATM    1  C5  UNL     1     -35.014  15.726  -3.442  1.00 20.00     0.003 C 
ENDROOT
BRANCH   1   2
HETATM    2  C6  UNL     1     -34.614  14.479  -4.243  1.00 20.00     0.031 C 
BRANCH   2   3
HETATM    3  C8  UNL     1     -35.744  13.993  -5.156  1.00 20.00     0.114 C 
HETATM    4  C1  UNL     1     -37.063  14.680  -4.828  1.00 20.00     0.039 C 
BRANCH   3   5
HETATM    5  O10 UNL     1     -35.916  12.586  -5.016  1.00 20.00    -0.396 OA
HETATM    6  H30 UNL     1     -36.813  12.449  -4.672  1.00 20.00     0.210 HD
ENDBRANCH   3   5
ENDBRANCH   2   3
ENDBRANCH   1   2
BRANCH   1   7
HETATM    7  C7  UNL     1     -33.780  16.413  -2.842  1.00 20.00     0.008 C 
BRANCH   7   8
HETATM    8  C9  UNL     1     -34.067  17.611  -1.899  1.00 20.00    -0.051 C 
HETATM    9  C2  UNL     1     -35.034  17.213  -0.772  1.00 20.00     0.014 C 
HETATM   10  C3  UNL     1     -32.734  18.054  -1.264  1.00 20.00     0.014 C 
HETATM   11  C4  UNL     1     -34.656  18.801  -2.675  1.00 20.00     0.014 C 
ENDBRANCH   7   8
ENDBRANCH   1   7
TORSDOF 5
ENDMDL
MODEL 9
REMARK VINA RESULT:      -4.2     10.681     11.534
REMARK  5 active torsions:
REMARK  status: ('A' for Active; 'I' for Inactive)
REMARK    1  A    between atoms: C5_5  and  C6_6 
REMARK    2  A    between atoms: C5_5  and  C7_7 
REMARK    3  A    between atoms: C6_6  and  C8_8 
REMARK    4  A    between atoms: C7_7  and  C9_9 
REMARK    5  A    between atoms: C8_8  and  O10_10 
ROOT
HETATM    1  C5  UNL     1     -34.882  16.076  -2.873  1.00 20.00     0.003 C 
ENDROOT
BRANCH   1   2
HETATM    2  C6  UNL     1     -34.585  14.974  -3.899  1.00 20.00     0.031 C 
BRANCH   2   3
HETATM    3  C8  UNL     1     -33.163  15.076  -4.460  1.00 20.00     0.114 C 
HETATM    4  C1  UNL     1     -33.159  15.643  -5.874  1.00 20.00     0.039 C 
BRANCH   3   5
HETATM    5  O10 UNL     1     -32.552  13.789  -4.484  1.00 20.00    -0.396 OA
HETATM    6  H30 UNL     1     -31.734  13.881  -4.997  1.00 20.00     0.210 HD
ENDBRANCH   3   5
ENDBRANCH   2   3
ENDBRANCH   1   2
BRANCH   1   7
HETATM    7  C7  UNL     1     -33.592  16.783  -2.438  1.00 20.00     0.008 C 
BRANCH   7   8
HETATM    8  C9  UNL     1     -33.772  17.966  -1.450  1.00 20.00    -0.051 C 
HETATM    9  C2  UNL     1     -32.442  18.328  -0.768  1.00 20.00     0.014 C 
HETATM   10  C3  UNL     1     -34.259  19.191  -2.249  1.00 20.00     0.014 C 
HETATM   11  C4  UNL     1     -34.819  17.637  -0.374  1.00 20.00     0.014 C 
ENDBRANCH   7   8
ENDBRANCH   1   7
TORSDOF 5
ENDMDL
