MODEL 1
REMARK VINA RESULT:      -5.5      0.000      0.000
REMARK  1 active torsions:
REMARK  status: ('A' for Active; 'I' for Inactive)
REMARK    1  A    between atoms: C1_1  and  C4_4 
ROOT
HETATM    1  C2  UNL     1     -33.723   7.181   4.639  1.00 20.00     0.035 C 
HETATM    2  C3  UNL     1     -33.338   5.989   2.921  1.00 20.00     0.035 C 
HETATM    3  C4  UNL     1     -34.457   5.979   3.992  1.00 20.00     0.089 C 
HETATM    4  C5  UNL     1     -33.162   7.496   3.230  1.00 20.00     0.084 C 
HETATM    5 CL8  UNL     1     -31.538   8.217   3.093  1.00 20.00    -0.125 Cl
ENDROOT
BRANCH   3   6
HETATM    6  C1  UNL     1     -34.537   4.744   4.813  1.00 20.00     0.177 C 
HETATM    7  O6  UNL     1     -34.343   3.666   4.187  1.00 20.00    -0.648 OA
HETATM    8  O7  UNL     1     -34.790   4.938   6.036  1.00 20.00    -0.648 OA
ENDBRANCH   3   6
TORSDOF 1
ENDMDL
MODEL 2
REMARK VINA RESULT:      -5.1      3.372      4.006
REMARK  1 active torsions:
REMARK  status: ('A' for Active; 'I' for Inactive)
REMARK    1  A    between atoms: C1_1  and  C4_4 
ROOT
HETATM    1  C2  UNL     1     -33.327   5.805   2.806  1.00 20.00     0.035 C 
HETATM    2  C3  UNL     1     -33.836   7.141   4.380  1.00 20.00     0.035 C 
HETATM    3  C4  UNL     1     -33.346   7.350   2.926  1.00 20.00     0.089 C 
HETATM    4  C5  UNL     1     -34.415   5.786   3.908  1.00 20.00     0.084 C 
HETATM    5 CL8  UNL     1     -34.453   4.422   5.055  1.00 20.00    -0.125 Cl
ENDROOT
BRANCH   3   6
HETATM    6  C1  UNL     1     -32.033   8.032   2.791  1.00 20.00     0.177 C 
HETATM    7  O6  UNL     1     -31.691   8.315   1.609  1.00 20.00    -0.648 OA
HETATM    8  O7  UNL     1     -31.429   8.238   3.881  1.00 20.00    -0.648 OA
ENDBRANCH   3   6
TORSDOF 1
ENDMDL
MODEL 3
REMARK VINA RESULT:      -4.5      1.282      1.662
REMARK  1 active torsions:
REMARK  status: ('A' for Active; 'I' for Inactive)
REMARK    1  A    between atoms: C1_1  and  C4_4 
ROOT
HETATM    1  C2  UNL     1     -32.902   6.127   2.604  1.00 20.00     0.035 C 
HETATM    2  C3  UNL     1     -33.573   7.510   4.073  1.00 20.00     0.035 C 
HETATM    3  C4  UNL     1     -33.478   5.964   4.034  1.00 20.00     0.089 C 
HETATM    4  C5  UNL     1     -32.416   7.530   3.044  1.00 20.00     0.084 C 
HETATM    5 CL8  UNL     1     -32.364   8.839   1.836  1.00 20.00    -0.125 Cl
ENDROOT
BRANCH   3   6
HETATM    6  C1  UNL     1     -34.774   5.247   4.138  1.00 20.00     0.177 C 
HETATM    7  O6  UNL     1     -34.704   4.066   4.579  1.00 20.00    -0.648 OA
HETATM    8  O7  UNL     1     -35.781   5.916   3.769  1.00 20.00    -0.648 OA
ENDBRANCH   3   6
TORSDOF 1
ENDMDL
MODEL 4
REMARK VINA RESULT:      -4.5      1.280      1.765
REMARK  1 active torsions:
REMARK  status: ('A' for Active; 'I' for Inactive)
REMARK    1  A    between atoms: C1_1  and  C4_4 
ROOT
HETATM    1  C2  UNL     1     -32.897   6.134   2.601  1.00 20.00     0.035 C 
HETATM    2  C3  UNL     1     -33.569   7.513   4.073  1.00 20.00     0.035 C 
HETATM    3  C4  UNL     1     -33.479   5.967   4.027  1.00 20.00     0.089 C 
HETATM    4  C5  UNL     1     -32.409   7.534   3.049  1.00 20.00     0.084 C 
HETATM    5 CL8  UNL     1     -32.348   8.848   1.847  1.00 20.00    -0.125 Cl
ENDROOT
BRANCH   3   6
HETATM    6  C1  UNL     1     -34.777   5.253   4.123  1.00 20.00     0.177 C 
HETATM    7  O6  UNL     1     -35.788   5.920   3.768  1.00 20.00    -0.648 OA
HETATM    8  O7  UNL     1     -34.698   4.066   4.551  1.00 20.00    -0.648 OA
ENDBRANCH   3   6
TORSDOF 1
ENDMDL
MODEL 5
REMARK VINA RESULT:      -4.3      3.958      4.703
REMARK  1 active torsions:
REMARK  status: ('A' for Active; 'I' for Inactive)
REMARK    1  A    between atoms: C1_1  and  C4_4 
ROOT
HETATM    1  C2  UNL     1     -31.763   8.257   3.751  1.00 20.00     0.035 C 
HETATM    2  C3  UNL     1     -33.509   7.457   2.839  1.00 20.00     0.035 C 
HETATM    3  C4  UNL     1     -32.123   7.880   2.292  1.00 20.00     0.089 C 
HETATM    4  C5  UNL     1     -32.810   7.207   4.197  1.00 20.00     0.084 C 
HETATM    5 CL8  UNL     1     -33.727   7.491   5.699  1.00 20.00    -0.125 Cl
ENDROOT
BRANCH   3   6
HETATM    6  C1  UNL     1     -32.142   8.999   1.314  1.00 20.00     0.177 C 
HETATM    7  O6  UNL     1     -32.967   9.921   1.565  1.00 20.00    -0.648 OA
HETATM    8  O7  UNL     1     -31.326   8.878   0.357  1.00 20.00    -0.648 OA
ENDBRANCH   3   6
TORSDOF 1
ENDMDL
MODEL 6
REMARK VINA RESULT:      -4.2      1.699      2.462
REMARK  1 active torsions:
REMARK  status: ('A' for Active; 'I' for Inactive)
REMARK    1  A    between atoms: C1_1  and  C4_4 
ROOT
HETATM    1  C2  UNL     1     -33.467   7.275   2.361  1.00 20.00     0.035 C 
HETATM    2  C3  UNL     1     -32.071   8.129   3.718  1.00 20.00     0.035 C 
HETATM    3  C4  UNL     1     -32.919   6.833   3.742  1.00 20.00     0.089 C 
HETATM    4  C5  UNL     1     -32.143   8.057   2.174  1.00 20.00     0.084 C 
HETATM    5 CL8  UNL     1     -32.165   9.576   1.243  1.00 20.00    -0.125 Cl
ENDROOT
BRANCH   3   6
HETATM    6  C1  UNL     1     -33.914   6.747   4.841  1.00 20.00     0.177 C 
HETATM    7  O6  UNL     1     -33.665   7.460   5.852  1.00 20.00    -0.648 OA
HETATM    8  O7  UNL     1     -34.882   5.966   4.619  1.00 20.00    -0.648 OA
ENDBRANCH   3   6
TORSDOF 1
ENDMDL
MODEL 7
REMARK VINA RESULT:      -4.1     12.061     12.451
REMARK  1 active torsions:
REMARK  status: ('A' for Active; 'I' for Inactive)
REMARK    1  A    between atoms: C1_1  and  C4_4 
ROOT
HETATM    1  C2  UNL     1     -36.464  15.938  -3.781  1.00 20.00     0.035 C 
HETATM    2  C3  UNL     1     -34.574  14.966  -3.848  1.00 20.00     0.035 C 
HETATM    3  C4  UNL     1     -35.773  15.025  -4.826  1.00 20.00     0.089 C 
HETATM    4  C5  UNL     1     -35.043  16.339  -3.311  1.00 20.00     0.084 C 
HETATM    5 CL8  UNL     1     -34.784  16.722  -1.589  1.00 20.00    -0.125 Cl
ENDROOT
BRANCH   3   6
HETATM    6  C1  UNL     1     -36.437  13.724  -5.095  1.00 20.00     0.177 C 
HETATM    7  O6  UNL     1     -35.659  12.767  -5.366  1.00 20.00    -0.648 OA
HETATM    8  O7  UNL     1     -37.698  13.747  -5.018  1.00 20.00    -0.648 OA
ENDBRANCH   3   6
TORSDOF 1
ENDMDL
MODEL 8
REMARK VINA RESULT:      -4.1      3.786      4.437
REMARK  1 active torsions:
REMARK  status: ('A' for Active; 'I' for Inactive)
REMARK    1  A    between atoms: C1_1  and  C4_4 
ROOT
HETATM    1  C2  UNL     1     -33.540   7.917   3.803  1.00 20.00     0.035 C 
HETATM    2  C3  UNL     1     -32.969   6.330   2.508  1.00 20.00     0.035 C 
HETATM    3  C4  UNL     1     -32.326   7.693   2.865  1.00 20.00     0.089 C 
HETATM    4  C5  UNL     1     -33.651   6.375   3.896  1.00 20.00     0.084 C 
HETATM    5 CL8  UNL     1     -35.264   5.640   4.086  1.00 20.00    -0.125 Cl
ENDROOT
BRANCH   3   6
HETATM    6  C1  UNL     1     -32.191   8.646   1.734  1.00 20.00     0.177 C 
HETATM    7  O6  UNL     1     -33.022   9.596   1.725  1.00 20.00    -0.648 OA
HETATM    8  O7  UNL     1     -31.257   8.378   0.926  1.00 20.00    -0.648 OA
ENDBRANCH   3   6
TORSDOF 1
ENDMDL
MODEL 9
REMARK VINA RESULT:      -3.9     12.223     12.604
REMARK  1 active torsions:
REMARK  status: ('A' for Active; 'I' for Inactive)
REMARK    1  A    between atoms: C1_1  and  C4_4 
ROOT
HETATM    1  C2  UNL     1     -33.737  14.752  -5.035  1.00 20.00     0.035 C 
HETATM    2  C3  UNL     1     -35.336  15.511  -3.857  1.00 20.00     0.035 C 
HETATM    3  C4  UNL     1     -34.934  14.085  -4.312  1.00 20.00     0.089 C 
HETATM    4  C5  UNL     1     -33.842  15.891  -3.991  1.00 20.00     0.084 C 
HETATM    5 CL8  UNL     1     -33.418  17.550  -4.484  1.00 20.00    -0.125 Cl
ENDROOT
BRANCH   3   6
HETATM    6  C1  UNL     1     -35.921  13.396  -5.182  1.00 20.00     0.177 C 
HETATM    7  O6  UNL     1     -37.132  13.647  -4.930  1.00 20.00    -0.648 OA
HETATM    8  O7  UNL     1     -35.415  12.644  -6.063  1.00 20.00    -0.648 OA
ENDBRANCH   3   6
TORSDOF 1
ENDMDL
