MODEL 1
REMARK VINA RESULT:      -4.6      0.000      0.000
REMARK  0 active torsions:
REMARK  status: ('A' for Active; 'I' for Inactive)
ROOT
HETATM    1  C1  UNL     1     -32.918   7.272   2.998  1.00 20.00     0.124 C 
HETATM    2  C2  UNL     1     -34.043   6.589   5.038  1.00 20.00     0.024 C 
HETATM    3  C3  UNL     1     -33.609   6.342   3.806  1.00 20.00     0.145 C 
HETATM    4  C4  UNL     1     -34.758   5.395   5.537  1.00 20.00     0.057 C 
HETATM    5  C5  UNL     1     -34.417   4.375   4.457  1.00 20.00     0.180 C 
HETATM    6  N6  UNL     1     -32.350   8.036   2.335  1.00 20.00    -0.189 NA
HETATM    7  O7  UNL     1     -33.908   5.081   3.307  1.00 20.00    -0.341 OA
ENDROOT
TORSDOF 0
ENDMDL
MODEL 2
REMARK VINA RESULT:      -4.6      1.387      1.728
REMARK  0 active torsions:
REMARK  status: ('A' for Active; 'I' for Inactive)
ROOT
HETATM    1  C1  UNL     1     -32.562   7.763   2.834  1.00 20.00     0.124 C 
HETATM    2  C2  UNL     1     -34.133   6.072   3.587  1.00 20.00     0.024 C 
HETATM    3  C3  UNL     1     -33.295   7.076   3.827  1.00 20.00     0.145 C 
HETATM    4  C4  UNL     1     -34.668   5.584   4.876  1.00 20.00     0.057 C 
HETATM    5  C5  UNL     1     -34.167   6.661   5.830  1.00 20.00     0.180 C 
HETATM    6  N6  UNL     1     -31.959   8.327   2.018  1.00 20.00    -0.189 NA
HETATM    7  O7  UNL     1     -33.136   7.417   5.164  1.00 20.00    -0.341 OA
ENDROOT
TORSDOF 0
ENDMDL
MODEL 3
REMARK VINA RESULT:      -3.9      2.330      3.691
REMARK  0 active torsions:
REMARK  status: ('A' for Active; 'I' for Inactive)
ROOT
HETATM    1  C1  UNL     1     -34.330   6.202   3.997  1.00 20.00     0.124 C 
HETATM    2  C2  UNL     1     -33.040   7.308   2.263  1.00 20.00     0.024 C 
HETATM    3  C3  UNL     1     -33.301   7.057   3.542  1.00 20.00     0.145 C 
HETATM    4  C4  UNL     1     -31.931   8.283   2.188  1.00 20.00     0.057 C 
HETATM    5  C5  UNL     1     -31.474   8.321   3.642  1.00 20.00     0.180 C 
HETATM    6  N6  UNL     1     -35.174   5.499   4.371  1.00 20.00    -0.189 NA
HETATM    7  O7  UNL     1     -32.504   7.729   4.460  1.00 20.00    -0.341 OA
ENDROOT
TORSDOF 0
ENDMDL
MODEL 4
REMARK VINA RESULT:      -3.5     11.974     12.305
REMARK  0 active torsions:
REMARK  status: ('A' for Active; 'I' for Inactive)
ROOT
HETATM    1  C1  UNL     1     -35.508  13.784  -4.778  1.00 20.00     0.124 C 
HETATM    2  C2  UNL     1     -33.795  15.257  -3.888  1.00 20.00     0.024 C 
HETATM    3  C3  UNL     1     -35.068  14.904  -4.038  1.00 20.00     0.145 C 
HETATM    4  C4  UNL     1     -33.739  16.503  -3.095  1.00 20.00     0.057 C 
HETATM    5  C5  UNL     1     -35.186  16.622  -2.631  1.00 20.00     0.180 C 
HETATM    6  N6  UNL     1     -35.869  12.863  -5.386  1.00 20.00    -0.189 NA
HETATM    7  O7  UNL     1     -35.997  15.743  -3.436  1.00 20.00    -0.341 OA
ENDROOT
TORSDOF 0
ENDMDL
MODEL 5
REMARK VINA RESULT:      -3.5     12.095     12.341
REMARK  0 active torsions:
REMARK  status: ('A' for Active; 'I' for Inactive)
ROOT
HETATM    1  C1  UNL     1     -36.856  14.235  -4.818  1.00 20.00     0.124 C 
HETATM    2  C2  UNL     1     -35.175  15.725  -3.896  1.00 20.00     0.024 C 
HETATM    3  C3  UNL     1     -35.528  14.588  -4.487  1.00 20.00     0.145 C 
HETATM    4  C4  UNL     1     -33.714  15.708  -3.670  1.00 20.00     0.057 C 
HETATM    5  C5  UNL     1     -33.308  14.474  -4.468  1.00 20.00     0.180 C 
HETATM    6  N6  UNL     1     -37.946  13.945  -5.090  1.00 20.00    -0.189 NA
HETATM    7  O7  UNL     1     -34.492  13.701  -4.747  1.00 20.00    -0.341 OA
ENDROOT
TORSDOF 0
ENDMDL
MODEL 6
REMARK VINA RESULT:      -3.4     12.196     12.776
REMARK  0 active torsions:
REMARK  status: ('A' for Active; 'I' for Inactive)
ROOT
HETATM    1  C1  UNL     1     -35.348  13.828  -4.947  1.00 20.00     0.124 C 
HETATM    2  C2  UNL     1     -34.653  15.541  -3.373  1.00 20.00     0.024 C 
HETATM    3  C3  UNL     1     -34.628  14.987  -4.582  1.00 20.00     0.145 C 
HETATM    4  C4  UNL     1     -33.739  16.703  -3.366  1.00 20.00     0.057 C 
HETATM    5  C5  UNL     1     -33.409  16.828  -4.849  1.00 20.00     0.180 C 
HETATM    6  N6  UNL     1     -35.940  12.876  -5.247  1.00 20.00    -0.189 NA
HETATM    7  O7  UNL     1     -33.796  15.605  -5.507  1.00 20.00    -0.341 OA
ENDROOT
TORSDOF 0
ENDMDL
MODEL 7
REMARK VINA RESULT:      -3.3     15.769     16.438
REMARK  0 active torsions:
REMARK  status: ('A' for Active; 'I' for Inactive)
ROOT
HETATM    1  C1  UNL     1     -26.907  17.540  11.995  1.00 20.00     0.124 C 
HETATM    2  C2  UNL     1     -24.919  18.879  11.610  1.00 20.00     0.024 C 
HETATM    3  C3  UNL     1     -25.568  17.719  11.584  1.00 20.00     0.145 C 
HETATM    4  C4  UNL     1     -23.531  18.655  11.154  1.00 20.00     0.057 C 
HETATM    5  C5  UNL     1     -23.617  17.223  10.639  1.00 20.00     0.180 C 
HETATM    6  N6  UNL     1     -28.009  17.394  12.332  1.00 20.00    -0.189 NA
HETATM    7  O7  UNL     1     -24.827  16.627  11.148  1.00 20.00    -0.341 OA
ENDROOT
TORSDOF 0
ENDMDL
MODEL 8
REMARK VINA RESULT:      -3.2     12.501     12.614
REMARK  0 active torsions:
REMARK  status: ('A' for Active; 'I' for Inactive)
ROOT
HETATM    1  C1  UNL     1     -32.327  18.065  -0.848  1.00 20.00     0.124 C 
HETATM    2  C2  UNL     1     -34.676  17.453  -0.886  1.00 20.00     0.024 C 
HETATM    3  C3  UNL     1     -33.470  17.486  -1.444  1.00 20.00     0.145 C 
HETATM    4  C4  UNL     1     -35.617  16.814  -1.831  1.00 20.00     0.057 C 
HETATM    5  C5  UNL     1     -34.657  16.284  -2.890  1.00 20.00     0.180 C 
HETATM    6  N6  UNL     1     -31.389  18.540  -0.357  1.00 20.00    -0.189 NA
HETATM    7  O7  UNL     1     -33.381  16.934  -2.715  1.00 20.00    -0.341 OA
ENDROOT
TORSDOF 0
ENDMDL
MODEL 9
REMARK VINA RESULT:      -3.1      1.904      2.316
REMARK  0 active torsions:
REMARK  status: ('A' for Active; 'I' for Inactive)
ROOT
HETATM    1  C1  UNL     1     -33.309   5.051   2.887  1.00 20.00     0.124 C 
HETATM    2  C2  UNL     1     -34.550   5.251   4.964  1.00 20.00     0.024 C 
HETATM    3  C3  UNL     1     -33.681   5.720   4.074  1.00 20.00     0.145 C 
HETATM    4  C4  UNL     1     -34.638   6.207   6.089  1.00 20.00     0.057 C 
HETATM    5  C5  UNL     1     -33.856   7.390   5.532  1.00 20.00     0.180 C 
HETATM    6  N6  UNL     1     -33.005   4.501   1.911  1.00 20.00    -0.189 NA
HETATM    7  O7  UNL     1     -33.097   6.940   4.392  1.00 20.00    -0.341 OA
ENDROOT
TORSDOF 0
ENDMDL
