MODEL 1
REMARK VINA RESULT:      -5.6      0.000      0.000
REMARK  0 active torsions:
REMARK  status: ('A' for Active; 'I' for Inactive)
ROOT
HETATM    1  C1  UNL     1     -32.293   7.463   2.349  1.00 20.00     0.047 A 
HETATM    2  C2  UNL     1     -31.607   8.411   3.135  1.00 20.00     0.141 A 
HETATM    3  C3  UNL     1     -33.159   6.849   3.224  1.00 20.00     0.032 A 
HETATM    4  C4  UNL     1     -34.152   5.753   3.058  1.00 20.00     0.059 C 
HETATM    5  C5  UNL     1     -35.160   5.723   4.211  1.00 20.00     0.008 C 
HETATM    6  C6  UNL     1     -34.452   5.850   5.562  1.00 20.00     0.022 C 
HETATM    7  C7  UNL     1     -33.673   7.163   5.652  1.00 20.00     0.151 C 
HETATM    8  N8  UNL     1     -32.000   8.408   4.412  1.00 20.00    -0.185 NA
HETATM    9  N9  UNL     1     -32.936   7.443   4.436  1.00 20.00    -0.274 N 
ENDROOT
TORSDOF 0
ENDMDL
MODEL 2
REMARK VINA RESULT:      -5.6      1.070      2.029
REMARK  0 active torsions:
REMARK  status: ('A' for Active; 'I' for Inactive)
ROOT
HETATM    1  C1  UNL     1     -32.032   8.418   4.236  1.00 20.00     0.047 A 
HETATM    2  C2  UNL     1     -31.744   8.223   2.870  1.00 20.00     0.141 A 
HETATM    3  C3  UNL     1     -33.005   7.488   4.522  1.00 20.00     0.032 A 
HETATM    4  C4  UNL     1     -33.760   7.169   5.764  1.00 20.00     0.059 C 
HETATM    5  C5  UNL     1     -34.413   5.784   5.688  1.00 20.00     0.008 C 
HETATM    6  C6  UNL     1     -35.121   5.584   4.347  1.00 20.00     0.022 C 
HETATM    7  C7  UNL     1     -34.136   5.704   3.183  1.00 20.00     0.151 C 
HETATM    8  N8  UNL     1     -32.471   7.245   2.322  1.00 20.00    -0.185 NA
HETATM    9  N9  UNL     1     -33.233   6.825   3.347  1.00 20.00    -0.274 N 
ENDROOT
TORSDOF 0
ENDMDL
MODEL 3
REMARK VINA RESULT:      -4.5      1.459      3.548
REMARK  0 active torsions:
REMARK  status: ('A' for Active; 'I' for Inactive)
ROOT
HETATM    1  C1  UNL     1     -33.755   7.126   6.047  1.00 20.00     0.047 A 
HETATM    2  C2  UNL     1     -34.700   6.080   6.032  1.00 20.00     0.141 A 
HETATM    3  C3  UNL     1     -33.305   7.205   4.750  1.00 20.00     0.032 A 
HETATM    4  C4  UNL     1     -32.296   8.073   4.084  1.00 20.00     0.059 C 
HETATM    5  C5  UNL     1     -32.463   8.067   2.560  1.00 20.00     0.008 C 
HETATM    6  C6  UNL     1     -32.641   6.642   2.033  1.00 20.00     0.022 C 
HETATM    7  C7  UNL     1     -33.878   5.982   2.645  1.00 20.00     0.151 C 
HETATM    8  N8  UNL     1     -34.846   5.531   4.823  1.00 20.00    -0.185 NA
HETATM    9  N9  UNL     1     -33.980   6.229   4.069  1.00 20.00    -0.274 N 
ENDROOT
TORSDOF 0
ENDMDL
MODEL 4
REMARK VINA RESULT:      -4.5      1.244      3.121
REMARK  0 active torsions:
REMARK  status: ('A' for Active; 'I' for Inactive)
ROOT
HETATM    1  C1  UNL     1     -34.830   5.101   4.708  1.00 20.00     0.047 A 
HETATM    2  C2  UNL     1     -34.765   5.685   5.989  1.00 20.00     0.141 A 
HETATM    3  C3  UNL     1     -34.041   5.906   3.919  1.00 20.00     0.032 A 
HETATM    4  C4  UNL     1     -33.694   5.872   2.472  1.00 20.00     0.059 C 
HETATM    5  C5  UNL     1     -32.454   6.720   2.168  1.00 20.00     0.008 C 
HETATM    6  C6  UNL     1     -32.544   8.087   2.851  1.00 20.00     0.022 C 
HETATM    7  C7  UNL     1     -32.649   7.935   4.369  1.00 20.00     0.151 C 
HETATM    8  N8  UNL     1     -33.995   6.776   6.023  1.00 20.00    -0.185 NA
HETATM    9  N9  UNL     1     -33.578   6.890   4.750  1.00 20.00    -0.274 N 
ENDROOT
TORSDOF 0
ENDMDL
MODEL 5
REMARK VINA RESULT:      -4.4      1.765      3.800
REMARK  0 active torsions:
REMARK  status: ('A' for Active; 'I' for Inactive)
ROOT
HETATM    1  C1  UNL     1     -34.592   5.813   5.922  1.00 20.00     0.047 A 
HETATM    2  C2  UNL     1     -34.890   4.485   5.556  1.00 20.00     0.141 A 
HETATM    3  C3  UNL     1     -33.915   6.327   4.840  1.00 20.00     0.032 A 
HETATM    4  C4  UNL     1     -33.304   7.657   4.572  1.00 20.00     0.059 C 
HETATM    5  C5  UNL     1     -33.050   7.872   3.076  1.00 20.00     0.008 C 
HETATM    6  C6  UNL     1     -32.391   6.641   2.450  1.00 20.00     0.022 C 
HETATM    7  C7  UNL     1     -33.279   5.406   2.604  1.00 20.00     0.151 C 
HETATM    8  N8  UNL     1     -34.443   4.170   4.337  1.00 20.00    -0.185 NA
HETATM    9  N9  UNL     1     -33.848   5.305   3.932  1.00 20.00    -0.274 N 
ENDROOT
TORSDOF 0
ENDMDL
MODEL 6
REMARK VINA RESULT:      -4.2      1.103      2.913
REMARK  0 active torsions:
REMARK  status: ('A' for Active; 'I' for Inactive)
ROOT
HETATM    1  C1  UNL     1     -34.499   5.943   5.959  1.00 20.00     0.047 A 
HETATM    2  C2  UNL     1     -34.040   7.208   6.379  1.00 20.00     0.141 A 
HETATM    3  C3  UNL     1     -34.032   5.814   4.672  1.00 20.00     0.032 A 
HETATM    4  C4  UNL     1     -34.172   4.739   3.652  1.00 20.00     0.059 C 
HETATM    5  C5  UNL     1     -33.123   4.873   2.542  1.00 20.00     0.008 C 
HETATM    6  C6  UNL     1     -33.026   6.319   2.051  1.00 20.00     0.022 C 
HETATM    7  C7  UNL     1     -32.629   7.260   3.190  1.00 20.00     0.151 C 
HETATM    8  N8  UNL     1     -33.333   7.841   5.438  1.00 20.00    -0.185 NA
HETATM    9  N9  UNL     1     -33.354   6.973   4.411  1.00 20.00    -0.274 N 
ENDROOT
TORSDOF 0
ENDMDL
MODEL 7
REMARK VINA RESULT:      -4.1     11.379     12.680
REMARK  0 active torsions:
REMARK  status: ('A' for Active; 'I' for Inactive)
ROOT
HETATM    1  C1  UNL     1     -34.433  14.068  -7.705  1.00 20.00     0.047 A 
HETATM    2  C2  UNL     1     -35.175  12.923  -7.350  1.00 20.00     0.141 A 
HETATM    3  C3  UNL     1     -34.206  14.717  -6.513  1.00 20.00     0.032 A 
HETATM    4  C4  UNL     1     -33.509  15.987  -6.174  1.00 20.00     0.059 C 
HETATM    5  C5  UNL     1     -33.156  16.058  -4.685  1.00 20.00     0.008 C 
HETATM    6  C6  UNL     1     -34.346  15.641  -3.818  1.00 20.00     0.022 C 
HETATM    7  C7  UNL     1     -34.777  14.208  -4.132  1.00 20.00     0.151 C 
HETATM    8  N8  UNL     1     -35.405  12.841  -6.037  1.00 20.00    -0.185 NA
HETATM    9  N9  UNL     1     -34.813  13.949  -5.557  1.00 20.00    -0.274 N 
ENDROOT
TORSDOF 0
ENDMDL
MODEL 8
REMARK VINA RESULT:      -4.0      1.494      3.163
REMARK  0 active torsions:
REMARK  status: ('A' for Active; 'I' for Inactive)
ROOT
HETATM    1  C1  UNL     1     -34.003   4.739   3.352  1.00 20.00     0.047 A 
HETATM    2  C2  UNL     1     -34.659   4.307   4.522  1.00 20.00     0.141 A 
HETATM    3  C3  UNL     1     -33.480   5.968   3.681  1.00 20.00     0.032 A 
HETATM    4  C4  UNL     1     -32.694   6.969   2.909  1.00 20.00     0.059 C 
HETATM    5  C5  UNL     1     -31.988   7.968   3.832  1.00 20.00     0.008 C 
HETATM    6  C6  UNL     1     -32.941   8.483   4.913  1.00 20.00     0.022 C 
HETATM    7  C7  UNL     1     -33.465   7.334   5.776  1.00 20.00     0.151 C 
HETATM    8  N8  UNL     1     -34.565   5.186   5.524  1.00 20.00    -0.185 NA
HETATM    9  N9  UNL     1     -33.851   6.187   4.979  1.00 20.00    -0.274 N 
ENDROOT
TORSDOF 0
ENDMDL
MODEL 9
REMARK VINA RESULT:      -3.9     11.647     12.146
REMARK  0 active torsions:
REMARK  status: ('A' for Active; 'I' for Inactive)
ROOT
HETATM    1  C1  UNL     1     -32.842  18.848   1.244  1.00 20.00     0.047 A 
HETATM    2  C2  UNL     1     -31.541  18.873   0.702  1.00 20.00     0.141 A 
HETATM    3  C3  UNL     1     -33.623  18.313   0.246  1.00 20.00     0.032 A 
HETATM    4  C4  UNL     1     -35.081  18.029   0.150  1.00 20.00     0.059 C 
HETATM    5  C5  UNL     1     -35.392  17.046  -0.984  1.00 20.00     0.008 C 
HETATM    6  C6  UNL     1     -34.652  17.435  -2.266  1.00 20.00     0.022 C 
HETATM    7  C7  UNL     1     -33.139  17.436  -2.046  1.00 20.00     0.151 C 
HETATM    8  N8  UNL     1     -31.489  18.391  -0.543  1.00 20.00    -0.185 NA
HETATM    9  N9  UNL     1     -32.770  18.068  -0.795  1.00 20.00    -0.274 N 
ENDROOT
TORSDOF 0
ENDMDL
