MODEL 1
REMARK VINA RESULT:      -4.4      0.000      0.000
REMARK  5 active torsions:
REMARK  status: ('A' for Active; 'I' for Inactive)
REMARK    1  A    between atoms: C2_2  and  C3_3 
REMARK    2  A    between atoms: C2_2  and  C4_4 
REMARK    3  A    between atoms: C3_3  and  C5_5 
REMARK    4  A    between atoms: C4_4  and  C6_6 
REMARK    5  A    between atoms: C5_5  and  S7_7 
ROOT
HETATM    1  C2  UNL     1     -31.829   8.261   2.799  1.00 20.00     0.002 C 
ENDROOT
BRANCH   1   2
HETATM    2  C3  UNL     1     -32.755   7.042   2.878  1.00 20.00     0.010 C 
BRANCH   2   3
HETATM    3  C5  UNL     1     -33.668   7.044   4.106  1.00 20.00     0.073 C 
BRANCH   3   4
HETATM    4  S7  UNL     1     -34.935   5.745   4.048  1.00 20.00    -0.173 SA
HETATM    5  C1  UNL     1     -34.582   4.964   5.639  1.00 20.00     0.089 C 
ENDBRANCH   3   4
ENDBRANCH   2   3
ENDBRANCH   1   2
BRANCH   1   6
HETATM    6  C4  UNL     1     -31.583   8.676   1.347  1.00 20.00     0.015 C 
BRANCH   6   7
HETATM    7  C6  UNL     1     -32.487   9.835   0.947  1.00 20.00     0.114 C 
HETATM    8 CL8  UNL     1     -33.293   9.487  -0.599  1.00 20.00    -0.130 Cl
ENDBRANCH   6   7
ENDBRANCH   1   6
TORSDOF 5
ENDMDL
MODEL 2
REMARK VINA RESULT:      -4.4      3.264      5.145
REMARK  5 active torsions:
REMARK  status: ('A' for Active; 'I' for Inactive)
REMARK    1  A    between atoms: C2_2  and  C3_3 
REMARK    2  A    between atoms: C2_2  and  C4_4 
REMARK    3  A    between atoms: C3_3  and  C5_5 
REMARK    4  A    between atoms: C4_4  and  C6_6 
REMARK    5  A    between atoms: C5_5  and  S7_7 
ROOT
HETATM    1  C2  UNL     1     -33.901   7.136   3.663  1.00 20.00     0.002 C 
ENDROOT
BRANCH   1   2
HETATM    2  C3  UNL     1     -32.565   6.999   2.925  1.00 20.00     0.010 C 
BRANCH   2   3
HETATM    3  C5  UNL     1     -31.846   8.331   2.707  1.00 20.00     0.073 C 
BRANCH   3   4
HETATM    4  S7  UNL     1     -31.810   8.840   0.964  1.00 20.00    -0.173 SA
HETATM    5  C1  UNL     1     -32.788  10.352   1.113  1.00 20.00     0.089 C 
ENDBRANCH   3   4
ENDBRANCH   2   3
ENDBRANCH   1   2
BRANCH   1   6
HETATM    6  C4  UNL     1     -33.701   7.115   5.180  1.00 20.00     0.015 C 
BRANCH   6   7
HETATM    7  C6  UNL     1     -34.428   5.936   5.814  1.00 20.00     0.114 C 
HETATM    8 CL8  UNL     1     -34.660   4.637   4.622  1.00 20.00    -0.130 Cl
ENDBRANCH   6   7
ENDBRANCH   1   6
TORSDOF 5
ENDMDL
MODEL 3
REMARK VINA RESULT:      -4.4      3.208      5.181
REMARK  5 active torsions:
REMARK  status: ('A' for Active; 'I' for Inactive)
REMARK    1  A    between atoms: C2_2  and  C3_3 
REMARK    2  A    between atoms: C2_2  and  C4_4 
REMARK    3  A    between atoms: C3_3  and  C5_5 
REMARK    4  A    between atoms: C4_4  and  C6_6 
REMARK    5  A    between atoms: C5_5  and  S7_7 
ROOT
HETATM    1  C2  UNL     1     -34.235   6.561   3.415  1.00 20.00     0.002 C 
ENDROOT
BRANCH   1   2
HETATM    2  C3  UNL     1     -32.864   6.631   2.733  1.00 20.00     0.010 C 
BRANCH   2   3
HETATM    3  C5  UNL     1     -32.221   8.017   2.794  1.00 20.00     0.073 C 
BRANCH   3   4
HETATM    4  S7  UNL     1     -31.767   8.659   1.156  1.00 20.00    -0.173 SA
HETATM    5  C1  UNL     1     -32.750  10.175   1.188  1.00 20.00     0.089 C 
ENDBRANCH   3   4
ENDBRANCH   2   3
ENDBRANCH   1   2
BRANCH   1   6
HETATM    6  C4  UNL     1     -34.397   5.256   4.198  1.00 20.00     0.015 C 
BRANCH   6   7
HETATM    7  C6  UNL     1     -34.528   5.525   5.692  1.00 20.00     0.114 C 
HETATM    8 CL8  UNL     1     -33.933   7.154   6.083  1.00 20.00    -0.130 Cl
ENDBRANCH   6   7
ENDBRANCH   1   6
TORSDOF 5
ENDMDL
MODEL 4
REMARK VINA RESULT:      -4.3      2.727      4.873
REMARK  5 active torsions:
REMARK  status: ('A' for Active; 'I' for Inactive)
REMARK    1  A    between atoms: C2_2  and  C3_3 
REMARK    2  A    between atoms: C2_2  and  C4_4 
REMARK    3  A    between atoms: C3_3  and  C5_5 
REMARK    4  A    between atoms: C4_4  and  C6_6 
REMARK    5  A    between atoms: C5_5  and  S7_7 
ROOT
HETATM    1  C2  UNL     1     -34.417   5.982   5.798  1.00 20.00     0.002 C 
ENDROOT
BRANCH   1   2
HETATM    2  C3  UNL     1     -33.647   7.277   5.517  1.00 20.00     0.010 C 
BRANCH   2   3
HETATM    3  C5  UNL     1     -33.586   7.645   4.034  1.00 20.00     0.073 C 
BRANCH   3   4
HETATM    4  S7  UNL     1     -31.898   7.988   3.457  1.00 20.00    -0.173 SA
HETATM    5  C1  UNL     1     -32.304   8.587   1.802  1.00 20.00     0.089 C 
ENDBRANCH   3   4
ENDBRANCH   2   3
ENDBRANCH   1   2
BRANCH   1   6
HETATM    6  C4  UNL     1     -34.941   5.358   4.503  1.00 20.00     0.015 C 
BRANCH   6   7
HETATM    7  C6  UNL     1     -34.122   4.135   4.111  1.00 20.00     0.114 C 
HETATM    8 CL8  UNL     1     -33.093   4.501   2.708  1.00 20.00    -0.130 Cl
ENDBRANCH   6   7
ENDBRANCH   1   6
TORSDOF 5
ENDMDL
MODEL 5
REMARK VINA RESULT:      -4.3      1.167      1.473
REMARK  5 active torsions:
REMARK  status: ('A' for Active; 'I' for Inactive)
REMARK    1  A    between atoms: C2_2  and  C3_3 
REMARK    2  A    between atoms: C2_2  and  C4_4 
REMARK    3  A    between atoms: C3_3  and  C5_5 
REMARK    4  A    between atoms: C4_4  and  C6_6 
REMARK    5  A    between atoms: C5_5  and  S7_7 
ROOT
HETATM    1  C2  UNL     1     -32.594   7.291   3.315  1.00 20.00     0.002 C 
ENDROOT
BRANCH   1   2
HETATM    2  C3  UNL     1     -33.015   7.660   4.742  1.00 20.00     0.010 C 
BRANCH   2   3
HETATM    3  C5  UNL     1     -34.082   6.733   5.325  1.00 20.00     0.073 C 
BRANCH   3   4
HETATM    4  S7  UNL     1     -34.950   5.765   4.056  1.00 20.00    -0.173 SA
HETATM    5  C1  UNL     1     -34.274   4.139   4.460  1.00 20.00     0.089 C 
ENDBRANCH   3   4
ENDBRANCH   2   3
ENDBRANCH   1   2
BRANCH   1   6
HETATM    6  C4  UNL     1     -31.825   8.435   2.651  1.00 20.00     0.015 C 
BRANCH   6   7
HETATM    7  C6  UNL     1     -32.435   8.797   1.303  1.00 20.00     0.114 C 
HETATM    8 CL8  UNL     1     -32.642  10.558   1.169  1.00 20.00    -0.130 Cl
ENDBRANCH   6   7
ENDBRANCH   1   6
TORSDOF 5
ENDMDL
MODEL 6
REMARK VINA RESULT:      -4.3      1.337      1.613
REMARK  5 active torsions:
REMARK  status: ('A' for Active; 'I' for Inactive)
REMARK    1  A    between atoms: C2_2  and  C3_3 
REMARK    2  A    between atoms: C2_2  and  C4_4 
REMARK    3  A    between atoms: C3_3  and  C5_5 
REMARK    4  A    between atoms: C4_4  and  C6_6 
REMARK    5  A    between atoms: C5_5  and  S7_7 
ROOT
HETATM    1  C2  UNL     1     -32.481   6.959   2.679  1.00 20.00     0.002 C 
ENDROOT
BRANCH   1   2
HETATM    2  C3  UNL     1     -33.870   6.994   3.327  1.00 20.00     0.010 C 
BRANCH   2   3
HETATM    3  C5  UNL     1     -34.391   5.615   3.733  1.00 20.00     0.073 C 
BRANCH   3   4
HETATM    4  S7  UNL     1     -34.567   5.425   5.531  1.00 20.00    -0.173 SA
HETATM    5  C1  UNL     1     -33.917   7.036   6.029  1.00 20.00     0.089 C 
ENDBRANCH   3   4
ENDBRANCH   2   3
ENDBRANCH   1   2
BRANCH   1   6
HETATM    6  C4  UNL     1     -31.889   8.365   2.563  1.00 20.00     0.015 C 
BRANCH   6   7
HETATM    7  C6  UNL     1     -31.971   8.879   1.132  1.00 20.00     0.114 C 
HETATM    8 CL8  UNL     1     -32.673  10.513   1.099  1.00 20.00    -0.130 Cl
ENDBRANCH   6   7
ENDBRANCH   1   6
TORSDOF 5
ENDMDL
MODEL 7
REMARK VINA RESULT:      -3.2     10.677     10.893
REMARK  5 active torsions:
REMARK  status: ('A' for Active; 'I' for Inactive)
REMARK    1  A    between atoms: C2_2  and  C3_3 
REMARK    2  A    between atoms: C2_2  and  C4_4 
REMARK    3  A    between atoms: C3_3  and  C5_5 
REMARK    4  A    between atoms: C4_4  and  C6_6 
REMARK    5  A    between atoms: C5_5  and  S7_7 
ROOT
HETATM    1  C2  UNL     1     -35.153  16.937  -1.383  1.00 20.00     0.002 C 
ENDROOT
BRANCH   1   2
HETATM    2  C3  UNL     1     -34.397  16.374  -2.591  1.00 20.00     0.010 C 
BRANCH   2   3
HETATM    3  C5  UNL     1     -35.302  15.683  -3.613  1.00 20.00     0.073 C 
BRANCH   3   4
HETATM    4  S7  UNL     1     -34.506  14.264  -4.420  1.00 20.00    -0.173 SA
HETATM    5  C1  UNL     1     -35.974  13.542  -5.187  1.00 20.00     0.089 C 
ENDBRANCH   3   4
ENDBRANCH   2   3
ENDBRANCH   1   2
BRANCH   1   6
HETATM    6  C4  UNL     1     -34.238  17.800  -0.511  1.00 20.00     0.015 C 
BRANCH   6   7
HETATM    7  C6  UNL     1     -32.947  18.144  -1.242  1.00 20.00     0.114 C 
HETATM    8 CL8  UNL     1     -31.647  18.485  -0.078  1.00 20.00    -0.130 Cl
ENDBRANCH   6   7
ENDBRANCH   1   6
TORSDOF 5
ENDMDL
MODEL 8
REMARK VINA RESULT:      -3.1     10.649     10.988
REMARK  5 active torsions:
REMARK  status: ('A' for Active; 'I' for Inactive)
REMARK    1  A    between atoms: C2_2  and  C3_3 
REMARK    2  A    between atoms: C2_2  and  C4_4 
REMARK    3  A    between atoms: C3_3  and  C5_5 
REMARK    4  A    between atoms: C4_4  and  C6_6 
REMARK    5  A    between atoms: C5_5  and  S7_7 
ROOT
HETATM    1  C2  UNL     1     -34.809  16.225  -2.624  1.00 20.00     0.002 C 
ENDROOT
BRANCH   1   2
HETATM    2  C3  UNL     1     -33.754  16.087  -3.727  1.00 20.00     0.010 C 
BRANCH   2   3
HETATM    3  C5  UNL     1     -33.638  14.670  -4.291  1.00 20.00     0.073 C 
BRANCH   3   4
HETATM    4  S7  UNL     1     -34.550  14.449  -5.846  1.00 20.00    -0.173 SA
HETATM    5  C1  UNL     1     -35.966  13.538  -5.190  1.00 20.00     0.089 C 
ENDBRANCH   3   4
ENDBRANCH   2   3
ENDBRANCH   1   2
BRANCH   1   6
HETATM    6  C4  UNL     1     -34.305  17.112  -1.484  1.00 20.00     0.015 C 
BRANCH   6   7
HETATM    7  C6  UNL     1     -33.048  17.870  -1.892  1.00 20.00     0.114 C 
HETATM    8 CL8  UNL     1     -32.234  18.538  -0.459  1.00 20.00    -0.130 Cl
ENDBRANCH   6   7
ENDBRANCH   1   6
TORSDOF 5
ENDMDL
MODEL 9
REMARK VINA RESULT:      -3.0     10.197     10.910
REMARK  5 active torsions:
REMARK  status: ('A' for Active; 'I' for Inactive)
REMARK    1  A    between atoms: C2_2  and  C3_3 
REMARK    2  A    between atoms: C2_2  and  C4_4 
REMARK    3  A    between atoms: C3_3  and  C5_5 
REMARK    4  A    between atoms: C4_4  and  C6_6 
REMARK    5  A    between atoms: C5_5  and  S7_7 
ROOT
HETATM    1  C2  UNL     1     -33.675  16.239  -3.420  1.00 20.00     0.002 C 
ENDROOT
BRANCH   1   2
HETATM    2  C3  UNL     1     -33.607  15.098  -4.442  1.00 20.00     0.010 C 
BRANCH   2   3
HETATM    3  C5  UNL     1     -34.639  13.997  -4.200  1.00 20.00     0.073 C 
BRANCH   3   4
HETATM    4  S7  UNL     1     -35.766  13.760  -5.605  1.00 20.00    -0.173 SA
HETATM    5  C1  UNL     1     -34.530  13.677  -6.920  1.00 20.00     0.089 C 
ENDBRANCH   3   4
ENDBRANCH   2   3
ENDBRANCH   1   2
BRANCH   1   6
HETATM    6  C4  UNL     1     -35.035  16.275  -2.721  1.00 20.00     0.015 C 
BRANCH   6   7
HETATM    7  C6  UNL     1     -34.943  16.984  -1.376  1.00 20.00     0.114 C 
HETATM    8 CL8  UNL     1     -33.343  17.736  -1.180  1.00 20.00    -0.130 Cl
ENDBRANCH   6   7
ENDBRANCH   1   6
TORSDOF 5
ENDMDL
