MODEL 1
REMARK VINA RESULT:      -4.6      0.000      0.000
REMARK  2 active torsions:
REMARK  status: ('A' for Active; 'I' for Inactive)
REMARK    1  A    between atoms: C3_3  and  C7_7 
REMARK    2  A    between atoms: C3_3  and  O11_11 
ROOT
HETATM    1  C1  UNL     1     -35.061  15.732  -4.578  1.00 20.00    -0.070 C 
HETATM    2  C2  UNL     1     -35.367  16.036  -3.310  1.00 20.00    -0.027 C 
HETATM    3  C4  UNL     1     -33.692  15.898  -5.177  1.00 20.00     0.034 C 
HETATM    4  C5  UNL     1     -33.777  15.096  -6.468  1.00 20.00     0.005 C 
HETATM    5  C6  UNL     1     -35.233  15.238  -6.902  1.00 20.00     0.019 C 
HETATM    6  C7  UNL     1     -36.027  15.195  -5.599  1.00 20.00     0.114 C 
HETATM    7  C8  UNL     1     -34.389  16.582  -2.326  1.00 20.00     0.036 C 
ENDROOT
BRANCH   6   8
HETATM    8  C3  UNL     1     -36.398  13.789  -5.230  1.00 20.00     0.266 C 
HETATM    9  O10 UNL     1     -35.619  12.847  -5.253  1.00 20.00    -0.265 OA
BRANCH   8  10
HETATM   10  O11 UNL     1     -37.714  13.744  -4.876  1.00 20.00    -0.326 OA
HETATM   11  C9  UNL     1     -38.523  14.811  -5.381  1.00 20.00     0.213 C 
ENDBRANCH   8  10
ENDBRANCH   6   8
TORSDOF 2
ENDMDL
MODEL 2
REMARK VINA RESULT:      -4.4      4.933      7.425
REMARK  2 active torsions:
REMARK  status: ('A' for Active; 'I' for Inactive)
REMARK    1  A    between atoms: C3_3  and  C7_7 
REMARK    2  A    between atoms: C3_3  and  O11_11 
ROOT
HETATM    1  C1  UNL     1     -33.904  17.831  -1.242  1.00 20.00    -0.070 C 
HETATM    2  C2  UNL     1     -33.383  17.353  -2.379  1.00 20.00    -0.027 C 
HETATM    3  C4  UNL     1     -35.108  17.248  -0.557  1.00 20.00     0.034 C 
HETATM    4  C5  UNL     1     -35.068  17.888   0.824  1.00 20.00     0.005 C 
HETATM    5  C6  UNL     1     -34.450  19.262   0.583  1.00 20.00     0.019 C 
HETATM    6  C7  UNL     1     -33.384  19.021  -0.482  1.00 20.00     0.114 C 
HETATM    7  C8  UNL     1     -33.932  16.180  -3.118  1.00 20.00     0.036 C 
ENDROOT
BRANCH   6   8
HETATM    8  C3  UNL     1     -32.063  18.669   0.136  1.00 20.00     0.266 C 
HETATM    9  O10 UNL     1     -31.124  18.187  -0.483  1.00 20.00    -0.265 OA
BRANCH   8  10
HETATM   10  O11 UNL     1     -32.088  18.969   1.465  1.00 20.00    -0.326 OA
HETATM   11  C9  UNL     1     -30.850  18.785   2.160  1.00 20.00     0.213 C 
ENDBRANCH   8  10
ENDBRANCH   6   8
TORSDOF 2
ENDMDL
MODEL 3
REMARK VINA RESULT:      -4.3      2.504      3.911
REMARK  2 active torsions:
REMARK  status: ('A' for Active; 'I' for Inactive)
REMARK    1  A    between atoms: C3_3  and  C7_7 
REMARK    2  A    between atoms: C3_3  and  O11_11 
ROOT
HETATM    1  C1  UNL     1     -34.077  16.664  -2.542  1.00 20.00    -0.070 C 
HETATM    2  C2  UNL     1     -33.180  17.393  -1.865  1.00 20.00    -0.027 C 
HETATM    3  C4  UNL     1     -35.545  16.630  -2.222  1.00 20.00     0.034 C 
HETATM    4  C5  UNL     1     -36.155  15.979  -3.457  1.00 20.00     0.005 C 
HETATM    5  C6  UNL     1     -35.075  15.020  -3.948  1.00 20.00     0.019 C 
HETATM    6  C7  UNL     1     -33.764  15.764  -3.705  1.00 20.00     0.114 C 
HETATM    7  C8  UNL     1     -33.519  18.264  -0.704  1.00 20.00     0.036 C 
ENDROOT
BRANCH   6   8
HETATM    8  C3  UNL     1     -33.385  16.606  -4.888  1.00 20.00     0.266 C 
HETATM    9  O10 UNL     1     -33.425  17.828  -4.899  1.00 20.00    -0.265 OA
BRANCH   8  10
HETATM   10  O11 UNL     1     -33.001  15.799  -5.917  1.00 20.00    -0.326 OA
HETATM   11  C9  UNL     1     -33.765  15.932  -7.120  1.00 20.00     0.213 C 
ENDBRANCH   8  10
ENDBRANCH   6   8
TORSDOF 2
ENDMDL
MODEL 4
REMARK VINA RESULT:      -4.3     12.290     13.442
REMARK  2 active torsions:
REMARK  status: ('A' for Active; 'I' for Inactive)
REMARK    1  A    between atoms: C3_3  and  C7_7 
REMARK    2  A    between atoms: C3_3  and  O11_11 
ROOT
HETATM    1  C1  UNL     1     -33.769   5.110   3.382  1.00 20.00    -0.070 C 
HETATM    2  C2  UNL     1     -33.110   4.956   2.227  1.00 20.00    -0.027 C 
HETATM    3  C4  UNL     1     -34.008   4.001   4.369  1.00 20.00     0.034 C 
HETATM    4  C5  UNL     1     -34.449   4.741   5.624  1.00 20.00     0.005 C 
HETATM    5  C6  UNL     1     -35.181   5.971   5.097  1.00 20.00     0.019 C 
HETATM    6  C7  UNL     1     -34.380   6.395   3.868  1.00 20.00     0.114 C 
HETATM    7  C8  UNL     1     -32.529   3.663   1.765  1.00 20.00     0.036 C 
ENDROOT
BRANCH   6   8
HETATM    8  C3  UNL     1     -33.284   7.352   4.233  1.00 20.00     0.266 C 
HETATM    9  O10 UNL     1     -32.955   7.611   5.383  1.00 20.00    -0.265 OA
BRANCH   8  10
HETATM   10  O11 UNL     1     -32.733   7.868   3.098  1.00 20.00    -0.326 OA
HETATM   11  C9  UNL     1     -31.400   8.371   3.236  1.00 20.00     0.213 C 
ENDBRANCH   8  10
ENDBRANCH   6   8
TORSDOF 2
ENDMDL
MODEL 5
REMARK VINA RESULT:      -4.2      1.226      1.587
REMARK  2 active torsions:
REMARK  status: ('A' for Active; 'I' for Inactive)
REMARK    1  A    between atoms: C3_3  and  C7_7 
REMARK    2  A    between atoms: C3_3  and  O11_11 
ROOT
HETATM    1  C1  UNL     1     -34.784  16.241  -3.702  1.00 20.00    -0.070 C 
HETATM    2  C2  UNL     1     -35.320  16.207  -2.475  1.00 20.00    -0.027 C 
HETATM    3  C4  UNL     1     -33.655  17.149  -4.102  1.00 20.00     0.034 C 
HETATM    4  C5  UNL     1     -33.189  16.561  -5.427  1.00 20.00     0.005 C 
HETATM    5  C6  UNL     1     -34.457  15.981  -6.047  1.00 20.00     0.019 C 
HETATM    6  C7  UNL     1     -35.228  15.398  -4.866  1.00 20.00     0.114 C 
HETATM    7  C8  UNL     1     -34.869  17.069  -1.345  1.00 20.00     0.036 C 
ENDROOT
BRANCH   6   8
HETATM    8  C3  UNL     1     -34.843  13.970  -4.612  1.00 20.00     0.266 C 
HETATM    9  O10 UNL     1     -33.781  13.626  -4.111  1.00 20.00    -0.265 OA
BRANCH   8  10
HETATM   10  O11 UNL     1     -35.849  13.147  -5.022  1.00 20.00    -0.326 OA
HETATM   11  C9  UNL     1     -37.094  13.793  -5.308  1.00 20.00     0.213 C 
ENDBRANCH   8  10
ENDBRANCH   6   8
TORSDOF 2
ENDMDL
MODEL 6
REMARK VINA RESULT:      -4.2     11.549     12.741
REMARK  2 active torsions:
REMARK  status: ('A' for Active; 'I' for Inactive)
REMARK    1  A    between atoms: C3_3  and  C7_7 
REMARK    2  A    between atoms: C3_3  and  O11_11 
ROOT
HETATM    1  C1  UNL     1     -33.821   6.051   4.066  1.00 20.00    -0.070 C 
HETATM    2  C2  UNL     1     -33.743   4.973   3.275  1.00 20.00    -0.027 C 
HETATM    3  C4  UNL     1     -34.029   5.990   5.553  1.00 20.00     0.034 C 
HETATM    4  C5  UNL     1     -33.684   7.401   6.011  1.00 20.00     0.005 C 
HETATM    5  C6  UNL     1     -34.098   8.287   4.840  1.00 20.00     0.019 C 
HETATM    6  C7  UNL     1     -33.729   7.478   3.599  1.00 20.00     0.114 C 
HETATM    7  C8  UNL     1     -33.855   3.570   3.767  1.00 20.00     0.036 C 
ENDROOT
BRANCH   6   8
HETATM    8  C3  UNL     1     -32.322   7.759   3.160  1.00 20.00     0.266 C 
HETATM    9  O10 UNL     1     -31.391   7.953   3.929  1.00 20.00    -0.265 OA
BRANCH   8  10
HETATM   10  O11 UNL     1     -32.262   7.763   1.798  1.00 20.00    -0.326 OA
HETATM   11  C9  UNL     1     -32.226   9.057   1.187  1.00 20.00     0.213 C 
ENDBRANCH   8  10
ENDBRANCH   6   8
TORSDOF 2
ENDMDL
MODEL 7
REMARK VINA RESULT:      -4.1      1.787      3.026
REMARK  2 active torsions:
REMARK  status: ('A' for Active; 'I' for Inactive)
REMARK    1  A    between atoms: C3_3  and  C7_7 
REMARK    2  A    between atoms: C3_3  and  O11_11 
ROOT
HETATM    1  C1  UNL     1     -34.756  15.554  -3.578  1.00 20.00    -0.070 C 
HETATM    2  C2  UNL     1     -33.753  16.155  -2.923  1.00 20.00    -0.027 C 
HETATM    3  C4  UNL     1     -36.171  16.060  -3.595  1.00 20.00     0.034 C 
HETATM    4  C5  UNL     1     -36.808  15.272  -4.731  1.00 20.00     0.005 C 
HETATM    5  C6  UNL     1     -36.079  13.932  -4.714  1.00 20.00     0.019 C 
HETATM    6  C7  UNL     1     -34.633  14.288  -4.379  1.00 20.00     0.114 C 
HETATM    7  C8  UNL     1     -33.911  17.402  -2.122  1.00 20.00     0.036 C 
ENDROOT
BRANCH   6   8
HETATM    8  C3  UNL     1     -33.837  14.569  -5.620  1.00 20.00     0.266 C 
HETATM    9  O10 UNL     1     -33.066  15.511  -5.740  1.00 20.00    -0.265 OA
BRANCH   8  10
HETATM   10  O11 UNL     1     -34.113  13.623  -6.562  1.00 20.00    -0.326 OA
HETATM   11  C9  UNL     1     -34.101  14.082  -7.917  1.00 20.00     0.213 C 
ENDBRANCH   8  10
ENDBRANCH   6   8
TORSDOF 2
ENDMDL
MODEL 8
REMARK VINA RESULT:      -4.0      1.488      3.015
REMARK  2 active torsions:
REMARK  status: ('A' for Active; 'I' for Inactive)
REMARK    1  A    between atoms: C3_3  and  C7_7 
REMARK    2  A    between atoms: C3_3  and  O11_11 
ROOT
HETATM    1  C1  UNL     1     -35.882  16.241  -5.260  1.00 20.00    -0.070 C 
HETATM    2  C2  UNL     1     -36.562  16.708  -6.315  1.00 20.00    -0.027 C 
HETATM    3  C4  UNL     1     -35.746  16.974  -3.955  1.00 20.00     0.034 C 
HETATM    4  C5  UNL     1     -35.223  15.904  -3.007  1.00 20.00     0.005 C 
HETATM    5  C6  UNL     1     -34.377  14.997  -3.896  1.00 20.00     0.019 C 
HETATM    6  C7  UNL     1     -35.142  14.932  -5.216  1.00 20.00     0.114 C 
HETATM    7  C8  UNL     1     -37.273  18.018  -6.335  1.00 20.00     0.036 C 
ENDROOT
BRANCH   6   8
HETATM    8  C3  UNL     1     -36.134  13.808  -5.218  1.00 20.00     0.266 C 
HETATM    9  O10 UNL     1     -37.249  13.878  -4.720  1.00 20.00    -0.265 OA
BRANCH   8  10
HETATM   10  O11 UNL     1     -35.597  12.727  -5.851  1.00 20.00    -0.326 OA
HETATM   11  C9  UNL     1     -35.114  12.969  -7.177  1.00 20.00     0.213 C 
ENDBRANCH   8  10
ENDBRANCH   6   8
TORSDOF 2
ENDMDL
MODEL 9
REMARK VINA RESULT:      -4.0      1.641      3.039
REMARK  2 active torsions:
REMARK  status: ('A' for Active; 'I' for Inactive)
REMARK    1  A    between atoms: C3_3  and  C7_7 
REMARK    2  A    between atoms: C3_3  and  O11_11 
ROOT
HETATM    1  C1  UNL     1     -34.127  16.005  -5.889  1.00 20.00    -0.070 C 
HETATM    2  C2  UNL     1     -34.625  16.444  -7.052  1.00 20.00    -0.027 C 
HETATM    3  C4  UNL     1     -33.583  16.903  -4.814  1.00 20.00     0.034 C 
HETATM    4  C5  UNL     1     -33.494  15.983  -3.604  1.00 20.00     0.005 C 
HETATM    5  C6  UNL     1     -33.195  14.610  -4.198  1.00 20.00     0.019 C 
HETATM    6  C7  UNL     1     -34.019  14.561  -5.482  1.00 20.00     0.114 C 
HETATM    7  C8  UNL     1     -34.703  17.883  -7.434  1.00 20.00     0.036 C 
ENDROOT
BRANCH   6   8
HETATM    8  C3  UNL     1     -35.395  14.019  -5.229  1.00 20.00     0.266 C 
HETATM    9  O10 UNL     1     -36.249  14.599  -4.572  1.00 20.00    -0.265 OA
BRANCH   8  10
HETATM   10  O11 UNL     1     -35.526  12.807  -5.838  1.00 20.00    -0.326 OA
HETATM   11  C9  UNL     1     -35.256  12.793  -7.244  1.00 20.00     0.213 C 
ENDBRANCH   8  10
ENDBRANCH   6   8
TORSDOF 2
ENDMDL
