MODEL 1
REMARK VINA RESULT:      -6.2      0.000      0.000
REMARK  0 active torsions:
REMARK  status: ('A' for Active; 'I' for Inactive)
ROOT
HETATM    1  C1  UNL     1     -34.039   4.639   3.841  1.00 20.00     0.222 C 
HETATM    2  C2  UNL     1     -33.797   7.352   6.072  1.00 20.00     0.001 C 
HETATM    3  C3  UNL     1     -34.578   6.054   5.881  1.00 20.00     0.014 C 
HETATM    4  C4  UNL     1     -32.974   7.483   4.800  1.00 20.00     0.007 C 
HETATM    5  C5  UNL     1     -33.303   6.433   2.489  1.00 20.00     0.128 C 
HETATM    6  C6  UNL     1     -34.730   5.880   4.370  1.00 20.00     0.083 C 
HETATM    7  C7  UNL     1     -33.953   7.034   3.718  1.00 20.00     0.016 C 
HETATM    8  N8  UNL     1     -33.237   5.026   2.774  1.00 20.00    -0.360 N 
HETATM    9  O9  UNL     1     -34.190   3.504   4.269  1.00 20.00    -0.273 OA
HETATM   10  H20 UNL     1     -32.661   4.378   2.248  1.00 20.00     0.162 HD
ENDROOT
TORSDOF 0
ENDMDL
MODEL 2
REMARK VINA RESULT:      -5.9      2.148      3.241
REMARK  0 active torsions:
REMARK  status: ('A' for Active; 'I' for Inactive)
ROOT
HETATM    1  C1  UNL     1     -32.863   7.308   3.949  1.00 20.00     0.222 C 
HETATM    2  C2  UNL     1     -34.311   4.113   4.247  1.00 20.00     0.001 C 
HETATM    3  C3  UNL     1     -33.908   5.124   3.177  1.00 20.00     0.014 C 
HETATM    4  C4  UNL     1     -34.080   4.844   5.559  1.00 20.00     0.007 C 
HETATM    5  C5  UNL     1     -33.920   7.349   6.063  1.00 20.00     0.128 C 
HETATM    6  C6  UNL     1     -34.137   6.500   3.801  1.00 20.00     0.083 C 
HETATM    7  C7  UNL     1     -34.581   6.253   5.252  1.00 20.00     0.016 C 
HETATM    8  N8  UNL     1     -32.799   7.756   5.263  1.00 20.00    -0.360 N 
HETATM    9  O9  UNL     1     -32.058   7.536   3.058  1.00 20.00    -0.273 OA
HETATM   10  H20 UNL     1     -32.033   8.317   5.622  1.00 20.00     0.162 HD
ENDROOT
TORSDOF 0
ENDMDL
MODEL 3
REMARK VINA RESULT:      -5.5      2.078      3.161
REMARK  0 active torsions:
REMARK  status: ('A' for Active; 'I' for Inactive)
ROOT
HETATM    1  C1  UNL     1     -34.014   6.749   5.546  1.00 20.00     0.222 C 
HETATM    2  C2  UNL     1     -32.632   6.486   2.318  1.00 20.00     0.001 C 
HETATM    3  C3  UNL     1     -33.026   7.545   3.344  1.00 20.00     0.014 C 
HETATM    4  C4  UNL     1     -33.128   5.181   2.919  1.00 20.00     0.007 C 
HETATM    5  C5  UNL     1     -34.922   4.740   4.692  1.00 20.00     0.128 C 
HETATM    6  C6  UNL     1     -34.251   6.986   4.067  1.00 20.00     0.083 C 
HETATM    7  C7  UNL     1     -34.482   5.574   3.506  1.00 20.00     0.016 C 
HETATM    8  N8  UNL     1     -34.412   5.448   5.833  1.00 20.00    -0.360 N 
HETATM    9  O9  UNL     1     -33.575   7.571   6.336  1.00 20.00    -0.273 OA
HETATM   10  H20 UNL     1     -34.348   5.039   6.759  1.00 20.00     0.162 HD
ENDROOT
TORSDOF 0
ENDMDL
MODEL 4
REMARK VINA RESULT:      -4.4     12.459     13.448
REMARK  0 active torsions:
REMARK  status: ('A' for Active; 'I' for Inactive)
ROOT
HETATM    1  C1  UNL     1     -34.742  13.315  -6.905  1.00 20.00     0.222 C 
HETATM    2  C2  UNL     1     -33.798  15.186  -4.076  1.00 20.00     0.001 C 
HETATM    3  C3  UNL     1     -34.842  14.161  -4.511  1.00 20.00     0.014 C 
HETATM    4  C4  UNL     1     -33.050  15.523  -5.355  1.00 20.00     0.007 C 
HETATM    5  C5  UNL     1     -33.738  15.256  -7.807  1.00 20.00     0.128 C 
HETATM    6  C6  UNL     1     -35.124  14.457  -5.984  1.00 20.00     0.083 C 
HETATM    7  C7  UNL     1     -34.168  15.588  -6.392  1.00 20.00     0.016 C 
HETATM    8  N8  UNL     1     -33.948  13.839  -7.918  1.00 20.00    -0.360 N 
HETATM    9  O9  UNL     1     -35.097  12.152  -6.781  1.00 20.00    -0.273 OA
HETATM   10  H20 UNL     1     -33.555  13.275  -8.664  1.00 20.00     0.162 HD
ENDROOT
TORSDOF 0
ENDMDL
MODEL 5
REMARK VINA RESULT:      -4.4     12.289     12.617
REMARK  0 active torsions:
REMARK  status: ('A' for Active; 'I' for Inactive)
ROOT
HETATM    1  C1  UNL     1     -34.894  13.962  -4.989  1.00 20.00     0.222 C 
HETATM    2  C2  UNL     1     -35.540  16.529  -2.667  1.00 20.00     0.001 C 
HETATM    3  C3  UNL     1     -36.279  15.604  -3.629  1.00 20.00     0.014 C 
HETATM    4  C4  UNL     1     -34.070  16.265  -2.949  1.00 20.00     0.007 C 
HETATM    5  C5  UNL     1     -32.922  15.266  -5.008  1.00 20.00     0.128 C 
HETATM    6  C6  UNL     1     -35.336  15.402  -4.816  1.00 20.00     0.083 C 
HETATM    7  C7  UNL     1     -34.035  16.143  -4.470  1.00 20.00     0.016 C 
HETATM    8  N8  UNL     1     -33.508  13.957  -5.086  1.00 20.00    -0.360 N 
HETATM    9  O9  UNL     1     -35.637  12.994  -5.055  1.00 20.00    -0.273 OA
HETATM   10  H20 UNL     1     -32.963  13.109  -5.201  1.00 20.00     0.162 HD
ENDROOT
TORSDOF 0
ENDMDL
MODEL 6
REMARK VINA RESULT:      -4.2     12.099     12.834
REMARK  0 active torsions:
REMARK  status: ('A' for Active; 'I' for Inactive)
ROOT
HETATM    1  C1  UNL     1     -35.762  13.626  -5.043  1.00 20.00     0.222 C 
HETATM    2  C2  UNL     1     -33.266  16.095  -4.782  1.00 20.00     0.001 C 
HETATM    3  C3  UNL     1     -33.419  14.577  -4.787  1.00 20.00     0.014 C 
HETATM    4  C4  UNL     1     -34.694  16.615  -4.783  1.00 20.00     0.007 C 
HETATM    5  C5  UNL     1     -36.881  15.478  -4.091  1.00 20.00     0.128 C 
HETATM    6  C6  UNL     1     -34.764  14.294  -4.118  1.00 20.00     0.083 C 
HETATM    7  C7  UNL     1     -35.401  15.661  -3.823  1.00 20.00     0.016 C 
HETATM    8  N8  UNL     1     -36.944  14.355  -4.985  1.00 20.00    -0.360 N 
HETATM    9  O9  UNL     1     -35.558  12.614  -5.698  1.00 20.00    -0.273 OA
HETATM   10  H20 UNL     1     -37.771  14.117  -5.521  1.00 20.00     0.162 HD
ENDROOT
TORSDOF 0
ENDMDL
MODEL 7
REMARK VINA RESULT:      -4.2     12.507     12.846
REMARK  0 active torsions:
REMARK  status: ('A' for Active; 'I' for Inactive)
ROOT
HETATM    1  C1  UNL     1     -36.275  13.867  -5.425  1.00 20.00     0.222 C 
HETATM    2  C2  UNL     1     -33.878  15.671  -3.580  1.00 20.00     0.001 C 
HETATM    3  C3  UNL     1     -35.387  15.616  -3.809  1.00 20.00     0.014 C 
HETATM    4  C4  UNL     1     -33.312  14.679  -4.583  1.00 20.00     0.007 C 
HETATM    5  C5  UNL     1     -34.316  13.737  -6.742  1.00 20.00     0.128 C 
HETATM    6  C6  UNL     1     -35.569  15.200  -5.268  1.00 20.00     0.083 C 
HETATM    7  C7  UNL     1     -34.162  14.934  -5.825  1.00 20.00     0.016 C 
HETATM    8  N8  UNL     1     -35.504  13.080  -6.271  1.00 20.00    -0.360 N 
HETATM    9  O9  UNL     1     -37.342  13.563  -4.912  1.00 20.00    -0.273 OA
HETATM   10  H20 UNL     1     -35.756  12.133  -6.532  1.00 20.00     0.162 HD
ENDROOT
TORSDOF 0
ENDMDL
MODEL 8
REMARK VINA RESULT:      -4.1     12.761     13.518
REMARK  0 active torsions:
REMARK  status: ('A' for Active; 'I' for Inactive)
ROOT
HETATM    1  C1  UNL     1     -32.189  18.513  -0.185  1.00 20.00     0.222 C 
HETATM    2  C2  UNL     1     -34.783  16.777  -1.815  1.00 20.00     0.001 C 
HETATM    3  C3  UNL     1     -33.379  17.312  -2.082  1.00 20.00     0.014 C 
HETATM    4  C4  UNL     1     -35.124  17.299  -0.428  1.00 20.00     0.007 C 
HETATM    5  C5  UNL     1     -34.153  19.263   0.897  1.00 20.00     0.128 C 
HETATM    6  C6  UNL     1     -33.259  18.593  -1.256  1.00 20.00     0.083 C 
HETATM    7  C7  UNL     1     -34.565  18.720  -0.456  1.00 20.00     0.016 C 
HETATM    8  N8  UNL     1     -32.768  18.902   1.017  1.00 20.00    -0.360 N 
HETATM    9  O9  UNL     1     -31.025  18.187  -0.365  1.00 20.00    -0.273 OA
HETATM   10  H20 UNL     1     -32.260  18.929   1.895  1.00 20.00     0.162 HD
ENDROOT
TORSDOF 0
ENDMDL
MODEL 9
REMARK VINA RESULT:      -4.0      1.423      2.601
REMARK  0 active torsions:
REMARK  status: ('A' for Active; 'I' for Inactive)
ROOT
HETATM    1  C1  UNL     1     -34.401   5.077   4.742  1.00 20.00     0.222 C 
HETATM    2  C2  UNL     1     -33.170   7.253   2.263  1.00 20.00     0.001 C 
HETATM    3  C3  UNL     1     -33.248   5.763   2.583  1.00 20.00     0.014 C 
HETATM    4  C4  UNL     1     -33.719   7.932   3.507  1.00 20.00     0.007 C 
HETATM    5  C5  UNL     1     -33.938   7.079   5.911  1.00 20.00     0.128 C 
HETATM    6  C6  UNL     1     -33.154   5.661   4.106  1.00 20.00     0.083 C 
HETATM    7  C7  UNL     1     -33.117   7.102   4.638  1.00 20.00     0.016 C 
HETATM    8  N8  UNL     1     -34.797   5.937   5.758  1.00 20.00    -0.360 N 
HETATM    9  O9  UNL     1     -34.934   4.024   4.424  1.00 20.00    -0.273 OA
HETATM   10  H20 UNL     1     -35.614   5.775   6.337  1.00 20.00     0.162 HD
ENDROOT
TORSDOF 0
ENDMDL
