MODEL 1
REMARK VINA RESULT:      -5.5      0.000      0.000
REMARK  1 active torsions:
REMARK  status: ('A' for Active; 'I' for Inactive)
REMARK    1  A    between atoms: C3_3  and  C4_4 
ROOT
HETATM    1  C1  UNL     1     -33.092   6.634   2.859  1.00 20.00     0.065 A 
HETATM    2  C2  UNL     1     -32.201   7.648   3.088  1.00 20.00     0.172 A 
HETATM    3  C3  UNL     1     -33.717   6.450   4.105  1.00 20.00     0.169 A 
HETATM    4  N5  UNL     1     -33.248   7.286   5.035  1.00 20.00    -0.124 NA
HETATM    5  O6  UNL     1     -32.284   8.046   4.383  1.00 20.00    -0.225 OA
ENDROOT
BRANCH   3   6
HETATM    6  C4  UNL     1     -34.770   5.483   4.453  1.00 20.00     0.436 C 
HETATM    7  F7  UNL     1     -34.494   4.188   4.084  1.00 20.00    -0.164 F 
HETATM    8  F8  UNL     1     -35.043   5.400   5.797  1.00 20.00    -0.164 F 
HETATM    9  F9  UNL     1     -35.980   5.761   3.867  1.00 20.00    -0.164 F 
ENDBRANCH   3   6
TORSDOF 1
ENDMDL
MODEL 2
REMARK VINA RESULT:      -5.5      0.024      1.257
REMARK  1 active torsions:
REMARK  status: ('A' for Active; 'I' for Inactive)
REMARK    1  A    between atoms: C3_3  and  C4_4 
ROOT
HETATM    1  C1  UNL     1     -33.089   6.660   2.850  1.00 20.00     0.065 A 
HETATM    2  C2  UNL     1     -32.191   7.667   3.085  1.00 20.00     0.172 A 
HETATM    3  C3  UNL     1     -33.710   6.467   4.097  1.00 20.00     0.169 A 
HETATM    4  N5  UNL     1     -33.232   7.292   5.033  1.00 20.00    -0.124 NA
HETATM    5  O6  UNL     1     -32.267   8.053   4.384  1.00 20.00    -0.225 OA
ENDROOT
BRANCH   3   6
HETATM    6  C4  UNL     1     -34.766   5.502   4.439  1.00 20.00     0.436 C 
HETATM    7  F7  UNL     1     -35.046   5.422   5.783  1.00 20.00    -0.164 F 
HETATM    8  F8  UNL     1     -35.983   5.763   3.856  1.00 20.00    -0.164 F 
HETATM    9  F9  UNL     1     -34.470   4.215   4.068  1.00 20.00    -0.164 F 
ENDBRANCH   3   6
TORSDOF 1
ENDMDL
MODEL 3
REMARK VINA RESULT:      -5.3      1.200      1.290
REMARK  1 active torsions:
REMARK  status: ('A' for Active; 'I' for Inactive)
REMARK    1  A    between atoms: C3_3  and  C4_4 
ROOT
HETATM    1  C1  UNL     1     -33.123   7.430   4.604  1.00 20.00     0.065 A 
HETATM    2  C2  UNL     1     -32.229   7.914   3.686  1.00 20.00     0.172 A 
HETATM    3  C3  UNL     1     -33.735   6.352   3.939  1.00 20.00     0.169 A 
HETATM    4  N5  UNL     1     -33.258   6.183   2.703  1.00 20.00    -0.124 NA
HETATM    5  O6  UNL     1     -32.300   7.178   2.547  1.00 20.00    -0.225 OA
ENDROOT
BRANCH   3   6
HETATM    6  C4  UNL     1     -34.785   5.457   4.449  1.00 20.00     0.436 C 
HETATM    7  F7  UNL     1     -34.567   4.124   4.192  1.00 20.00    -0.164 F 
HETATM    8  F8  UNL     1     -34.966   5.513   5.810  1.00 20.00    -0.164 F 
HETATM    9  F9  UNL     1     -36.025   5.714   3.921  1.00 20.00    -0.164 F 
ENDBRANCH   3   6
TORSDOF 1
ENDMDL
MODEL 4
REMARK VINA RESULT:      -5.1      2.307      3.135
REMARK  1 active torsions:
REMARK  status: ('A' for Active; 'I' for Inactive)
REMARK    1  A    between atoms: C3_3  and  C4_4 
ROOT
HETATM    1  C1  UNL     1     -34.487   4.668   4.768  1.00 20.00     0.065 A 
HETATM    2  C2  UNL     1     -34.756   5.181   6.009  1.00 20.00     0.172 A 
HETATM    3  C3  UNL     1     -33.914   5.750   4.076  1.00 20.00     0.169 A 
HETATM    4  N5  UNL     1     -33.835   6.849   4.830  1.00 20.00    -0.124 NA
HETATM    5  O6  UNL     1     -34.372   6.482   6.059  1.00 20.00    -0.225 OA
ENDROOT
BRANCH   3   6
HETATM    6  C4  UNL     1     -33.428   5.776   2.688  1.00 20.00     0.436 C 
HETATM    7  F7  UNL     1     -34.404   6.011   1.749  1.00 20.00    -0.164 F 
HETATM    8  F8  UNL     1     -32.480   6.740   2.437  1.00 20.00    -0.164 F 
HETATM    9  F9  UNL     1     -32.842   4.600   2.293  1.00 20.00    -0.164 F 
ENDBRANCH   3   6
TORSDOF 1
ENDMDL
MODEL 5
REMARK VINA RESULT:      -5.0      2.796      3.459
REMARK  1 active torsions:
REMARK  status: ('A' for Active; 'I' for Inactive)
REMARK    1  A    between atoms: C3_3  and  C4_4 
ROOT
HETATM    1  C1  UNL     1     -34.229   5.758   3.903  1.00 20.00     0.065 A 
HETATM    2  C2  UNL     1     -34.799   5.497   5.121  1.00 20.00     0.172 A 
HETATM    3  C3  UNL     1     -33.420   6.882   4.146  1.00 20.00     0.169 A 
HETATM    4  N5  UNL     1     -33.485   7.287   5.417  1.00 20.00    -0.124 NA
HETATM    5  O6  UNL     1     -34.363   6.403   6.033  1.00 20.00    -0.225 OA
ENDROOT
BRANCH   3   6
HETATM    6  C4  UNL     1     -32.567   7.603   3.189  1.00 20.00     0.436 C 
HETATM    7  F7  UNL     1     -33.201   8.624   2.522  1.00 20.00    -0.164 F 
HETATM    8  F8  UNL     1     -31.464   8.201   3.751  1.00 20.00    -0.164 F 
HETATM    9  F9  UNL     1     -32.061   6.801   2.197  1.00 20.00    -0.164 F 
ENDBRANCH   3   6
TORSDOF 1
ENDMDL
MODEL 6
REMARK VINA RESULT:      -5.0      2.451      2.984
REMARK  1 active torsions:
REMARK  status: ('A' for Active; 'I' for Inactive)
REMARK    1  A    between atoms: C3_3  and  C4_4 
ROOT
HETATM    1  C1  UNL     1     -33.439   7.333   4.937  1.00 20.00     0.065 A 
HETATM    2  C2  UNL     1     -34.047   7.044   6.130  1.00 20.00     0.172 A 
HETATM    3  C3  UNL     1     -33.751   6.227   4.126  1.00 20.00     0.169 A 
HETATM    4  N5  UNL     1     -34.495   5.322   4.769  1.00 20.00    -0.124 NA
HETATM    5  O6  UNL     1     -34.680   5.846   6.042  1.00 20.00    -0.225 OA
ENDROOT
BRANCH   3   6
HETATM    6  C4  UNL     1     -33.357   5.994   2.728  1.00 20.00     0.436 C 
HETATM    7  F7  UNL     1     -32.484   6.928   2.223  1.00 20.00    -0.164 F 
HETATM    8  F8  UNL     1     -32.730   4.792   2.509  1.00 20.00    -0.164 F 
HETATM    9  F9  UNL     1     -34.416   6.000   1.855  1.00 20.00    -0.164 F 
ENDBRANCH   3   6
TORSDOF 1
ENDMDL
MODEL 7
REMARK VINA RESULT:      -5.0      2.807      3.457
REMARK  1 active torsions:
REMARK  status: ('A' for Active; 'I' for Inactive)
REMARK    1  A    between atoms: C3_3  and  C4_4 
ROOT
HETATM    1  C1  UNL     1     -34.208   5.779   3.909  1.00 20.00     0.065 A 
HETATM    2  C2  UNL     1     -34.777   5.507   5.124  1.00 20.00     0.172 A 
HETATM    3  C3  UNL     1     -33.422   6.919   4.155  1.00 20.00     0.169 A 
HETATM    4  N5  UNL     1     -33.501   7.323   5.426  1.00 20.00    -0.124 NA
HETATM    5  O6  UNL     1     -34.363   6.421   6.038  1.00 20.00    -0.225 OA
ENDROOT
BRANCH   3   6
HETATM    6  C4  UNL     1     -32.580   7.658   3.202  1.00 20.00     0.436 C 
HETATM    7  F7  UNL     1     -32.019   6.878   2.218  1.00 20.00    -0.164 F 
HETATM    8  F8  UNL     1     -33.237   8.648   2.513  1.00 20.00    -0.164 F 
HETATM    9  F9  UNL     1     -31.515   8.291   3.792  1.00 20.00    -0.164 F 
ENDBRANCH   3   6
TORSDOF 1
ENDMDL
MODEL 8
REMARK VINA RESULT:      -5.0      3.053      3.675
REMARK  1 active torsions:
REMARK  status: ('A' for Active; 'I' for Inactive)
REMARK    1  A    between atoms: C3_3  and  C4_4 
ROOT
HETATM    1  C1  UNL     1     -33.595   7.153   5.462  1.00 20.00     0.065 A 
HETATM    2  C2  UNL     1     -34.532   6.225   5.833  1.00 20.00     0.172 A 
HETATM    3  C3  UNL     1     -33.450   6.948   4.078  1.00 20.00     0.169 A 
HETATM    4  N5  UNL     1     -34.236   5.967   3.627  1.00 20.00    -0.124 NA
HETATM    5  O6  UNL     1     -34.922   5.511   4.746  1.00 20.00    -0.225 OA
ENDROOT
BRANCH   3   6
HETATM    6  C4  UNL     1     -32.568   7.669   3.147  1.00 20.00     0.436 C 
HETATM    7  F7  UNL     1     -33.186   8.676   2.446  1.00 20.00    -0.164 F 
HETATM    8  F8  UNL     1     -31.494   8.284   3.745  1.00 20.00    -0.164 F 
HETATM    9  F9  UNL     1     -32.016   6.861   2.184  1.00 20.00    -0.164 F 
ENDBRANCH   3   6
TORSDOF 1
ENDMDL
MODEL 9
REMARK VINA RESULT:      -4.6      1.645      2.212
REMARK  1 active torsions:
REMARK  status: ('A' for Active; 'I' for Inactive)
REMARK    1  A    between atoms: C3_3  and  C4_4 
ROOT
HETATM    1  C1  UNL     1     -34.253   6.265   5.511  1.00 20.00     0.065 A 
HETATM    2  C2  UNL     1     -33.780   7.398   6.118  1.00 20.00     0.172 A 
HETATM    3  C3  UNL     1     -33.629   6.273   4.251  1.00 20.00     0.169 A 
HETATM    4  N5  UNL     1     -32.830   7.332   4.089  1.00 20.00    -0.124 NA
HETATM    5  O6  UNL     1     -32.930   8.044   5.279  1.00 20.00    -0.225 OA
ENDROOT
BRANCH   3   6
HETATM    6  C4  UNL     1     -33.769   5.287   3.169  1.00 20.00     0.436 C 
HETATM    7  F7  UNL     1     -32.594   4.987   2.521  1.00 20.00    -0.164 F 
HETATM    8  F8  UNL     1     -34.253   4.066   3.573  1.00 20.00    -0.164 F 
HETATM    9  F9  UNL     1     -34.623   5.689   2.172  1.00 20.00    -0.164 F 
ENDBRANCH   3   6
TORSDOF 1
ENDMDL
