MODEL 1
REMARK VINA RESULT:      -4.8      0.000      0.000
REMARK  2 active torsions:
REMARK  status: ('A' for Active; 'I' for Inactive)
REMARK    1  A    between atoms: C3_3  and  C7_7 
REMARK    2  A    between atoms: C3_3  and  O11_11 
ROOT
HETATM    1  C1  UNL     1     -33.674   6.783   4.037  1.00 20.00    -0.070 C 
HETATM    2  C2  UNL     1     -33.865   7.477   5.165  1.00 20.00    -0.027 C 
HETATM    3  C4  UNL     1     -33.709   5.282   3.957  1.00 20.00     0.034 C 
HETATM    4  C5  UNL     1     -33.098   4.992   2.592  1.00 20.00     0.005 C 
HETATM    5  C6  UNL     1     -33.506   6.187   1.737  1.00 20.00     0.019 C 
HETATM    6  C7  UNL     1     -33.417   7.383   2.682  1.00 20.00     0.114 C 
HETATM    7  C8  UNL     1     -34.151   6.854   6.490  1.00 20.00     0.036 C 
ENDROOT
BRANCH   6   8
HETATM    8  C3  UNL     1     -32.047   7.991   2.667  1.00 20.00     0.266 C 
HETATM    9  O10 UNL     1     -31.316   8.057   3.646  1.00 20.00    -0.265 OA
BRANCH   8  10
HETATM   10  O11 UNL     1     -31.765   8.446   1.413  1.00 20.00    -0.326 OA
HETATM   11  C9  UNL     1     -32.380   9.688   1.056  1.00 20.00     0.213 C 
ENDBRANCH   8  10
ENDBRANCH   6   8
TORSDOF 2
ENDMDL
MODEL 2
REMARK VINA RESULT:      -4.6      2.124      3.955
REMARK  2 active torsions:
REMARK  status: ('A' for Active; 'I' for Inactive)
REMARK    1  A    between atoms: C3_3  and  C7_7 
REMARK    2  A    between atoms: C3_3  and  O11_11 
ROOT
HETATM    1  C1  UNL     1     -33.460   7.127   3.690  1.00 20.00    -0.070 C 
HETATM    2  C2  UNL     1     -32.966   7.453   2.490  1.00 20.00    -0.027 C 
HETATM    3  C4  UNL     1     -33.060   7.796   4.975  1.00 20.00     0.034 C 
HETATM    4  C5  UNL     1     -33.607   6.857   6.042  1.00 20.00     0.005 C 
HETATM    5  C6  UNL     1     -34.862   6.264   5.411  1.00 20.00     0.019 C 
HETATM    6  C7  UNL     1     -34.496   6.066   3.942  1.00 20.00     0.114 C 
HETATM    7  C8  UNL     1     -31.962   8.535   2.267  1.00 20.00     0.036 C 
ENDROOT
BRANCH   6   8
HETATM    8  C3  UNL     1     -33.884   4.718   3.706  1.00 20.00     0.266 C 
HETATM    9  O10 UNL     1     -34.269   3.688   4.241  1.00 20.00    -0.265 OA
BRANCH   8  10
HETATM   10  O11 UNL     1     -32.855   4.834   2.819  1.00 20.00    -0.326 OA
HETATM   11  C9  UNL     1     -32.758   3.787   1.849  1.00 20.00     0.213 C 
ENDBRANCH   8  10
ENDBRANCH   6   8
TORSDOF 2
ENDMDL
MODEL 3
REMARK VINA RESULT:      -4.5     10.666     12.450
REMARK  2 active torsions:
REMARK  status: ('A' for Active; 'I' for Inactive)
REMARK    1  A    between atoms: C3_3  and  C7_7 
REMARK    2  A    between atoms: C3_3  and  O11_11 
ROOT
HETATM    1  C1  UNL     1     -34.704  15.639  -5.837  1.00 20.00    -0.070 C 
HETATM    2  C2  UNL     1     -35.246  16.267  -6.886  1.00 20.00    -0.027 C 
HETATM    3  C4  UNL     1     -33.227  15.582  -5.561  1.00 20.00     0.034 C 
HETATM    4  C5  UNL     1     -33.112  14.492  -4.503  1.00 20.00     0.005 C 
HETATM    5  C6  UNL     1     -34.413  14.597  -3.714  1.00 20.00     0.019 C 
HETATM    6  C7  UNL     1     -35.474  14.917  -4.765  1.00 20.00     0.114 C 
HETATM    7  C8  UNL     1     -34.457  17.005  -7.916  1.00 20.00     0.036 C 
ENDROOT
BRANCH   6   8
HETATM    8  C3  UNL     1     -36.064  13.667  -5.345  1.00 20.00     0.266 C 
HETATM    9  O10 UNL     1     -35.427  12.837  -5.978  1.00 20.00    -0.265 OA
BRANCH   8  10
HETATM   10  O11 UNL     1     -37.396  13.616  -5.055  1.00 20.00    -0.326 OA
HETATM   11  C9  UNL     1     -38.012  14.876  -4.769  1.00 20.00     0.213 C 
ENDBRANCH   8  10
ENDBRANCH   6   8
TORSDOF 2
ENDMDL
MODEL 4
REMARK VINA RESULT:      -4.5     11.091     11.964
REMARK  2 active torsions:
REMARK  status: ('A' for Active; 'I' for Inactive)
REMARK    1  A    between atoms: C3_3  and  C7_7 
REMARK    2  A    between atoms: C3_3  and  O11_11 
ROOT
HETATM    1  C1  UNL     1     -35.881  15.411  -4.637  1.00 20.00    -0.070 C 
HETATM    2  C2  UNL     1     -34.769  15.713  -3.959  1.00 20.00    -0.027 C 
HETATM    3  C4  UNL     1     -37.273  15.637  -4.115  1.00 20.00     0.034 C 
HETATM    4  C5  UNL     1     -38.139  14.826  -5.070  1.00 20.00     0.005 C 
HETATM    5  C6  UNL     1     -37.398  14.897  -6.401  1.00 20.00     0.019 C 
HETATM    6  C7  UNL     1     -35.921  14.824  -6.022  1.00 20.00     0.114 C 
HETATM    7  C8  UNL     1     -34.762  16.327  -2.599  1.00 20.00     0.036 C 
ENDROOT
BRANCH   6   8
HETATM    8  C3  UNL     1     -35.440  13.405  -5.965  1.00 20.00     0.266 C 
HETATM    9  O10 UNL     1     -35.871  12.565  -5.187  1.00 20.00    -0.265 OA
BRANCH   8  10
HETATM   10  O11 UNL     1     -34.467  13.216  -6.903  1.00 20.00    -0.326 OA
HETATM   11  C9  UNL     1     -34.128  14.371  -7.677  1.00 20.00     0.213 C 
ENDBRANCH   8  10
ENDBRANCH   6   8
TORSDOF 2
ENDMDL
MODEL 5
REMARK VINA RESULT:      -4.4     10.859     11.867
REMARK  2 active torsions:
REMARK  status: ('A' for Active; 'I' for Inactive)
REMARK    1  A    between atoms: C3_3  and  C7_7 
REMARK    2  A    between atoms: C3_3  and  O11_11 
ROOT
HETATM    1  C1  UNL     1     -33.760  16.835  -3.091  1.00 20.00    -0.070 C 
HETATM    2  C2  UNL     1     -33.983  16.912  -1.774  1.00 20.00    -0.027 C 
HETATM    3  C4  UNL     1     -33.515  18.027  -3.974  1.00 20.00     0.034 C 
HETATM    4  C5  UNL     1     -33.676  17.459  -5.378  1.00 20.00     0.005 C 
HETATM    5  C6  UNL     1     -33.197  16.016  -5.256  1.00 20.00     0.019 C 
HETATM    6  C7  UNL     1     -33.698  15.561  -3.888  1.00 20.00     0.114 C 
HETATM    7  C8  UNL     1     -34.005  18.190  -1.005  1.00 20.00     0.036 C 
ENDROOT
BRANCH   6   8
HETATM    8  C3  UNL     1     -35.074  14.972  -3.977  1.00 20.00     0.266 C 
HETATM    9  O10 UNL     1     -36.099  15.580  -3.701  1.00 20.00    -0.265 OA
BRANCH   8  10
HETATM   10  O11 UNL     1     -34.989  13.680  -4.405  1.00 20.00    -0.326 OA
HETATM   11  C9  UNL     1     -35.886  13.322  -5.461  1.00 20.00     0.213 C 
ENDBRANCH   8  10
ENDBRANCH   6   8
TORSDOF 2
ENDMDL
MODEL 6
REMARK VINA RESULT:      -4.4     11.316     12.218
REMARK  2 active torsions:
REMARK  status: ('A' for Active; 'I' for Inactive)
REMARK    1  A    between atoms: C3_3  and  C7_7 
REMARK    2  A    between atoms: C3_3  and  O11_11 
ROOT
HETATM    1  C1  UNL     1     -34.831  14.547  -5.172  1.00 20.00    -0.070 C 
HETATM    2  C2  UNL     1     -34.905  15.095  -3.954  1.00 20.00    -0.027 C 
HETATM    3  C4  UNL     1     -33.740  14.843  -6.163  1.00 20.00     0.034 C 
HETATM    4  C5  UNL     1     -34.289  14.274  -7.465  1.00 20.00     0.005 C 
HETATM    5  C6  UNL     1     -35.136  13.084  -7.027  1.00 20.00     0.019 C 
HETATM    6  C7  UNL     1     -35.801  13.543  -5.731  1.00 20.00     0.114 C 
HETATM    7  C8  UNL     1     -33.908  16.064  -3.413  1.00 20.00     0.036 C 
ENDROOT
BRANCH   6   8
HETATM    8  C3  UNL     1     -37.110  14.223  -5.999  1.00 20.00     0.266 C 
HETATM    9  O10 UNL     1     -37.355  14.864  -7.012  1.00 20.00    -0.265 OA
BRANCH   8  10
HETATM   10  O11 UNL     1     -37.956  14.012  -4.950  1.00 20.00    -0.326 OA
HETATM   11  C9  UNL     1     -38.690  15.159  -4.513  1.00 20.00     0.213 C 
ENDBRANCH   8  10
ENDBRANCH   6   8
TORSDOF 2
ENDMDL
MODEL 7
REMARK VINA RESULT:      -4.3     10.688     11.700
REMARK  2 active torsions:
REMARK  status: ('A' for Active; 'I' for Inactive)
REMARK    1  A    between atoms: C3_3  and  C7_7 
REMARK    2  A    between atoms: C3_3  and  O11_11 
ROOT
HETATM    1  C1  UNL     1     -35.078  15.669  -3.924  1.00 20.00    -0.070 C 
HETATM    2  C2  UNL     1     -36.250  16.091  -3.436  1.00 20.00    -0.027 C 
HETATM    3  C4  UNL     1     -33.979  16.586  -4.384  1.00 20.00     0.034 C 
HETATM    4  C5  UNL     1     -33.050  15.657  -5.154  1.00 20.00     0.005 C 
HETATM    5  C6  UNL     1     -33.189  14.314  -4.444  1.00 20.00     0.019 C 
HETATM    6  C7  UNL     1     -34.667  14.230  -4.071  1.00 20.00     0.114 C 
HETATM    7  C8  UNL     1     -36.616  17.528  -3.271  1.00 20.00     0.036 C 
ENDROOT
BRANCH   6   8
HETATM    8  C3  UNL     1     -35.474  13.600  -5.166  1.00 20.00     0.266 C 
HETATM    9  O10 UNL     1     -36.691  13.483  -5.141  1.00 20.00    -0.265 OA
BRANCH   8  10
HETATM   10  O11 UNL     1     -34.642  13.191  -6.167  1.00 20.00    -0.326 OA
HETATM   11  C9  UNL     1     -35.132  13.395  -7.495  1.00 20.00     0.213 C 
ENDBRANCH   8  10
ENDBRANCH   6   8
TORSDOF 2
ENDMDL
MODEL 8
REMARK VINA RESULT:      -4.3     11.230     11.979
REMARK  2 active torsions:
REMARK  status: ('A' for Active; 'I' for Inactive)
REMARK    1  A    between atoms: C3_3  and  C7_7 
REMARK    2  A    between atoms: C3_3  and  O11_11 
ROOT
HETATM    1  C1  UNL     1     -34.325  16.291  -2.922  1.00 20.00    -0.070 C 
HETATM    2  C2  UNL     1     -33.473  15.672  -3.747  1.00 20.00    -0.027 C 
HETATM    3  C4  UNL     1     -35.811  16.360  -3.144  1.00 20.00     0.034 C 
HETATM    4  C5  UNL     1     -36.259  17.436  -2.164  1.00 20.00     0.005 C 
HETATM    5  C6  UNL     1     -35.288  17.307  -0.995  1.00 20.00     0.019 C 
HETATM    6  C7  UNL     1     -33.944  16.990  -1.646  1.00 20.00     0.114 C 
HETATM    7  C8  UNL     1     -33.886  14.956  -4.990  1.00 20.00     0.036 C 
ENDROOT
BRANCH   6   8
HETATM    8  C3  UNL     1     -33.189  18.242  -1.981  1.00 20.00     0.266 C 
HETATM    9  O10 UNL     1     -33.562  19.069  -2.802  1.00 20.00    -0.265 OA
BRANCH   8  10
HETATM   10  O11 UNL     1     -32.049  18.298  -1.235  1.00 20.00    -0.326 OA
HETATM   11  C9  UNL     1     -32.205  18.821   0.088  1.00 20.00     0.213 C 
ENDBRANCH   8  10
ENDBRANCH   6   8
TORSDOF 2
ENDMDL
MODEL 9
REMARK VINA RESULT:      -4.3      2.253      4.162
REMARK  2 active torsions:
REMARK  status: ('A' for Active; 'I' for Inactive)
REMARK    1  A    between atoms: C3_3  and  C7_7 
REMARK    2  A    between atoms: C3_3  and  O11_11 
ROOT
HETATM    1  C1  UNL     1     -33.298   7.158   3.643  1.00 20.00    -0.070 C 
HETATM    2  C2  UNL     1     -32.531   7.625   2.652  1.00 20.00    -0.027 C 
HETATM    3  C4  UNL     1     -33.212   7.630   5.068  1.00 20.00     0.034 C 
HETATM    4  C5  UNL     1     -34.003   6.576   5.833  1.00 20.00     0.005 C 
HETATM    5  C6  UNL     1     -35.076   6.124   4.847  1.00 20.00     0.019 C 
HETATM    6  C7  UNL     1     -34.371   6.114   3.492  1.00 20.00     0.114 C 
HETATM    7  C8  UNL     1     -31.497   8.686   2.826  1.00 20.00     0.036 C 
ENDROOT
BRANCH   6   8
HETATM    8  C3  UNL     1     -33.729   4.788   3.219  1.00 20.00     0.266 C 
HETATM    9  O10 UNL     1     -32.873   4.604   2.364  1.00 20.00    -0.265 OA
BRANCH   8  10
HETATM   10  O11 UNL     1     -34.247   3.849   4.062  1.00 20.00    -0.326 OA
HETATM   11  C9  UNL     1     -33.286   3.093   4.805  1.00 20.00     0.213 C 
ENDBRANCH   8  10
ENDBRANCH   6   8
TORSDOF 2
ENDMDL
