MODEL 1
REMARK VINA RESULT:      -4.5      0.000      0.000
REMARK  2 active torsions:
REMARK  status: ('A' for Active; 'I' for Inactive)
REMARK    1  A    between atoms: C2_2  and  O12_12 
REMARK    2  A    between atoms: C7_7  and  O12_12 
ROOT
HETATM    1  C3  UNL     1     -32.384   8.082   4.455  1.00 20.00     0.036 C 
HETATM    2  C4  UNL     1     -33.709   5.936   4.335  1.00 20.00     0.013 C 
HETATM    3  C5  UNL     1     -32.141   6.563   2.438  1.00 20.00     0.041 C 
HETATM    4  C6  UNL     1     -33.707   7.395   4.818  1.00 20.00    -0.015 C 
HETATM    5  C7  UNL     1     -32.075   8.001   2.961  1.00 20.00     0.128 C 
HETATM    6  C8  UNL     1     -33.426   5.785   2.822  1.00 20.00    -0.045 C 
HETATM    7  C9  UNL     1     -33.944   7.455   6.327  1.00 20.00     0.010 C 
HETATM    8  C10 UNL     1     -33.205   4.292   2.505  1.00 20.00     0.015 C 
HETATM    9  C11 UNL     1     -34.638   6.256   1.995  1.00 20.00     0.015 C 
ENDROOT
BRANCH   5  10
HETATM   10  O12 UNL     1     -32.976   8.823   2.226  1.00 20.00    -0.359 OA
BRANCH  10  11
HETATM   11  C2  UNL     1     -32.433   9.482   1.213  1.00 20.00     0.125 C 
HETATM   12  C1  UNL     1     -32.876   9.453  -0.046  1.00 20.00     0.037 C 
ENDBRANCH  10  11
ENDBRANCH   5  10
TORSDOF 2
ENDMDL
MODEL 2
REMARK VINA RESULT:      -4.4     10.316     11.682
REMARK  2 active torsions:
REMARK  status: ('A' for Active; 'I' for Inactive)
REMARK    1  A    between atoms: C2_2  and  O12_12 
REMARK    2  A    between atoms: C7_7  and  O12_12 
ROOT
HETATM    1  C3  UNL     1     -36.414  17.115  -2.954  1.00 20.00     0.036 C 
HETATM    2  C4  UNL     1     -34.015  16.338  -3.081  1.00 20.00     0.013 C 
HETATM    3  C5  UNL     1     -35.503  16.189  -5.133  1.00 20.00     0.041 C 
HETATM    4  C6  UNL     1     -35.260  16.456  -2.187  1.00 20.00    -0.015 C 
HETATM    5  C7  UNL     1     -36.742  16.384  -4.256  1.00 20.00     0.128 C 
HETATM    6  C8  UNL     1     -34.274  15.585  -4.406  1.00 20.00    -0.045 C 
HETATM    7  C9  UNL     1     -34.933  17.253  -0.924  1.00 20.00     0.010 C 
HETATM    8  C10 UNL     1     -33.040  15.745  -5.317  1.00 20.00     0.015 C 
HETATM    9  C11 UNL     1     -34.459  14.077  -4.145  1.00 20.00     0.015 C 
ENDROOT
BRANCH   5  10
HETATM   10  O12 UNL     1     -37.338  15.122  -3.975  1.00 20.00    -0.359 OA
BRANCH  10  11
HETATM   11  C2  UNL     1     -38.039  14.600  -4.971  1.00 20.00     0.125 C 
HETATM   12  C1  UNL     1     -39.248  15.016  -5.355  1.00 20.00     0.037 C 
ENDBRANCH  10  11
ENDBRANCH   5  10
TORSDOF 2
ENDMDL
MODEL 3
REMARK VINA RESULT:      -4.1     10.813     12.192
REMARK  2 active torsions:
REMARK  status: ('A' for Active; 'I' for Inactive)
REMARK    1  A    between atoms: C2_2  and  O12_12 
REMARK    2  A    between atoms: C7_7  and  O12_12 
ROOT
HETATM    1  C3  UNL     1     -35.353  16.277  -2.844  1.00 20.00     0.036 C 
HETATM    2  C4  UNL     1     -33.657  17.631  -4.134  1.00 20.00     0.013 C 
HETATM    3  C5  UNL     1     -35.611  16.560  -5.352  1.00 20.00     0.041 C 
HETATM    4  C6  UNL     1     -33.877  16.680  -2.947  1.00 20.00    -0.015 C 
HETATM    5  C7  UNL     1     -35.882  15.664  -4.140  1.00 20.00     0.128 C 
HETATM    6  C8  UNL     1     -34.149  17.058  -5.484  1.00 20.00    -0.045 C 
HETATM    7  C9  UNL     1     -33.411  17.338  -1.647  1.00 20.00     0.010 C 
HETATM    8  C10 UNL     1     -34.108  18.179  -6.542  1.00 20.00     0.015 C 
HETATM    9  C11 UNL     1     -33.211  15.935  -5.969  1.00 20.00     0.015 C 
ENDROOT
BRANCH   5  10
HETATM   10  O12 UNL     1     -35.302  14.381  -4.350  1.00 20.00    -0.359 OA
BRANCH  10  11
HETATM   11  C2  UNL     1     -35.992  13.578  -5.147  1.00 20.00     0.125 C 
HETATM   12  C1  UNL     1     -35.591  13.164  -6.351  1.00 20.00     0.037 C 
ENDBRANCH  10  11
ENDBRANCH   5  10
TORSDOF 2
ENDMDL
MODEL 4
REMARK VINA RESULT:      -4.0     10.688     12.360
REMARK  2 active torsions:
REMARK  status: ('A' for Active; 'I' for Inactive)
REMARK    1  A    between atoms: C2_2  and  O12_12 
REMARK    2  A    between atoms: C7_7  and  O12_12 
ROOT
HETATM    1  C3  UNL     1     -33.310  15.894  -6.179  1.00 20.00     0.036 C 
HETATM    2  C4  UNL     1     -34.657  17.327  -4.596  1.00 20.00     0.013 C 
HETATM    3  C5  UNL     1     -33.789  15.068  -3.829  1.00 20.00     0.041 C 
HETATM    4  C6  UNL     1     -34.456  16.907  -6.061  1.00 20.00    -0.015 C 
HETATM    5  C7  UNL     1     -33.515  14.673  -5.283  1.00 20.00     0.128 C 
HETATM    6  C8  UNL     1     -34.895  16.137  -3.638  1.00 20.00    -0.045 C 
HETATM    7  C9  UNL     1     -34.178  18.132  -6.932  1.00 20.00     0.010 C 
HETATM    8  C10 UNL     1     -34.833  16.650  -2.185  1.00 20.00     0.015 C 
HETATM    9  C11 UNL     1     -36.300  15.541  -3.854  1.00 20.00     0.015 C 
ENDROOT
BRANCH   5  10
HETATM   10  O12 UNL     1     -34.586  13.875  -5.776  1.00 20.00    -0.359 OA
BRANCH  10  11
HETATM   11  C2  UNL     1     -34.514  13.577  -7.065  1.00 20.00     0.125 C 
HETATM   12  C1  UNL     1     -35.540  13.615  -7.918  1.00 20.00     0.037 C 
ENDBRANCH  10  11
ENDBRANCH   5  10
TORSDOF 2
ENDMDL
MODEL 5
REMARK VINA RESULT:      -3.9     10.455     12.230
REMARK  2 active torsions:
REMARK  status: ('A' for Active; 'I' for Inactive)
REMARK    1  A    between atoms: C2_2  and  O12_12 
REMARK    2  A    between atoms: C7_7  and  O12_12 
ROOT
HETATM    1  C3  UNL     1     -34.315  14.387  -4.159  1.00 20.00     0.036 C 
HETATM    2  C4  UNL     1     -35.221  15.542  -6.214  1.00 20.00     0.013 C 
HETATM    3  C5  UNL     1     -33.301  16.584  -4.919  1.00 20.00     0.041 C 
HETATM    4  C6  UNL     1     -35.569  14.672  -4.995  1.00 20.00    -0.015 C 
HETATM    5  C7  UNL     1     -33.596  15.666  -3.730  1.00 20.00     0.128 C 
HETATM    6  C8  UNL     1     -34.511  16.865  -5.846  1.00 20.00    -0.045 C 
HETATM    7  C9  UNL     1     -36.220  13.364  -5.445  1.00 20.00     0.010 C 
HETATM    8  C10 UNL     1     -33.993  17.527  -7.139  1.00 20.00     0.015 C 
HETATM    9  C11 UNL     1     -35.504  17.848  -5.195  1.00 20.00     0.015 C 
ENDROOT
BRANCH   5  10
HETATM   10  O12 UNL     1     -34.371  16.365  -2.761  1.00 20.00    -0.359 OA
BRANCH  10  11
HETATM   11  C2  UNL     1     -33.674  17.132  -1.936  1.00 20.00     0.125 C 
HETATM   12  C1  UNL     1     -34.150  17.684  -0.818  1.00 20.00     0.037 C 
ENDBRANCH  10  11
ENDBRANCH   5  10
TORSDOF 2
ENDMDL
MODEL 6
REMARK VINA RESULT:      -3.9     10.629     12.061
REMARK  2 active torsions:
REMARK  status: ('A' for Active; 'I' for Inactive)
REMARK    1  A    between atoms: C2_2  and  O12_12 
REMARK    2  A    between atoms: C7_7  and  O12_12 
ROOT
HETATM    1  C3  UNL     1     -36.162  16.125  -3.737  1.00 20.00     0.036 C 
HETATM    2  C4  UNL     1     -35.782  15.743  -6.203  1.00 20.00     0.013 C 
HETATM    3  C5  UNL     1     -34.523  14.345  -4.499  1.00 20.00     0.041 C 
HETATM    4  C6  UNL     1     -36.091  16.787  -5.119  1.00 20.00    -0.015 C 
HETATM    5  C7  UNL     1     -34.893  15.344  -3.398  1.00 20.00     0.128 C 
HETATM    6  C8  UNL     1     -34.494  14.932  -5.933  1.00 20.00    -0.045 C 
HETATM    7  C9  UNL     1     -37.402  17.508  -5.434  1.00 20.00     0.010 C 
HETATM    8  C10 UNL     1     -34.422  13.764  -6.937  1.00 20.00     0.015 C 
HETATM    9  C11 UNL     1     -33.246  15.809  -6.159  1.00 20.00     0.015 C 
ENDROOT
BRANCH   5  10
HETATM   10  O12 UNL     1     -33.808  16.239  -3.174  1.00 20.00    -0.359 OA
BRANCH  10  11
HETATM   11  C2  UNL     1     -33.901  16.964  -2.069  1.00 20.00     0.125 C 
HETATM   12  C1  UNL     1     -32.962  17.802  -1.623  1.00 20.00     0.037 C 
ENDBRANCH  10  11
ENDBRANCH   5  10
TORSDOF 2
ENDMDL
MODEL 7
REMARK VINA RESULT:      -3.8     10.795     12.332
REMARK  2 active torsions:
REMARK  status: ('A' for Active; 'I' for Inactive)
REMARK    1  A    between atoms: C2_2  and  O12_12 
REMARK    2  A    between atoms: C7_7  and  O12_12 
ROOT
HETATM    1  C3  UNL     1     -35.016  16.902  -5.329  1.00 20.00     0.036 C 
HETATM    2  C4  UNL     1     -34.601  18.438  -3.368  1.00 20.00     0.013 C 
HETATM    3  C5  UNL     1     -33.715  16.060  -3.320  1.00 20.00     0.041 C 
HETATM    4  C6  UNL     1     -35.585  18.049  -4.484  1.00 20.00    -0.015 C 
HETATM    5  C7  UNL     1     -34.639  15.686  -4.484  1.00 20.00     0.128 C 
HETATM    6  C8  UNL     1     -34.197  17.255  -2.459  1.00 20.00    -0.045 C 
HETATM    7  C9  UNL     1     -35.894  19.260  -5.365  1.00 20.00     0.010 C 
HETATM    8  C10 UNL     1     -33.035  17.702  -1.550  1.00 20.00     0.015 C 
HETATM    9  C11 UNL     1     -35.369  16.853  -1.542  1.00 20.00     0.015 C 
ENDROOT
BRANCH   5  10
HETATM   10  O12 UNL     1     -35.811  15.051  -3.984  1.00 20.00    -0.359 OA
BRANCH  10  11
HETATM   11  C2  UNL     1     -36.443  14.278  -4.855  1.00 20.00     0.125 C 
HETATM   12  C1  UNL     1     -35.864  13.337  -5.604  1.00 20.00     0.037 C 
ENDBRANCH  10  11
ENDBRANCH   5  10
TORSDOF 2
ENDMDL
MODEL 8
REMARK VINA RESULT:      -3.8     10.550     12.417
REMARK  2 active torsions:
REMARK  status: ('A' for Active; 'I' for Inactive)
REMARK    1  A    between atoms: C2_2  and  O12_12 
REMARK    2  A    between atoms: C7_7  and  O12_12 
ROOT
HETATM    1  C3  UNL     1     -36.730  14.851  -6.625  1.00 20.00     0.036 C 
HETATM    2  C4  UNL     1     -34.499  15.781  -5.897  1.00 20.00     0.013 C 
HETATM    3  C5  UNL     1     -35.420  13.691  -4.788  1.00 20.00     0.041 C 
HETATM    4  C6  UNL     1     -35.905  16.126  -6.413  1.00 20.00    -0.015 C 
HETATM    5  C7  UNL     1     -36.807  13.990  -5.364  1.00 20.00     0.128 C 
HETATM    6  C8  UNL     1     -34.506  14.929  -4.606  1.00 20.00    -0.045 C 
HETATM    7  C9  UNL     1     -35.811  16.924  -7.715  1.00 20.00     0.010 C 
HETATM    8  C10 UNL     1     -33.070  14.440  -4.327  1.00 20.00     0.015 C 
HETATM    9  C11 UNL     1     -34.943  15.781  -3.399  1.00 20.00     0.015 C 
ENDROOT
BRANCH   5  10
HETATM   10  O12 UNL     1     -37.612  14.630  -4.379  1.00 20.00    -0.359 OA
BRANCH  10  11
HETATM   11  C2  UNL     1     -38.825  14.975  -4.785  1.00 20.00     0.125 C 
HETATM   12  C1  UNL     1     -39.490  16.058  -4.376  1.00 20.00     0.037 C 
ENDBRANCH  10  11
ENDBRANCH   5  10
TORSDOF 2
ENDMDL
MODEL 9
REMARK VINA RESULT:      -3.8     10.520     12.142
REMARK  2 active torsions:
REMARK  status: ('A' for Active; 'I' for Inactive)
REMARK    1  A    between atoms: C2_2  and  O12_12 
REMARK    2  A    between atoms: C7_7  and  O12_12 
ROOT
HETATM    1  C3  UNL     1     -34.703  17.912  -4.415  1.00 20.00     0.036 C 
HETATM    2  C4  UNL     1     -34.673  15.865  -5.893  1.00 20.00     0.013 C 
HETATM    3  C5  UNL     1     -35.320  15.649  -3.447  1.00 20.00     0.041 C 
HETATM    4  C6  UNL     1     -34.013  17.221  -5.598  1.00 20.00    -0.015 C 
HETATM    5  C7  UNL     1     -34.732  17.035  -3.163  1.00 20.00     0.128 C 
HETATM    6  C8  UNL     1     -34.712  14.918  -4.671  1.00 20.00    -0.045 C 
HETATM    7  C9  UNL     1     -34.059  18.114  -6.839  1.00 20.00     0.010 C 
HETATM    8  C10 UNL     1     -35.606  13.707  -5.010  1.00 20.00     0.015 C 
HETATM    9  C11 UNL     1     -33.303  14.375  -4.362  1.00 20.00     0.015 C 
ENDROOT
BRANCH   5  10
HETATM   10  O12 UNL     1     -33.420  16.901  -2.626  1.00 20.00    -0.359 OA
BRANCH  10  11
HETATM   11  C2  UNL     1     -33.148  17.704  -1.608  1.00 20.00     0.125 C 
HETATM   12  C1  UNL     1     -33.966  17.941  -0.580  1.00 20.00     0.037 C 
ENDBRANCH  10  11
ENDBRANCH   5  10
TORSDOF 2
ENDMDL
