MODEL 1
REMARK VINA RESULT:      -4.6      0.000      0.000
REMARK  0 active torsions:
REMARK  status: ('A' for Active; 'I' for Inactive)
ROOT
HETATM    1  C1  UNL     1     -34.116   6.609   5.144  1.00 20.00     0.102 C 
HETATM    2  C2  UNL     1     -34.399   4.239   4.518  1.00 20.00     0.068 C 
HETATM    3  C3  UNL     1     -33.734   5.950   2.797  1.00 20.00     0.068 C 
HETATM    4  C4  UNL     1     -34.524   5.690   4.072  1.00 20.00     0.183 C 
HETATM    5  N5  UNL     1     -33.796   7.335   5.989  1.00 20.00    -0.194 NA
HETATM    6  F6  UNL     1     -35.840   5.929   3.802  1.00 20.00    -0.228 F 
ENDROOT
TORSDOF 0
ENDMDL
MODEL 2
REMARK VINA RESULT:      -4.5      1.479      2.107
REMARK  0 active torsions:
REMARK  status: ('A' for Active; 'I' for Inactive)
ROOT
HETATM    1  C1  UNL     1     -33.619   6.332   3.453  1.00 20.00     0.102 C 
HETATM    2  C2  UNL     1     -34.405   6.221   5.788  1.00 20.00     0.068 C 
HETATM    3  C3  UNL     1     -34.264   4.140   4.381  1.00 20.00     0.068 C 
HETATM    4  C4  UNL     1     -34.519   5.640   4.385  1.00 20.00     0.183 C 
HETATM    5  N5  UNL     1     -32.909   6.879   2.716  1.00 20.00    -0.194 NA
HETATM    6  F6  UNL     1     -35.797   5.846   3.954  1.00 20.00    -0.228 F 
ENDROOT
TORSDOF 0
ENDMDL
MODEL 3
REMARK VINA RESULT:      -4.0      1.776      2.558
REMARK  0 active torsions:
REMARK  status: ('A' for Active; 'I' for Inactive)
ROOT
HETATM    1  C1  UNL     1     -34.234   4.733   4.245  1.00 20.00     0.102 C 
HETATM    2  C2  UNL     1     -33.326   6.680   3.032  1.00 20.00     0.068 C 
HETATM    3  C3  UNL     1     -34.043   6.886   5.436  1.00 20.00     0.068 C 
HETATM    4  C4  UNL     1     -34.295   6.194   4.103  1.00 20.00     0.183 C 
HETATM    5  N5  UNL     1     -34.188   3.580   4.357  1.00 20.00    -0.194 NA
HETATM    6  F6  UNL     1     -35.556   6.517   3.697  1.00 20.00    -0.228 F 
ENDROOT
TORSDOF 0
ENDMDL
MODEL 4
REMARK VINA RESULT:      -3.8      1.449      1.693
REMARK  0 active torsions:
REMARK  status: ('A' for Active; 'I' for Inactive)
ROOT
HETATM    1  C1  UNL     1     -34.434   5.393   4.890  1.00 20.00     0.102 C 
HETATM    2  C2  UNL     1     -33.246   4.967   2.770  1.00 20.00     0.068 C 
HETATM    3  C3  UNL     1     -33.496   7.310   3.653  1.00 20.00     0.068 C 
HETATM    4  C4  UNL     1     -34.128   5.929   3.556  1.00 20.00     0.183 C 
HETATM    5  N5  UNL     1     -34.678   4.971   5.942  1.00 20.00    -0.194 NA
HETATM    6  F6  UNL     1     -35.306   6.056   2.882  1.00 20.00    -0.228 F 
ENDROOT
TORSDOF 0
ENDMDL
MODEL 5
REMARK VINA RESULT:      -3.7      1.257      1.831
REMARK  0 active torsions:
REMARK  status: ('A' for Active; 'I' for Inactive)
ROOT
HETATM    1  C1  UNL     1     -33.916   6.687   5.239  1.00 20.00     0.102 C 
HETATM    2  C2  UNL     1     -35.574   6.105   3.507  1.00 20.00     0.068 C 
HETATM    3  C3  UNL     1     -34.399   4.305   4.816  1.00 20.00     0.068 C 
HETATM    4  C4  UNL     1     -34.288   5.700   4.216  1.00 20.00     0.183 C 
HETATM    5  N5  UNL     1     -33.620   7.467   6.045  1.00 20.00    -0.194 NA
HETATM    6  F6  UNL     1     -33.292   5.675   3.285  1.00 20.00    -0.228 F 
ENDROOT
TORSDOF 0
ENDMDL
MODEL 6
REMARK VINA RESULT:      -3.7      4.656      5.462
REMARK  0 active torsions:
REMARK  status: ('A' for Active; 'I' for Inactive)
ROOT
HETATM    1  C1  UNL     1     -32.610   8.324   1.835  1.00 20.00     0.102 C 
HETATM    2  C2  UNL     1     -32.514  10.746   1.375  1.00 20.00     0.068 C 
HETATM    3  C3  UNL     1     -33.156   9.120  -0.435  1.00 20.00     0.068 C 
HETATM    4  C4  UNL     1     -32.319   9.342   0.817  1.00 20.00     0.183 C 
HETATM    5  N5  UNL     1     -32.838   7.519   2.638  1.00 20.00    -0.194 NA
HETATM    6  F6  UNL     1     -31.007   9.213   0.468  1.00 20.00    -0.228 F 
ENDROOT
TORSDOF 0
ENDMDL
MODEL 7
REMARK VINA RESULT:      -3.6      1.191      1.643
REMARK  0 active torsions:
REMARK  status: ('A' for Active; 'I' for Inactive)
ROOT
HETATM    1  C1  UNL     1     -33.839   6.684   5.153  1.00 20.00     0.102 C 
HETATM    2  C2  UNL     1     -33.235   5.742   2.955  1.00 20.00     0.068 C 
HETATM    3  C3  UNL     1     -35.647   5.986   3.627  1.00 20.00     0.068 C 
HETATM    4  C4  UNL     1     -34.228   5.725   4.110  1.00 20.00     0.183 C 
HETATM    5  N5  UNL     1     -33.533   7.439   5.978  1.00 20.00    -0.194 NA
HETATM    6  F6  UNL     1     -34.199   4.479   4.663  1.00 20.00    -0.228 F 
ENDROOT
TORSDOF 0
ENDMDL
MODEL 8
REMARK VINA RESULT:      -3.6      1.945      2.449
REMARK  0 active torsions:
REMARK  status: ('A' for Active; 'I' for Inactive)
ROOT
HETATM    1  C1  UNL     1     -33.261   6.724   3.404  1.00 20.00     0.102 C 
HETATM    2  C2  UNL     1     -35.615   6.026   3.647  1.00 20.00     0.068 C 
HETATM    3  C3  UNL     1     -34.166   6.380   5.673  1.00 20.00     0.068 C 
HETATM    4  C4  UNL     1     -34.204   5.943   4.216  1.00 20.00     0.183 C 
HETATM    5  N5  UNL     1     -32.515   7.339   2.763  1.00 20.00    -0.194 NA
HETATM    6  F6  UNL     1     -33.812   4.637   4.162  1.00 20.00    -0.228 F 
ENDROOT
TORSDOF 0
ENDMDL
MODEL 9
REMARK VINA RESULT:      -3.4      8.530      8.811
REMARK  0 active torsions:
REMARK  status: ('A' for Active; 'I' for Inactive)
ROOT
HETATM    1  C1  UNL     1     -41.802   7.780  -0.762  1.00 20.00     0.102 C 
HETATM    2  C2  UNL     1     -40.814   5.524  -0.626  1.00 20.00     0.068 C 
HETATM    3  C3  UNL     1     -42.520   6.282   1.062  1.00 20.00     0.068 C 
HETATM    4  C4  UNL     1     -41.379   6.708   0.149  1.00 20.00     0.183 C 
HETATM    5  N5  UNL     1     -42.136   8.628  -1.480  1.00 20.00    -0.194 NA
HETATM    6  F6  UNL     1     -40.380   7.204   0.933  1.00 20.00    -0.228 F 
ENDROOT
TORSDOF 0
ENDMDL
