MODEL 1
REMARK VINA RESULT:      -4.5      0.000      0.000
REMARK  2 active torsions:
REMARK  status: ('A' for Active; 'I' for Inactive)
REMARK    1  A    between atoms: C2_2  and  O12_12 
REMARK    2  A    between atoms: C7_7  and  O12_12 
ROOT
HETATM    1  C3  UNL     1     -34.095  18.135   0.200  1.00 20.00     0.036 C 
HETATM    2  C4  UNL     1     -35.470  16.806  -1.473  1.00 20.00     0.013 C 
HETATM    3  C5  UNL     1     -33.052  17.401  -1.972  1.00 20.00     0.041 C 
HETATM    4  C6  UNL     1     -35.503  17.818  -0.313  1.00 20.00    -0.015 C 
HETATM    5  C7  UNL     1     -33.120  18.502  -0.915  1.00 20.00     0.128 C 
HETATM    6  C8  UNL     1     -34.423  17.054  -2.587  1.00 20.00    -0.045 C 
HETATM    7  C9  UNL     1     -36.295  19.087  -0.630  1.00 20.00     0.010 C 
HETATM    8  C10 UNL     1     -34.873  18.159  -3.561  1.00 20.00     0.015 C 
HETATM    9  C11 UNL     1     -34.278  15.757  -3.415  1.00 20.00     0.015 C 
ENDROOT
BRANCH   5  10
HETATM   10  O12 UNL     1     -31.816  18.670  -0.361  1.00 20.00    -0.359 OA
BRANCH  10  11
HETATM   11  C2  UNL     1     -31.793  18.952   0.935  1.00 20.00     0.125 C 
HETATM   12  C1  UNL     1     -30.747  18.757   1.741  1.00 20.00     0.037 C 
ENDBRANCH  10  11
ENDBRANCH   5  10
TORSDOF 2
ENDMDL
MODEL 2
REMARK VINA RESULT:      -4.3      3.522      6.497
REMARK  2 active torsions:
REMARK  status: ('A' for Active; 'I' for Inactive)
REMARK    1  A    between atoms: C2_2  and  O12_12 
REMARK    2  A    between atoms: C7_7  and  O12_12 
ROOT
HETATM    1  C3  UNL     1     -35.508  14.006  -4.889  1.00 20.00     0.036 C 
HETATM    2  C4  UNL     1     -33.518  15.295  -3.980  1.00 20.00     0.013 C 
HETATM    3  C5  UNL     1     -35.883  15.929  -3.307  1.00 20.00     0.041 C 
HETATM    4  C6  UNL     1     -34.054  14.421  -5.129  1.00 20.00    -0.015 C 
HETATM    5  C7  UNL     1     -36.416  15.178  -4.526  1.00 20.00     0.128 C 
HETATM    6  C8  UNL     1     -34.437  16.437  -3.481  1.00 20.00    -0.045 C 
HETATM    7  C9  UNL     1     -33.858  15.042  -6.512  1.00 20.00     0.010 C 
HETATM    8  C10 UNL     1     -34.402  17.654  -4.425  1.00 20.00     0.015 C 
HETATM    9  C11 UNL     1     -33.914  16.918  -2.109  1.00 20.00     0.015 C 
ENDROOT
BRANCH   5  10
HETATM   10  O12 UNL     1     -37.716  14.684  -4.212  1.00 20.00    -0.359 OA
BRANCH  10  11
HETATM   11  C2  UNL     1     -38.568  14.668  -5.230  1.00 20.00     0.125 C 
HETATM   12  C1  UNL     1     -38.608  15.575  -6.207  1.00 20.00     0.037 C 
ENDBRANCH  10  11
ENDBRANCH   5  10
TORSDOF 2
ENDMDL
MODEL 3
REMARK VINA RESULT:      -4.1      2.587      4.270
REMARK  2 active torsions:
REMARK  status: ('A' for Active; 'I' for Inactive)
REMARK    1  A    between atoms: C2_2  and  O12_12 
REMARK    2  A    between atoms: C7_7  and  O12_12 
ROOT
HETATM    1  C3  UNL     1     -36.253  15.881  -3.439  1.00 20.00     0.036 C 
HETATM    2  C4  UNL     1     -34.890  14.063  -4.574  1.00 20.00     0.013 C 
HETATM    3  C5  UNL     1     -33.738  16.004  -3.409  1.00 20.00     0.041 C 
HETATM    4  C6  UNL     1     -36.237  14.806  -4.530  1.00 20.00    -0.015 C 
HETATM    5  C7  UNL     1     -35.037  16.803  -3.487  1.00 20.00     0.128 C 
HETATM    6  C8  UNL     1     -33.609  14.931  -4.510  1.00 20.00    -0.045 C 
HETATM    7  C9  UNL     1     -36.673  15.363  -5.886  1.00 20.00     0.010 C 
HETATM    8  C10 UNL     1     -33.294  15.586  -5.868  1.00 20.00     0.015 C 
HETATM    9  C11 UNL     1     -32.415  14.012  -4.167  1.00 20.00     0.015 C 
ENDROOT
BRANCH   5  10
HETATM   10  O12 UNL     1     -35.081  17.693  -2.374  1.00 20.00    -0.359 OA
BRANCH  10  11
HETATM   11  C2  UNL     1     -34.931  17.114  -1.189  1.00 20.00     0.125 C 
HETATM   12  C1  UNL     1     -35.544  17.499  -0.068  1.00 20.00     0.037 C 
ENDBRANCH  10  11
ENDBRANCH   5  10
TORSDOF 2
ENDMDL
MODEL 4
REMARK VINA RESULT:      -4.1      2.642      4.879
REMARK  2 active torsions:
REMARK  status: ('A' for Active; 'I' for Inactive)
REMARK    1  A    between atoms: C2_2  and  O12_12 
REMARK    2  A    between atoms: C7_7  and  O12_12 
ROOT
HETATM    1  C3  UNL     1     -33.693  14.782  -4.132  1.00 20.00     0.036 C 
HETATM    2  C4  UNL     1     -34.194  15.102  -6.601  1.00 20.00     0.013 C 
HETATM    3  C5  UNL     1     -33.831  17.109  -5.087  1.00 20.00     0.041 C 
HETATM    4  C6  UNL     1     -34.344  14.178  -5.379  1.00 20.00    -0.015 C 
HETATM    5  C7  UNL     1     -34.116  16.226  -3.873  1.00 20.00     0.128 C 
HETATM    6  C8  UNL     1     -34.498  16.605  -6.383  1.00 20.00    -0.045 C 
HETATM    7  C9  UNL     1     -35.786  13.741  -5.115  1.00 20.00     0.010 C 
HETATM    8  C10 UNL     1     -36.013  16.885  -6.355  1.00 20.00     0.015 C 
HETATM    9  C11 UNL     1     -33.917  17.397  -7.576  1.00 20.00     0.015 C 
ENDROOT
BRANCH   5  10
HETATM   10  O12 UNL     1     -33.379  16.739  -2.765  1.00 20.00    -0.359 OA
BRANCH  10  11
HETATM   11  C2  UNL     1     -34.105  17.013  -1.689  1.00 20.00     0.125 C 
HETATM   12  C1  UNL     1     -35.429  16.869  -1.604  1.00 20.00     0.037 C 
ENDBRANCH  10  11
ENDBRANCH   5  10
TORSDOF 2
ENDMDL
MODEL 5
REMARK VINA RESULT:      -4.1      2.723      4.855
REMARK  2 active torsions:
REMARK  status: ('A' for Active; 'I' for Inactive)
REMARK    1  A    between atoms: C2_2  and  O12_12 
REMARK    2  A    between atoms: C7_7  and  O12_12 
ROOT
HETATM    1  C3  UNL     1     -33.933  16.351  -3.609  1.00 20.00     0.036 C 
HETATM    2  C4  UNL     1     -34.302  15.373  -5.924  1.00 20.00     0.013 C 
HETATM    3  C5  UNL     1     -36.269  15.812  -4.379  1.00 20.00     0.041 C 
HETATM    4  C6  UNL     1     -33.316  15.542  -4.754  1.00 20.00    -0.015 C 
HETATM    5  C7  UNL     1     -35.310  15.844  -3.191  1.00 20.00     0.128 C 
HETATM    6  C8  UNL     1     -35.753  14.969  -5.563  1.00 20.00    -0.045 C 
HETATM    7  C9  UNL     1     -32.716  14.223  -4.263  1.00 20.00     0.010 C 
HETATM    8  C10 UNL     1     -35.867  13.466  -5.247  1.00 20.00     0.015 C 
HETATM    9  C11 UNL     1     -36.652  15.240  -6.791  1.00 20.00     0.015 C 
ENDROOT
BRANCH   5  10
HETATM   10  O12 UNL     1     -35.852  16.719  -2.204  1.00 20.00    -0.359 OA
BRANCH  10  11
HETATM   11  C2  UNL     1     -35.030  17.008  -1.203  1.00 20.00     0.125 C 
HETATM   12  C1  UNL     1     -35.405  17.534  -0.034  1.00 20.00     0.037 C 
ENDBRANCH  10  11
ENDBRANCH   5  10
TORSDOF 2
ENDMDL
MODEL 6
REMARK VINA RESULT:      -4.1      2.920      5.213
REMARK  2 active torsions:
REMARK  status: ('A' for Active; 'I' for Inactive)
REMARK    1  A    between atoms: C2_2  and  O12_12 
REMARK    2  A    between atoms: C7_7  and  O12_12 
ROOT
HETATM    1  C3  UNL     1     -33.926  16.587  -5.554  1.00 20.00     0.036 C 
HETATM    2  C4  UNL     1     -36.123  15.646  -6.414  1.00 20.00     0.013 C 
HETATM    3  C5  UNL     1     -35.503  15.441  -3.960  1.00 20.00     0.041 C 
HETATM    4  C6  UNL     1     -34.677  16.038  -6.770  1.00 20.00    -0.015 C 
HETATM    5  C7  UNL     1     -34.040  15.692  -4.323  1.00 20.00     0.128 C 
HETATM    6  C8  UNL     1     -36.327  14.831  -5.112  1.00 20.00    -0.045 C 
HETATM    7  C9  UNL     1     -33.896  14.924  -7.468  1.00 20.00     0.010 C 
HETATM    8  C10 UNL     1     -35.970  13.346  -5.305  1.00 20.00     0.015 C 
HETATM    9  C11 UNL     1     -37.824  14.888  -4.733  1.00 20.00     0.015 C 
ENDROOT
BRANCH   5  10
HETATM   10  O12 UNL     1     -33.410  16.334  -3.217  1.00 20.00    -0.359 OA
BRANCH  10  11
HETATM   11  C2  UNL     1     -34.234  16.727  -2.255  1.00 20.00     0.125 C 
HETATM   12  C1  UNL     1     -33.886  17.482  -1.211  1.00 20.00     0.037 C 
ENDBRANCH  10  11
ENDBRANCH   5  10
TORSDOF 2
ENDMDL
MODEL 7
REMARK VINA RESULT:      -4.0      1.525      2.434
REMARK  2 active torsions:
REMARK  status: ('A' for Active; 'I' for Inactive)
REMARK    1  A    between atoms: C2_2  and  O12_12 
REMARK    2  A    between atoms: C7_7  and  O12_12 
ROOT
HETATM    1  C3  UNL     1     -35.711  16.987  -1.880  1.00 20.00     0.036 C 
HETATM    2  C4  UNL     1     -35.359  15.470  -3.887  1.00 20.00     0.013 C 
HETATM    3  C5  UNL     1     -33.379  16.566  -2.734  1.00 20.00     0.041 C 
HETATM    4  C6  UNL     1     -36.335  16.408  -3.153  1.00 20.00    -0.015 C 
HETATM    5  C7  UNL     1     -34.327  17.589  -2.111  1.00 20.00     0.128 C 
HETATM    6  C8  UNL     1     -33.903  15.969  -4.057  1.00 20.00    -0.045 C 
HETATM    7  C9  UNL     1     -36.924  17.499  -4.048  1.00 20.00     0.010 C 
HETATM    8  C10 UNL     1     -33.779  16.995  -5.199  1.00 20.00     0.015 C 
HETATM    9  C11 UNL     1     -33.017  14.762  -4.438  1.00 20.00     0.015 C 
ENDROOT
BRANCH   5  10
HETATM   10  O12 UNL     1     -33.781  17.999  -0.859  1.00 20.00    -0.359 OA
BRANCH  10  11
HETATM   11  C2  UNL     1     -32.505  18.361  -0.898  1.00 20.00     0.125 C 
HETATM   12  C1  UNL     1     -31.763  18.662   0.169  1.00 20.00     0.037 C 
ENDBRANCH  10  11
ENDBRANCH   5  10
TORSDOF 2
ENDMDL
MODEL 8
REMARK VINA RESULT:      -4.0      4.447      6.668
REMARK  2 active torsions:
REMARK  status: ('A' for Active; 'I' for Inactive)
REMARK    1  A    between atoms: C2_2  and  O12_12 
REMARK    2  A    between atoms: C7_7  and  O12_12 
ROOT
HETATM    1  C3  UNL     1     -35.914  15.317  -6.509  1.00 20.00     0.036 C 
HETATM    2  C4  UNL     1     -33.465  15.581  -5.888  1.00 20.00     0.013 C 
HETATM    3  C5  UNL     1     -35.002  14.119  -4.490  1.00 20.00     0.041 C 
HETATM    4  C6  UNL     1     -34.675  16.214  -6.598  1.00 20.00    -0.015 C 
HETATM    5  C7  UNL     1     -36.209  14.840  -5.090  1.00 20.00     0.128 C 
HETATM    6  C8  UNL     1     -33.717  14.972  -4.486  1.00 20.00    -0.045 C 
HETATM    7  C9  UNL     1     -34.972  17.644  -6.145  1.00 20.00     0.010 C 
HETATM    8  C10 UNL     1     -33.792  16.057  -3.395  1.00 20.00     0.015 C 
HETATM    9  C11 UNL     1     -32.521  14.060  -4.130  1.00 20.00     0.015 C 
ENDROOT
BRANCH   5  10
HETATM   10  O12 UNL     1     -37.304  13.927  -5.120  1.00 20.00    -0.359 OA
BRANCH  10  11
HETATM   11  C2  UNL     1     -38.501  14.493  -5.200  1.00 20.00     0.125 C 
HETATM   12  C1  UNL     1     -38.917  15.510  -4.444  1.00 20.00     0.037 C 
ENDBRANCH  10  11
ENDBRANCH   5  10
TORSDOF 2
ENDMDL
MODEL 9
REMARK VINA RESULT:      -4.0     11.396     12.178
REMARK  2 active torsions:
REMARK  status: ('A' for Active; 'I' for Inactive)
REMARK    1  A    between atoms: C2_2  and  O12_12 
REMARK    2  A    between atoms: C7_7  and  O12_12 
ROOT
HETATM    1  C3  UNL     1     -32.276   7.828   4.286  1.00 20.00     0.036 C 
HETATM    2  C4  UNL     1     -33.507   5.876   5.346  1.00 20.00     0.013 C 
HETATM    3  C5  UNL     1     -33.255   6.026   2.824  1.00 20.00     0.041 C 
HETATM    4  C6  UNL     1     -33.075   7.345   5.500  1.00 20.00    -0.015 C 
HETATM    5  C7  UNL     1     -32.960   7.519   2.957  1.00 20.00     0.128 C 
HETATM    6  C8  UNL     1     -34.107   5.462   3.980  1.00 20.00    -0.045 C 
HETATM    7  C9  UNL     1     -34.228   8.291   5.838  1.00 20.00     0.010 C 
HETATM    8  C10 UNL     1     -35.573   5.911   3.838  1.00 20.00     0.015 C 
HETATM    9  C11 UNL     1     -34.098   3.920   3.892  1.00 20.00     0.015 C 
ENDROOT
BRANCH   5  10
HETATM   10  O12 UNL     1     -32.098   7.901   1.887  1.00 20.00    -0.359 OA
BRANCH  10  11
HETATM   11  C2  UNL     1     -32.201   9.170   1.512  1.00 20.00     0.125 C 
HETATM   12  C1  UNL     1     -32.701   9.584   0.347  1.00 20.00     0.037 C 
ENDBRANCH  10  11
ENDBRANCH   5  10
TORSDOF 2
ENDMDL
