MODEL 1
REMARK VINA RESULT:      -4.4      0.000      0.000
REMARK  0 active torsions:
REMARK  status: ('A' for Active; 'I' for Inactive)
ROOT
HETATM    1  C1  UNL     1     -33.325   7.302   4.640  1.00 20.00     0.223 A 
HETATM    2  C2  UNL     1     -33.474   6.840   3.175  1.00 20.00     0.096 A 
HETATM    3  C3  UNL     1     -32.119   7.568   2.943  1.00 20.00     0.093 A 
HETATM    4  C4  UNL     1     -33.483   5.340   2.959  1.00 20.00     0.022 C 
HETATM    5  C5  UNL     1     -32.130   8.772   2.024  1.00 20.00     0.033 C 
HETATM    6  N6  UNL     1     -32.175   7.967   4.346  1.00 20.00    -0.356 N 
HETATM    7  O7  UNL     1     -33.944   7.163   5.670  1.00 20.00    -0.273 OA
HETATM    8  H16 UNL     1     -31.553   8.490   4.946  1.00 20.00     0.162 HD
ENDROOT
TORSDOF 0
ENDMDL
MODEL 2
REMARK VINA RESULT:      -4.3      1.966      2.588
REMARK  0 active torsions:
REMARK  status: ('A' for Active; 'I' for Inactive)
ROOT
HETATM    1  C1  UNL     1     -34.330   5.345   4.173  1.00 20.00     0.223 A 
HETATM    2  C2  UNL     1     -33.473   6.465   4.800  1.00 20.00     0.096 A 
HETATM    3  C3  UNL     1     -33.717   7.223   3.463  1.00 20.00     0.093 A 
HETATM    4  C4  UNL     1     -34.042   7.102   6.053  1.00 20.00     0.022 C 
HETATM    5  C5  UNL     1     -32.508   7.493   2.592  1.00 20.00     0.033 C 
HETATM    6  N6  UNL     1     -34.448   6.043   3.012  1.00 20.00    -0.356 N 
HETATM    7  O7  UNL     1     -34.754   4.267   4.521  1.00 20.00    -0.273 OA
HETATM    8  H16 UNL     1     -34.950   5.818   2.164  1.00 20.00     0.162 HD
ENDROOT
TORSDOF 0
ENDMDL
MODEL 3
REMARK VINA RESULT:      -4.3      1.027      1.035
REMARK  0 active torsions:
REMARK  status: ('A' for Active; 'I' for Inactive)
ROOT
HETATM    1  C1  UNL     1     -34.039   6.416   4.215  1.00 20.00     0.223 A 
HETATM    2  C2  UNL     1     -33.558   6.091   2.785  1.00 20.00     0.096 A 
HETATM    3  C3  UNL     1     -32.484   7.188   3.036  1.00 20.00     0.093 A 
HETATM    4  C4  UNL     1     -33.048   4.680   2.570  1.00 20.00     0.022 C 
HETATM    5  C5  UNL     1     -32.554   8.433   2.175  1.00 20.00     0.033 C 
HETATM    6  N6  UNL     1     -33.110   7.402   4.337  1.00 20.00    -0.356 N 
HETATM    7  O7  UNL     1     -34.888   6.001   4.971  1.00 20.00    -0.273 OA
HETATM    8  H16 UNL     1     -32.902   8.010   5.117  1.00 20.00     0.162 HD
ENDROOT
TORSDOF 0
ENDMDL
MODEL 4
REMARK VINA RESULT:      -4.1      1.268      2.480
REMARK  0 active torsions:
REMARK  status: ('A' for Active; 'I' for Inactive)
ROOT
HETATM    1  C1  UNL     1     -33.526   7.099   4.608  1.00 20.00     0.223 A 
HETATM    2  C2  UNL     1     -32.634   7.065   3.350  1.00 20.00     0.096 A 
HETATM    3  C3  UNL     1     -33.655   6.021   2.812  1.00 20.00     0.093 A 
HETATM    4  C4  UNL     1     -32.531   8.368   2.583  1.00 20.00     0.022 C 
HETATM    5  C5  UNL     1     -33.147   4.612   2.581  1.00 20.00     0.033 C 
HETATM    6  N6  UNL     1     -34.341   6.138   4.095  1.00 20.00    -0.356 N 
HETATM    7  O7  UNL     1     -33.545   7.708   5.653  1.00 20.00    -0.273 OA
HETATM    8  H16 UNL     1     -35.180   5.723   4.475  1.00 20.00     0.162 HD
ENDROOT
TORSDOF 0
ENDMDL
MODEL 5
REMARK VINA RESULT:      -4.0      1.927      2.932
REMARK  0 active torsions:
REMARK  status: ('A' for Active; 'I' for Inactive)
ROOT
HETATM    1  C1  UNL     1     -32.959   7.217   4.006  1.00 20.00     0.223 A 
HETATM    2  C2  UNL     1     -33.595   5.925   3.451  1.00 20.00     0.096 A 
HETATM    3  C3  UNL     1     -34.597   6.065   4.633  1.00 20.00     0.093 A 
HETATM    4  C4  UNL     1     -34.175   6.027   2.055  1.00 20.00     0.022 C 
HETATM    5  C5  UNL     1     -34.571   4.984   5.694  1.00 20.00     0.033 C 
HETATM    6  N6  UNL     1     -33.834   7.238   5.047  1.00 20.00    -0.356 N 
HETATM    7  O7  UNL     1     -32.053   7.954   3.691  1.00 20.00    -0.273 OA
HETATM    8  H16 UNL     1     -33.939   7.907   5.798  1.00 20.00     0.162 HD
ENDROOT
TORSDOF 0
ENDMDL
MODEL 6
REMARK VINA RESULT:      -3.8      1.991      3.103
REMARK  0 active torsions:
REMARK  status: ('A' for Active; 'I' for Inactive)
ROOT
HETATM    1  C1  UNL     1     -32.739   7.358   3.487  1.00 20.00     0.223 A 
HETATM    2  C2  UNL     1     -33.801   7.408   4.605  1.00 20.00     0.096 A 
HETATM    3  C3  UNL     1     -34.178   5.973   4.133  1.00 20.00     0.093 A 
HETATM    4  C4  UNL     1     -33.263   7.537   6.016  1.00 20.00     0.022 C 
HETATM    5  C5  UNL     1     -35.557   5.781   3.538  1.00 20.00     0.033 C 
HETATM    6  N6  UNL     1     -33.164   6.128   3.094  1.00 20.00    -0.356 N 
HETATM    7  O7  UNL     1     -31.861   8.084   3.079  1.00 20.00    -0.273 OA
HETATM    8  H16 UNL     1     -32.817   5.520   2.365  1.00 20.00     0.162 HD
ENDROOT
TORSDOF 0
ENDMDL
MODEL 7
REMARK VINA RESULT:      -3.6     11.069     11.597
REMARK  0 active torsions:
REMARK  status: ('A' for Active; 'I' for Inactive)
ROOT
HETATM    1  C1  UNL     1     -35.339  13.653  -5.091  1.00 20.00     0.223 A 
HETATM    2  C2  UNL     1     -34.689  14.869  -5.784  1.00 20.00     0.096 A 
HETATM    3  C3  UNL     1     -33.646  14.806  -4.631  1.00 20.00     0.093 A 
HETATM    4  C4  UNL     1     -34.166  14.622  -7.185  1.00 20.00     0.022 C 
HETATM    5  C5  UNL     1     -33.602  15.979  -3.674  1.00 20.00     0.033 C 
HETATM    6  N6  UNL     1     -34.425  13.699  -4.084  1.00 20.00    -0.356 N 
HETATM    7  O7  UNL     1     -36.276  12.919  -5.305  1.00 20.00    -0.273 OA
HETATM    8  H16 UNL     1     -34.311  13.099  -3.279  1.00 20.00     0.162 HD
ENDROOT
TORSDOF 0
ENDMDL
MODEL 8
REMARK VINA RESULT:      -3.5     14.493     15.180
REMARK  0 active torsions:
REMARK  status: ('A' for Active; 'I' for Inactive)
ROOT
HETATM    1  C1  UNL     1     -24.577  16.773  10.717  1.00 20.00     0.223 A 
HETATM    2  C2  UNL     1     -25.149  18.183  10.975  1.00 20.00     0.096 A 
HETATM    3  C3  UNL     1     -25.860  17.530  12.196  1.00 20.00     0.093 A 
HETATM    4  C4  UNL     1     -24.128  19.259  11.282  1.00 20.00     0.022 C 
HETATM    5  C5  UNL     1     -27.374  17.481  12.170  1.00 20.00     0.033 C 
HETATM    6  N6  UNL     1     -25.277  16.263  11.765  1.00 20.00    -0.356 N 
HETATM    7  O7  UNL     1     -23.815  16.268   9.924  1.00 20.00    -0.273 OA
HETATM    8  H16 UNL     1     -25.300  15.324  12.139  1.00 20.00     0.162 HD
ENDROOT
TORSDOF 0
ENDMDL
MODEL 9
REMARK VINA RESULT:      -3.5      9.869     10.399
REMARK  0 active torsions:
REMARK  status: ('A' for Active; 'I' for Inactive)
ROOT
HETATM    1  C1  UNL     1     -42.104   7.862  -0.770  1.00 20.00     0.223 A 
HETATM    2  C2  UNL     1     -41.417   6.881   0.203  1.00 20.00     0.096 A 
HETATM    3  C3  UNL     1     -42.852   6.338   0.464  1.00 20.00     0.093 A 
HETATM    4  C4  UNL     1     -40.431   5.917  -0.425  1.00 20.00     0.022 C 
HETATM    5  C5  UNL     1     -43.417   6.518   1.858  1.00 20.00     0.033 C 
HETATM    6  N6  UNL     1     -43.331   7.373  -0.445  1.00 20.00    -0.356 N 
HETATM    7  O7  UNL     1     -41.751   8.731  -1.534  1.00 20.00    -0.273 OA
HETATM    8  H16 UNL     1     -44.246   7.621  -0.797  1.00 20.00     0.162 HD
ENDROOT
TORSDOF 0
ENDMDL
