MODEL 1
REMARK VINA RESULT:      -5.5      0.000      0.000
REMARK  0 active torsions:
REMARK  status: ('A' for Active; 'I' for Inactive)
ROOT
HETATM    1  C1  UNL     1     -33.198   4.297   3.093  1.00 20.00    -0.030 C 
HETATM    2  C2  UNL     1     -33.508   5.405   2.408  1.00 20.00    -0.023 C 
HETATM    3  C3  UNL     1     -33.847   7.090   5.042  1.00 20.00     0.150 C 
HETATM    4  C4  UNL     1     -33.643   4.023   4.497  1.00 20.00     0.027 C 
HETATM    5  C5  UNL     1     -34.952   4.727   4.847  1.00 20.00     0.016 C 
HETATM    6  C6  UNL     1     -34.302   6.502   3.031  1.00 20.00     0.045 C 
HETATM    7  C7  UNL     1     -34.934   6.187   4.427  1.00 20.00     0.067 C 
HETATM    8  C8  UNL     1     -33.473   7.675   3.663  1.00 20.00     0.160 C 
HETATM    9  O9  UNL     1     -33.449   7.272   6.173  1.00 20.00    -0.296 OA
HETATM   10 CL10 UNL     1     -31.718   7.834   3.380  1.00 20.00    -0.116 Cl
ENDROOT
TORSDOF 0
ENDMDL
MODEL 2
REMARK VINA RESULT:      -5.5      1.858      2.622
REMARK  0 active torsions:
REMARK  status: ('A' for Active; 'I' for Inactive)
ROOT
HETATM    1  C1  UNL     1     -34.398   5.014   5.709  1.00 20.00    -0.030 C 
HETATM    2  C2  UNL     1     -34.975   4.950   4.502  1.00 20.00    -0.023 C 
HETATM    3  C3  UNL     1     -32.936   7.011   3.280  1.00 20.00     0.150 C 
HETATM    4  C4  UNL     1     -33.631   6.198   6.213  1.00 20.00     0.027 C 
HETATM    5  C5  UNL     1     -34.085   7.509   5.577  1.00 20.00     0.016 C 
HETATM    6  C6  UNL     1     -34.847   6.068   3.524  1.00 20.00     0.045 C 
HETATM    7  C7  UNL     1     -34.207   7.388   4.067  1.00 20.00     0.067 C 
HETATM    8  C8  UNL     1     -33.689   5.930   2.473  1.00 20.00     0.160 C 
HETATM    9  O9  UNL     1     -31.793   7.414   3.290  1.00 20.00    -0.296 OA
HETATM   10 CL10 UNL     1     -32.791   4.402   2.270  1.00 20.00    -0.116 Cl
ENDROOT
TORSDOF 0
ENDMDL
MODEL 3
REMARK VINA RESULT:      -5.2      2.308      3.620
REMARK  0 active torsions:
REMARK  status: ('A' for Active; 'I' for Inactive)
ROOT
HETATM    1  C1  UNL     1     -32.792   7.858   5.022  1.00 20.00    -0.030 C 
HETATM    2  C2  UNL     1     -34.046   7.400   5.121  1.00 20.00    -0.023 C 
HETATM    3  C3  UNL     1     -33.541   5.186   2.944  1.00 20.00     0.150 C 
HETATM    4  C4  UNL     1     -31.942   7.729   3.795  1.00 20.00     0.027 C 
HETATM    5  C5  UNL     1     -32.768   7.648   2.513  1.00 20.00     0.016 C 
HETATM    6  C6  UNL     1     -34.689   6.659   3.998  1.00 20.00     0.045 C 
HETATM    7  C7  UNL     1     -33.909   6.653   2.642  1.00 20.00     0.067 C 
HETATM    8  C8  UNL     1     -34.597   5.094   4.067  1.00 20.00     0.160 C 
HETATM    9  O9  UNL     1     -32.738   4.409   2.473  1.00 20.00    -0.296 OA
HETATM   10 CL10 UNL     1     -34.035   4.257   5.540  1.00 20.00    -0.116 Cl
ENDROOT
TORSDOF 0
ENDMDL
MODEL 4
REMARK VINA RESULT:      -4.3     12.501     13.630
REMARK  0 active torsions:
REMARK  status: ('A' for Active; 'I' for Inactive)
ROOT
HETATM    1  C1  UNL     1     -33.724  15.554  -7.219  1.00 20.00    -0.030 C 
HETATM    2  C2  UNL     1     -34.560  16.302  -6.489  1.00 20.00    -0.023 C 
HETATM    3  C3  UNL     1     -36.039  13.767  -5.356  1.00 20.00     0.150 C 
HETATM    4  C4  UNL     1     -34.044  14.180  -7.723  1.00 20.00     0.027 C 
HETATM    5  C5  UNL     1     -35.542  13.959  -7.918  1.00 20.00     0.016 C 
HETATM    6  C6  UNL     1     -35.894  15.784  -6.069  1.00 20.00     0.045 C 
HETATM    7  C7  UNL     1     -36.341  14.431  -6.714  1.00 20.00     0.067 C 
HETATM    8  C8  UNL     1     -35.958  15.134  -4.642  1.00 20.00     0.160 C 
HETATM    9  O9  UNL     1     -35.918  12.615  -4.994  1.00 20.00    -0.296 OA
HETATM   10 CL10 UNL     1     -34.606  15.284  -3.487  1.00 20.00    -0.116 Cl
ENDROOT
TORSDOF 0
ENDMDL
MODEL 5
REMARK VINA RESULT:      -4.2     12.200     12.980
REMARK  0 active torsions:
REMARK  status: ('A' for Active; 'I' for Inactive)
ROOT
HETATM    1  C1  UNL     1     -36.031  16.445  -3.167  1.00 20.00    -0.030 C 
HETATM    2  C2  UNL     1     -36.162  16.305  -4.492  1.00 20.00    -0.023 C 
HETATM    3  C3  UNL     1     -33.553  14.557  -4.690  1.00 20.00     0.150 C 
HETATM    4  C4  UNL     1     -34.725  16.373  -2.437  1.00 20.00     0.027 C 
HETATM    5  C5  UNL     1     -33.540  16.780  -3.310  1.00 20.00     0.016 C 
HETATM    6  C6  UNL     1     -34.984  16.009  -5.357  1.00 20.00     0.045 C 
HETATM    7  C7  UNL     1     -33.583  16.098  -4.667  1.00 20.00     0.067 C 
HETATM    8  C8  UNL     1     -34.735  14.493  -5.682  1.00 20.00     0.160 C 
HETATM    9  O9  UNL     1     -32.862  13.724  -4.144  1.00 20.00    -0.296 OA
HETATM   10 CL10 UNL     1     -35.953  13.246  -5.298  1.00 20.00    -0.116 Cl
ENDROOT
TORSDOF 0
ENDMDL
MODEL 6
REMARK VINA RESULT:      -4.2     12.467     13.472
REMARK  0 active torsions:
REMARK  status: ('A' for Active; 'I' for Inactive)
ROOT
HETATM    1  C1  UNL     1     -34.993  16.757  -4.229  1.00 20.00    -0.030 C 
HETATM    2  C2  UNL     1     -35.128  16.805  -5.561  1.00 20.00    -0.023 C 
HETATM    3  C3  UNL     1     -35.480  13.685  -5.763  1.00 20.00     0.150 C 
HETATM    4  C4  UNL     1     -34.485  15.565  -3.477  1.00 20.00     0.027 C 
HETATM    5  C5  UNL     1     -33.550  14.695  -4.314  1.00 20.00     0.016 C 
HETATM    6  C6  UNL     1     -34.821  15.620  -6.412  1.00 20.00     0.045 C 
HETATM    7  C7  UNL     1     -34.125  14.417  -5.692  1.00 20.00     0.067 C 
HETATM    8  C8  UNL     1     -36.042  14.704  -6.778  1.00 20.00     0.160 C 
HETATM    9  O9  UNL     1     -35.924  12.691  -5.229  1.00 20.00    -0.296 OA
HETATM   10 CL10 UNL     1     -37.721  15.216  -6.458  1.00 20.00    -0.116 Cl
ENDROOT
TORSDOF 0
ENDMDL
MODEL 7
REMARK VINA RESULT:      -4.1     12.073     13.309
REMARK  0 active torsions:
REMARK  status: ('A' for Active; 'I' for Inactive)
ROOT
HETATM    1  C1  UNL     1     -35.480  14.069  -5.202  1.00 20.00    -0.030 C 
HETATM    2  C2  UNL     1     -34.583  14.014  -4.209  1.00 20.00    -0.023 C 
HETATM    3  C3  UNL     1     -33.622  16.961  -4.746  1.00 20.00     0.150 C 
HETATM    4  C4  UNL     1     -35.357  14.960  -6.400  1.00 20.00     0.027 C 
HETATM    5  C5  UNL     1     -33.906  15.291  -6.740  1.00 20.00     0.016 C 
HETATM    6  C6  UNL     1     -33.385  14.901  -4.201  1.00 20.00     0.045 C 
HETATM    7  C7  UNL     1     -33.123  15.718  -5.509  1.00 20.00     0.067 C 
HETATM    8  C8  UNL     1     -33.525  16.235  -3.387  1.00 20.00     0.160 C 
HETATM    9  O9  UNL     1     -33.955  18.077  -5.087  1.00 20.00    -0.296 OA
HETATM   10 CL10 UNL     1     -34.909  16.521  -2.297  1.00 20.00    -0.116 Cl
ENDROOT
TORSDOF 0
ENDMDL
MODEL 8
REMARK VINA RESULT:      -4.1     12.338     13.395
REMARK  0 active torsions:
REMARK  status: ('A' for Active; 'I' for Inactive)
ROOT
HETATM    1  C1  UNL     1     -34.451  16.818  -5.687  1.00 20.00    -0.030 C 
HETATM    2  C2  UNL     1     -33.932  15.757  -6.319  1.00 20.00    -0.023 C 
HETATM    3  C3  UNL     1     -36.123  13.829  -5.145  1.00 20.00     0.150 C 
HETATM    4  C4  UNL     1     -35.248  16.737  -4.421  1.00 20.00     0.027 C 
HETATM    5  C5  UNL     1     -34.887  15.518  -3.575  1.00 20.00     0.016 C 
HETATM    6  C6  UNL     1     -34.161  14.372  -5.818  1.00 20.00     0.045 C 
HETATM    7  C7  UNL     1     -34.834  14.250  -4.411  1.00 20.00     0.067 C 
HETATM    8  C8  UNL     1     -35.361  13.597  -6.468  1.00 20.00     0.160 C 
HETATM    9  O9  UNL     1     -37.282  13.718  -4.806  1.00 20.00    -0.296 OA
HETATM   10 CL10 UNL     1     -36.196  14.217  -7.918  1.00 20.00    -0.116 Cl
ENDROOT
TORSDOF 0
ENDMDL
MODEL 9
REMARK VINA RESULT:      -4.1     12.415     13.430
REMARK  0 active torsions:
REMARK  status: ('A' for Active; 'I' for Inactive)
ROOT
HETATM    1  C1  UNL     1     -36.028  17.196  -4.691  1.00 20.00    -0.030 C 
HETATM    2  C2  UNL     1     -34.869  17.541  -5.266  1.00 20.00    -0.023 C 
HETATM    3  C3  UNL     1     -33.489  14.857  -4.377  1.00 20.00     0.150 C 
HETATM    4  C4  UNL     1     -36.146  16.258  -3.529  1.00 20.00     0.027 C 
HETATM    5  C5  UNL     1     -34.893  16.241  -2.657  1.00 20.00     0.016 C 
HETATM    6  C6  UNL     1     -33.576  16.956  -4.808  1.00 20.00     0.045 C 
HETATM    7  C7  UNL     1     -33.630  16.112  -3.492  1.00 20.00     0.067 C 
HETATM    8  C8  UNL     1     -33.072  15.699  -5.602  1.00 20.00     0.160 C 
HETATM    9  O9  UNL     1     -33.640  13.670  -4.179  1.00 20.00    -0.296 OA
HETATM   10 CL10 UNL     1     -33.835  15.198  -7.136  1.00 20.00    -0.116 Cl
ENDROOT
TORSDOF 0
ENDMDL
