MODEL 1
REMARK VINA RESULT:      -5.5      0.000      0.000
REMARK  0 active torsions:
REMARK  status: ('A' for Active; 'I' for Inactive)
ROOT
HETATM    1  C1  UNL     1     -33.641   6.906   4.635  1.00 20.00    -0.013 C 
HETATM    2  C2  UNL     1     -32.702   7.436   3.849  1.00 20.00    -0.066 C 
HETATM    3  C3  UNL     1     -34.537   6.194   3.695  1.00 20.00     0.156 C 
HETATM    4  C4  UNL     1     -31.701   8.512   4.094  1.00 20.00     0.036 C 
HETATM    5  C5  UNL     1     -34.166   6.457   2.255  1.00 20.00     0.093 C 
HETATM    6  C6  UNL     1     -31.433   9.041   2.675  1.00 20.00     0.009 C 
HETATM    7  C7  UNL     1     -32.801   7.106   2.394  1.00 20.00     0.026 C 
HETATM    8  C8  UNL     1     -32.578   8.492   1.800  1.00 20.00    -0.010 C 
HETATM    9  C9  UNL     1     -33.913   7.062   6.078  1.00 20.00     0.052 C 
HETATM   10  C10 UNL     1     -32.232   8.458   0.320  1.00 20.00     0.010 C 
HETATM   11  O11 UNL     1     -35.492   5.521   4.052  1.00 20.00    -0.293 OA
ENDROOT
TORSDOF 0
ENDMDL
MODEL 2
REMARK VINA RESULT:      -5.0     11.099     11.593
REMARK  0 active torsions:
REMARK  status: ('A' for Active; 'I' for Inactive)
ROOT
HETATM    1  C1  UNL     1     -33.575  18.541   1.476  1.00 20.00    -0.013 C 
HETATM    2  C2  UNL     1     -34.269  18.238   0.378  1.00 20.00    -0.066 C 
HETATM    3  C3  UNL     1     -32.219  18.852   0.971  1.00 20.00     0.156 C 
HETATM    4  C4  UNL     1     -35.573  17.542   0.194  1.00 20.00     0.036 C 
HETATM    5  C5  UNL     1     -32.089  18.567  -0.506  1.00 20.00     0.093 C 
HETATM    6  C6  UNL     1     -35.445  16.975  -1.230  1.00 20.00     0.009 C 
HETATM    7  C7  UNL     1     -33.537  18.373  -0.919  1.00 20.00     0.026 C 
HETATM    8  C8  UNL     1     -33.947  17.063  -1.584  1.00 20.00    -0.010 C 
HETATM    9  C9  UNL     1     -33.925  18.459   2.909  1.00 20.00     0.052 C 
HETATM   10  C10 UNL     1     -33.687  17.048  -3.081  1.00 20.00     0.010 C 
HETATM   11  O11 UNL     1     -31.306  19.242   1.683  1.00 20.00    -0.293 OA
ENDROOT
TORSDOF 0
ENDMDL
MODEL 3
REMARK VINA RESULT:      -4.9      1.895      3.792
REMARK  0 active torsions:
REMARK  status: ('A' for Active; 'I' for Inactive)
ROOT
HETATM    1  C1  UNL     1     -32.379   8.144   3.860  1.00 20.00    -0.013 C 
HETATM    2  C2  UNL     1     -33.331   7.473   4.509  1.00 20.00    -0.066 C 
HETATM    3  C3  UNL     1     -32.379   7.547   2.505  1.00 20.00     0.156 C 
HETATM    4  C4  UNL     1     -33.633   7.345   5.963  1.00 20.00     0.036 C 
HETATM    5  C5  UNL     1     -33.296   6.351   2.417  1.00 20.00     0.093 C 
HETATM    6  C6  UNL     1     -34.366   5.994   6.029  1.00 20.00     0.009 C 
HETATM    7  C7  UNL     1     -34.089   6.464   3.706  1.00 20.00     0.026 C 
HETATM    8  C8  UNL     1     -34.079   5.295   4.684  1.00 20.00    -0.010 C 
HETATM    9  C9  UNL     1     -31.394   9.141   4.324  1.00 20.00     0.052 C 
HETATM   10  C10 UNL     1     -35.100   4.222   4.342  1.00 20.00     0.010 C 
HETATM   11  O11 UNL     1     -31.675   7.948   1.591  1.00 20.00    -0.293 OA
ENDROOT
TORSDOF 0
ENDMDL
MODEL 4
REMARK VINA RESULT:      -4.8     10.980     11.596
REMARK  0 active torsions:
REMARK  status: ('A' for Active; 'I' for Inactive)
ROOT
HETATM    1  C1  UNL     1     -33.649  18.076  -0.493  1.00 20.00    -0.013 C 
HETATM    2  C2  UNL     1     -33.029  18.621   0.555  1.00 20.00    -0.066 C 
HETATM    3  C3  UNL     1     -35.008  17.775   0.010  1.00 20.00     0.156 C 
HETATM    4  C4  UNL     1     -31.585  18.856   0.836  1.00 20.00     0.036 C 
HETATM    5  C5  UNL     1     -35.130  18.033   1.492  1.00 20.00     0.093 C 
HETATM    6  C6  UNL     1     -31.550  18.882   2.374  1.00 20.00     0.009 C 
HETATM    7  C7  UNL     1     -33.860  18.811   1.784  1.00 20.00     0.026 C 
HETATM    8  C8  UNL     1     -32.892  18.279   2.835  1.00 20.00    -0.010 C 
HETATM    9  C9  UNL     1     -33.151  17.672  -1.823  1.00 20.00     0.052 C 
HETATM   10  C10 UNL     1     -33.270  18.682   4.251  1.00 20.00     0.010 C 
HETATM   11  O11 UNL     1     -35.901  17.320  -0.689  1.00 20.00    -0.293 OA
ENDROOT
TORSDOF 0
ENDMDL
MODEL 5
REMARK VINA RESULT:      -4.7      1.610      2.656
REMARK  0 active torsions:
REMARK  status: ('A' for Active; 'I' for Inactive)
ROOT
HETATM    1  C1  UNL     1     -34.336   5.835   5.083  1.00 20.00    -0.013 C 
HETATM    2  C2  UNL     1     -34.007   6.146   3.829  1.00 20.00    -0.066 C 
HETATM    3  C3  UNL     1     -34.020   7.060   5.852  1.00 20.00     0.156 C 
HETATM    4  C4  UNL     1     -33.774   5.295   2.629  1.00 20.00     0.036 C 
HETATM    5  C5  UNL     1     -33.326   8.096   5.001  1.00 20.00     0.093 C 
HETATM    6  C6  UNL     1     -32.841   6.174   1.778  1.00 20.00     0.009 C 
HETATM    7  C7  UNL     1     -33.535   7.547   3.602  1.00 20.00     0.026 C 
HETATM    8  C8  UNL     1     -32.317   7.270   2.728  1.00 20.00    -0.010 C 
HETATM    9  C9  UNL     1     -34.761   4.561   5.697  1.00 20.00     0.052 C 
HETATM   10  C10 UNL     1     -31.817   8.504   1.994  1.00 20.00     0.010 C 
HETATM   11  O11 UNL     1     -34.250   7.185   7.046  1.00 20.00    -0.293 OA
ENDROOT
TORSDOF 0
ENDMDL
MODEL 6
REMARK VINA RESULT:      -4.7     10.615     12.048
REMARK  0 active torsions:
REMARK  status: ('A' for Active; 'I' for Inactive)
ROOT
HETATM    1  C1  UNL     1     -34.569  14.658  -6.570  1.00 20.00    -0.013 C 
HETATM    2  C2  UNL     1     -34.480  15.742  -5.799  1.00 20.00    -0.066 C 
HETATM    3  C3  UNL     1     -35.213  13.649  -5.698  1.00 20.00     0.156 C 
HETATM    4  C4  UNL     1     -33.669  16.985  -5.933  1.00 20.00     0.036 C 
HETATM    5  C5  UNL     1     -35.372  14.148  -4.282  1.00 20.00     0.093 C 
HETATM    6  C6  UNL     1     -33.546  17.456  -4.474  1.00 20.00     0.009 C 
HETATM    7  C7  UNL     1     -35.079  15.629  -4.433  1.00 20.00     0.026 C 
HETATM    8  C8  UNL     1     -33.958  16.249  -3.607  1.00 20.00    -0.010 C 
HETATM    9  C9  UNL     1     -34.041  14.368  -7.918  1.00 20.00     0.052 C 
HETATM   10  C10 UNL     1     -34.399  16.645  -2.207  1.00 20.00     0.010 C 
HETATM   11  O11 UNL     1     -35.526  12.530  -6.077  1.00 20.00    -0.293 OA
ENDROOT
TORSDOF 0
ENDMDL
MODEL 7
REMARK VINA RESULT:      -4.6     10.443     11.583
REMARK  0 active torsions:
REMARK  status: ('A' for Active; 'I' for Inactive)
ROOT
HETATM    1  C1  UNL     1     -36.823  14.685  -4.768  1.00 20.00    -0.013 C 
HETATM    2  C2  UNL     1     -36.470  15.647  -3.914  1.00 20.00    -0.066 C 
HETATM    3  C3  UNL     1     -35.632  13.808  -4.833  1.00 20.00     0.156 C 
HETATM    4  C4  UNL     1     -37.055  16.990  -3.644  1.00 20.00     0.036 C 
HETATM    5  C5  UNL     1     -34.462  14.389  -4.074  1.00 20.00     0.093 C 
HETATM    6  C6  UNL     1     -35.850  17.769  -3.089  1.00 20.00     0.009 C 
HETATM    7  C7  UNL     1     -35.121  15.505  -3.285  1.00 20.00     0.026 C 
HETATM    8  C8  UNL     1     -34.607  16.931  -3.452  1.00 20.00    -0.010 C 
HETATM    9  C9  UNL     1     -38.016  14.523  -5.622  1.00 20.00     0.052 C 
HETATM   10  C10 UNL     1     -33.405  17.238  -2.574  1.00 20.00     0.010 C 
HETATM   11  O11 UNL     1     -35.594  12.767  -5.471  1.00 20.00    -0.293 OA
ENDROOT
TORSDOF 0
ENDMDL
MODEL 8
REMARK VINA RESULT:      -4.6     10.655     11.375
REMARK  0 active torsions:
REMARK  status: ('A' for Active; 'I' for Inactive)
ROOT
HETATM    1  C1  UNL     1     -34.176  15.394  -3.922  1.00 20.00    -0.013 C 
HETATM    2  C2  UNL     1     -34.239  16.437  -3.092  1.00 20.00    -0.066 C 
HETATM    3  C3  UNL     1     -35.591  15.112  -4.252  1.00 20.00     0.156 C 
HETATM    4  C4  UNL     1     -33.236  17.014  -2.154  1.00 20.00     0.036 C 
HETATM    5  C5  UNL     1     -36.540  15.961  -3.441  1.00 20.00     0.093 C 
HETATM    6  C6  UNL     1     -34.126  17.709  -1.109  1.00 20.00     0.009 C 
HETATM    7  C7  UNL     1     -35.604  16.994  -2.840  1.00 20.00     0.026 C 
HETATM    8  C8  UNL     1     -35.545  17.145  -1.324  1.00 20.00    -0.010 C 
HETATM    9  C9  UNL     1     -33.044  14.546  -4.344  1.00 20.00     0.052 C 
HETATM   10  C10 UNL     1     -36.635  18.049  -0.772  1.00 20.00     0.010 C 
HETATM   11  O11 UNL     1     -35.941  14.254  -5.049  1.00 20.00    -0.293 OA
ENDROOT
TORSDOF 0
ENDMDL
MODEL 9
REMARK VINA RESULT:      -4.5     10.965     11.459
REMARK  0 active torsions:
REMARK  status: ('A' for Active; 'I' for Inactive)
ROOT
HETATM    1  C1  UNL     1     -34.515  16.451  -2.682  1.00 20.00    -0.013 C 
HETATM    2  C2  UNL     1     -34.436  15.491  -3.605  1.00 20.00    -0.066 C 
HETATM    3  C3  UNL     1     -35.955  16.791  -2.639  1.00 20.00     0.156 C 
HETATM    4  C4  UNL     1     -33.275  14.937  -4.357  1.00 20.00     0.036 C 
HETATM    5  C5  UNL     1     -36.735  16.078  -3.718  1.00 20.00     0.093 C 
HETATM    6  C6  UNL     1     -33.940  14.394  -5.634  1.00 20.00     0.009 C 
HETATM    7  C7  UNL     1     -35.733  15.045  -4.201  1.00 20.00     0.026 C 
HETATM    8  C8  UNL     1     -35.346  15.025  -5.676  1.00 20.00    -0.010 C 
HETATM    9  C9  UNL     1     -33.470  17.186  -1.942  1.00 20.00     0.052 C 
HETATM   10  C10 UNL     1     -36.324  14.244  -6.538  1.00 20.00     0.010 C 
HETATM   11  O11 UNL     1     -36.435  17.596  -1.856  1.00 20.00    -0.293 OA
ENDROOT
TORSDOF 0
ENDMDL
