MODEL 1
REMARK VINA RESULT:      -4.7      0.000      0.000
REMARK  1 active torsions:
REMARK  status: ('A' for Active; 'I' for Inactive)
REMARK    1  A    between atoms: C1_1  and  C5_5 
ROOT
HETATM    1  C2  UNL     1     -35.095   5.405   4.524  1.00 20.00     0.042 C 
HETATM    2  C3  UNL     1     -34.109   4.272   4.333  1.00 20.00     0.168 C 
HETATM    3  C4  UNL     1     -33.682   5.866   2.682  1.00 20.00     0.181 C 
HETATM    4  C5  UNL     1     -34.443   6.551   3.795  1.00 20.00     0.098 C 
HETATM    5  O7  UNL     1     -33.428   4.515   3.098  1.00 20.00    -0.390 OA
ENDROOT
BRANCH   4   6
HETATM    6  C1  UNL     1     -33.471   7.253   4.727  1.00 20.00     0.225 C 
HETATM    7  O6  UNL     1     -33.688   7.351   5.931  1.00 20.00    -0.279 OA
HETATM    8 CL8  UNL     1     -32.080   7.863   3.883  1.00 20.00    -0.043 Cl
ENDBRANCH   4   6
TORSDOF 1
ENDMDL
MODEL 2
REMARK VINA RESULT:      -4.6      1.966      2.073
REMARK  1 active torsions:
REMARK  status: ('A' for Active; 'I' for Inactive)
REMARK    1  A    between atoms: C1_1  and  C5_5 
ROOT
HETATM    1  C2  UNL     1     -34.573   5.752   3.219  1.00 20.00     0.042 C 
HETATM    2  C3  UNL     1     -33.192   5.267   2.829  1.00 20.00     0.168 C 
HETATM    3  C4  UNL     1     -33.029   7.543   3.320  1.00 20.00     0.181 C 
HETATM    4  C5  UNL     1     -34.286   7.020   3.979  1.00 20.00     0.098 C 
HETATM    5  O7  UNL     1     -32.359   6.425   2.716  1.00 20.00    -0.390 OA
ENDROOT
BRANCH   4   6
HETATM    6  C1  UNL     1     -34.004   6.684   5.433  1.00 20.00     0.225 C 
HETATM    7  O6  UNL     1     -33.380   7.450   6.163  1.00 20.00    -0.279 OA
HETATM    8 CL8  UNL     1     -34.657   5.139   5.886  1.00 20.00    -0.043 Cl
ENDBRANCH   4   6
TORSDOF 1
ENDMDL
MODEL 3
REMARK VINA RESULT:      -4.6      1.145      2.572
REMARK  1 active torsions:
REMARK  status: ('A' for Active; 'I' for Inactive)
REMARK    1  A    between atoms: C1_1  and  C5_5 
ROOT
HETATM    1  C2  UNL     1     -34.445   7.297   4.525  1.00 20.00     0.042 C 
HETATM    2  C3  UNL     1     -33.906   6.688   5.802  1.00 20.00     0.168 C 
HETATM    3  C4  UNL     1     -34.883   4.971   4.558  1.00 20.00     0.181 C 
HETATM    4  C5  UNL     1     -34.575   6.109   3.609  1.00 20.00     0.098 C 
HETATM    5  O7  UNL     1     -34.376   5.337   5.851  1.00 20.00    -0.390 OA
ENDROOT
BRANCH   4   6
HETATM    6  C1  UNL     1     -33.247   5.857   2.918  1.00 20.00     0.225 C 
HETATM    7  O6  UNL     1     -32.872   4.722   2.634  1.00 20.00    -0.279 OA
HETATM    8 CL8  UNL     1     -32.381   7.330   2.606  1.00 20.00    -0.043 Cl
ENDBRANCH   4   6
TORSDOF 1
ENDMDL
MODEL 4
REMARK VINA RESULT:      -4.6      1.560      3.113
REMARK  1 active torsions:
REMARK  status: ('A' for Active; 'I' for Inactive)
REMARK    1  A    between atoms: C1_1  and  C5_5 
ROOT
HETATM    1  C2  UNL     1     -34.084   7.112   3.687  1.00 20.00     0.042 C 
HETATM    2  C3  UNL     1     -33.002   7.456   4.688  1.00 20.00     0.168 C 
HETATM    3  C4  UNL     1     -34.617   6.191   5.801  1.00 20.00     0.181 C 
HETATM    4  C5  UNL     1     -34.769   5.929   4.319  1.00 20.00     0.098 C 
HETATM    5  O7  UNL     1     -33.478   7.048   5.975  1.00 20.00    -0.390 OA
ENDROOT
BRANCH   4   6
HETATM    6  C1  UNL     1     -34.029   4.657   3.943  1.00 20.00     0.225 C 
HETATM    7  O6  UNL     1     -34.160   3.620   4.586  1.00 20.00    -0.279 OA
HETATM    8 CL8  UNL     1     -33.023   4.875   2.543  1.00 20.00    -0.043 Cl
ENDBRANCH   4   6
TORSDOF 1
ENDMDL
MODEL 5
REMARK VINA RESULT:      -4.4      1.935      3.424
REMARK  1 active torsions:
REMARK  status: ('A' for Active; 'I' for Inactive)
REMARK    1  A    between atoms: C1_1  and  C5_5 
ROOT
HETATM    1  C2  UNL     1     -33.139   7.388   2.601  1.00 20.00     0.042 C 
HETATM    2  C3  UNL     1     -32.060   7.714   3.611  1.00 20.00     0.168 C 
HETATM    3  C4  UNL     1     -33.976   7.107   4.797  1.00 20.00     0.181 C 
HETATM    4  C5  UNL     1     -34.108   6.553   3.396  1.00 20.00     0.098 C 
HETATM    5  O7  UNL     1     -32.681   7.721   4.900  1.00 20.00    -0.390 OA
ENDROOT
BRANCH   4   6
HETATM    6  C1  UNL     1     -33.660   5.102   3.372  1.00 20.00     0.225 C 
HETATM    7  O6  UNL     1     -32.888   4.679   2.516  1.00 20.00    -0.279 OA
HETATM    8 CL8  UNL     1     -34.363   4.179   4.665  1.00 20.00    -0.043 Cl
ENDBRANCH   4   6
TORSDOF 1
ENDMDL
MODEL 6
REMARK VINA RESULT:      -3.5     11.992     12.460
REMARK  1 active torsions:
REMARK  status: ('A' for Active; 'I' for Inactive)
REMARK    1  A    between atoms: C1_1  and  C5_5 
ROOT
HETATM    1  C2  UNL     1     -35.855  14.940  -5.248  1.00 20.00     0.042 C 
HETATM    2  C3  UNL     1     -36.218  13.470  -5.224  1.00 20.00     0.168 C 
HETATM    3  C4  UNL     1     -34.320  13.707  -6.562  1.00 20.00     0.181 C 
HETATM    4  C5  UNL     1     -34.410  14.926  -5.672  1.00 20.00     0.098 C 
HETATM    5  O7  UNL     1     -35.384  12.818  -6.187  1.00 20.00    -0.390 OA
ENDROOT
BRANCH   4   6
HETATM    6  C1  UNL     1     -33.528  14.738  -4.450  1.00 20.00     0.225 C 
HETATM    7  O6  UNL     1     -32.793  13.761  -4.329  1.00 20.00    -0.279 OA
HETATM    8 CL8  UNL     1     -33.702  16.037  -3.310  1.00 20.00    -0.043 Cl
ENDBRANCH   4   6
TORSDOF 1
ENDMDL
MODEL 7
REMARK VINA RESULT:      -3.5      3.293      3.968
REMARK  1 active torsions:
REMARK  status: ('A' for Active; 'I' for Inactive)
REMARK    1  A    between atoms: C1_1  and  C5_5 
ROOT
HETATM    1  C2  UNL     1     -32.894   7.046   2.112  1.00 20.00     0.042 C 
HETATM    2  C3  UNL     1     -33.462   7.374   3.477  1.00 20.00     0.168 C 
HETATM    3  C4  UNL     1     -31.349   8.354   3.338  1.00 20.00     0.181 C 
HETATM    4  C5  UNL     1     -31.828   8.093   1.927  1.00 20.00     0.098 C 
HETATM    5  O7  UNL     1     -32.411   7.985   4.231  1.00 20.00    -0.390 OA
ENDROOT
BRANCH   4   6
HETATM    6  C1  UNL     1     -32.452   9.354   1.354  1.00 20.00     0.225 C 
HETATM    7  O6  UNL     1     -32.494  10.401   1.994  1.00 20.00    -0.279 OA
HETATM    8 CL8  UNL     1     -33.066   9.109  -0.252  1.00 20.00    -0.043 Cl
ENDBRANCH   4   6
TORSDOF 1
ENDMDL
MODEL 8
REMARK VINA RESULT:      -3.5     12.492     13.074
REMARK  1 active torsions:
REMARK  status: ('A' for Active; 'I' for Inactive)
REMARK    1  A    between atoms: C1_1  and  C5_5 
ROOT
HETATM    1  C2  UNL     1     -34.019  15.612  -6.039  1.00 20.00     0.042 C 
HETATM    2  C3  UNL     1     -33.112  15.273  -4.875  1.00 20.00     0.168 C 
HETATM    3  C4  UNL     1     -35.310  15.229  -4.092  1.00 20.00     0.181 C 
HETATM    4  C5  UNL     1     -35.355  15.075  -5.596  1.00 20.00     0.098 C 
HETATM    5  O7  UNL     1     -33.928  15.253  -3.700  1.00 20.00    -0.390 OA
ENDROOT
BRANCH   4   6
HETATM    6  C1  UNL     1     -35.453  13.604  -5.960  1.00 20.00     0.225 C 
HETATM    7  O6  UNL     1     -35.936  12.779  -5.189  1.00 20.00    -0.279 OA
HETATM    8 CL8  UNL     1     -34.814  13.276  -7.542  1.00 20.00    -0.043 Cl
ENDBRANCH   4   6
TORSDOF 1
ENDMDL
MODEL 9
REMARK VINA RESULT:      -3.5     12.202     12.898
REMARK  1 active torsions:
REMARK  status: ('A' for Active; 'I' for Inactive)
REMARK    1  A    between atoms: C1_1  and  C5_5 
ROOT
HETATM    1  C2  UNL     1     -35.008  16.056  -4.306  1.00 20.00     0.042 C 
HETATM    2  C3  UNL     1     -34.114  16.345  -5.495  1.00 20.00     0.168 C 
HETATM    3  C4  UNL     1     -33.355  14.373  -4.503  1.00 20.00     0.181 C 
HETATM    4  C5  UNL     1     -34.787  14.586  -4.064  1.00 20.00     0.098 C 
HETATM    5  O7  UNL     1     -33.029  15.414  -5.437  1.00 20.00    -0.390 OA
ENDROOT
BRANCH   4   6
HETATM    6  C1  UNL     1     -35.722  13.783  -4.951  1.00 20.00     0.225 C 
HETATM    7  O6  UNL     1     -35.325  12.821  -5.603  1.00 20.00    -0.279 OA
HETATM    8 CL8  UNL     1     -37.348  14.392  -4.909  1.00 20.00    -0.043 Cl
ENDBRANCH   4   6
TORSDOF 1
ENDMDL
