MODEL 1
REMARK VINA RESULT:      -5.1      0.000      0.000
REMARK  0 active torsions:
REMARK  status: ('A' for Active; 'I' for Inactive)
ROOT
HETATM    1  C1  UNL     1     -32.917   7.015   3.375  1.00 20.00     0.223 A 
HETATM    2  C2  UNL     1     -34.101   7.115   4.360  1.00 20.00     0.096 A 
HETATM    3  C3  UNL     1     -34.545   5.743   3.762  1.00 20.00     0.093 A 
HETATM    4  C4  UNL     1     -33.720   7.213   5.825  1.00 20.00     0.022 C 
HETATM    5  C5  UNL     1     -34.514   4.488   4.611  1.00 20.00     0.033 C 
HETATM    6  N6  UNL     1     -33.371   5.824   2.901  1.00 20.00    -0.356 N 
HETATM    7  O7  UNL     1     -31.951   7.687   3.096  1.00 20.00    -0.273 OA
HETATM    8  H16 UNL     1     -32.987   5.219   2.188  1.00 20.00     0.162 HD
ENDROOT
TORSDOF 0
ENDMDL
MODEL 2
REMARK VINA RESULT:      -5.0      1.725      2.252
REMARK  0 active torsions:
REMARK  status: ('A' for Active; 'I' for Inactive)
ROOT
HETATM    1  C1  UNL     1     -33.853   6.988   5.027  1.00 20.00     0.223 A 
HETATM    2  C2  UNL     1     -34.739   5.832   4.516  1.00 20.00     0.096 A 
HETATM    3  C3  UNL     1     -34.003   6.042   3.156  1.00 20.00     0.093 A 
HETATM    4  C4  UNL     1     -34.588   4.520   5.262  1.00 20.00     0.022 C 
HETATM    5  C5  UNL     1     -33.066   4.979   2.616  1.00 20.00     0.033 C 
HETATM    6  N6  UNL     1     -33.260   7.114   3.809  1.00 20.00    -0.356 N 
HETATM    7  O7  UNL     1     -33.701   7.580   6.070  1.00 20.00    -0.273 OA
HETATM    8  H16 UNL     1     -32.539   7.750   3.500  1.00 20.00     0.162 HD
ENDROOT
TORSDOF 0
ENDMDL
MODEL 3
REMARK VINA RESULT:      -4.9      2.277      3.121
REMARK  0 active torsions:
REMARK  status: ('A' for Active; 'I' for Inactive)
ROOT
HETATM    1  C1  UNL     1     -34.392   4.601   4.477  1.00 20.00     0.223 A 
HETATM    2  C2  UNL     1     -34.434   5.971   3.768  1.00 20.00     0.096 A 
HETATM    3  C3  UNL     1     -34.589   6.562   5.204  1.00 20.00     0.093 A 
HETATM    4  C4  UNL     1     -33.210   6.311   2.939  1.00 20.00     0.022 C 
HETATM    5  C5  UNL     1     -33.485   7.404   5.813  1.00 20.00     0.033 C 
HETATM    6  N6  UNL     1     -34.535   5.190   5.694  1.00 20.00    -0.356 N 
HETATM    7  O7  UNL     1     -34.277   3.444   4.141  1.00 20.00    -0.273 OA
HETATM    8  H16 UNL     1     -34.578   4.777   6.615  1.00 20.00     0.162 HD
ENDROOT
TORSDOF 0
ENDMDL
MODEL 4
REMARK VINA RESULT:      -4.6      2.255      3.215
REMARK  0 active torsions:
REMARK  status: ('A' for Active; 'I' for Inactive)
ROOT
HETATM    1  C1  UNL     1     -34.343   5.818   4.976  1.00 20.00     0.223 A 
HETATM    2  C2  UNL     1     -34.211   5.928   3.442  1.00 20.00     0.096 A 
HETATM    3  C3  UNL     1     -33.667   7.364   3.722  1.00 20.00     0.093 A 
HETATM    4  C4  UNL     1     -33.312   4.892   2.793  1.00 20.00     0.022 C 
HETATM    5  C5  UNL     1     -32.220   7.708   3.431  1.00 20.00     0.033 C 
HETATM    6  N6  UNL     1     -33.866   7.082   5.139  1.00 20.00    -0.356 N 
HETATM    7  O7  UNL     1     -34.710   4.980   5.766  1.00 20.00    -0.273 OA
HETATM    8  H16 UNL     1     -33.707   7.613   5.984  1.00 20.00     0.162 HD
ENDROOT
TORSDOF 0
ENDMDL
MODEL 5
REMARK VINA RESULT:      -3.8     11.702     12.338
REMARK  0 active torsions:
REMARK  status: ('A' for Active; 'I' for Inactive)
ROOT
HETATM    1  C1  UNL     1     -35.068  13.564  -5.034  1.00 20.00     0.223 A 
HETATM    2  C2  UNL     1     -34.690  14.628  -3.982  1.00 20.00     0.096 A 
HETATM    3  C3  UNL     1     -33.422  14.860  -4.863  1.00 20.00     0.093 A 
HETATM    4  C4  UNL     1     -35.697  15.747  -3.799  1.00 20.00     0.022 C 
HETATM    5  C5  UNL     1     -33.232  16.165  -5.609  1.00 20.00     0.033 C 
HETATM    6  N6  UNL     1     -33.937  13.820  -5.746  1.00 20.00    -0.356 N 
HETATM    7  O7  UNL     1     -35.982  12.793  -5.210  1.00 20.00    -0.273 OA
HETATM    8  H16 UNL     1     -33.602  13.407  -6.605  1.00 20.00     0.162 HD
ENDROOT
TORSDOF 0
ENDMDL
MODEL 6
REMARK VINA RESULT:      -3.7      9.242      9.777
REMARK  0 active torsions:
REMARK  status: ('A' for Active; 'I' for Inactive)
ROOT
HETATM    1  C1  UNL     1     -42.227   7.883  -0.648  1.00 20.00     0.223 A 
HETATM    2  C2  UNL     1     -41.401   6.930   0.244  1.00 20.00     0.096 A 
HETATM    3  C3  UNL     1     -42.756   6.638   0.961  1.00 20.00     0.093 A 
HETATM    4  C4  UNL     1     -40.680   5.817  -0.491  1.00 20.00     0.022 C 
HETATM    5  C5  UNL     1     -43.402   5.271   0.856  1.00 20.00     0.033 C 
HETATM    6  N6  UNL     1     -43.367   7.581   0.030  1.00 20.00    -0.356 N 
HETATM    7  O7  UNL     1     -42.007   8.619  -1.581  1.00 20.00    -0.273 OA
HETATM    8  H16 UNL     1     -44.311   7.916  -0.103  1.00 20.00     0.162 HD
ENDROOT
TORSDOF 0
ENDMDL
MODEL 7
REMARK VINA RESULT:      -3.7      1.859      2.713
REMARK  0 active torsions:
REMARK  status: ('A' for Active; 'I' for Inactive)
ROOT
HETATM    1  C1  UNL     1     -34.511   5.883   3.774  1.00 20.00     0.223 A 
HETATM    2  C2  UNL     1     -33.292   6.470   4.518  1.00 20.00     0.096 A 
HETATM    3  C3  UNL     1     -32.713   6.733   3.092  1.00 20.00     0.093 A 
HETATM    4  C4  UNL     1     -33.595   7.638   5.438  1.00 20.00     0.022 C 
HETATM    5  C5  UNL     1     -32.532   8.149   2.585  1.00 20.00     0.033 C 
HETATM    6  N6  UNL     1     -33.937   6.139   2.567  1.00 20.00    -0.356 N 
HETATM    7  O7  UNL     1     -35.570   5.388   4.082  1.00 20.00    -0.273 OA
HETATM    8  H16 UNL     1     -34.283   5.966   1.634  1.00 20.00     0.162 HD
ENDROOT
TORSDOF 0
ENDMDL
MODEL 8
REMARK VINA RESULT:      -3.5     11.771     12.205
REMARK  0 active torsions:
REMARK  status: ('A' for Active; 'I' for Inactive)
ROOT
HETATM    1  C1  UNL     1     -35.646  13.865  -4.944  1.00 20.00     0.223 A 
HETATM    2  C2  UNL     1     -34.439  14.824  -5.028  1.00 20.00     0.096 A 
HETATM    3  C3  UNL     1     -35.370  15.849  -4.308  1.00 20.00     0.093 A 
HETATM    4  C4  UNL     1     -33.176  14.338  -4.341  1.00 20.00     0.022 C 
HETATM    5  C5  UNL     1     -35.070  16.298  -2.892  1.00 20.00     0.033 C 
HETATM    6  N6  UNL     1     -36.398  14.814  -4.324  1.00 20.00    -0.356 N 
HETATM    7  O7  UNL     1     -35.885  12.726  -5.274  1.00 20.00    -0.273 OA
HETATM    8  H16 UNL     1     -37.351  14.774  -3.992  1.00 20.00     0.162 HD
ENDROOT
TORSDOF 0
ENDMDL
MODEL 9
REMARK VINA RESULT:      -3.4     11.811     12.357
REMARK  0 active torsions:
REMARK  status: ('A' for Active; 'I' for Inactive)
ROOT
HETATM    1  C1  UNL     1     -34.730  13.617  -6.295  1.00 20.00     0.223 A 
HETATM    2  C2  UNL     1     -35.705  13.506  -5.103  1.00 20.00     0.096 A 
HETATM    3  C3  UNL     1     -34.519  14.058  -4.251  1.00 20.00     0.093 A 
HETATM    4  C4  UNL     1     -36.982  14.313  -5.232  1.00 20.00     0.022 C 
HETATM    5  C5  UNL     1     -34.599  15.434  -3.622  1.00 20.00     0.033 C 
HETATM    6  N6  UNL     1     -33.744  14.088  -5.486  1.00 20.00    -0.356 N 
HETATM    7  O7  UNL     1     -34.770  13.395  -7.483  1.00 20.00    -0.273 OA
HETATM    8  H16 UNL     1     -32.798  14.366  -5.708  1.00 20.00     0.162 HD
ENDROOT
TORSDOF 0
ENDMDL
