MODEL 1
REMARK VINA RESULT:      -3.9      0.000      0.000
REMARK  0 active torsions:
REMARK  status: ('A' for Active; 'I' for Inactive)
ROOT
HETATM    1  C1  UNL     1     -33.496   7.350   3.111  1.00 20.00     0.026 C 
HETATM    2  C2  UNL     1     -35.135   5.662   4.148  1.00 20.00     0.026 C 
HETATM    3  C3  UNL     1     -32.698   7.505   4.402  1.00 20.00     0.075 C 
HETATM    4  C4  UNL     1     -34.451   5.700   5.511  1.00 20.00     0.075 C 
HETATM    5  C5  UNL     1     -34.243   6.028   2.963  1.00 20.00     0.059 C 
HETATM    6  S6  UNL     1     -33.745   7.330   5.872  1.00 20.00    -0.169 SA
HETATM    7 BR7  UNL     1     -32.976   4.574   2.600  1.00 20.00    -0.091 Br
ENDROOT
TORSDOF 0
ENDMDL
MODEL 2
REMARK VINA RESULT:      -3.4      2.520      3.298
REMARK  0 active torsions:
REMARK  status: ('A' for Active; 'I' for Inactive)
ROOT
HETATM    1  C1  UNL     1     -35.131   5.571   4.287  1.00 20.00     0.026 C 
HETATM    2  C2  UNL     1     -33.673   7.354   3.144  1.00 20.00     0.026 C 
HETATM    3  C3  UNL     1     -34.086   4.473   4.108  1.00 20.00     0.075 C 
HETATM    4  C4  UNL     1     -32.528   6.380   2.885  1.00 20.00     0.075 C 
HETATM    5  C5  UNL     1     -34.580   6.994   4.319  1.00 20.00     0.059 C 
HETATM    6  S6  UNL     1     -33.123   4.693   2.588  1.00 20.00    -0.169 SA
HETATM    7 BR7  UNL     1     -33.644   7.318   6.013  1.00 20.00    -0.091 Br
ENDROOT
TORSDOF 0
ENDMDL
MODEL 3
REMARK VINA RESULT:      -3.4      2.017      2.495
REMARK  0 active torsions:
REMARK  status: ('A' for Active; 'I' for Inactive)
ROOT
HETATM    1  C1  UNL     1     -34.390   7.340   4.696  1.00 20.00     0.026 C 
HETATM    2  C2  UNL     1     -33.888   6.074   2.515  1.00 20.00     0.026 C 
HETATM    3  C3  UNL     1     -34.019   6.152   5.577  1.00 20.00     0.075 C 
HETATM    4  C4  UNL     1     -33.484   4.797   3.245  1.00 20.00     0.075 C 
HETATM    5  C5  UNL     1     -33.728   7.362   3.320  1.00 20.00     0.059 C 
HETATM    6  S6  UNL     1     -34.414   4.569   4.784  1.00 20.00    -0.169 SA
HETATM    7 BR7  UNL     1     -31.827   7.814   3.493  1.00 20.00    -0.091 Br
ENDROOT
TORSDOF 0
ENDMDL
MODEL 4
REMARK VINA RESULT:      -3.3      1.826      2.336
REMARK  0 active torsions:
REMARK  status: ('A' for Active; 'I' for Inactive)
ROOT
HETATM    1  C1  UNL     1     -34.416   5.921   2.770  1.00 20.00     0.026 C 
HETATM    2  C2  UNL     1     -34.422   7.263   4.963  1.00 20.00     0.026 C 
HETATM    3  C3  UNL     1     -32.909   6.062   2.582  1.00 20.00     0.075 C 
HETATM    4  C4  UNL     1     -32.916   7.499   4.927  1.00 20.00     0.075 C 
HETATM    5  C5  UNL     1     -34.905   6.023   4.212  1.00 20.00     0.059 C 
HETATM    6  S6  UNL     1     -32.289   7.638   3.232  1.00 20.00    -0.169 SA
HETATM    7 BR7  UNL     1     -34.417   4.403   5.207  1.00 20.00    -0.091 Br
ENDROOT
TORSDOF 0
ENDMDL
MODEL 5
REMARK VINA RESULT:      -3.0     12.310     12.998
REMARK  0 active torsions:
REMARK  status: ('A' for Active; 'I' for Inactive)
ROOT
HETATM    1  C1  UNL     1     -33.066  14.915  -4.680  1.00 20.00     0.026 C 
HETATM    2  C2  UNL     1     -35.430  13.925  -4.879  1.00 20.00     0.026 C 
HETATM    3  C3  UNL     1     -33.213  15.754  -5.945  1.00 20.00     0.075 C 
HETATM    4  C4  UNL     1     -35.742  14.695  -6.158  1.00 20.00     0.075 C 
HETATM    5  C5  UNL     1     -34.374  14.561  -3.978  1.00 20.00     0.059 C 
HETATM    6  S6  UNL     1     -34.265  14.942  -7.180  1.00 20.00    -0.169 SA
HETATM    7 BR7  UNL     1     -35.114  16.148  -3.091  1.00 20.00    -0.091 Br
ENDROOT
TORSDOF 0
ENDMDL
MODEL 6
REMARK VINA RESULT:      -3.0     12.139     12.954
REMARK  0 active torsions:
REMARK  status: ('A' for Active; 'I' for Inactive)
ROOT
HETATM    1  C1  UNL     1     -35.293  15.800  -3.487  1.00 20.00     0.026 C 
HETATM    2  C2  UNL     1     -33.253  14.676  -4.577  1.00 20.00     0.026 C 
HETATM    3  C3  UNL     1     -35.313  16.945  -4.495  1.00 20.00     0.075 C 
HETATM    4  C4  UNL     1     -33.131  15.743  -5.659  1.00 20.00     0.075 C 
HETATM    5  C5  UNL     1     -34.651  14.507  -3.984  1.00 20.00     0.059 C 
HETATM    6  S6  UNL     1     -33.646  17.376  -5.065  1.00 20.00    -0.169 SA
HETATM    7 BR7  UNL     1     -35.829  13.624  -5.280  1.00 20.00    -0.091 Br
ENDROOT
TORSDOF 0
ENDMDL
MODEL 7
REMARK VINA RESULT:      -2.9     12.181     13.050
REMARK  0 active torsions:
REMARK  status: ('A' for Active; 'I' for Inactive)
ROOT
HETATM    1  C1  UNL     1     -34.756  14.167  -4.186  1.00 20.00     0.026 C 
HETATM    2  C2  UNL     1     -35.129  13.666  -6.680  1.00 20.00     0.026 C 
HETATM    3  C3  UNL     1     -34.261  15.585  -4.453  1.00 20.00     0.075 C 
HETATM    4  C4  UNL     1     -34.659  15.049  -7.120  1.00 20.00     0.075 C 
HETATM    5  C5  UNL     1     -35.677  13.588  -5.257  1.00 20.00     0.059 C 
HETATM    6  S6  UNL     1     -33.371  15.708  -6.028  1.00 20.00    -0.169 SA
HETATM    7 BR7  UNL     1     -37.440  14.445  -5.166  1.00 20.00    -0.091 Br
ENDROOT
TORSDOF 0
ENDMDL
MODEL 8
REMARK VINA RESULT:      -2.9     12.403     13.308
REMARK  0 active torsions:
REMARK  status: ('A' for Active; 'I' for Inactive)
ROOT
HETATM    1  C1  UNL     1     -33.940  15.380  -6.867  1.00 20.00     0.026 C 
HETATM    2  C2  UNL     1     -33.271  14.633  -4.500  1.00 20.00     0.026 C 
HETATM    3  C3  UNL     1     -35.417  15.067  -6.646  1.00 20.00     0.075 C 
HETATM    4  C4  UNL     1     -34.700  14.267  -4.114  1.00 20.00     0.075 C 
HETATM    5  C5  UNL     1     -33.142  15.683  -5.602  1.00 20.00     0.059 C 
HETATM    6  S6  UNL     1     -35.652  13.656  -5.531  1.00 20.00    -0.169 SA
HETATM    7 BR7  UNL     1     -33.628  17.451  -4.904  1.00 20.00    -0.091 Br
ENDROOT
TORSDOF 0
ENDMDL
MODEL 9
REMARK VINA RESULT:      -2.9     12.573     12.797
REMARK  0 active torsions:
REMARK  status: ('A' for Active; 'I' for Inactive)
ROOT
HETATM    1  C1  UNL     1     -33.162  14.881  -4.418  1.00 20.00     0.026 C 
HETATM    2  C2  UNL     1     -35.145  15.877  -3.119  1.00 20.00     0.026 C 
HETATM    3  C3  UNL     1     -34.043  14.386  -5.561  1.00 20.00     0.075 C 
HETATM    4  C4  UNL     1     -36.163  15.450  -4.171  1.00 20.00     0.075 C 
HETATM    5  C5  UNL     1     -33.719  16.065  -3.633  1.00 20.00     0.059 C 
HETATM    6  S6  UNL     1     -35.693  13.900  -4.985  1.00 20.00    -0.169 SA
HETATM    7 BR7  UNL     1     -33.604  17.702  -4.709  1.00 20.00    -0.091 Br
ENDROOT
TORSDOF 0
ENDMDL
