MODEL 1
REMARK VINA RESULT:      -5.1      0.000      0.000
REMARK  2 active torsions:
REMARK  status: ('A' for Active; 'I' for Inactive)
REMARK    1  A    between atoms: C1_1  and  C3_3 
REMARK    2  A    between atoms: C5_5  and  O10_10 
ROOT
HETATM    1  C2  UNL     1     -33.308   5.829   2.921  1.00 20.00     0.074 C 
HETATM    2  C3  UNL     1     -34.541   5.794   3.791  1.00 20.00     0.080 C 
HETATM    3  C4  UNL     1     -34.449   7.119   4.543  1.00 20.00     0.131 C 
HETATM    4  C5  UNL     1     -33.215   7.298   2.555  1.00 20.00     0.260 C 
HETATM    5  C6  UNL     1     -33.668   7.086   5.853  1.00 20.00     0.040 C 
HETATM    6  O9  UNL     1     -33.764   8.030   3.660  1.00 20.00    -0.356 OA
ENDROOT
BRANCH   2   7
HETATM    7  C1  UNL     1     -34.601   4.582   4.663  1.00 20.00     0.238 C 
HETATM    8  O8  UNL     1     -34.111   3.500   4.352  1.00 20.00    -0.306 OA
ENDBRANCH   2   7
BRANCH   4   9
HETATM    9  O10 UNL     1     -31.864   7.644   2.303  1.00 20.00    -0.366 OA
HETATM   10  C7  UNL     1     -31.766   8.740   1.404  1.00 20.00     0.204 C 
ENDBRANCH   4   9
TORSDOF 2
ENDMDL
MODEL 2
REMARK VINA RESULT:      -4.5      1.535      4.155
REMARK  2 active torsions:
REMARK  status: ('A' for Active; 'I' for Inactive)
REMARK    1  A    between atoms: C1_1  and  C3_3 
REMARK    2  A    between atoms: C5_5  and  O10_10 
ROOT
HETATM    1  C2  UNL     1     -33.177   7.472   4.596  1.00 20.00     0.074 C 
HETATM    2  C3  UNL     1     -33.170   7.582   3.091  1.00 20.00     0.080 C 
HETATM    3  C4  UNL     1     -33.856   6.287   2.664  1.00 20.00     0.131 C 
HETATM    4  C5  UNL     1     -34.505   6.790   4.862  1.00 20.00     0.260 C 
HETATM    5  C6  UNL     1     -32.938   5.085   2.463  1.00 20.00     0.040 C 
HETATM    6  O9  UNL     1     -34.769   5.952   3.728  1.00 20.00    -0.356 OA
ENDROOT
BRANCH   2   7
HETATM    7  C1  UNL     1     -31.799   7.779   2.530  1.00 20.00     0.238 C 
HETATM    8  O8  UNL     1     -31.573   8.407   1.500  1.00 20.00    -0.306 OA
ENDBRANCH   2   7
BRANCH   4   9
HETATM    9  O10 UNL     1     -34.431   6.051   6.069  1.00 20.00    -0.366 OA
HETATM   10  C7  UNL     1     -34.507   4.653   5.829  1.00 20.00     0.204 C 
ENDBRANCH   4   9
TORSDOF 2
ENDMDL
MODEL 3
REMARK VINA RESULT:      -4.1     11.364     12.843
REMARK  2 active torsions:
REMARK  status: ('A' for Active; 'I' for Inactive)
REMARK    1  A    between atoms: C1_1  and  C3_3 
REMARK    2  A    between atoms: C5_5  and  O10_10 
ROOT
HETATM    1  C2  UNL     1     -35.600  14.631  -6.304  1.00 20.00     0.074 C 
HETATM    2  C3  UNL     1     -34.108  14.761  -6.118  1.00 20.00     0.080 C 
HETATM    3  C4  UNL     1     -33.926  14.383  -4.650  1.00 20.00     0.131 C 
HETATM    4  C5  UNL     1     -35.930  13.440  -5.425  1.00 20.00     0.260 C 
HETATM    5  C6  UNL     1     -34.032  15.531  -3.651  1.00 20.00     0.040 C 
HETATM    6  O9  UNL     1     -34.985  13.453  -4.345  1.00 20.00    -0.356 OA
ENDROOT
BRANCH   2   7
HETATM    7  C1  UNL     1     -33.594  16.116  -6.484  1.00 20.00     0.238 C 
HETATM    8  O8  UNL     1     -33.829  16.661  -7.557  1.00 20.00    -0.306 OA
ENDBRANCH   2   7
BRANCH   4   9
HETATM    9  O10 UNL     1     -37.268  13.539  -4.966  1.00 20.00    -0.366 OA
HETATM   10  C7  UNL     1     -37.632  14.888  -4.712  1.00 20.00     0.204 C 
ENDBRANCH   4   9
TORSDOF 2
ENDMDL
MODEL 4
REMARK VINA RESULT:      -4.0     11.772     12.431
REMARK  2 active torsions:
REMARK  status: ('A' for Active; 'I' for Inactive)
REMARK    1  A    between atoms: C1_1  and  C3_3 
REMARK    2  A    between atoms: C5_5  and  O10_10 
ROOT
HETATM    1  C2  UNL     1     -35.116  14.955  -4.362  1.00 20.00     0.074 C 
HETATM    2  C3  UNL     1     -36.132  13.981  -4.906  1.00 20.00     0.080 C 
HETATM    3  C4  UNL     1     -35.490  13.536  -6.217  1.00 20.00     0.131 C 
HETATM    4  C5  UNL     1     -33.805  14.322  -4.787  1.00 20.00     0.260 C 
HETATM    5  C6  UNL     1     -35.824  14.385  -7.440  1.00 20.00     0.040 C 
HETATM    6  O9  UNL     1     -34.066  13.624  -6.013  1.00 20.00    -0.356 OA
ENDROOT
BRANCH   2   7
HETATM    7  C1  UNL     1     -37.494  14.581  -5.046  1.00 20.00     0.238 C 
HETATM    8  O8  UNL     1     -38.531  13.927  -4.991  1.00 20.00    -0.306 OA
ENDBRANCH   2   7
BRANCH   4   9
HETATM    9  O10 UNL     1     -32.816  15.326  -4.942  1.00 20.00    -0.366 OA
HETATM   10  C7  UNL     1     -33.394  16.577  -5.286  1.00 20.00     0.204 C 
ENDBRANCH   4   9
TORSDOF 2
ENDMDL
MODEL 5
REMARK VINA RESULT:      -4.0     11.407     12.480
REMARK  2 active torsions:
REMARK  status: ('A' for Active; 'I' for Inactive)
REMARK    1  A    between atoms: C1_1  and  C3_3 
REMARK    2  A    between atoms: C5_5  and  O10_10 
ROOT
HETATM    1  C2  UNL     1     -35.003  15.632  -3.587  1.00 20.00     0.074 C 
HETATM    2  C3  UNL     1     -34.655  14.407  -4.397  1.00 20.00     0.080 C 
HETATM    3  C4  UNL     1     -33.655  14.957  -5.410  1.00 20.00     0.131 C 
HETATM    4  C5  UNL     1     -33.679  16.371  -3.538  1.00 20.00     0.260 C 
HETATM    5  C6  UNL     1     -34.253  15.499  -6.705  1.00 20.00     0.040 C 
HETATM    6  O9  UNL     1     -32.989  16.056  -4.756  1.00 20.00    -0.356 OA
ENDROOT
BRANCH   2   7
HETATM    7  C1  UNL     1     -35.856  13.748  -4.995  1.00 20.00     0.238 C 
HETATM    8  O8  UNL     1     -35.877  12.573  -5.349  1.00 20.00    -0.306 OA
ENDBRANCH   2   7
BRANCH   4   9
HETATM    9  O10 UNL     1     -33.911  17.762  -3.399  1.00 20.00    -0.366 OA
HETATM   10  C7  UNL     1     -33.334  18.496  -4.470  1.00 20.00     0.204 C 
ENDBRANCH   4   9
TORSDOF 2
ENDMDL
MODEL 6
REMARK VINA RESULT:      -4.0     11.207     12.488
REMARK  2 active torsions:
REMARK  status: ('A' for Active; 'I' for Inactive)
REMARK    1  A    between atoms: C1_1  and  C3_3 
REMARK    2  A    between atoms: C5_5  and  O10_10 
ROOT
HETATM    1  C2  UNL     1     -34.677  14.070  -4.093  1.00 20.00     0.074 C 
HETATM    2  C3  UNL     1     -34.915  15.532  -3.806  1.00 20.00     0.080 C 
HETATM    3  C4  UNL     1     -35.368  16.063  -5.164  1.00 20.00     0.131 C 
HETATM    4  C5  UNL     1     -35.778  13.754  -5.087  1.00 20.00     0.260 C 
HETATM    5  C6  UNL     1     -34.258  16.547  -6.091  1.00 20.00     0.040 C 
HETATM    6  O9  UNL     1     -36.024  14.961  -5.822  1.00 20.00    -0.356 OA
ENDROOT
BRANCH   2   7
HETATM    7  C1  UNL     1     -33.713  16.214  -3.236  1.00 20.00     0.238 C 
HETATM    8  O8  UNL     1     -33.727  16.836  -2.178  1.00 20.00    -0.306 OA
ENDBRANCH   2   7
BRANCH   4   9
HETATM    9  O10 UNL     1     -35.374  12.687  -5.928  1.00 20.00    -0.366 OA
HETATM   10  C7  UNL     1     -35.175  13.125  -7.264  1.00 20.00     0.204 C 
ENDBRANCH   4   9
TORSDOF 2
ENDMDL
MODEL 7
REMARK VINA RESULT:      -3.7     11.755     13.182
REMARK  2 active torsions:
REMARK  status: ('A' for Active; 'I' for Inactive)
REMARK    1  A    between atoms: C1_1  and  C3_3 
REMARK    2  A    between atoms: C5_5  and  O10_10 
ROOT
HETATM    1  C2  UNL     1     -34.840  15.092  -6.517  1.00 20.00     0.074 C 
HETATM    2  C3  UNL     1     -33.626  15.928  -6.193  1.00 20.00     0.080 C 
HETATM    3  C4  UNL     1     -33.146  15.314  -4.880  1.00 20.00     0.131 C 
HETATM    4  C5  UNL     1     -34.422  13.717  -6.033  1.00 20.00     0.260 C 
HETATM    5  C6  UNL     1     -33.749  15.908  -3.610  1.00 20.00     0.040 C 
HETATM    6  O9  UNL     1     -33.533  13.926  -4.926  1.00 20.00    -0.356 OA
ENDROOT
BRANCH   2   7
HETATM    7  C1  UNL     1     -33.929  17.390  -6.127  1.00 20.00     0.238 C 
HETATM    8  O8  UNL     1     -34.974  17.884  -6.539  1.00 20.00    -0.306 OA
ENDBRANCH   2   7
BRANCH   4   9
HETATM    9  O10 UNL     1     -35.568  12.970  -5.665  1.00 20.00    -0.366 OA
HETATM   10  C7  UNL     1     -36.645  13.818  -5.291  1.00 20.00     0.204 C 
ENDBRANCH   4   9
TORSDOF 2
ENDMDL
MODEL 8
REMARK VINA RESULT:      -3.7     11.331     12.144
REMARK  2 active torsions:
REMARK  status: ('A' for Active; 'I' for Inactive)
REMARK    1  A    between atoms: C1_1  and  C3_3 
REMARK    2  A    between atoms: C5_5  and  O10_10 
ROOT
HETATM    1  C2  UNL     1     -35.624  15.775  -3.548  1.00 20.00     0.074 C 
HETATM    2  C3  UNL     1     -34.870  14.557  -4.023  1.00 20.00     0.080 C 
HETATM    3  C4  UNL     1     -33.455  15.099  -4.209  1.00 20.00     0.131 C 
HETATM    4  C5  UNL     1     -34.590  16.476  -2.686  1.00 20.00     0.260 C 
HETATM    5  C6  UNL     1     -33.144  15.682  -5.584  1.00 20.00     0.040 C 
HETATM    6  O9  UNL     1     -33.309  16.166  -3.251  1.00 20.00    -0.356 OA
ENDROOT
BRANCH   2   7
HETATM    7  C1  UNL     1     -35.472  13.943  -5.245  1.00 20.00     0.238 C 
HETATM    8  O8  UNL     1     -35.714  12.744  -5.351  1.00 20.00    -0.306 OA
ENDBRANCH   2   7
BRANCH   4   9
HETATM    9  O10 UNL     1     -34.845  17.871  -2.671  1.00 20.00    -0.366 OA
HETATM   10  C7  UNL     1     -34.517  18.446  -1.415  1.00 20.00     0.204 C 
ENDBRANCH   4   9
TORSDOF 2
ENDMDL
MODEL 9
REMARK VINA RESULT:      -3.6     11.594     12.827
REMARK  2 active torsions:
REMARK  status: ('A' for Active; 'I' for Inactive)
REMARK    1  A    between atoms: C1_1  and  C3_3 
REMARK    2  A    between atoms: C5_5  and  O10_10 
ROOT
HETATM    1  C2  UNL     1     -35.096  14.610  -4.941  1.00 20.00     0.074 C 
HETATM    2  C3  UNL     1     -36.116  15.438  -4.198  1.00 20.00     0.080 C 
HETATM    3  C4  UNL     1     -37.431  14.968  -4.814  1.00 20.00     0.131 C 
HETATM    4  C5  UNL     1     -35.820  13.289  -5.115  1.00 20.00     0.260 C 
HETATM    5  C6  UNL     1     -37.892  15.728  -6.054  1.00 20.00     0.040 C 
HETATM    6  O9  UNL     1     -37.218  13.598  -5.208  1.00 20.00    -0.356 OA
ENDROOT
BRANCH   2   7
HETATM    7  C1  UNL     1     -35.862  16.907  -4.308  1.00 20.00     0.238 C 
HETATM    8  O8  UNL     1     -34.910  17.385  -4.915  1.00 20.00    -0.306 OA
ENDBRANCH   2   7
BRANCH   4   9
HETATM    9  O10 UNL     1     -35.340  12.628  -6.274  1.00 20.00    -0.366 OA
HETATM   10  C7  UNL     1     -34.688  13.531  -7.155  1.00 20.00     0.204 C 
ENDBRANCH   4   9
TORSDOF 2
ENDMDL
