MODEL 1
REMARK VINA RESULT:      -5.0      0.000      0.000
REMARK  0 active torsions:
REMARK  status: ('A' for Active; 'I' for Inactive)
ROOT
HETATM    1  C1  UNL     1     -34.162   4.976   3.983  1.00 20.00     0.223 A 
HETATM    2  C2  UNL     1     -34.465   6.437   4.381  1.00 20.00     0.096 A 
HETATM    3  C3  UNL     1     -33.630   6.815   3.117  1.00 20.00     0.093 A 
HETATM    4  C4  UNL     1     -33.980   6.850   5.757  1.00 20.00     0.022 C 
HETATM    5  C5  UNL     1     -32.290   7.507   3.258  1.00 20.00     0.033 C 
HETATM    6  N6  UNL     1     -33.460   5.382   2.893  1.00 20.00    -0.356 N 
HETATM    7  O7  UNL     1     -34.414   3.878   4.424  1.00 20.00    -0.273 OA
HETATM    8  H16 UNL     1     -32.978   4.840   2.189  1.00 20.00     0.162 HD
ENDROOT
TORSDOF 0
ENDMDL
MODEL 2
REMARK VINA RESULT:      -4.8      2.273      3.213
REMARK  0 active torsions:
REMARK  status: ('A' for Active; 'I' for Inactive)
ROOT
HETATM    1  C1  UNL     1     -33.060   7.198   3.736  1.00 20.00     0.223 A 
HETATM    2  C2  UNL     1     -33.887   6.064   3.094  1.00 20.00     0.096 A 
HETATM    3  C3  UNL     1     -34.681   6.060   4.438  1.00 20.00     0.093 A 
HETATM    4  C4  UNL     1     -33.096   4.837   2.680  1.00 20.00     0.022 C 
HETATM    5  C5  UNL     1     -34.593   4.878   5.381  1.00 20.00     0.033 C 
HETATM    6  N6  UNL     1     -33.806   7.145   4.871  1.00 20.00    -0.356 N 
HETATM    7  O7  UNL     1     -32.120   7.887   3.414  1.00 20.00    -0.273 OA
HETATM    8  H16 UNL     1     -33.736   7.684   5.723  1.00 20.00     0.162 HD
ENDROOT
TORSDOF 0
ENDMDL
MODEL 3
REMARK VINA RESULT:      -4.8      2.129      3.073
REMARK  0 active torsions:
REMARK  status: ('A' for Active; 'I' for Inactive)
ROOT
HETATM    1  C1  UNL     1     -33.933   6.895   5.423  1.00 20.00     0.223 A 
HETATM    2  C2  UNL     1     -34.254   6.586   3.945  1.00 20.00     0.096 A 
HETATM    3  C3  UNL     1     -34.831   5.241   4.488  1.00 20.00     0.093 A 
HETATM    4  C4  UNL     1     -33.061   6.574   3.010  1.00 20.00     0.022 C 
HETATM    5  C5  UNL     1     -34.150   3.926   4.167  1.00 20.00     0.033 C 
HETATM    6  N6  UNL     1     -34.466   5.710   5.822  1.00 20.00    -0.356 N 
HETATM    7  O7  UNL     1     -33.417   7.800   6.037  1.00 20.00    -0.273 OA
HETATM    8  H16 UNL     1     -34.548   5.310   6.746  1.00 20.00     0.162 HD
ENDROOT
TORSDOF 0
ENDMDL
MODEL 4
REMARK VINA RESULT:      -3.8      2.063      2.490
REMARK  0 active torsions:
REMARK  status: ('A' for Active; 'I' for Inactive)
ROOT
HETATM    1  C1  UNL     1     -33.503   7.154   5.164  1.00 20.00     0.223 A 
HETATM    2  C2  UNL     1     -33.577   6.266   3.904  1.00 20.00     0.096 A 
HETATM    3  C3  UNL     1     -32.454   7.195   3.345  1.00 20.00     0.093 A 
HETATM    4  C4  UNL     1     -34.929   6.219   3.219  1.00 20.00     0.022 C 
HETATM    5  C5  UNL     1     -32.732   8.124   2.181  1.00 20.00     0.033 C 
HETATM    6  N6  UNL     1     -32.517   7.910   4.615  1.00 20.00    -0.356 N 
HETATM    7  O7  UNL     1     -34.069   7.207   6.232  1.00 20.00    -0.273 OA
HETATM    8  H16 UNL     1     -32.025   8.710   4.989  1.00 20.00     0.162 HD
ENDROOT
TORSDOF 0
ENDMDL
MODEL 5
REMARK VINA RESULT:      -3.7      2.219      2.799
REMARK  0 active torsions:
REMARK  status: ('A' for Active; 'I' for Inactive)
ROOT
HETATM    1  C1  UNL     1     -32.646   7.406   3.414  1.00 20.00     0.223 A 
HETATM    2  C2  UNL     1     -33.089   6.642   4.679  1.00 20.00     0.096 A 
HETATM    3  C3  UNL     1     -33.972   5.802   3.703  1.00 20.00     0.093 A 
HETATM    4  C4  UNL     1     -33.747   7.488   5.753  1.00 20.00     0.022 C 
HETATM    5  C5  UNL     1     -35.482   5.898   3.754  1.00 20.00     0.033 C 
HETATM    6  N6  UNL     1     -33.429   6.624   2.625  1.00 20.00    -0.356 N 
HETATM    7  O7  UNL     1     -31.910   8.333   3.163  1.00 20.00    -0.273 OA
HETATM    8  H16 UNL     1     -33.575   6.645   1.626  1.00 20.00     0.162 HD
ENDROOT
TORSDOF 0
ENDMDL
MODEL 6
REMARK VINA RESULT:      -3.6     13.003     13.741
REMARK  0 active torsions:
REMARK  status: ('A' for Active; 'I' for Inactive)
ROOT
HETATM    1  C1  UNL     1     -35.362  13.240  -6.236  1.00 20.00     0.223 A 
HETATM    2  C2  UNL     1     -35.769  13.688  -7.656  1.00 20.00     0.096 A 
HETATM    3  C3  UNL     1     -34.276  14.117  -7.806  1.00 20.00     0.093 A 
HETATM    4  C4  UNL     1     -36.865  14.734  -7.718  1.00 20.00     0.022 C 
HETATM    5  C5  UNL     1     -33.903  15.581  -7.918  1.00 20.00     0.033 C 
HETATM    6  N6  UNL     1     -34.076  13.626  -6.446  1.00 20.00    -0.356 N 
HETATM    7  O7  UNL     1     -35.915  12.746  -5.280  1.00 20.00    -0.273 OA
HETATM    8  H16 UNL     1     -33.274  13.585  -5.832  1.00 20.00     0.162 HD
ENDROOT
TORSDOF 0
ENDMDL
MODEL 7
REMARK VINA RESULT:      -3.5     12.328     12.750
REMARK  0 active torsions:
REMARK  status: ('A' for Active; 'I' for Inactive)
ROOT
HETATM    1  C1  UNL     1     -35.329  13.620  -5.527  1.00 20.00     0.223 A 
HETATM    2  C2  UNL     1     -35.553  15.144  -5.427  1.00 20.00     0.096 A 
HETATM    3  C3  UNL     1     -34.125  15.262  -6.048  1.00 20.00     0.093 A 
HETATM    4  C4  UNL     1     -35.815  15.673  -4.030  1.00 20.00     0.022 C 
HETATM    5  C5  UNL     1     -32.974  15.812  -5.232  1.00 20.00     0.033 C 
HETATM    6  N6  UNL     1     -34.099  13.803  -6.076  1.00 20.00    -0.356 N 
HETATM    7  O7  UNL     1     -35.952  12.623  -5.244  1.00 20.00    -0.273 OA
HETATM    8  H16 UNL     1     -33.413  13.125  -6.377  1.00 20.00     0.162 HD
ENDROOT
TORSDOF 0
ENDMDL
MODEL 8
REMARK VINA RESULT:      -3.5     11.875     12.446
REMARK  0 active torsions:
REMARK  status: ('A' for Active; 'I' for Inactive)
ROOT
HETATM    1  C1  UNL     1     -35.265  13.672  -4.988  1.00 20.00     0.223 A 
HETATM    2  C2  UNL     1     -35.011  15.107  -5.497  1.00 20.00     0.096 A 
HETATM    3  C3  UNL     1     -33.913  15.165  -4.388  1.00 20.00     0.093 A 
HETATM    4  C4  UNL     1     -36.204  16.041  -5.428  1.00 20.00     0.022 C 
HETATM    5  C5  UNL     1     -34.075  16.079  -3.192  1.00 20.00     0.033 C 
HETATM    6  N6  UNL     1     -34.283  13.793  -4.056  1.00 20.00    -0.356 N 
HETATM    7  O7  UNL     1     -36.017  12.765  -5.262  1.00 20.00    -0.273 OA
HETATM    8  H16 UNL     1     -33.957  13.132  -3.364  1.00 20.00     0.162 HD
ENDROOT
TORSDOF 0
ENDMDL
MODEL 9
REMARK VINA RESULT:      -3.4     11.948     12.525
REMARK  0 active torsions:
REMARK  status: ('A' for Active; 'I' for Inactive)
ROOT
HETATM    1  C1  UNL     1     -35.681  13.781  -4.873  1.00 20.00     0.223 A 
HETATM    2  C2  UNL     1     -34.646  14.522  -3.999  1.00 20.00     0.096 A 
HETATM    3  C3  UNL     1     -35.536  15.781  -4.244  1.00 20.00     0.093 A 
HETATM    4  C4  UNL     1     -33.220  14.493  -4.514  1.00 20.00     0.022 C 
HETATM    5  C5  UNL     1     -35.021  16.937  -5.075  1.00 20.00     0.033 C 
HETATM    6  N6  UNL     1     -36.411  14.917  -5.030  1.00 20.00    -0.356 N 
HETATM    7  O7  UNL     1     -35.831  12.655  -5.287  1.00 20.00    -0.273 OA
HETATM    8  H16 UNL     1     -37.266  15.076  -5.544  1.00 20.00     0.162 HD
ENDROOT
TORSDOF 0
ENDMDL
