MODEL 1
REMARK VINA RESULT:      -5.7      0.000      0.000
REMARK  2 active torsions:
REMARK  status: ('A' for Active; 'I' for Inactive)
REMARK    1  A    between atoms: C1_1  and  C3_3 
REMARK    2  A    between atoms: C2_2  and  C6_6 
ROOT
HETATM    1  C1  UNL     1     -32.353   8.069   2.715  1.00 20.00     0.046 C 
HETATM    2  C2  UNL     1     -33.529   7.436   2.810  1.00 20.00    -0.014 C 
ENDROOT
BRANCH   2   3
HETATM    3  C6  UNL     1     -33.937   6.635   4.003  1.00 20.00    -0.026 A 
HETATM    4  C4  UNL     1     -33.926   5.141   3.834  1.00 20.00     0.014 A 
HETATM    5  C5  UNL     1     -35.230   5.876   3.883  1.00 20.00     0.014 A 
HETATM    6  C8  UNL     1     -33.558   7.220   5.324  1.00 20.00     0.019 C 
ENDBRANCH   2   3
BRANCH   1   7
HETATM    7  C3  UNL     1     -32.008   8.852   1.497  1.00 20.00     0.145 C 
HETATM    8  C7  UNL     1     -32.768  10.132   1.273  1.00 20.00     0.096 C 
HETATM    9  O9  UNL     1     -31.154   8.475   0.698  1.00 20.00    -0.294 OA
ENDBRANCH   1   7
TORSDOF 2
ENDMDL
MODEL 2
REMARK VINA RESULT:      -5.4      1.285      1.941
REMARK  2 active torsions:
REMARK  status: ('A' for Active; 'I' for Inactive)
REMARK    1  A    between atoms: C1_1  and  C3_3 
REMARK    2  A    between atoms: C2_2  and  C6_6 
ROOT
HETATM    1  C1  UNL     1     -33.262   7.380   2.902  1.00 20.00     0.046 C 
HETATM    2  C2  UNL     1     -33.299   6.492   3.904  1.00 20.00    -0.014 C 
ENDROOT
BRANCH   2   3
HETATM    3  C6  UNL     1     -34.502   5.669   4.228  1.00 20.00    -0.026 A 
HETATM    4  C4  UNL     1     -34.573   5.119   5.626  1.00 20.00     0.014 A 
HETATM    5  C5  UNL     1     -34.257   4.206   4.480  1.00 20.00     0.014 A 
HETATM    6  C8  UNL     1     -35.764   6.088   3.547  1.00 20.00     0.019 C 
ENDBRANCH   2   3
BRANCH   1   7
HETATM    7  C3  UNL     1     -32.029   8.170   2.631  1.00 20.00     0.145 C 
HETATM    8  C7  UNL     1     -31.898   8.777   1.260  1.00 20.00     0.096 C 
HETATM    9  O9  UNL     1     -31.148   8.315   3.475  1.00 20.00    -0.294 OA
ENDBRANCH   1   7
TORSDOF 2
ENDMDL
MODEL 3
REMARK VINA RESULT:      -5.3      1.202      1.692
REMARK  2 active torsions:
REMARK  status: ('A' for Active; 'I' for Inactive)
REMARK    1  A    between atoms: C1_1  and  C3_3 
REMARK    2  A    between atoms: C2_2  and  C6_6 
ROOT
HETATM    1  C1  UNL     1     -32.742   7.495   2.181  1.00 20.00     0.046 C 
HETATM    2  C2  UNL     1     -33.315   7.188   3.353  1.00 20.00    -0.014 C 
ENDROOT
BRANCH   2   3
HETATM    3  C6  UNL     1     -33.935   5.861   3.642  1.00 20.00    -0.026 A 
HETATM    4  C4  UNL     1     -35.422   5.858   3.863  1.00 20.00     0.014 A 
HETATM    5  C5  UNL     1     -34.495   5.676   5.025  1.00 20.00     0.014 A 
HETATM    6  C8  UNL     1     -33.300   4.697   2.953  1.00 20.00     0.019 C 
ENDBRANCH   2   3
BRANCH   1   7
HETATM    7  C3  UNL     1     -32.141   8.838   1.958  1.00 20.00     0.145 C 
HETATM    8  C7  UNL     1     -32.281   9.425   0.579  1.00 20.00     0.096 C 
HETATM    9  O9  UNL     1     -31.544   9.443   2.846  1.00 20.00    -0.294 OA
ENDBRANCH   1   7
TORSDOF 2
ENDMDL
MODEL 4
REMARK VINA RESULT:      -5.3      2.198      4.473
REMARK  2 active torsions:
REMARK  status: ('A' for Active; 'I' for Inactive)
REMARK    1  A    between atoms: C1_1  and  C3_3 
REMARK    2  A    between atoms: C2_2  and  C6_6 
ROOT
HETATM    1  C1  UNL     1     -33.637   6.976   4.093  1.00 20.00     0.046 C 
HETATM    2  C2  UNL     1     -33.222   7.251   2.849  1.00 20.00    -0.014 C 
ENDROOT
BRANCH   2   3
HETATM    3  C6  UNL     1     -32.151   8.246   2.542  1.00 20.00    -0.026 A 
HETATM    4  C4  UNL     1     -32.555   9.407   1.676  1.00 20.00     0.014 A 
HETATM    5  C5  UNL     1     -31.701   8.315   1.109  1.00 20.00     0.014 A 
HETATM    6  C8  UNL     1     -31.150   8.462   3.630  1.00 20.00     0.019 C 
ENDBRANCH   2   3
BRANCH   1   7
HETATM    7  C3  UNL     1     -34.709   5.971   4.331  1.00 20.00     0.145 C 
HETATM    8  C7  UNL     1     -34.537   5.061   5.518  1.00 20.00     0.096 C 
HETATM    9  O9  UNL     1     -35.687   5.871   3.593  1.00 20.00    -0.294 OA
ENDBRANCH   1   7
TORSDOF 2
ENDMDL
MODEL 5
REMARK VINA RESULT:      -5.1      1.922      4.517
REMARK  2 active torsions:
REMARK  status: ('A' for Active; 'I' for Inactive)
REMARK    1  A    between atoms: C1_1  and  C3_3 
REMARK    2  A    between atoms: C2_2  and  C6_6 
ROOT
HETATM    1  C1  UNL     1     -32.719   7.533   3.054  1.00 20.00     0.046 C 
HETATM    2  C2  UNL     1     -33.226   8.244   2.038  1.00 20.00    -0.014 C 
ENDROOT
BRANCH   2   3
HETATM    3  C6  UNL     1     -32.386   9.036   1.090  1.00 20.00    -0.026 A 
HETATM    4  C4  UNL     1     -32.645  10.517   1.053  1.00 20.00     0.014 A 
HETATM    5  C5  UNL     1     -33.105   9.651  -0.079  1.00 20.00     0.014 A 
HETATM    6  C8  UNL     1     -30.991   8.536   0.904  1.00 20.00     0.019 C 
ENDBRANCH   2   3
BRANCH   1   7
HETATM    7  C3  UNL     1     -33.613   6.765   3.963  1.00 20.00     0.145 C 
HETATM    8  C7  UNL     1     -33.675   7.218   5.398  1.00 20.00     0.096 C 
HETATM    9  O9  UNL     1     -34.263   5.796   3.577  1.00 20.00    -0.294 OA
ENDBRANCH   1   7
TORSDOF 2
ENDMDL
MODEL 6
REMARK VINA RESULT:      -4.1     10.424     11.168
REMARK  2 active torsions:
REMARK  status: ('A' for Active; 'I' for Inactive)
REMARK    1  A    between atoms: C1_1  and  C3_3 
REMARK    2  A    between atoms: C2_2  and  C6_6 
ROOT
HETATM    1  C1  UNL     1     -34.540  15.773  -3.196  1.00 20.00     0.046 C 
HETATM    2  C2  UNL     1     -33.625  16.607  -2.684  1.00 20.00    -0.014 C 
ENDROOT
BRANCH   2   3
HETATM    3  C6  UNL     1     -33.924  17.590  -1.601  1.00 20.00    -0.026 A 
HETATM    4  C4  UNL     1     -33.588  19.026  -1.897  1.00 20.00     0.014 A 
HETATM    5  C5  UNL     1     -32.735  18.241  -0.948  1.00 20.00     0.014 A 
HETATM    6  C8  UNL     1     -35.129  17.282  -0.774  1.00 20.00     0.019 C 
ENDBRANCH   2   3
BRANCH   1   7
HETATM    7  C3  UNL     1     -34.176  14.815  -4.275  1.00 20.00     0.145 C 
HETATM    8  C7  UNL     1     -33.281  15.332  -5.370  1.00 20.00     0.096 C 
HETATM    9  O9  UNL     1     -34.592  13.659  -4.291  1.00 20.00    -0.294 OA
ENDBRANCH   1   7
TORSDOF 2
ENDMDL
MODEL 7
REMARK VINA RESULT:      -4.0     10.573     11.320
REMARK  2 active torsions:
REMARK  status: ('A' for Active; 'I' for Inactive)
REMARK    1  A    between atoms: C1_1  and  C3_3 
REMARK    2  A    between atoms: C2_2  and  C6_6 
ROOT
HETATM    1  C1  UNL     1     -35.361  15.088  -5.123  1.00 20.00     0.046 C 
HETATM    2  C2  UNL     1     -34.934  15.286  -3.868  1.00 20.00    -0.014 C 
ENDROOT
BRANCH   2   3
HETATM    3  C6  UNL     1     -34.899  16.629  -3.216  1.00 20.00    -0.026 A 
HETATM    4  C4  UNL     1     -33.734  16.892  -2.302  1.00 20.00     0.014 A 
HETATM    5  C5  UNL     1     -35.095  16.649  -1.725  1.00 20.00     0.014 A 
HETATM    6  C8  UNL     1     -35.447  17.751  -4.036  1.00 20.00     0.019 C 
ENDBRANCH   2   3
BRANCH   1   7
HETATM    7  C3  UNL     1     -35.371  13.721  -5.714  1.00 20.00     0.145 C 
HETATM    8  C7  UNL     1     -34.687  13.551  -7.045  1.00 20.00     0.096 C 
HETATM    9  O9  UNL     1     -35.920  12.772  -5.159  1.00 20.00    -0.294 OA
ENDBRANCH   1   7
TORSDOF 2
ENDMDL
MODEL 8
REMARK VINA RESULT:      -4.0     10.426     10.944
REMARK  2 active torsions:
REMARK  status: ('A' for Active; 'I' for Inactive)
REMARK    1  A    between atoms: C1_1  and  C3_3 
REMARK    2  A    between atoms: C2_2  and  C6_6 
ROOT
HETATM    1  C1  UNL     1     -33.798  15.769  -3.546  1.00 20.00     0.046 C 
HETATM    2  C2  UNL     1     -34.737  16.201  -2.693  1.00 20.00    -0.014 C 
ENDROOT
BRANCH   2   3
HETATM    3  C6  UNL     1     -34.504  17.291  -1.699  1.00 20.00    -0.026 A 
HETATM    4  C4  UNL     1     -35.366  17.261  -0.467  1.00 20.00     0.014 A 
HETATM    5  C5  UNL     1     -35.619  18.285  -1.530  1.00 20.00     0.014 A 
HETATM    6  C8  UNL     1     -33.089  17.758  -1.584  1.00 20.00     0.019 C 
ENDBRANCH   2   3
BRANCH   1   7
HETATM    7  C3  UNL     1     -34.096  14.677  -4.513  1.00 20.00     0.145 C 
HETATM    8  C7  UNL     1     -33.875  14.982  -5.971  1.00 20.00     0.096 C 
HETATM    9  O9  UNL     1     -34.515  13.580  -4.153  1.00 20.00    -0.294 OA
ENDBRANCH   1   7
TORSDOF 2
ENDMDL
MODEL 9
REMARK VINA RESULT:      -4.0     10.487     11.118
REMARK  2 active torsions:
REMARK  status: ('A' for Active; 'I' for Inactive)
REMARK    1  A    between atoms: C1_1  and  C3_3 
REMARK    2  A    between atoms: C2_2  and  C6_6 
ROOT
HETATM    1  C1  UNL     1     -35.177  14.709  -4.205  1.00 20.00     0.046 C 
HETATM    2  C2  UNL     1     -35.717  15.745  -3.550  1.00 20.00    -0.014 C 
ENDROOT
BRANCH   2   3
HETATM    3  C6  UNL     1     -34.925  16.680  -2.696  1.00 20.00    -0.026 A 
HETATM    4  C4  UNL     1     -35.427  16.884  -1.294  1.00 20.00     0.014 A 
HETATM    5  C5  UNL     1     -35.603  17.967  -2.314  1.00 20.00     0.014 A 
HETATM    6  C8  UNL     1     -33.452  16.680  -2.948  1.00 20.00     0.019 C 
ENDBRANCH   2   3
BRANCH   1   7
HETATM    7  C3  UNL     1     -36.024  13.814  -5.042  1.00 20.00     0.145 C 
HETATM    8  C7  UNL     1     -37.405  14.309  -5.383  1.00 20.00     0.096 C 
HETATM    9  O9  UNL     1     -35.632  12.716  -5.429  1.00 20.00    -0.294 OA
ENDBRANCH   1   7
TORSDOF 2
ENDMDL
