MODEL 1
REMARK VINA RESULT:      -5.4      0.000      0.000
REMARK  2 active torsions:
REMARK  status: ('A' for Active; 'I' for Inactive)
REMARK    1  A    between atoms: C2_2  and  C5_5 
REMARK    2  A    between atoms: C5_5  and  O6_6 
ROOT
HETATM    1  C1  UNL     1     -35.426   5.905   3.870  1.00 20.00     0.097 A 
HETATM    2  C2  UNL     1     -33.978   6.260   4.175  1.00 20.00     0.049 A 
HETATM    3  C3  UNL     1     -34.541   4.933   4.562  1.00 20.00     0.254 A 
HETATM    4  C4  UNL     1     -33.712   7.262   5.263  1.00 20.00     0.024 C 
HETATM    5  F7  UNL     1     -34.763   4.611   5.883  1.00 20.00    -0.205 F 
HETATM    6  F8  UNL     1     -34.148   3.777   3.924  1.00 20.00    -0.205 F 
ENDROOT
BRANCH   2   7
HETATM    7  C5  UNL     1     -33.009   6.310   3.026  1.00 20.00     0.179 C 
BRANCH   7   8
HETATM    8  O6  UNL     1     -32.212   7.484   3.129  1.00 20.00    -0.400 OA
HETATM    9  H16 UNL     1     -32.045   7.625   4.074  1.00 20.00     0.209 HD
ENDBRANCH   7   8
ENDBRANCH   2   7
TORSDOF 2
ENDMDL
MODEL 2
REMARK VINA RESULT:      -5.2      1.301      1.460
REMARK  2 active torsions:
REMARK  status: ('A' for Active; 'I' for Inactive)
REMARK    1  A    between atoms: C2_2  and  C5_5 
REMARK    2  A    between atoms: C5_5  and  O6_6 
ROOT
HETATM    1  C1  UNL     1     -35.200   5.947   3.488  1.00 20.00     0.097 A 
HETATM    2  C2  UNL     1     -34.080   6.260   4.469  1.00 20.00     0.049 A 
HETATM    3  C3  UNL     1     -34.089   4.983   3.695  1.00 20.00     0.254 A 
HETATM    4  C4  UNL     1     -34.392   6.200   5.938  1.00 20.00     0.024 C 
HETATM    5  F7  UNL     1     -34.325   3.775   4.315  1.00 20.00    -0.205 F 
HETATM    6  F8  UNL     1     -33.176   4.751   2.689  1.00 20.00    -0.205 F 
ENDROOT
BRANCH   2   7
HETATM    7  C5  UNL     1     -33.081   7.314   4.082  1.00 20.00     0.179 C 
BRANCH   7   8
HETATM    8  O6  UNL     1     -32.563   7.930   5.257  1.00 20.00    -0.400 OA
HETATM    9  H16 UNL     1     -32.044   7.254   5.719  1.00 20.00     0.209 HD
ENDBRANCH   7   8
ENDBRANCH   2   7
TORSDOF 2
ENDMDL
MODEL 3
REMARK VINA RESULT:      -5.0      1.795      2.450
REMARK  2 active torsions:
REMARK  status: ('A' for Active; 'I' for Inactive)
REMARK    1  A    between atoms: C2_2  and  C5_5 
REMARK    2  A    between atoms: C5_5  and  O6_6 
ROOT
HETATM    1  C1  UNL     1     -35.166   6.027   3.317  1.00 20.00     0.097 A 
HETATM    2  C2  UNL     1     -34.349   6.075   4.599  1.00 20.00     0.049 A 
HETATM    3  C3  UNL     1     -33.711   5.731   3.294  1.00 20.00     0.254 A 
HETATM    4  C4  UNL     1     -34.548   4.974   5.603  1.00 20.00     0.024 C 
HETATM    5  F7  UNL     1     -33.267   4.453   3.033  1.00 20.00    -0.205 F 
HETATM    6  F8  UNL     1     -32.836   6.599   2.676  1.00 20.00    -0.205 F 
ENDROOT
BRANCH   2   7
HETATM    7  C5  UNL     1     -34.056   7.423   5.196  1.00 20.00     0.179 C 
BRANCH   7   8
HETATM    8  O6  UNL     1     -32.987   7.305   6.129  1.00 20.00    -0.400 OA
HETATM    9  H16 UNL     1     -33.295   6.714   6.832  1.00 20.00     0.209 HD
ENDBRANCH   7   8
ENDBRANCH   2   7
TORSDOF 2
ENDMDL
MODEL 4
REMARK VINA RESULT:      -4.6      2.747      3.420
REMARK  2 active torsions:
REMARK  status: ('A' for Active; 'I' for Inactive)
REMARK    1  A    between atoms: C2_2  and  C5_5 
REMARK    2  A    between atoms: C5_5  and  O6_6 
ROOT
HETATM    1  C1  UNL     1     -34.270   7.456   3.429  1.00 20.00     0.097 A 
HETATM    2  C2  UNL     1     -33.832   6.075   3.891  1.00 20.00     0.049 A 
HETATM    3  C3  UNL     1     -33.009   7.282   4.195  1.00 20.00     0.254 A 
HETATM    4  C4  UNL     1     -33.323   5.113   2.853  1.00 20.00     0.024 C 
HETATM    5  F7  UNL     1     -31.792   7.488   3.583  1.00 20.00    -0.205 F 
HETATM    6  F8  UNL     1     -32.905   7.771   5.480  1.00 20.00    -0.205 F 
ENDROOT
BRANCH   2   7
HETATM    7  C5  UNL     1     -34.594   5.435   5.018  1.00 20.00     0.179 C 
BRANCH   7   8
HETATM    8  O6  UNL     1     -35.040   4.144   4.617  1.00 20.00    -0.400 OA
HETATM    9  H16 UNL     1     -35.492   4.258   3.767  1.00 20.00     0.209 HD
ENDBRANCH   7   8
ENDBRANCH   2   7
TORSDOF 2
ENDMDL
MODEL 5
REMARK VINA RESULT:      -4.6      1.647      2.028
REMARK  2 active torsions:
REMARK  status: ('A' for Active; 'I' for Inactive)
REMARK    1  A    between atoms: C2_2  and  C5_5 
REMARK    2  A    between atoms: C5_5  and  O6_6 
ROOT
HETATM    1  C1  UNL     1     -35.406   6.059   3.968  1.00 20.00     0.097 A 
HETATM    2  C2  UNL     1     -33.915   5.830   3.773  1.00 20.00     0.049 A 
HETATM    3  C3  UNL     1     -34.493   6.003   5.139  1.00 20.00     0.254 A 
HETATM    4  C4  UNL     1     -33.098   6.955   3.202  1.00 20.00     0.024 C 
HETATM    5  F7  UNL     1     -34.245   7.138   5.879  1.00 20.00    -0.205 F 
HETATM    6  F8  UNL     1     -34.564   4.948   6.023  1.00 20.00    -0.205 F 
ENDROOT
BRANCH   2   7
HETATM    7  C5  UNL     1     -33.462   4.456   3.366  1.00 20.00     0.179 C 
BRANCH   7   8
HETATM    8  O6  UNL     1     -32.743   4.538   2.140  1.00 20.00    -0.400 OA
HETATM    9  H16 UNL     1     -31.823   4.313   2.342  1.00 20.00     0.209 HD
ENDBRANCH   7   8
ENDBRANCH   2   7
TORSDOF 2
ENDMDL
MODEL 6
REMARK VINA RESULT:      -4.5      1.960      2.600
REMARK  2 active torsions:
REMARK  status: ('A' for Active; 'I' for Inactive)
REMARK    1  A    between atoms: C2_2  and  C5_5 
REMARK    2  A    between atoms: C5_5  and  O6_6 
ROOT
HETATM    1  C1  UNL     1     -33.695   5.005   3.728  1.00 20.00     0.097 A 
HETATM    2  C2  UNL     1     -33.624   6.497   4.012  1.00 20.00     0.049 A 
HETATM    3  C3  UNL     1     -34.728   5.925   3.187  1.00 20.00     0.254 A 
HETATM    4  C4  UNL     1     -32.560   7.298   3.315  1.00 20.00     0.024 C 
HETATM    5  F7  UNL     1     -34.803   6.164   1.832  1.00 20.00    -0.205 F 
HETATM    6  F8  UNL     1     -36.021   5.871   3.662  1.00 20.00    -0.205 F 
ENDROOT
BRANCH   2   7
HETATM    7  C5  UNL     1     -33.950   6.964   5.404  1.00 20.00     0.179 C 
BRANCH   7   8
HETATM    8  O6  UNL     1     -32.854   7.710   5.922  1.00 20.00    -0.400 OA
HETATM    9  H16 UNL     1     -32.552   8.293   5.209  1.00 20.00     0.209 HD
ENDBRANCH   7   8
ENDBRANCH   2   7
TORSDOF 2
ENDMDL
MODEL 7
REMARK VINA RESULT:      -4.1      2.644      3.180
REMARK  2 active torsions:
REMARK  status: ('A' for Active; 'I' for Inactive)
REMARK    1  A    between atoms: C2_2  and  C5_5 
REMARK    2  A    between atoms: C5_5  and  O6_6 
ROOT
HETATM    1  C1  UNL     1     -32.832   5.503   3.192  1.00 20.00     0.097 A 
HETATM    2  C2  UNL     1     -33.926   6.207   3.980  1.00 20.00     0.049 A 
HETATM    3  C3  UNL     1     -33.672   6.546   2.549  1.00 20.00     0.254 A 
HETATM    4  C4  UNL     1     -33.511   7.202   5.028  1.00 20.00     0.024 C 
HETATM    5  F7  UNL     1     -33.120   7.757   2.190  1.00 20.00    -0.205 F 
HETATM    6  F8  UNL     1     -34.571   6.201   1.562  1.00 20.00    -0.205 F 
ENDROOT
BRANCH   2   7
HETATM    7  C5  UNL     1     -35.167   5.427   4.312  1.00 20.00     0.179 C 
BRANCH   7   8
HETATM    8  O6  UNL     1     -35.035   4.856   5.610  1.00 20.00    -0.400 OA
HETATM    9  H16 UNL     1     -34.195   5.177   5.971  1.00 20.00     0.209 HD
ENDBRANCH   7   8
ENDBRANCH   2   7
TORSDOF 2
ENDMDL
MODEL 8
REMARK VINA RESULT:      -4.0      2.779      3.261
REMARK  2 active torsions:
REMARK  status: ('A' for Active; 'I' for Inactive)
REMARK    1  A    between atoms: C2_2  and  C5_5 
REMARK    2  A    between atoms: C5_5  and  O6_6 
ROOT
HETATM    1  C1  UNL     1     -33.630   6.997   5.042  1.00 20.00     0.097 A 
HETATM    2  C2  UNL     1     -34.143   6.069   3.952  1.00 20.00     0.049 A 
HETATM    3  C3  UNL     1     -33.271   7.234   3.620  1.00 20.00     0.254 A 
HETATM    4  C4  UNL     1     -35.599   6.147   3.587  1.00 20.00     0.024 C 
HETATM    5  F7  UNL     1     -33.770   8.331   2.952  1.00 20.00    -0.205 F 
HETATM    6  F8  UNL     1     -31.972   7.056   3.194  1.00 20.00    -0.205 F 
ENDROOT
BRANCH   2   7
HETATM    7  C5  UNL     1     -33.547   4.691   3.863  1.00 20.00     0.179 C 
BRANCH   7   8
HETATM    8  O6  UNL     1     -34.482   3.738   4.357  1.00 20.00    -0.400 OA
HETATM    9  H16 UNL     1     -34.149   2.864   4.102  1.00 20.00     0.209 HD
ENDBRANCH   7   8
ENDBRANCH   2   7
TORSDOF 2
ENDMDL
MODEL 9
REMARK VINA RESULT:      -3.8      3.272      4.229
REMARK  2 active torsions:
REMARK  status: ('A' for Active; 'I' for Inactive)
REMARK    1  A    between atoms: C2_2  and  C5_5 
REMARK    2  A    between atoms: C5_5  and  O6_6 
ROOT
HETATM    1  C1  UNL     1     -31.497   8.360   3.300  1.00 20.00     0.097 A 
HETATM    2  C2  UNL     1     -32.122   8.676   1.949  1.00 20.00     0.049 A 
HETATM    3  C3  UNL     1     -32.680   7.599   2.820  1.00 20.00     0.254 A 
HETATM    4  C4  UNL     1     -31.371   8.268   0.713  1.00 20.00     0.024 C 
HETATM    5  F7  UNL     1     -32.558   6.270   2.478  1.00 20.00    -0.205 F 
HETATM    6  F8  UNL     1     -33.899   7.747   3.446  1.00 20.00    -0.205 F 
ENDROOT
BRANCH   2   7
HETATM    7  C5  UNL     1     -32.902   9.954   1.817  1.00 20.00     0.179 C 
BRANCH   7   8
HETATM    8  O6  UNL     1     -32.502  10.632   0.630  1.00 20.00    -0.400 OA
HETATM    9  H16 UNL     1     -31.913  11.351   0.906  1.00 20.00     0.209 HD
ENDBRANCH   7   8
ENDBRANCH   2   7
TORSDOF 2
ENDMDL
