MODEL 1
REMARK VINA RESULT:      -5.5      0.000      0.000
REMARK  1 active torsions:
REMARK  status: ('A' for Active; 'I' for Inactive)
REMARK    1  A    between atoms: C8_8  and  C11_11 
ROOT
HETATM    1  C1  UNL     1     -35.386  13.856  -4.976  1.00 20.00     0.136 C 
HETATM    2  C2  UNL     1     -34.351  15.630  -6.305  1.00 20.00     0.017 C 
HETATM    3  C3  UNL     1     -32.862  14.431  -4.497  1.00 20.00     0.018 C 
HETATM    4  C4  UNL     1     -35.750  16.121  -4.446  1.00 20.00     0.023 C 
HETATM    5  C5  UNL     1     -35.678  15.187  -5.662  1.00 20.00     0.057 C 
HETATM    6  C6  UNL     1     -34.280  14.241  -3.893  1.00 20.00     0.065 C 
HETATM    7  C7  UNL     1     -33.398  15.770  -5.089  1.00 20.00    -0.003 C 
HETATM    8  C8  UNL     1     -34.361  15.822  -3.853  1.00 20.00    -0.023 C 
HETATM    9  O12 UNL     1     -35.900  12.787  -5.263  1.00 20.00    -0.297 OA
ENDROOT
BRANCH   8  10
HETATM   10  C11 UNL     1     -33.993  16.585  -2.609  1.00 20.00    -0.013 C 
HETATM   11  C9  UNL     1     -33.421  17.967  -2.951  1.00 20.00     0.010 C 
HETATM   12  C10 UNL     1     -35.197  16.738  -1.671  1.00 20.00     0.010 C 
ENDBRANCH   8  10
TORSDOF 1
ENDMDL
MODEL 2
REMARK VINA RESULT:      -4.9     11.006     12.196
REMARK  1 active torsions:
REMARK  status: ('A' for Active; 'I' for Inactive)
REMARK    1  A    between atoms: C8_8  and  C11_11 
ROOT
HETATM    1  C1  UNL     1     -33.967   4.627   4.289  1.00 20.00     0.136 C 
HETATM    2  C2  UNL     1     -35.610   6.274   3.530  1.00 20.00     0.017 C 
HETATM    3  C3  UNL     1     -33.909   5.336   1.754  1.00 20.00     0.018 C 
HETATM    4  C4  UNL     1     -33.637   6.923   4.687  1.00 20.00     0.023 C 
HETATM    5  C5  UNL     1     -34.743   5.861   4.735  1.00 20.00     0.057 C 
HETATM    6  C6  UNL     1     -33.097   5.167   3.067  1.00 20.00     0.065 C 
HETATM    7  C7  UNL     1     -34.560   6.581   2.430  1.00 20.00    -0.003 C 
HETATM    8  C8  UNL     1     -33.215   6.739   3.217  1.00 20.00    -0.023 C 
HETATM    9  O12 UNL     1     -34.063   3.516   4.784  1.00 20.00    -0.297 OA
ENDROOT
BRANCH   8  10
HETATM   10  C11 UNL     1     -32.123   7.649   2.722  1.00 20.00    -0.013 C 
HETATM   11  C9  UNL     1     -32.676   8.714   1.764  1.00 20.00     0.010 C 
HETATM   12  C10 UNL     1     -31.391   8.329   3.886  1.00 20.00     0.010 C 
ENDBRANCH   8  10
TORSDOF 1
ENDMDL
MODEL 3
REMARK VINA RESULT:      -4.8      1.273      1.622
REMARK  1 active torsions:
REMARK  status: ('A' for Active; 'I' for Inactive)
REMARK    1  A    between atoms: C8_8  and  C11_11 
ROOT
HETATM    1  C1  UNL     1     -35.657  15.862  -5.619  1.00 20.00     0.136 C 
HETATM    2  C2  UNL     1     -33.215  15.887  -5.767  1.00 20.00     0.017 C 
HETATM    3  C3  UNL     1     -34.320  14.213  -4.061  1.00 20.00     0.018 C 
HETATM    4  C4  UNL     1     -34.404  17.527  -4.523  1.00 20.00     0.023 C 
HETATM    5  C5  UNL     1     -34.465  16.782  -5.862  1.00 20.00     0.057 C 
HETATM    6  C6  UNL     1     -35.403  15.324  -4.139  1.00 20.00     0.065 C 
HETATM    7  C7  UNL     1     -33.278  15.346  -4.314  1.00 20.00    -0.003 C 
HETATM    8  C8  UNL     1     -34.287  16.305  -3.593  1.00 20.00    -0.023 C 
HETATM    9  O12 UNL     1     -36.542  15.626  -6.425  1.00 20.00    -0.297 OA
ENDROOT
BRANCH   8  10
HETATM   10  C11 UNL     1     -34.168  16.600  -2.122  1.00 20.00    -0.013 C 
HETATM   11  C9  UNL     1     -33.152  17.719  -1.858  1.00 20.00     0.010 C 
HETATM   12  C10 UNL     1     -35.525  16.978  -1.516  1.00 20.00     0.010 C 
ENDBRANCH   8  10
TORSDOF 1
ENDMDL
MODEL 4
REMARK VINA RESULT:      -4.7      2.513      4.211
REMARK  1 active torsions:
REMARK  status: ('A' for Active; 'I' for Inactive)
REMARK    1  A    between atoms: C8_8  and  C11_11 
ROOT
HETATM    1  C1  UNL     1     -33.292  18.396  -2.741  1.00 20.00     0.136 C 
HETATM    2  C2  UNL     1     -35.582  18.385  -3.601  1.00 20.00     0.017 C 
HETATM    3  C3  UNL     1     -35.029  16.794  -1.579  1.00 20.00     0.018 C 
HETATM    4  C4  UNL     1     -33.840  17.183  -4.683  1.00 20.00     0.023 C 
HETATM    5  C5  UNL     1     -34.109  18.541  -4.021  1.00 20.00     0.057 C 
HETATM    6  C6  UNL     1     -33.637  16.916  -2.256  1.00 20.00     0.065 C 
HETATM    7  C7  UNL     1     -35.632  16.952  -3.009  1.00 20.00    -0.003 C 
HETATM    8  C8  UNL     1     -34.319  16.276  -3.534  1.00 20.00    -0.023 C 
HETATM    9  O12 UNL     1     -32.586  19.263  -2.253  1.00 20.00    -0.297 OA
ENDROOT
BRANCH   8  10
HETATM   10  C11 UNL     1     -34.252  14.794  -3.787  1.00 20.00    -0.013 C 
HETATM   11  C9  UNL     1     -35.408  14.329  -4.684  1.00 20.00     0.010 C 
HETATM   12  C10 UNL     1     -32.912  14.395  -4.418  1.00 20.00     0.010 C 
ENDBRANCH   8  10
TORSDOF 1
ENDMDL
MODEL 5
REMARK VINA RESULT:      -4.6      1.437      2.520
REMARK  1 active torsions:
REMARK  status: ('A' for Active; 'I' for Inactive)
REMARK    1  A    between atoms: C8_8  and  C11_11 
ROOT
HETATM    1  C1  UNL     1     -34.064  15.546  -6.347  1.00 20.00     0.136 C 
HETATM    2  C2  UNL     1     -32.941  14.384  -4.510  1.00 20.00     0.017 C 
HETATM    3  C3  UNL     1     -35.503  13.902  -4.878  1.00 20.00     0.018 C 
HETATM    4  C4  UNL     1     -33.665  16.639  -4.301  1.00 20.00     0.023 C 
HETATM    5  C5  UNL     1     -32.967  15.706  -5.299  1.00 20.00     0.057 C 
HETATM    6  C6  UNL     1     -35.377  15.333  -5.469  1.00 20.00     0.065 C 
HETATM    7  C7  UNL     1     -34.364  14.312  -3.895  1.00 20.00    -0.003 C 
HETATM    8  C8  UNL     1     -34.910  15.776  -4.022  1.00 20.00    -0.023 C 
HETATM    9  O12 UNL     1     -33.893  15.563  -7.555  1.00 20.00    -0.297 OA
ENDROOT
BRANCH   8  10
HETATM   10  C11 UNL     1     -35.892  16.331  -3.026  1.00 20.00    -0.013 C 
HETATM   11  C9  UNL     1     -35.193  16.750  -1.726  1.00 20.00     0.010 C 
HETATM   12  C10 UNL     1     -36.663  17.523  -3.608  1.00 20.00     0.010 C 
ENDBRANCH   8  10
TORSDOF 1
ENDMDL
MODEL 6
REMARK VINA RESULT:      -4.4      1.469      2.518
REMARK  1 active torsions:
REMARK  status: ('A' for Active; 'I' for Inactive)
REMARK    1  A    between atoms: C8_8  and  C11_11 
ROOT
HETATM    1  C1  UNL     1     -35.369  13.938  -5.094  1.00 20.00     0.136 C 
HETATM    2  C2  UNL     1     -33.120  14.675  -4.474  1.00 20.00     0.017 C 
HETATM    3  C3  UNL     1     -35.149  15.674  -3.127  1.00 20.00     0.018 C 
HETATM    4  C4  UNL     1     -34.257  15.589  -6.352  1.00 20.00     0.023 C 
HETATM    5  C5  UNL     1     -33.989  14.241  -5.669  1.00 20.00     0.057 C 
HETATM    6  C6  UNL     1     -35.824  15.340  -4.485  1.00 20.00     0.065 C 
HETATM    7  C7  UNL     1     -33.849  15.939  -3.948  1.00 20.00    -0.003 C 
HETATM    8  C8  UNL     1     -34.793  16.356  -5.128  1.00 20.00    -0.023 C 
HETATM    9  O12 UNL     1     -35.917  12.849  -5.113  1.00 20.00    -0.297 OA
ENDROOT
BRANCH   8  10
HETATM   10  C11 UNL     1     -35.164  17.795  -5.359  1.00 20.00    -0.013 C 
HETATM   11  C9  UNL     1     -33.927  18.650  -5.665  1.00 20.00     0.010 C 
HETATM   12  C10 UNL     1     -36.185  17.934  -6.496  1.00 20.00     0.010 C 
ENDBRANCH   8  10
TORSDOF 1
ENDMDL
MODEL 7
REMARK VINA RESULT:      -4.3      2.252      4.016
REMARK  1 active torsions:
REMARK  status: ('A' for Active; 'I' for Inactive)
REMARK    1  A    between atoms: C8_8  and  C11_11 
ROOT
HETATM    1  C1  UNL     1     -35.865  18.222  -3.258  1.00 20.00     0.136 C 
HETATM    2  C2  UNL     1     -34.922  16.914  -1.418  1.00 20.00     0.017 C 
HETATM    3  C3  UNL     1     -33.265  18.358  -2.866  1.00 20.00     0.018 C 
HETATM    4  C4  UNL     1     -35.461  15.915  -3.507  1.00 20.00     0.023 C 
HETATM    5  C5  UNL     1     -36.028  16.915  -2.489  1.00 20.00     0.057 C 
HETATM    6  C6  UNL     1     -34.405  18.093  -3.887  1.00 20.00     0.065 C 
HETATM    7  C7  UNL     1     -33.618  16.967  -2.257  1.00 20.00    -0.003 C 
HETATM    8  C8  UNL     1     -34.074  16.556  -3.698  1.00 20.00    -0.023 C 
HETATM    9  O12 UNL     1     -36.692  19.117  -3.311  1.00 20.00    -0.297 OA
ENDROOT
BRANCH   8  10
HETATM   10  C11 UNL     1     -33.139  15.844  -4.639  1.00 20.00    -0.013 C 
HETATM   11  C9  UNL     1     -33.102  14.336  -4.354  1.00 20.00     0.010 C 
HETATM   12  C10 UNL     1     -33.529  16.086  -6.103  1.00 20.00     0.010 C 
ENDBRANCH   8  10
TORSDOF 1
ENDMDL
MODEL 8
REMARK VINA RESULT:      -4.3      2.167      4.009
REMARK  1 active torsions:
REMARK  status: ('A' for Active; 'I' for Inactive)
REMARK    1  A    between atoms: C8_8  and  C11_11 
ROOT
HETATM    1  C1  UNL     1     -33.664  17.238  -4.702  1.00 20.00     0.136 C 
HETATM    2  C2  UNL     1     -35.073  15.827  -3.284  1.00 20.00     0.017 C 
HETATM    3  C3  UNL     1     -32.887  14.757  -4.287  1.00 20.00     0.018 C 
HETATM    4  C4  UNL     1     -35.608  16.227  -5.565  1.00 20.00     0.023 C 
HETATM    5  C5  UNL     1     -35.115  16.969  -4.316  1.00 20.00     0.057 C 
HETATM    6  C6  UNL     1     -33.197  15.854  -5.342  1.00 20.00     0.065 C 
HETATM    7  C7  UNL     1     -34.429  14.659  -4.077  1.00 20.00    -0.003 C 
HETATM    8  C8  UNL     1     -34.566  15.093  -5.576  1.00 20.00    -0.023 C 
HETATM    9  O12 UNL     1     -33.066  18.284  -4.511  1.00 20.00    -0.297 OA
ENDROOT
BRANCH   8  10
HETATM   10  C11 UNL     1     -34.707  14.074  -6.674  1.00 20.00    -0.013 C 
HETATM   11  C9  UNL     1     -36.178  13.872  -7.062  1.00 20.00     0.010 C 
HETATM   12  C10 UNL     1     -33.893  14.470  -7.912  1.00 20.00     0.010 C 
ENDBRANCH   8  10
TORSDOF 1
ENDMDL
MODEL 9
REMARK VINA RESULT:      -4.3      1.568      2.477
REMARK  1 active torsions:
REMARK  status: ('A' for Active; 'I' for Inactive)
REMARK    1  A    between atoms: C8_8  and  C11_11 
ROOT
HETATM    1  C1  UNL     1     -33.167  14.391  -4.411  1.00 20.00     0.136 C 
HETATM    2  C2  UNL     1     -35.418  14.345  -5.369  1.00 20.00     0.017 C 
HETATM    3  C3  UNL     1     -33.575  15.725  -6.644  1.00 20.00     0.018 C 
HETATM    4  C4  UNL     1     -34.865  15.781  -3.556  1.00 20.00     0.023 C 
HETATM    5  C5  UNL     1     -34.645  14.340  -4.037  1.00 20.00     0.057 C 
HETATM    6  C6  UNL     1     -33.037  15.778  -5.188  1.00 20.00     0.065 C 
HETATM    7  C7  UNL     1     -35.001  15.693  -6.014  1.00 20.00    -0.003 C 
HETATM    8  C8  UNL     1     -34.392  16.513  -4.826  1.00 20.00    -0.023 C 
HETATM    9  O12 UNL     1     -32.346  13.524  -4.161  1.00 20.00    -0.297 OA
ENDROOT
BRANCH   8  10
HETATM   10  C11 UNL     1     -34.473  18.016  -4.793  1.00 20.00    -0.013 C 
HETATM   11  C9  UNL     1     -35.879  18.491  -4.402  1.00 20.00     0.010 C 
HETATM   12  C10 UNL     1     -33.438  18.610  -3.829  1.00 20.00     0.010 C 
ENDBRANCH   8  10
TORSDOF 1
ENDMDL
