MODEL 1
REMARK VINA RESULT:      -7.3      0.000      0.000
REMARK  1 active torsions:
REMARK  status: ('A' for Active; 'I' for Inactive)
REMARK    1  A    between atoms: C7_7  and  C11_11 
ROOT
HETATM    1  C1  UNL     1     -32.434   9.342   0.940  1.00 20.00     0.063 C 
HETATM    2  C11 UNL     1     -31.797   8.858   2.174  1.00 20.00     0.162 C 
HETATM    3  N12 UNL     1     -32.933   9.726  -0.035  1.00 20.00    -0.197 NA
ENDROOT
BRANCH   2   4
HETATM    4  C7  UNL     1     -32.588   7.740   2.766  1.00 20.00    -0.045 A 
HETATM    5  C3  UNL     1     -32.944   6.641   1.968  1.00 20.00     0.009 A 
HETATM    6  C2  UNL     1     -33.690   5.586   2.500  1.00 20.00     0.008 A 
HETATM    7  C5  UNL     1     -34.056   5.648   3.833  1.00 20.00    -0.052 A 
HETATM    8  C6  UNL     1     -33.701   6.745   4.629  1.00 20.00    -0.051 A 
HETATM    9  C8  UNL     1     -34.878   4.670   4.611  1.00 20.00     0.039 C 
HETATM   10  C4  UNL     1     -32.973   7.801   4.108  1.00 20.00     0.015 A 
HETATM   11  C9  UNL     1     -34.254   6.601   6.012  1.00 20.00     0.039 C 
HETATM   12  C10 UNL     1     -34.564   5.096   6.052  1.00 20.00     0.009 C 
ENDBRANCH   2   4
TORSDOF 1
ENDMDL
MODEL 2
REMARK VINA RESULT:      -6.8      0.774      1.917
REMARK  1 active torsions:
REMARK  status: ('A' for Active; 'I' for Inactive)
REMARK    1  A    between atoms: C7_7  and  C11_11 
ROOT
HETATM    1  C1  UNL     1     -32.301   9.583   1.369  1.00 20.00     0.063 C 
HETATM    2  C11 UNL     1     -31.652   8.312   1.726  1.00 20.00     0.162 C 
HETATM    3  N12 UNL     1     -32.811  10.585   1.085  1.00 20.00    -0.197 NA
ENDROOT
BRANCH   2   4
HETATM    4  C7  UNL     1     -32.374   7.654   2.854  1.00 20.00    -0.045 A 
HETATM    5  C3  UNL     1     -32.492   8.319   4.085  1.00 20.00     0.009 A 
HETATM    6  C2  UNL     1     -33.158   7.719   5.156  1.00 20.00     0.008 A 
HETATM    7  C5  UNL     1     -33.707   6.463   4.968  1.00 20.00    -0.052 A 
HETATM    8  C6  UNL     1     -33.588   5.800   3.740  1.00 20.00    -0.051 A 
HETATM    9  C8  UNL     1     -34.425   5.611   5.966  1.00 20.00     0.039 C 
HETATM   10  C4  UNL     1     -32.920   6.380   2.676  1.00 20.00     0.015 A 
HETATM   11  C9  UNL     1     -34.216   4.444   3.805  1.00 20.00     0.039 C 
HETATM   12  C10 UNL     1     -35.108   4.588   5.047  1.00 20.00     0.009 C 
ENDBRANCH   2   4
TORSDOF 1
ENDMDL
MODEL 3
REMARK VINA RESULT:      -5.8     10.954     11.633
REMARK  1 active torsions:
REMARK  status: ('A' for Active; 'I' for Inactive)
REMARK    1  A    between atoms: C7_7  and  C11_11 
ROOT
HETATM    1  C1  UNL     1     -34.132  14.830  -4.063  1.00 20.00     0.063 C 
HETATM    2  C11 UNL     1     -33.692  16.231  -3.991  1.00 20.00     0.162 C 
HETATM    3  N12 UNL     1     -34.477  13.724  -4.122  1.00 20.00    -0.197 NA
ENDROOT
BRANCH   2   4
HETATM    4  C7  UNL     1     -33.970  16.799  -2.639  1.00 20.00    -0.045 A 
HETATM    5  C3  UNL     1     -35.225  16.596  -2.045  1.00 20.00     0.009 A 
HETATM    6  C2  UNL     1     -35.509  17.122  -0.783  1.00 20.00     0.008 A 
HETATM    7  C5  UNL     1     -34.518  17.837  -0.132  1.00 20.00    -0.052 A 
HETATM    8  C6  UNL     1     -33.266  18.041  -0.726  1.00 20.00    -0.051 A 
HETATM    9  C8  UNL     1     -34.596  18.523   1.195  1.00 20.00     0.039 C 
HETATM   10  C4  UNL     1     -32.980  17.533  -1.981  1.00 20.00     0.015 A 
HETATM   11  C9  UNL     1     -32.392  18.882   0.149  1.00 20.00     0.039 C 
HETATM   12  C10 UNL     1     -33.108  18.747   1.502  1.00 20.00     0.009 C 
ENDBRANCH   2   4
TORSDOF 1
ENDMDL
MODEL 4
REMARK VINA RESULT:      -5.6     10.861     11.635
REMARK  1 active torsions:
REMARK  status: ('A' for Active; 'I' for Inactive)
REMARK    1  A    between atoms: C7_7  and  C11_11 
ROOT
HETATM    1  C1  UNL     1     -34.669  14.719  -3.921  1.00 20.00     0.063 C 
HETATM    2  C11 UNL     1     -35.509  15.857  -3.518  1.00 20.00     0.162 C 
HETATM    3  N12 UNL     1     -34.008  13.821  -4.241  1.00 20.00    -0.197 NA
ENDROOT
BRANCH   2   4
HETATM    4  C7  UNL     1     -34.845  16.641  -2.436  1.00 20.00    -0.045 A 
HETATM    5  C3  UNL     1     -33.534  17.108  -2.621  1.00 20.00     0.009 A 
HETATM    6  C2  UNL     1     -32.891  17.838  -1.618  1.00 20.00     0.008 A 
HETATM    7  C5  UNL     1     -33.583  18.098  -0.448  1.00 20.00    -0.052 A 
HETATM    8  C6  UNL     1     -34.891  17.630  -0.264  1.00 20.00    -0.051 A 
HETATM    9  C8  UNL     1     -33.099  18.818   0.770  1.00 20.00     0.039 C 
HETATM   10  C4  UNL     1     -35.532  16.896  -1.246  1.00 20.00     0.015 A 
HETATM   11  C9  UNL     1     -35.400  17.995   1.095  1.00 20.00     0.039 C 
HETATM   12  C10 UNL     1     -34.424  19.114   1.488  1.00 20.00     0.009 C 
ENDBRANCH   2   4
TORSDOF 1
ENDMDL
MODEL 5
REMARK VINA RESULT:      -5.4     11.215     11.798
REMARK  1 active torsions:
REMARK  status: ('A' for Active; 'I' for Inactive)
REMARK    1  A    between atoms: C7_7  and  C11_11 
ROOT
HETATM    1  C1  UNL     1     -36.250  13.882  -4.927  1.00 20.00     0.063 C 
HETATM    2  C11 UNL     1     -36.743  15.168  -4.412  1.00 20.00     0.162 C 
HETATM    3  N12 UNL     1     -35.864  12.867  -5.335  1.00 20.00    -0.197 NA
ENDROOT
BRANCH   2   4
HETATM    4  C7  UNL     1     -35.668  15.877  -3.658  1.00 20.00    -0.045 A 
HETATM    5  C3  UNL     1     -34.399  16.032  -4.239  1.00 20.00     0.009 A 
HETATM    6  C2  UNL     1     -33.376  16.687  -3.549  1.00 20.00     0.008 A 
HETATM    7  C5  UNL     1     -33.649  17.186  -2.287  1.00 20.00    -0.052 A 
HETATM    8  C6  UNL     1     -34.914  17.029  -1.707  1.00 20.00    -0.051 A 
HETATM    9  C8  UNL     1     -32.716  17.882  -1.348  1.00 20.00     0.039 C 
HETATM   10  C4  UNL     1     -35.931  16.371  -2.378  1.00 20.00     0.015 A 
HETATM   11  C9  UNL     1     -34.943  17.605  -0.328  1.00 20.00     0.039 C 
HETATM   12  C10 UNL     1     -33.706  18.516  -0.360  1.00 20.00     0.009 C 
ENDBRANCH   2   4
TORSDOF 1
ENDMDL
MODEL 6
REMARK VINA RESULT:      -5.4     11.229     11.957
REMARK  1 active torsions:
REMARK  status: ('A' for Active; 'I' for Inactive)
REMARK    1  A    between atoms: C7_7  and  C11_11 
ROOT
HETATM    1  C1  UNL     1     -34.094  18.332   2.832  1.00 20.00     0.063 C 
HETATM    2  C11 UNL     1     -35.068  18.657   1.779  1.00 20.00     0.162 C 
HETATM    3  N12 UNL     1     -33.327  18.076   3.664  1.00 20.00    -0.197 NA
ENDROOT
BRANCH   2   4
HETATM    4  C7  UNL     1     -34.599  18.149   0.457  1.00 20.00    -0.045 A 
HETATM    5  C3  UNL     1     -33.289  18.423   0.032  1.00 20.00     0.009 A 
HETATM    6  C2  UNL     1     -32.831  17.962  -1.205  1.00 20.00     0.008 A 
HETATM    7  C5  UNL     1     -33.696  17.221  -1.991  1.00 20.00    -0.052 A 
HETATM    8  C6  UNL     1     -35.003  16.949  -1.567  1.00 20.00    -0.051 A 
HETATM    9  C8  UNL     1     -33.451  16.659  -3.355  1.00 20.00     0.039 C 
HETATM   10  C4  UNL     1     -35.471  17.411  -0.349  1.00 20.00     0.015 A 
HETATM   11  C9  UNL     1     -35.752  16.180  -2.609  1.00 20.00     0.039 C 
HETATM   12  C10 UNL     1     -34.597  15.643  -3.469  1.00 20.00     0.009 C 
ENDBRANCH   2   4
TORSDOF 1
ENDMDL
MODEL 7
REMARK VINA RESULT:      -5.4     11.189     11.710
REMARK  1 active torsions:
REMARK  status: ('A' for Active; 'I' for Inactive)
REMARK    1  A    between atoms: C7_7  and  C11_11 
ROOT
HETATM    1  C1  UNL     1     -35.187  13.768  -5.091  1.00 20.00     0.063 C 
HETATM    2  C11 UNL     1     -34.152  14.805  -4.967  1.00 20.00     0.162 C 
HETATM    3  N12 UNL     1     -36.003  12.949  -5.191  1.00 20.00    -0.197 NA
ENDROOT
BRANCH   2   4
HETATM    4  C7  UNL     1     -34.447  15.705  -3.814  1.00 20.00    -0.045 A 
HETATM    5  C3  UNL     1     -35.778  15.916  -3.421  1.00 20.00     0.009 A 
HETATM    6  C2  UNL     1     -36.079  16.759  -2.348  1.00 20.00     0.008 A 
HETATM    7  C5  UNL     1     -35.032  17.368  -1.679  1.00 20.00    -0.052 A 
HETATM    8  C6  UNL     1     -33.704  17.158  -2.073  1.00 20.00    -0.051 A 
HETATM    9  C8  UNL     1     -35.103  18.332  -0.538  1.00 20.00     0.039 C 
HETATM   10  C4  UNL     1     -33.397  16.334  -3.142  1.00 20.00     0.015 A 
HETATM   11  C9  UNL     1     -32.765  17.963  -1.230  1.00 20.00     0.039 C 
HETATM   12  C10 UNL     1     -33.657  18.290  -0.023  1.00 20.00     0.009 C 
ENDBRANCH   2   4
TORSDOF 1
ENDMDL
MODEL 8
REMARK VINA RESULT:      -5.1     11.456     12.031
REMARK  1 active torsions:
REMARK  status: ('A' for Active; 'I' for Inactive)
REMARK    1  A    between atoms: C7_7  and  C11_11 
ROOT
HETATM    1  C1  UNL     1     -32.772  18.657   1.966  1.00 20.00     0.063 C 
HETATM    2  C11 UNL     1     -32.484  18.971   0.559  1.00 20.00     0.162 C 
HETATM    3  N12 UNL     1     -32.998  18.412   3.078  1.00 20.00    -0.197 NA
ENDROOT
BRANCH   2   4
HETATM    4  C7  UNL     1     -33.387  18.200  -0.345  1.00 20.00    -0.045 A 
HETATM    5  C3  UNL     1     -34.697  17.907   0.067  1.00 20.00     0.009 A 
HETATM    6  C2  UNL     1     -35.558  17.182  -0.760  1.00 20.00     0.008 A 
HETATM    7  C5  UNL     1     -35.090  16.771  -1.996  1.00 20.00    -0.052 A 
HETATM    8  C6  UNL     1     -33.783  17.062  -2.406  1.00 20.00    -0.051 A 
HETATM    9  C8  UNL     1     -35.803  15.958  -3.029  1.00 20.00     0.039 C 
HETATM   10  C4  UNL     1     -32.918  17.770  -1.589  1.00 20.00     0.015 A 
HETATM   11  C9  UNL     1     -33.502  16.469  -3.750  1.00 20.00     0.039 C 
HETATM   12  C10 UNL     1     -34.926  16.210  -4.264  1.00 20.00     0.009 C 
ENDBRANCH   2   4
TORSDOF 1
ENDMDL
MODEL 9
REMARK VINA RESULT:      -5.1     11.518     11.875
REMARK  1 active torsions:
REMARK  status: ('A' for Active; 'I' for Inactive)
REMARK    1  A    between atoms: C7_7  and  C11_11 
ROOT
HETATM    1  C1  UNL     1     -32.482  18.300  -0.555  1.00 20.00     0.063 C 
HETATM    2  C11 UNL     1     -33.949  18.224  -0.634  1.00 20.00     0.162 C 
HETATM    3  N12 UNL     1     -31.325  18.361  -0.491  1.00 20.00    -0.197 NA
ENDROOT
BRANCH   2   4
HETATM    4  C7  UNL     1     -34.368  17.311  -1.736  1.00 20.00    -0.045 A 
HETATM    5  C3  UNL     1     -35.732  17.053  -1.944  1.00 20.00     0.009 A 
HETATM    6  C2  UNL     1     -36.147  16.196  -2.967  1.00 20.00     0.008 A 
HETATM    7  C5  UNL     1     -35.181  15.620  -3.773  1.00 20.00    -0.052 A 
HETATM    8  C6  UNL     1     -33.820  15.876  -3.564  1.00 20.00    -0.051 A 
HETATM    9  C8  UNL     1     -35.374  14.650  -4.895  1.00 20.00     0.039 C 
HETATM   10  C4  UNL     1     -33.398  16.714  -2.547  1.00 20.00     0.015 A 
HETATM   11  C9  UNL     1     -32.978  15.101  -4.528  1.00 20.00     0.039 C 
HETATM   12  C10 UNL     1     -34.014  14.739  -5.603  1.00 20.00     0.009 C 
ENDBRANCH   2   4
TORSDOF 1
ENDMDL
