MODEL 1
REMARK VINA RESULT:      -5.9      0.000      0.000
REMARK  2 active torsions:
REMARK  status: ('A' for Active; 'I' for Inactive)
REMARK    1  A    between atoms: C7_7  and  C9_9 
REMARK    2  A    between atoms: C9_9  and  C10_10 
ROOT
HETATM    1  C1  UNL     1     -34.351   4.394   4.528  1.00 20.00     0.064 C 
HETATM    2  C2  UNL     1     -34.324   6.703   5.436  1.00 20.00     0.019 C 
HETATM    3  C3  UNL     1     -35.128   6.250   3.079  1.00 20.00     0.019 C 
HETATM    4  C4  UNL     1     -32.984   7.192   4.882  1.00 20.00     0.006 C 
HETATM    5  C5  UNL     1     -33.786   6.741   2.529  1.00 20.00     0.006 C 
HETATM    6  C6  UNL     1     -35.029   5.705   4.508  1.00 20.00     0.093 C 
HETATM    7  C7  UNL     1     -33.130   7.763   3.465  1.00 20.00    -0.014 C 
HETATM    8  N11 UNL     1     -33.819   3.364   4.545  1.00 20.00    -0.197 NA
ENDROOT
BRANCH   7   9
HETATM    9  C9  UNL     1     -31.772   8.200   2.919  1.00 20.00     0.004 C 
BRANCH   9  10
HETATM   10  C10 UNL     1     -31.864   8.569   1.443  1.00 20.00    -0.004 C 
HETATM   11  C8  UNL     1     -32.484   9.945   1.256  1.00 20.00     0.005 C 
ENDBRANCH   9  10
ENDBRANCH   7   9
TORSDOF 2
ENDMDL
MODEL 2
REMARK VINA RESULT:      -5.2      2.496      4.738
REMARK  2 active torsions:
REMARK  status: ('A' for Active; 'I' for Inactive)
REMARK    1  A    between atoms: C7_7  and  C9_9 
REMARK    2  A    between atoms: C9_9  and  C10_10 
ROOT
HETATM    1  C1  UNL     1     -32.512   9.483   1.628  1.00 20.00     0.064 C 
HETATM    2  C2  UNL     1     -31.329   8.273   3.442  1.00 20.00     0.019 C 
HETATM    3  C3  UNL     1     -32.652   7.007   1.694  1.00 20.00     0.019 C 
HETATM    4  C4  UNL     1     -32.478   8.093   4.437  1.00 20.00     0.006 C 
HETATM    5  C5  UNL     1     -33.798   6.830   2.692  1.00 20.00     0.006 C 
HETATM    6  C6  UNL     1     -31.791   8.243   1.980  1.00 20.00     0.093 C 
HETATM    7  C7  UNL     1     -33.294   6.828   4.140  1.00 20.00    -0.014 C 
HETATM    8  N11 UNL     1     -33.077  10.457   1.352  1.00 20.00    -0.197 NA
ENDROOT
BRANCH   7   9
HETATM    9  C9  UNL     1     -34.461   6.698   5.118  1.00 20.00     0.004 C 
BRANCH   9  10
HETATM   10  C10 UNL     1     -34.527   5.297   5.714  1.00 20.00    -0.004 C 
HETATM   11  C8  UNL     1     -34.449   4.233   4.631  1.00 20.00     0.005 C 
ENDBRANCH   9  10
ENDBRANCH   7   9
TORSDOF 2
ENDMDL
MODEL 3
REMARK VINA RESULT:      -4.7     11.383     12.193
REMARK  2 active torsions:
REMARK  status: ('A' for Active; 'I' for Inactive)
REMARK    1  A    between atoms: C7_7  and  C9_9 
REMARK    2  A    between atoms: C9_9  and  C10_10 
ROOT
HETATM    1  C1  UNL     1     -35.433  13.843  -5.555  1.00 20.00     0.064 C 
HETATM    2  C2  UNL     1     -35.741  16.302  -5.469  1.00 20.00     0.019 C 
HETATM    3  C3  UNL     1     -33.421  15.290  -5.477  1.00 20.00     0.019 C 
HETATM    4  C4  UNL     1     -35.632  16.533  -3.959  1.00 20.00     0.006 C 
HETATM    5  C5  UNL     1     -33.316  15.523  -3.968  1.00 20.00     0.006 C 
HETATM    6  C6  UNL     1     -34.867  15.143  -5.963  1.00 20.00     0.093 C 
HETATM    7  C7  UNL     1     -34.174  16.711  -3.516  1.00 20.00    -0.014 C 
HETATM    8  N11 UNL     1     -35.878  12.821  -5.234  1.00 20.00    -0.197 NA
ENDROOT
BRANCH   7   9
HETATM    9  C9  UNL     1     -34.090  16.892  -2.001  1.00 20.00     0.004 C 
BRANCH   9  10
HETATM   10  C10 UNL     1     -35.478  16.901  -1.369  1.00 20.00    -0.004 C 
HETATM   11  C8  UNL     1     -35.436  17.465   0.042  1.00 20.00     0.005 C 
ENDBRANCH   9  10
ENDBRANCH   7   9
TORSDOF 2
ENDMDL
MODEL 4
REMARK VINA RESULT:      -4.6      1.525      2.178
REMARK  2 active torsions:
REMARK  status: ('A' for Active; 'I' for Inactive)
REMARK    1  A    between atoms: C7_7  and  C9_9 
REMARK    2  A    between atoms: C9_9  and  C10_10 
ROOT
HETATM    1  C1  UNL     1     -35.548   5.908   3.739  1.00 20.00     0.064 C 
HETATM    2  C2  UNL     1     -33.254   5.221   3.093  1.00 20.00     0.019 C 
HETATM    3  C3  UNL     1     -33.668   6.472   5.254  1.00 20.00     0.019 C 
HETATM    4  C4  UNL     1     -32.761   6.515   2.442  1.00 20.00     0.006 C 
HETATM    5  C5  UNL     1     -33.173   7.764   4.599  1.00 20.00     0.006 C 
HETATM    6  C6  UNL     1     -34.235   5.466   4.247  1.00 20.00     0.093 C 
HETATM    7  C7  UNL     1     -32.168   7.481   3.476  1.00 20.00    -0.014 C 
HETATM    8  N11 UNL     1     -36.580   6.255   3.340  1.00 20.00    -0.197 NA
ENDROOT
BRANCH   7   9
HETATM    9  C9  UNL     1     -31.727   8.782   2.806  1.00 20.00     0.004 C 
BRANCH   9  10
HETATM   10  C10 UNL     1     -32.158   8.824   1.345  1.00 20.00    -0.004 C 
HETATM   11  C8  UNL     1     -32.613  10.218   0.944  1.00 20.00     0.005 C 
ENDBRANCH   9  10
ENDBRANCH   7   9
TORSDOF 2
ENDMDL
MODEL 5
REMARK VINA RESULT:      -4.6      1.219      1.492
REMARK  2 active torsions:
REMARK  status: ('A' for Active; 'I' for Inactive)
REMARK    1  A    between atoms: C7_7  and  C9_9 
REMARK    2  A    between atoms: C9_9  and  C10_10 
ROOT
HETATM    1  C1  UNL     1     -34.460   4.863   5.235  1.00 20.00     0.064 C 
HETATM    2  C2  UNL     1     -35.329   6.416   3.507  1.00 20.00     0.019 C 
HETATM    3  C3  UNL     1     -33.599   4.664   2.918  1.00 20.00     0.019 C 
HETATM    4  C4  UNL     1     -34.233   7.485   3.533  1.00 20.00     0.006 C 
HETATM    5  C5  UNL     1     -32.507   5.736   2.944  1.00 20.00     0.006 C 
HETATM    6  C6  UNL     1     -34.800   5.008   3.807  1.00 20.00     0.093 C 
HETATM    7  C7  UNL     1     -33.066   7.123   2.605  1.00 20.00    -0.014 C 
HETATM    8  N11 UNL     1     -34.192   4.750   6.358  1.00 20.00    -0.197 NA
ENDROOT
BRANCH   7   9
HETATM    9  C9  UNL     1     -31.967   8.181   2.685  1.00 20.00     0.004 C 
BRANCH   9  10
HETATM   10  C10 UNL     1     -31.725   8.830   1.327  1.00 20.00    -0.004 C 
HETATM   11  C8  UNL     1     -32.692   9.979   1.085  1.00 20.00     0.005 C 
ENDBRANCH   9  10
ENDBRANCH   7   9
TORSDOF 2
ENDMDL
MODEL 6
REMARK VINA RESULT:      -4.5     11.254     12.304
REMARK  2 active torsions:
REMARK  status: ('A' for Active; 'I' for Inactive)
REMARK    1  A    between atoms: C7_7  and  C9_9 
REMARK    2  A    between atoms: C9_9  and  C10_10 
ROOT
HETATM    1  C1  UNL     1     -37.121  14.345  -5.439  1.00 20.00     0.064 C 
HETATM    2  C2  UNL     1     -35.697  16.280  -6.055  1.00 20.00     0.019 C 
HETATM    3  C3  UNL     1     -34.657  14.066  -5.405  1.00 20.00     0.019 C 
HETATM    4  C4  UNL     1     -35.381  16.833  -4.663  1.00 20.00     0.006 C 
HETATM    5  C5  UNL     1     -34.343  14.623  -4.015  1.00 20.00     0.006 C 
HETATM    6  C6  UNL     1     -35.853  14.754  -6.073  1.00 20.00     0.093 C 
HETATM    7  C7  UNL     1     -34.159  16.145  -4.043  1.00 20.00    -0.014 C 
HETATM    8  N11 UNL     1     -38.118  14.023  -4.941  1.00 20.00    -0.197 NA
ENDROOT
BRANCH   7   9
HETATM    9  C9  UNL     1     -33.894  16.683  -2.637  1.00 20.00     0.004 C 
BRANCH   9  10
HETATM   10  C10 UNL     1     -35.165  16.674  -1.795  1.00 20.00    -0.004 C 
HETATM   11  C8  UNL     1     -34.993  17.498  -0.529  1.00 20.00     0.005 C 
ENDBRANCH   9  10
ENDBRANCH   7   9
TORSDOF 2
ENDMDL
MODEL 7
REMARK VINA RESULT:      -4.4     11.846     12.651
REMARK  2 active torsions:
REMARK  status: ('A' for Active; 'I' for Inactive)
REMARK    1  A    between atoms: C7_7  and  C9_9 
REMARK    2  A    between atoms: C9_9  and  C10_10 
ROOT
HETATM    1  C1  UNL     1     -36.571  14.648  -7.406  1.00 20.00     0.064 C 
HETATM    2  C2  UNL     1     -34.195  14.003  -7.110  1.00 20.00     0.019 C 
HETATM    3  C3  UNL     1     -35.938  13.332  -5.402  1.00 20.00     0.019 C 
HETATM    4  C4  UNL     1     -33.726  15.129  -6.184  1.00 20.00     0.006 C 
HETATM    5  C5  UNL     1     -35.465  14.458  -4.479  1.00 20.00     0.006 C 
HETATM    6  C6  UNL     1     -35.660  13.611  -6.883  1.00 20.00     0.093 C 
HETATM    7  C7  UNL     1     -33.988  14.797  -4.710  1.00 20.00    -0.014 C 
HETATM    8  N11 UNL     1     -37.288  15.462  -7.817  1.00 20.00    -0.197 NA
ENDROOT
BRANCH   7   9
HETATM    9  C9  UNL     1     -33.554  15.955  -3.812  1.00 20.00     0.004 C 
BRANCH   9  10
HETATM   10  C10 UNL     1     -34.638  16.303  -2.798  1.00 20.00    -0.004 C 
HETATM   11  C8  UNL     1     -34.067  17.092  -1.630  1.00 20.00     0.005 C 
ENDBRANCH   9  10
ENDBRANCH   7   9
TORSDOF 2
ENDMDL
MODEL 8
REMARK VINA RESULT:      -4.3     11.708     12.687
REMARK  2 active torsions:
REMARK  status: ('A' for Active; 'I' for Inactive)
REMARK    1  A    between atoms: C7_7  and  C9_9 
REMARK    2  A    between atoms: C9_9  and  C10_10 
ROOT
HETATM    1  C1  UNL     1     -35.618  15.545  -6.608  1.00 20.00     0.064 C 
HETATM    2  C2  UNL     1     -33.241  15.809  -5.953  1.00 20.00     0.019 C 
HETATM    3  C3  UNL     1     -34.752  14.202  -4.711  1.00 20.00     0.019 C 
HETATM    4  C4  UNL     1     -33.388  16.822  -4.815  1.00 20.00     0.006 C 
HETATM    5  C5  UNL     1     -34.896  15.218  -3.575  1.00 20.00     0.006 C 
HETATM    6  C6  UNL     1     -34.434  14.853  -6.063  1.00 20.00     0.093 C 
HETATM    7  C7  UNL     1     -33.670  16.133  -3.474  1.00 20.00    -0.014 C 
HETATM    8  N11 UNL     1     -36.549  16.089  -7.037  1.00 20.00    -0.197 NA
ENDROOT
BRANCH   7   9
HETATM    9  C9  UNL     1     -33.858  17.167  -2.365  1.00 20.00     0.004 C 
BRANCH   9  10
HETATM   10  C10 UNL     1     -35.081  16.846  -1.513  1.00 20.00    -0.004 C 
HETATM   11  C8  UNL     1     -35.046  17.600  -0.193  1.00 20.00     0.005 C 
ENDBRANCH   9  10
ENDBRANCH   7   9
TORSDOF 2
ENDMDL
MODEL 9
REMARK VINA RESULT:      -4.3     11.365     12.426
REMARK  2 active torsions:
REMARK  status: ('A' for Active; 'I' for Inactive)
REMARK    1  A    between atoms: C7_7  and  C9_9 
REMARK    2  A    between atoms: C9_9  and  C10_10 
ROOT
HETATM    1  C1  UNL     1     -34.791  14.329  -7.091  1.00 20.00     0.064 C 
HETATM    2  C2  UNL     1     -35.376  13.743  -4.753  1.00 20.00     0.019 C 
HETATM    3  C3  UNL     1     -36.158  15.924  -5.772  1.00 20.00     0.019 C 
HETATM    4  C4  UNL     1     -34.270  14.492  -4.005  1.00 20.00     0.006 C 
HETATM    5  C5  UNL     1     -35.051  16.669  -5.021  1.00 20.00     0.006 C 
HETATM    6  C6  UNL     1     -35.818  14.453  -6.038  1.00 20.00     0.093 C 
HETATM    7  C7  UNL     1     -34.661  15.949  -3.725  1.00 20.00    -0.014 C 
HETATM    8  N11 UNL     1     -33.984  14.232  -7.918  1.00 20.00    -0.197 NA
ENDROOT
BRANCH   7   9
HETATM    9  C9  UNL     1     -33.523  16.686  -3.020  1.00 20.00     0.004 C 
BRANCH   9  10
HETATM   10  C10 UNL     1     -33.985  17.270  -1.690  1.00 20.00    -0.004 C 
HETATM   11  C8  UNL     1     -35.403  16.832  -1.358  1.00 20.00     0.005 C 
ENDBRANCH   9  10
ENDBRANCH   7   9
TORSDOF 2
ENDMDL
