MODEL 1
REMARK VINA RESULT:      -4.9      0.000      0.000
REMARK  1 active torsions:
REMARK  status: ('A' for Active; 'I' for Inactive)
REMARK    1  A    between atoms: C1_1  and  C7_7 
ROOT
HETATM    1  C2  UNL     1     -33.978   5.092   2.816  1.00 20.00     0.006 C 
HETATM    2  C3  UNL     1     -34.892   5.992   3.653  1.00 20.00     0.017 C 
HETATM    3  C4  UNL     1     -32.581   5.684   2.947  1.00 20.00     0.069 C 
HETATM    4  C5  UNL     1     -31.568   9.027   2.862  1.00 20.00     0.197 C 
HETATM    5  C6  UNL     1     -32.071   8.596   1.512  1.00 20.00     0.197 C 
HETATM    6  C7  UNL     1     -34.071   7.237   4.015  1.00 20.00     0.109 C 
HETATM    7  C8  UNL     1     -32.840   7.176   3.104  1.00 20.00     0.173 C 
HETATM    8  O10 UNL     1     -31.703   7.846   3.650  1.00 20.00    -0.352 OA
HETATM    9  O11 UNL     1     -33.177   7.753   1.830  1.00 20.00    -0.352 OA
ENDROOT
BRANCH   6  10
HETATM   10  C1  UNL     1     -33.714   7.211   5.472  1.00 20.00     0.241 C 
HETATM   11  O9  UNL     1     -34.272   6.488   6.292  1.00 20.00    -0.306 OA
ENDBRANCH   6  10
TORSDOF 1
ENDMDL
MODEL 2
REMARK VINA RESULT:      -4.2     10.960     12.305
REMARK  1 active torsions:
REMARK  status: ('A' for Active; 'I' for Inactive)
REMARK    1  A    between atoms: C1_1  and  C7_7 
ROOT
HETATM    1  C2  UNL     1     -33.628  14.650  -4.750  1.00 20.00     0.006 C 
HETATM    2  C3  UNL     1     -33.871  14.844  -6.250  1.00 20.00     0.017 C 
HETATM    3  C4  UNL     1     -34.884  13.982  -4.209  1.00 20.00     0.069 C 
HETATM    4  C5  UNL     1     -38.239  14.658  -4.918  1.00 20.00     0.197 C 
HETATM    5  C6  UNL     1     -37.620  15.802  -4.165  1.00 20.00     0.197 C 
HETATM    6  C7  UNL     1     -35.358  14.552  -6.495  1.00 20.00     0.109 C 
HETATM    7  C8  UNL     1     -35.991  14.532  -5.100  1.00 20.00     0.173 C 
HETATM    8  O10 UNL     1     -37.166  13.724  -5.027  1.00 20.00    -0.352 OA
HETATM    9  O11 UNL     1     -36.306  15.882  -4.714  1.00 20.00    -0.352 OA
ENDROOT
BRANCH   6  10
HETATM   10  C1  UNL     1     -35.512  13.246  -7.219  1.00 20.00     0.241 C 
HETATM   11  O9  UNL     1     -34.970  12.206  -6.859  1.00 20.00    -0.306 OA
ENDBRANCH   6  10
TORSDOF 1
ENDMDL
MODEL 3
REMARK VINA RESULT:      -4.1     11.108     12.286
REMARK  1 active torsions:
REMARK  status: ('A' for Active; 'I' for Inactive)
REMARK    1  A    between atoms: C1_1  and  C7_7 
ROOT
HETATM    1  C2  UNL     1     -33.240  15.066  -4.519  1.00 20.00     0.006 C 
HETATM    2  C3  UNL     1     -34.011  14.586  -5.752  1.00 20.00     0.017 C 
HETATM    3  C4  UNL     1     -34.296  15.475  -3.502  1.00 20.00     0.069 C 
HETATM    4  C5  UNL     1     -37.258  17.268  -3.976  1.00 20.00     0.197 C 
HETATM    5  C6  UNL     1     -36.065  18.153  -4.208  1.00 20.00     0.197 C 
HETATM    6  C7  UNL     1     -35.476  14.991  -5.539  1.00 20.00     0.109 C 
HETATM    7  C8  UNL     1     -35.446  15.977  -4.366  1.00 20.00     0.173 C 
HETATM    8  O10 UNL     1     -36.670  16.015  -3.631  1.00 20.00    -0.352 OA
HETATM    9  O11 UNL     1     -35.143  17.290  -4.871  1.00 20.00    -0.352 OA
ENDROOT
BRANCH   6  10
HETATM   10  C1  UNL     1     -36.308  13.776  -5.251  1.00 20.00     0.241 C 
HETATM   11  O9  UNL     1     -35.860  12.633  -5.255  1.00 20.00    -0.306 OA
ENDBRANCH   6  10
TORSDOF 1
ENDMDL
MODEL 4
REMARK VINA RESULT:      -4.0     11.282     12.337
REMARK  1 active torsions:
REMARK  status: ('A' for Active; 'I' for Inactive)
REMARK    1  A    between atoms: C1_1  and  C7_7 
ROOT
HETATM    1  C2  UNL     1     -36.050  13.915  -7.836  1.00 20.00     0.006 C 
HETATM    2  C3  UNL     1     -36.999  14.950  -7.225  1.00 20.00     0.017 C 
HETATM    3  C4  UNL     1     -35.168  13.434  -6.692  1.00 20.00     0.069 C 
HETATM    4  C5  UNL     1     -33.641  15.270  -4.141  1.00 20.00     0.197 C 
HETATM    5  C6  UNL     1     -33.022  15.601  -5.469  1.00 20.00     0.197 C 
HETATM    6  C7  UNL     1     -36.467  15.257  -5.818  1.00 20.00     0.109 C 
HETATM    7  C8  UNL     1     -35.058  14.656  -5.790  1.00 20.00     0.173 C 
HETATM    8  O10 UNL     1     -34.627  14.295  -4.477  1.00 20.00    -0.352 OA
HETATM    9  O11 UNL     1     -34.137  15.604  -6.358  1.00 20.00    -0.352 OA
ENDROOT
BRANCH   6  10
HETATM   10  C1  UNL     1     -37.373  14.656  -4.785  1.00 20.00     0.241 C 
HETATM   11  O9  UNL     1     -38.252  13.840  -5.048  1.00 20.00    -0.306 OA
ENDBRANCH   6  10
TORSDOF 1
ENDMDL
MODEL 5
REMARK VINA RESULT:      -4.0     10.841     12.778
REMARK  1 active torsions:
REMARK  status: ('A' for Active; 'I' for Inactive)
REMARK    1  A    between atoms: C1_1  and  C7_7 
ROOT
HETATM    1  C2  UNL     1     -33.879  15.869  -3.511  1.00 20.00     0.006 C 
HETATM    2  C3  UNL     1     -33.798  14.466  -4.122  1.00 20.00     0.017 C 
HETATM    3  C4  UNL     1     -34.873  16.638  -4.370  1.00 20.00     0.069 C 
HETATM    4  C5  UNL     1     -35.224  16.698  -7.847  1.00 20.00     0.197 C 
HETATM    5  C6  UNL     1     -33.933  17.349  -7.438  1.00 20.00     0.197 C 
HETATM    6  C7  UNL     1     -34.518  14.535  -5.476  1.00 20.00     0.109 C 
HETATM    7  C8  UNL     1     -34.691  16.032  -5.755  1.00 20.00     0.173 C 
HETATM    8  O10 UNL     1     -35.806  16.321  -6.600  1.00 20.00    -0.352 OA
HETATM    9  O11 UNL     1     -33.484  16.534  -6.357  1.00 20.00    -0.352 OA
ENDROOT
BRANCH   6  10
HETATM   10  C1  UNL     1     -35.827  13.806  -5.399  1.00 20.00     0.241 C 
HETATM   11  O9  UNL     1     -35.917  12.594  -5.229  1.00 20.00    -0.306 OA
ENDBRANCH   6  10
TORSDOF 1
ENDMDL
MODEL 6
REMARK VINA RESULT:      -4.0     10.948     12.339
REMARK  1 active torsions:
REMARK  status: ('A' for Active; 'I' for Inactive)
REMARK    1  A    between atoms: C1_1  and  C7_7 
ROOT
HETATM    1  C2  UNL     1     -34.260  15.615  -7.310  1.00 20.00     0.006 C 
HETATM    2  C3  UNL     1     -35.598  15.151  -6.725  1.00 20.00     0.017 C 
HETATM    3  C4  UNL     1     -33.276  15.612  -6.148  1.00 20.00     0.069 C 
HETATM    4  C5  UNL     1     -33.719  16.704  -2.859  1.00 20.00     0.197 C 
HETATM    5  C6  UNL     1     -33.748  17.870  -3.807  1.00 20.00     0.197 C 
HETATM    6  C7  UNL     1     -35.437  15.164  -5.198  1.00 20.00     0.109 C 
HETATM    7  C8  UNL     1     -34.145  15.948  -4.944  1.00 20.00     0.173 C 
HETATM    8  O10 UNL     1     -33.501  15.590  -3.721  1.00 20.00    -0.352 OA
HETATM    9  O11 UNL     1     -34.451  17.355  -4.936  1.00 20.00    -0.352 OA
ENDROOT
BRANCH   6  10
HETATM   10  C1  UNL     1     -35.371  13.758  -4.678  1.00 20.00     0.241 C 
HETATM   11  O9  UNL     1     -35.908  12.805  -5.234  1.00 20.00    -0.306 OA
ENDBRANCH   6  10
TORSDOF 1
ENDMDL
MODEL 7
REMARK VINA RESULT:      -4.0     11.322     12.376
REMARK  1 active torsions:
REMARK  status: ('A' for Active; 'I' for Inactive)
REMARK    1  A    between atoms: C1_1  and  C7_7 
ROOT
HETATM    1  C2  UNL     1     -33.629  16.229  -4.345  1.00 20.00     0.006 C 
HETATM    2  C3  UNL     1     -34.582  15.421  -3.459  1.00 20.00     0.017 C 
HETATM    3  C4  UNL     1     -34.285  16.284  -5.717  1.00 20.00     0.069 C 
HETATM    4  C5  UNL     1     -35.917  13.762  -7.503  1.00 20.00     0.197 C 
HETATM    5  C6  UNL     1     -34.449  13.462  -7.392  1.00 20.00     0.197 C 
HETATM    6  C7  UNL     1     -35.620  14.787  -4.395  1.00 20.00     0.109 C 
HETATM    7  C8  UNL     1     -35.043  14.966  -5.803  1.00 20.00     0.173 C 
HETATM    8  O10 UNL     1     -36.045  15.008  -6.820  1.00 20.00    -0.352 OA
HETATM    9  O11 UNL     1     -34.127  13.889  -6.069  1.00 20.00    -0.352 OA
ENDROOT
BRANCH   6  10
HETATM   10  C1  UNL     1     -36.948  15.465  -4.223  1.00 20.00     0.241 C 
HETATM   11  O9  UNL     1     -38.015  14.862  -4.183  1.00 20.00    -0.306 OA
ENDBRANCH   6  10
TORSDOF 1
ENDMDL
MODEL 8
REMARK VINA RESULT:      -3.9     11.473     13.234
REMARK  1 active torsions:
REMARK  status: ('A' for Active; 'I' for Inactive)
REMARK    1  A    between atoms: C1_1  and  C7_7 
ROOT
HETATM    1  C2  UNL     1     -34.031  14.404  -7.878  1.00 20.00     0.006 C 
HETATM    2  C3  UNL     1     -35.431  13.801  -7.727  1.00 20.00     0.017 C 
HETATM    3  C4  UNL     1     -33.846  15.328  -6.682  1.00 20.00     0.069 C 
HETATM    4  C5  UNL     1     -36.098  17.583  -5.249  1.00 20.00     0.197 C 
HETATM    5  C6  UNL     1     -35.690  18.047  -6.619  1.00 20.00     0.197 C 
HETATM    6  C7  UNL     1     -36.133  14.595  -6.617  1.00 20.00     0.109 C 
HETATM    7  C8  UNL     1     -35.255  15.832  -6.401  1.00 20.00     0.173 C 
HETATM    8  O10 UNL     1     -35.360  16.374  -5.084  1.00 20.00    -0.352 OA
HETATM    9  O11 UNL     1     -35.620  16.834  -7.367  1.00 20.00    -0.352 OA
ENDROOT
BRANCH   6  10
HETATM   10  C1  UNL     1     -36.259  13.752  -5.383  1.00 20.00     0.241 C 
HETATM   11  O9  UNL     1     -35.818  12.610  -5.297  1.00 20.00    -0.306 OA
ENDBRANCH   6  10
TORSDOF 1
ENDMDL
MODEL 9
REMARK VINA RESULT:      -3.9     11.372     12.162
REMARK  1 active torsions:
REMARK  status: ('A' for Active; 'I' for Inactive)
REMARK    1  A    between atoms: C1_1  and  C7_7 
ROOT
HETATM    1  C2  UNL     1     -37.504  15.903  -5.183  1.00 20.00     0.006 C 
HETATM    2  C3  UNL     1     -37.453  14.375  -5.081  1.00 20.00     0.017 C 
HETATM    3  C4  UNL     1     -36.122  16.333  -5.654  1.00 20.00     0.069 C 
HETATM    4  C5  UNL     1     -32.976  15.188  -4.650  1.00 20.00     0.197 C 
HETATM    5  C6  UNL     1     -33.647  15.934  -3.530  1.00 20.00     0.197 C 
HETATM    6  C7  UNL     1     -35.977  13.975  -5.216  1.00 20.00     0.109 C 
HETATM    7  C8  UNL     1     -35.197  15.284  -5.051  1.00 20.00     0.173 C 
HETATM    8  O10 UNL     1     -33.929  15.269  -5.708  1.00 20.00    -0.352 OA
HETATM    9  O11 UNL     1     -35.013  15.540  -3.647  1.00 20.00    -0.352 OA
ENDROOT
BRANCH   6  10
HETATM   10  C1  UNL     1     -35.742  13.325  -6.548  1.00 20.00     0.241 C 
HETATM   11  O9  UNL     1     -35.087  12.298  -6.692  1.00 20.00    -0.306 OA
ENDBRANCH   6  10
TORSDOF 1
ENDMDL
