MODEL 1
REMARK VINA RESULT:      -4.8      0.000      0.000
REMARK  0 active torsions:
REMARK  status: ('A' for Active; 'I' for Inactive)
ROOT
HETATM    1  C1  UNL     1     -31.946   8.936   1.325  1.00 20.00     0.015 C 
HETATM    2  C2  UNL     1     -32.198   8.090   2.139  1.00 20.00    -0.083 C 
HETATM    3  C3  UNL     1     -33.045   7.629   4.417  1.00 20.00     0.216 C 
HETATM    4  C4  UNL     1     -32.504   7.060   3.127  1.00 20.00     0.226 C 
HETATM    5  C5  UNL     1     -34.248   5.791   3.858  1.00 20.00     0.158 C 
HETATM    6  C6  UNL     1     -35.742   6.034   3.681  1.00 20.00     0.078 C 
HETATM    7  C7  UNL     1     -33.952   4.316   4.099  1.00 20.00     0.078 C 
HETATM    8  O8  UNL     1     -33.774   6.542   4.986  1.00 20.00    -0.352 OA
HETATM    9  O9  UNL     1     -33.569   6.220   2.668  1.00 20.00    -0.336 OA
ENDROOT
TORSDOF 0
ENDMDL
MODEL 2
REMARK VINA RESULT:      -4.6      1.804      4.168
REMARK  0 active torsions:
REMARK  status: ('A' for Active; 'I' for Inactive)
ROOT
HETATM    1  C1  UNL     1     -33.701   4.990   3.333  1.00 20.00     0.015 C 
HETATM    2  C2  UNL     1     -33.457   6.158   3.198  1.00 20.00    -0.083 C 
HETATM    3  C3  UNL     1     -31.775   7.946   3.502  1.00 20.00     0.216 C 
HETATM    4  C4  UNL     1     -33.162   7.578   3.033  1.00 20.00     0.226 C 
HETATM    5  C5  UNL     1     -32.199   9.010   1.545  1.00 20.00     0.158 C 
HETATM    6  C6  UNL     1     -31.219   8.697   0.421  1.00 20.00     0.078 C 
HETATM    7  C7  UNL     1     -32.950  10.309   1.280  1.00 20.00     0.078 C 
HETATM    8  O8  UNL     1     -31.481   9.142   2.781  1.00 20.00    -0.352 OA
HETATM    9  O9  UNL     1     -33.143   7.931   1.645  1.00 20.00    -0.336 OA
ENDROOT
TORSDOF 0
ENDMDL
MODEL 3
REMARK VINA RESULT:      -3.9     11.168     11.974
REMARK  0 active torsions:
REMARK  status: ('A' for Active; 'I' for Inactive)
ROOT
HETATM    1  C1  UNL     1     -33.875  17.015  -1.942  1.00 20.00     0.015 C 
HETATM    2  C2  UNL     1     -33.841  16.497  -3.025  1.00 20.00    -0.083 C 
HETATM    3  C3  UNL     1     -33.212  14.478  -4.309  1.00 20.00     0.216 C 
HETATM    4  C4  UNL     1     -33.800  15.869  -4.341  1.00 20.00     0.226 C 
HETATM    5  C5  UNL     1     -35.030  14.480  -5.663  1.00 20.00     0.158 C 
HETATM    6  C6  UNL     1     -36.131  13.508  -5.257  1.00 20.00     0.078 C 
HETATM    7  C7  UNL     1     -35.161  14.885  -7.126  1.00 20.00     0.078 C 
HETATM    8  O8  UNL     1     -33.751  13.856  -5.474  1.00 20.00    -0.352 OA
HETATM    9  O9  UNL     1     -35.126  15.652  -4.839  1.00 20.00    -0.336 OA
ENDROOT
TORSDOF 0
ENDMDL
MODEL 4
REMARK VINA RESULT:      -3.9      1.277      3.778
REMARK  0 active torsions:
REMARK  status: ('A' for Active; 'I' for Inactive)
ROOT
HETATM    1  C1  UNL     1     -34.091   3.741   4.393  1.00 20.00     0.015 C 
HETATM    2  C2  UNL     1     -34.030   4.807   3.844  1.00 20.00    -0.083 C 
HETATM    3  C3  UNL     1     -34.293   7.254   4.092  1.00 20.00     0.216 C 
HETATM    4  C4  UNL     1     -33.954   6.103   3.176  1.00 20.00     0.226 C 
HETATM    5  C5  UNL     1     -32.496   7.818   2.831  1.00 20.00     0.158 C 
HETATM    6  C6  UNL     1     -31.246   8.178   3.623  1.00 20.00     0.078 C 
HETATM    7  C7  UNL     1     -32.430   8.369   1.412  1.00 20.00     0.078 C 
HETATM    8  O8  UNL     1     -33.649   8.372   3.482  1.00 20.00    -0.352 OA
HETATM    9  O9  UNL     1     -32.609   6.387   2.776  1.00 20.00    -0.336 OA
ENDROOT
TORSDOF 0
ENDMDL
MODEL 5
REMARK VINA RESULT:      -3.8     11.266     12.374
REMARK  0 active torsions:
REMARK  status: ('A' for Active; 'I' for Inactive)
ROOT
HETATM    1  C1  UNL     1     -38.658  14.700  -5.205  1.00 20.00     0.015 C 
HETATM    2  C2  UNL     1     -37.511  14.350  -5.133  1.00 20.00    -0.083 C 
HETATM    3  C3  UNL     1     -35.598  13.349  -6.341  1.00 20.00     0.216 C 
HETATM    4  C4  UNL     1     -36.117  13.926  -5.046  1.00 20.00     0.226 C 
HETATM    5  C5  UNL     1     -34.016  14.706  -5.450  1.00 20.00     0.158 C 
HETATM    6  C6  UNL     1     -33.585  15.861  -6.346  1.00 20.00     0.078 C 
HETATM    7  C7  UNL     1     -32.974  14.422  -4.375  1.00 20.00     0.078 C 
HETATM    8  O8  UNL     1     -34.185  13.523  -6.246  1.00 20.00    -0.352 OA
HETATM    9  O9  UNL     1     -35.260  15.052  -4.822  1.00 20.00    -0.336 OA
ENDROOT
TORSDOF 0
ENDMDL
MODEL 6
REMARK VINA RESULT:      -3.7     11.258     12.041
REMARK  0 active torsions:
REMARK  status: ('A' for Active; 'I' for Inactive)
ROOT
HETATM    1  C1  UNL     1     -33.674  17.320  -1.543  1.00 20.00     0.015 C 
HETATM    2  C2  UNL     1     -34.385  16.719  -2.302  1.00 20.00    -0.083 C 
HETATM    3  C3  UNL     1     -35.674  16.819  -4.411  1.00 20.00     0.216 C 
HETATM    4  C4  UNL     1     -35.248  15.989  -3.225  1.00 20.00     0.226 C 
HETATM    5  C5  UNL     1     -35.128  14.739  -5.126  1.00 20.00     0.158 C 
HETATM    6  C6  UNL     1     -34.014  14.690  -6.164  1.00 20.00     0.078 C 
HETATM    7  C7  UNL     1     -35.957  13.460  -5.143  1.00 20.00     0.078 C 
HETATM    8  O8  UNL     1     -35.994  15.849  -5.407  1.00 20.00    -0.352 OA
HETATM    9  O9  UNL     1     -34.538  14.900  -3.826  1.00 20.00    -0.336 OA
ENDROOT
TORSDOF 0
ENDMDL
MODEL 7
REMARK VINA RESULT:      -3.5      2.060      4.060
REMARK  0 active torsions:
REMARK  status: ('A' for Active; 'I' for Inactive)
ROOT
HETATM    1  C1  UNL     1     -33.648   7.364   5.887  1.00 20.00     0.015 C 
HETATM    2  C2  UNL     1     -33.218   7.361   4.765  1.00 20.00    -0.083 C 
HETATM    3  C3  UNL     1     -33.770   7.151   2.363  1.00 20.00     0.216 C 
HETATM    4  C4  UNL     1     -32.695   7.360   3.403  1.00 20.00     0.226 C 
HETATM    5  C5  UNL     1     -32.357   8.774   1.650  1.00 20.00     0.158 C 
HETATM    6  C6  UNL     1     -33.016  10.120   1.372  1.00 20.00     0.078 C 
HETATM    7  C7  UNL     1     -31.012   8.661   0.943  1.00 20.00     0.078 C 
HETATM    8  O8  UNL     1     -33.210   7.720   1.180  1.00 20.00    -0.352 OA
HETATM    9  O9  UNL     1     -32.159   8.644   3.066  1.00 20.00    -0.336 OA
ENDROOT
TORSDOF 0
ENDMDL
MODEL 8
REMARK VINA RESULT:      -3.5     11.219     12.178
REMARK  0 active torsions:
REMARK  status: ('A' for Active; 'I' for Inactive)
ROOT
HETATM    1  C1  UNL     1     -35.933  13.313  -5.269  1.00 20.00     0.015 C 
HETATM    2  C2  UNL     1     -35.223  14.078  -4.676  1.00 20.00    -0.083 C 
HETATM    3  C3  UNL     1     -33.680  16.003  -4.864  1.00 20.00     0.216 C 
HETATM    4  C4  UNL     1     -34.361  15.009  -3.954  1.00 20.00     0.226 C 
HETATM    5  C5  UNL     1     -34.415  17.081  -3.010  1.00 20.00     0.158 C 
HETATM    6  C6  UNL     1     -35.387  18.223  -3.277  1.00 20.00     0.078 C 
HETATM    7  C7  UNL     1     -33.774  17.210  -1.634  1.00 20.00     0.078 C 
HETATM    8  O8  UNL     1     -33.376  17.098  -4.001  1.00 20.00    -0.352 OA
HETATM    9  O9  UNL     1     -35.134  15.840  -3.081  1.00 20.00    -0.336 OA
ENDROOT
TORSDOF 0
ENDMDL
MODEL 9
REMARK VINA RESULT:      -3.4     11.403     12.342
REMARK  0 active torsions:
REMARK  status: ('A' for Active; 'I' for Inactive)
ROOT
HETATM    1  C1  UNL     1     -32.288  18.459  -0.656  1.00 20.00     0.015 C 
HETATM    2  C2  UNL     1     -33.011  18.071  -1.533  1.00 20.00    -0.083 C 
HETATM    3  C3  UNL     1     -33.404  17.986  -3.975  1.00 20.00     0.216 C 
HETATM    4  C4  UNL     1     -33.890  17.599  -2.599  1.00 20.00     0.226 C 
HETATM    5  C5  UNL     1     -34.131  15.840  -4.026  1.00 20.00     0.158 C 
HETATM    6  C6  UNL     1     -33.087  14.820  -4.465  1.00 20.00     0.078 C 
HETATM    7  C7  UNL     1     -35.543  15.288  -4.181  1.00 20.00     0.078 C 
HETATM    8  O8  UNL     1     -34.012  17.021  -4.832  1.00 20.00    -0.352 OA
HETATM    9  O9  UNL     1     -33.902  16.167  -2.646  1.00 20.00    -0.336 OA
ENDROOT
TORSDOF 0
ENDMDL
