MODEL 1
REMARK VINA RESULT:      -5.2      0.000      0.000
REMARK  1 active torsions:
REMARK  status: ('A' for Active; 'I' for Inactive)
REMARK    1  A    between atoms: C1_1  and  C3_3 
ROOT
HETATM    1  C2  UNL     1     -35.075   6.280   3.340  1.00 20.00     0.084 A 
HETATM    2  C3  UNL     1     -33.563   6.232   3.252  1.00 20.00     0.087 A 
HETATM    3  C4  UNL     1     -34.264   6.301   4.602  1.00 20.00     0.195 A 
HETATM    4  C5  UNL     1     -32.943   4.937   2.790  1.00 20.00     0.029 C 
HETATM    5  F7  UNL     1     -34.214   7.530   5.257  1.00 20.00    -0.224 F 
HETATM    6 CL9  UNL     1     -34.327   4.905   5.663  1.00 20.00    -0.081 Cl
ENDROOT
BRANCH   2   7
HETATM    7  C1  UNL     1     -32.878   7.471   2.812  1.00 20.00     0.231 C 
HETATM    8  O6  UNL     1     -33.237   8.087   1.813  1.00 20.00    -0.279 OA
HETATM    9 CL8  UNL     1     -31.563   7.901   3.863  1.00 20.00    -0.043 Cl
ENDBRANCH   2   7
TORSDOF 1
ENDMDL
MODEL 2
REMARK VINA RESULT:      -4.8      2.005      3.434
REMARK  1 active torsions:
REMARK  status: ('A' for Active; 'I' for Inactive)
REMARK    1  A    between atoms: C1_1  and  C3_3 
ROOT
HETATM    1  C2  UNL     1     -34.057   8.046   3.408  1.00 20.00     0.084 A 
HETATM    2  C3  UNL     1     -33.864   7.026   4.511  1.00 20.00     0.087 A 
HETATM    3  C4  UNL     1     -32.837   7.174   3.396  1.00 20.00     0.195 A 
HETATM    4  C5  UNL     1     -33.559   7.554   5.890  1.00 20.00     0.029 C 
HETATM    5  F7  UNL     1     -32.833   6.170   2.429  1.00 20.00    -0.224 F 
HETATM    6 CL9  UNL     1     -31.274   7.911   3.695  1.00 20.00    -0.081 Cl
ENDROOT
BRANCH   2   7
HETATM    7  C1  UNL     1     -34.712   5.811   4.456  1.00 20.00     0.231 C 
HETATM    8  O6  UNL     1     -35.649   5.713   3.669  1.00 20.00    -0.279 OA
HETATM    9 CL8  UNL     1     -34.210   4.609   5.606  1.00 20.00    -0.043 Cl
ENDBRANCH   2   7
TORSDOF 1
ENDMDL
MODEL 3
REMARK VINA RESULT:      -4.6      1.950      2.033
REMARK  1 active torsions:
REMARK  status: ('A' for Active; 'I' for Inactive)
REMARK    1  A    between atoms: C1_1  and  C3_3 
ROOT
HETATM    1  C2  UNL     1     -35.276   5.971   4.011  1.00 20.00     0.084 A 
HETATM    2  C3  UNL     1     -33.796   6.288   3.957  1.00 20.00     0.087 A 
HETATM    3  C4  UNL     1     -34.303   5.052   4.689  1.00 20.00     0.195 A 
HETATM    4  C5  UNL     1     -33.111   6.143   2.621  1.00 20.00     0.029 C 
HETATM    5  F7  UNL     1     -34.294   5.117   6.081  1.00 20.00    -0.224 F 
HETATM    6 CL9  UNL     1     -34.065   3.445   4.027  1.00 20.00    -0.081 Cl
ENDROOT
BRANCH   2   7
HETATM    7  C1  UNL     1     -33.317   7.399   4.813  1.00 20.00     0.231 C 
HETATM    8  O6  UNL     1     -33.864   7.677   5.876  1.00 20.00    -0.279 OA
HETATM    9 CL8  UNL     1     -31.939   8.207   4.128  1.00 20.00    -0.043 Cl
ENDBRANCH   2   7
TORSDOF 1
ENDMDL
MODEL 4
REMARK VINA RESULT:      -4.5      2.703      3.036
REMARK  1 active torsions:
REMARK  status: ('A' for Active; 'I' for Inactive)
REMARK    1  A    between atoms: C1_1  and  C3_3 
ROOT
HETATM    1  C2  UNL     1     -35.172   5.775   3.395  1.00 20.00     0.084 A 
HETATM    2  C3  UNL     1     -33.995   6.387   4.127  1.00 20.00     0.087 A 
HETATM    3  C4  UNL     1     -33.946   4.946   3.638  1.00 20.00     0.195 A 
HETATM    4  C5  UNL     1     -33.215   7.455   3.401  1.00 20.00     0.029 C 
HETATM    5  F7  UNL     1     -34.077   3.962   4.615  1.00 20.00    -0.224 F 
HETATM    6 CL9  UNL     1     -32.956   4.488   2.264  1.00 20.00    -0.081 Cl
ENDROOT
BRANCH   2   7
HETATM    7  C1  UNL     1     -34.139   6.572   5.591  1.00 20.00     0.231 C 
HETATM    8  O6  UNL     1     -34.921   5.895   6.252  1.00 20.00    -0.279 OA
HETATM    9 CL8  UNL     1     -33.093   7.819   6.199  1.00 20.00    -0.043 Cl
ENDBRANCH   2   7
TORSDOF 1
ENDMDL
MODEL 5
REMARK VINA RESULT:      -4.4      1.914      3.369
REMARK  1 active torsions:
REMARK  status: ('A' for Active; 'I' for Inactive)
REMARK    1  A    between atoms: C1_1  and  C3_3 
ROOT
HETATM    1  C2  UNL     1     -32.812   5.788   3.091  1.00 20.00     0.084 A 
HETATM    2  C3  UNL     1     -34.002   6.477   3.730  1.00 20.00     0.087 A 
HETATM    3  C4  UNL     1     -32.805   7.281   3.239  1.00 20.00     0.195 A 
HETATM    4  C5  UNL     1     -35.290   6.489   2.946  1.00 20.00     0.029 C 
HETATM    5  F7  UNL     1     -31.954   7.777   4.225  1.00 20.00    -0.224 F 
HETATM    6 CL9  UNL     1     -32.908   8.268   1.793  1.00 20.00    -0.081 Cl
ENDROOT
BRANCH   2   7
HETATM    7  C1  UNL     1     -34.139   6.349   5.201  1.00 20.00     0.231 C 
HETATM    8  O6  UNL     1     -34.017   7.315   5.946  1.00 20.00    -0.279 OA
HETATM    9 CL8  UNL     1     -34.484   4.716   5.686  1.00 20.00    -0.043 Cl
ENDBRANCH   2   7
TORSDOF 1
ENDMDL
MODEL 6
REMARK VINA RESULT:      -4.1     11.773     12.416
REMARK  1 active torsions:
REMARK  status: ('A' for Active; 'I' for Inactive)
REMARK    1  A    between atoms: C1_1  and  C3_3 
ROOT
HETATM    1  C2  UNL     1     -33.497  15.785  -5.747  1.00 20.00     0.084 A 
HETATM    2  C3  UNL     1     -34.776  15.096  -5.315  1.00 20.00     0.087 A 
HETATM    3  C4  UNL     1     -33.589  15.202  -4.367  1.00 20.00     0.195 A 
HETATM    4  C5  UNL     1     -35.989  15.969  -5.104  1.00 20.00     0.029 C 
HETATM    5  F7  UNL     1     -32.859  14.032  -4.166  1.00 20.00    -0.224 F 
HETATM    6 CL9  UNL     1     -33.619  16.294  -2.995  1.00 20.00    -0.081 Cl
ENDROOT
BRANCH   2   7
HETATM    7  C1  UNL     1     -35.037  13.751  -5.882  1.00 20.00     0.231 C 
HETATM    8  O6  UNL     1     -35.676  12.904  -5.266  1.00 20.00    -0.279 OA
HETATM    9 CL8  UNL     1     -34.343  13.562  -7.464  1.00 20.00    -0.043 Cl
ENDBRANCH   2   7
TORSDOF 1
ENDMDL
MODEL 7
REMARK VINA RESULT:      -4.1      1.981      3.162
REMARK  1 active torsions:
REMARK  status: ('A' for Active; 'I' for Inactive)
REMARK    1  A    between atoms: C1_1  and  C3_3 
ROOT
HETATM    1  C2  UNL     1     -32.212   7.480   3.820  1.00 20.00     0.084 A 
HETATM    2  C3  UNL     1     -33.303   6.540   3.348  1.00 20.00     0.087 A 
HETATM    3  C4  UNL     1     -33.177   7.943   2.769  1.00 20.00     0.195 A 
HETATM    4  C5  UNL     1     -32.874   5.347   2.530  1.00 20.00     0.029 C 
HETATM    5  F7  UNL     1     -34.125   8.870   3.198  1.00 20.00    -0.224 F 
HETATM    6 CL9  UNL     1     -32.583   8.201   1.139  1.00 20.00    -0.081 Cl
ENDROOT
BRANCH   2   7
HETATM    7  C1  UNL     1     -34.441   6.317   4.271  1.00 20.00     0.231 C 
HETATM    8  O6  UNL     1     -35.494   5.818   3.888  1.00 20.00    -0.279 OA
HETATM    9 CL8  UNL     1     -34.083   6.840   5.889  1.00 20.00    -0.043 Cl
ENDBRANCH   2   7
TORSDOF 1
ENDMDL
MODEL 8
REMARK VINA RESULT:      -4.0      2.318      2.516
REMARK  1 active torsions:
REMARK  status: ('A' for Active; 'I' for Inactive)
REMARK    1  A    between atoms: C1_1  and  C3_3 
ROOT
HETATM    1  C2  UNL     1     -35.316   6.480   3.932  1.00 20.00     0.084 A 
HETATM    2  C3  UNL     1     -34.202   5.453   3.953  1.00 20.00     0.087 A 
HETATM    3  C4  UNL     1     -33.975   6.862   4.486  1.00 20.00     0.195 A 
HETATM    4  C5  UNL     1     -34.348   4.299   4.913  1.00 20.00     0.029 C 
HETATM    5  F7  UNL     1     -33.218   7.708   3.679  1.00 20.00    -0.224 F 
HETATM    6 CL9  UNL     1     -33.834   7.167   6.208  1.00 20.00    -0.081 Cl
ENDROOT
BRANCH   2   7
HETATM    7  C1  UNL     1     -33.557   5.139   2.655  1.00 20.00     0.231 C 
HETATM    8  O6  UNL     1     -32.587   4.390   2.581  1.00 20.00    -0.279 OA
HETATM    9 CL8  UNL     1     -34.337   5.942   1.326  1.00 20.00    -0.043 Cl
ENDBRANCH   2   7
TORSDOF 1
ENDMDL
MODEL 9
REMARK VINA RESULT:      -3.9     11.833     12.492
REMARK  1 active torsions:
REMARK  status: ('A' for Active; 'I' for Inactive)
REMARK    1  A    between atoms: C1_1  and  C3_3 
ROOT
HETATM    1  C2  UNL     1     -33.381  14.363  -4.451  1.00 20.00     0.084 A 
HETATM    2  C3  UNL     1     -34.402  14.732  -5.507  1.00 20.00     0.087 A 
HETATM    3  C4  UNL     1     -34.234  15.580  -4.254  1.00 20.00     0.195 A 
HETATM    4  C5  UNL     1     -33.873  15.229  -6.830  1.00 20.00     0.029 C 
HETATM    5  F7  UNL     1     -35.234  15.456  -3.291  1.00 20.00    -0.224 F 
HETATM    6 CL9  UNL     1     -33.473  17.159  -4.323  1.00 20.00    -0.081 Cl
ENDROOT
BRANCH   2   7
HETATM    7  C1  UNL     1     -35.630  13.903  -5.571  1.00 20.00     0.231 C 
HETATM    8  O6  UNL     1     -35.647  12.744  -5.167  1.00 20.00    -0.279 OA
HETATM    9 CL8  UNL     1     -36.968  14.768  -6.264  1.00 20.00    -0.043 Cl
ENDBRANCH   2   7
TORSDOF 1
ENDMDL
