MODEL 1
REMARK VINA RESULT:      -4.9      0.000      0.000
REMARK  0 active torsions:
REMARK  status: ('A' for Active; 'I' for Inactive)
ROOT
HETATM    1  C1  UNL     1     -32.094   9.075   1.345  1.00 20.00     0.015 C 
HETATM    2  C2  UNL     1     -32.321   8.239   2.176  1.00 20.00    -0.083 C 
HETATM    3  C3  UNL     1     -32.759   5.841   2.599  1.00 20.00     0.216 C 
HETATM    4  C4  UNL     1     -32.596   7.222   3.187  1.00 20.00     0.226 C 
HETATM    5  C5  UNL     1     -34.354   6.164   4.177  1.00 20.00     0.158 C 
HETATM    6  C6  UNL     1     -35.784   6.028   3.671  1.00 20.00     0.078 C 
HETATM    7  C7  UNL     1     -34.284   6.008   5.690  1.00 20.00     0.078 C 
HETATM    8  O8  UNL     1     -33.538   5.148   3.574  1.00 20.00    -0.352 OA
HETATM    9  O9  UNL     1     -33.861   7.463   3.813  1.00 20.00    -0.336 OA
ENDROOT
TORSDOF 0
ENDMDL
MODEL 2
REMARK VINA RESULT:      -4.8      1.554      4.126
REMARK  0 active torsions:
REMARK  status: ('A' for Active; 'I' for Inactive)
ROOT
HETATM    1  C1  UNL     1     -34.921   5.881   4.055  1.00 20.00     0.015 C 
HETATM    2  C2  UNL     1     -33.959   6.375   3.534  1.00 20.00    -0.083 C 
HETATM    3  C3  UNL     1     -32.074   7.956   3.799  1.00 20.00     0.216 C 
HETATM    4  C4  UNL     1     -32.789   6.976   2.900  1.00 20.00     0.226 C 
HETATM    5  C5  UNL     1     -32.196   8.826   1.710  1.00 20.00     0.158 C 
HETATM    6  C6  UNL     1     -32.916  10.166   1.620  1.00 20.00     0.078 C 
HETATM    7  C7  UNL     1     -31.306   8.593   0.495  1.00 20.00     0.078 C 
HETATM    8  O8  UNL     1     -31.376   8.805   2.888  1.00 20.00    -0.352 OA
HETATM    9  O9  UNL     1     -33.180   7.782   1.782  1.00 20.00    -0.336 OA
ENDROOT
TORSDOF 0
ENDMDL
MODEL 3
REMARK VINA RESULT:      -4.4      1.243      1.818
REMARK  0 active torsions:
REMARK  status: ('A' for Active; 'I' for Inactive)
ROOT
HETATM    1  C1  UNL     1     -31.766   9.257   0.531  1.00 20.00     0.015 C 
HETATM    2  C2  UNL     1     -32.379   8.755   1.433  1.00 20.00    -0.083 C 
HETATM    3  C3  UNL     1     -32.240   7.745   3.688  1.00 20.00     0.216 C 
HETATM    4  C4  UNL     1     -33.124   8.144   2.530  1.00 20.00     0.226 C 
HETATM    5  C5  UNL     1     -33.742   6.092   3.302  1.00 20.00     0.158 C 
HETATM    6  C6  UNL     1     -33.125   4.736   2.985  1.00 20.00     0.078 C 
HETATM    7  C7  UNL     1     -35.187   5.949   3.764  1.00 20.00     0.078 C 
HETATM    8  O8  UNL     1     -32.988   6.724   4.347  1.00 20.00    -0.352 OA
HETATM    9  O9  UNL     1     -33.703   6.901   2.116  1.00 20.00    -0.336 OA
ENDROOT
TORSDOF 0
ENDMDL
MODEL 4
REMARK VINA RESULT:      -4.3      1.184      3.778
REMARK  0 active torsions:
REMARK  status: ('A' for Active; 'I' for Inactive)
ROOT
HETATM    1  C1  UNL     1     -34.820   5.069   5.872  1.00 20.00     0.015 C 
HETATM    2  C2  UNL     1     -34.508   5.608   4.845  1.00 20.00    -0.083 C 
HETATM    3  C3  UNL     1     -33.014   5.548   2.874  1.00 20.00     0.216 C 
HETATM    4  C4  UNL     1     -34.130   6.264   3.596  1.00 20.00     0.226 C 
HETATM    5  C5  UNL     1     -32.631   7.781   2.797  1.00 20.00     0.158 C 
HETATM    6  C6  UNL     1     -31.308   8.220   3.411  1.00 20.00     0.078 C 
HETATM    7  C7  UNL     1     -33.180   8.839   1.849  1.00 20.00     0.078 C 
HETATM    8  O8  UNL     1     -32.432   6.565   2.060  1.00 20.00    -0.352 OA
HETATM    9  O9  UNL     1     -33.576   7.559   3.855  1.00 20.00    -0.336 OA
ENDROOT
TORSDOF 0
ENDMDL
MODEL 5
REMARK VINA RESULT:      -3.8     10.799     12.184
REMARK  0 active torsions:
REMARK  status: ('A' for Active; 'I' for Inactive)
ROOT
HETATM    1  C1  UNL     1     -33.683  16.978  -2.275  1.00 20.00     0.015 C 
HETATM    2  C2  UNL     1     -34.285  16.253  -3.020  1.00 20.00    -0.083 C 
HETATM    3  C3  UNL     1     -34.337  14.039  -4.123  1.00 20.00     0.216 C 
HETATM    4  C4  UNL     1     -35.017  15.373  -3.926  1.00 20.00     0.226 C 
HETATM    5  C5  UNL     1     -35.087  14.788  -6.127  1.00 20.00     0.158 C 
HETATM    6  C6  UNL     1     -34.007  14.957  -7.187  1.00 20.00     0.078 C 
HETATM    7  C7  UNL     1     -36.471  14.689  -6.757  1.00 20.00     0.078 C 
HETATM    8  O8  UNL     1     -34.838  13.587  -5.381  1.00 20.00    -0.352 OA
HETATM    9  O9  UNL     1     -35.048  15.923  -5.248  1.00 20.00    -0.336 OA
ENDROOT
TORSDOF 0
ENDMDL
MODEL 6
REMARK VINA RESULT:      -3.6     11.303     12.000
REMARK  0 active torsions:
REMARK  status: ('A' for Active; 'I' for Inactive)
ROOT
HETATM    1  C1  UNL     1     -33.775  17.454  -1.748  1.00 20.00     0.015 C 
HETATM    2  C2  UNL     1     -33.922  16.582  -2.559  1.00 20.00    -0.083 C 
HETATM    3  C3  UNL     1     -33.459  15.841  -4.874  1.00 20.00     0.216 C 
HETATM    4  C4  UNL     1     -34.101  15.520  -3.546  1.00 20.00     0.226 C 
HETATM    5  C5  UNL     1     -35.498  14.922  -5.243  1.00 20.00     0.158 C 
HETATM    6  C6  UNL     1     -36.457  15.800  -6.035  1.00 20.00     0.078 C 
HETATM    7  C7  UNL     1     -35.923  13.459  -5.285  1.00 20.00     0.078 C 
HETATM    8  O8  UNL     1     -34.181  15.032  -5.802  1.00 20.00    -0.352 OA
HETATM    9  O9  UNL     1     -35.486  15.371  -3.879  1.00 20.00    -0.336 OA
ENDROOT
TORSDOF 0
ENDMDL
MODEL 7
REMARK VINA RESULT:      -3.6     11.024     12.232
REMARK  0 active torsions:
REMARK  status: ('A' for Active; 'I' for Inactive)
ROOT
HETATM    1  C1  UNL     1     -37.647  15.435  -7.616  1.00 20.00     0.015 C 
HETATM    2  C2  UNL     1     -36.707  15.000  -7.011  1.00 20.00    -0.083 C 
HETATM    3  C3  UNL     1     -35.963  13.525  -5.169  1.00 20.00     0.216 C 
HETATM    4  C4  UNL     1     -35.562  14.471  -6.275  1.00 20.00     0.226 C 
HETATM    5  C5  UNL     1     -34.328  14.898  -4.409  1.00 20.00     0.158 C 
HETATM    6  C6  UNL     1     -34.710  15.727  -3.189  1.00 20.00     0.078 C 
HETATM    7  C7  UNL     1     -32.815  14.802  -4.561  1.00 20.00     0.078 C 
HETATM    8  O8  UNL     1     -34.858  13.572  -4.267  1.00 20.00    -0.352 OA
HETATM    9  O9  UNL     1     -34.882  15.521  -5.578  1.00 20.00    -0.336 OA
ENDROOT
TORSDOF 0
ENDMDL
MODEL 8
REMARK VINA RESULT:      -3.5     11.133     12.779
REMARK  0 active torsions:
REMARK  status: ('A' for Active; 'I' for Inactive)
ROOT
HETATM    1  C1  UNL     1     -38.629  15.137  -4.611  1.00 20.00     0.015 C 
HETATM    2  C2  UNL     1     -37.665  14.666  -5.148  1.00 20.00    -0.083 C 
HETATM    3  C3  UNL     1     -35.439  13.636  -4.820  1.00 20.00     0.216 C 
HETATM    4  C4  UNL     1     -36.491  14.093  -5.801  1.00 20.00     0.226 C 
HETATM    5  C5  UNL     1     -34.426  14.702  -6.544  1.00 20.00     0.158 C 
HETATM    6  C6  UNL     1     -33.593  15.912  -6.141  1.00 20.00     0.078 C 
HETATM    7  C7  UNL     1     -34.021  14.183  -7.918  1.00 20.00     0.078 C 
HETATM    8  O8  UNL     1     -34.234  13.652  -5.584  1.00 20.00    -0.352 OA
HETATM    9  O9  UNL     1     -35.809  15.087  -6.574  1.00 20.00    -0.336 OA
ENDROOT
TORSDOF 0
ENDMDL
MODEL 9
REMARK VINA RESULT:      -3.5     10.899     12.080
REMARK  0 active torsions:
REMARK  status: ('A' for Active; 'I' for Inactive)
ROOT
HETATM    1  C1  UNL     1     -35.446  17.360  -0.079  1.00 20.00     0.015 C 
HETATM    2  C2  UNL     1     -35.203  17.274  -1.251  1.00 20.00    -0.083 C 
HETATM    3  C3  UNL     1     -36.115  16.787  -3.499  1.00 20.00     0.216 C 
HETATM    4  C4  UNL     1     -34.907  17.169  -2.677  1.00 20.00     0.226 C 
HETATM    5  C5  UNL     1     -34.320  15.615  -4.236  1.00 20.00     0.158 C 
HETATM    6  C6  UNL     1     -34.480  14.102  -4.172  1.00 20.00     0.078 C 
HETATM    7  C7  UNL     1     -33.217  16.015  -5.208  1.00 20.00     0.078 C 
HETATM    8  O8  UNL     1     -35.552  16.205  -4.675  1.00 20.00    -0.352 OA
HETATM    9  O9  UNL     1     -33.990  16.097  -2.924  1.00 20.00    -0.336 OA
ENDROOT
TORSDOF 0
ENDMDL
