MODEL 1
REMARK VINA RESULT:      -5.0      0.000      0.000
REMARK  2 active torsions:
REMARK  status: ('A' for Active; 'I' for Inactive)
REMARK    1  A    between atoms: C2_2  and  C5_5 
REMARK    2  A    between atoms: C2_2  and  O9_9 
ROOT
HETATM    1  C1  UNL     1     -33.659   4.925   3.376  1.00 20.00     0.140 C 
HETATM    2  C3  UNL     1     -34.360   4.165   4.515  1.00 20.00     0.080 C 
HETATM    3  C4  UNL     1     -34.808   5.540   5.061  1.00 20.00     0.030 C 
HETATM    4  C5  UNL     1     -34.349   6.251   3.760  1.00 20.00     0.155 C 
HETATM    5  O7  UNL     1     -32.870   4.599   2.515  1.00 20.00    -0.297 OA
ENDROOT
BRANCH   4   6
HETATM    6  C2  UNL     1     -33.324   7.380   3.855  1.00 20.00     0.269 C 
HETATM    7  O8  UNL     1     -32.736   7.688   4.883  1.00 20.00    -0.264 OA
BRANCH   6   8
HETATM    8  O9  UNL     1     -33.182   7.970   2.634  1.00 20.00    -0.326 OA
HETATM    9  C6  UNL     1     -31.850   8.372   2.297  1.00 20.00     0.213 C 
ENDBRANCH   6   8
ENDBRANCH   4   6
TORSDOF 2
ENDMDL
MODEL 2
REMARK VINA RESULT:      -5.0      1.232      1.799
REMARK  2 active torsions:
REMARK  status: ('A' for Active; 'I' for Inactive)
REMARK    1  A    between atoms: C2_2  and  C5_5 
REMARK    2  A    between atoms: C2_2  and  O9_9 
ROOT
HETATM    1  C1  UNL     1     -34.521   4.946   4.630  1.00 20.00     0.140 C 
HETATM    2  C3  UNL     1     -34.521   5.559   6.041  1.00 20.00     0.080 C 
HETATM    3  C4  UNL     1     -34.088   6.890   5.385  1.00 20.00     0.030 C 
HETATM    4  C5  UNL     1     -34.378   6.331   3.966  1.00 20.00     0.155 C 
HETATM    5  O7  UNL     1     -34.602   3.811   4.212  1.00 20.00    -0.297 OA
ENDROOT
BRANCH   4   6
HETATM    6  C2  UNL     1     -33.254   6.316   2.931  1.00 20.00     0.269 C 
HETATM    7  O8  UNL     1     -32.658   5.306   2.582  1.00 20.00    -0.264 OA
BRANCH   6   8
HETATM    8  O9  UNL     1     -33.034   7.583   2.478  1.00 20.00    -0.326 OA
HETATM    9  C6  UNL     1     -31.775   8.157   2.845  1.00 20.00     0.213 C 
ENDBRANCH   6   8
ENDBRANCH   4   6
TORSDOF 2
ENDMDL
MODEL 3
REMARK VINA RESULT:      -4.6      1.716      2.249
REMARK  2 active torsions:
REMARK  status: ('A' for Active; 'I' for Inactive)
REMARK    1  A    between atoms: C2_2  and  C5_5 
REMARK    2  A    between atoms: C2_2  and  O9_9 
ROOT
HETATM    1  C1  UNL     1     -33.899   6.772   4.572  1.00 20.00     0.140 C 
HETATM    2  C3  UNL     1     -35.000   5.954   3.876  1.00 20.00     0.080 C 
HETATM    3  C4  UNL     1     -34.103   5.950   2.618  1.00 20.00     0.030 C 
HETATM    4  C5  UNL     1     -32.902   6.513   3.423  1.00 20.00     0.155 C 
HETATM    5  O7  UNL     1     -33.845   7.382   5.618  1.00 20.00    -0.297 OA
ENDROOT
BRANCH   4   6
HETATM    6  C2  UNL     1     -32.254   7.821   2.971  1.00 20.00     0.269 C 
HETATM    7  O8  UNL     1     -31.353   8.384   3.577  1.00 20.00    -0.264 OA
BRANCH   6   8
HETATM    8  O9  UNL     1     -32.835   8.240   1.811  1.00 20.00    -0.326 OA
HETATM    9  C6  UNL     1     -32.035   9.109   1.002  1.00 20.00     0.213 C 
ENDBRANCH   6   8
ENDBRANCH   4   6
TORSDOF 2
ENDMDL
MODEL 4
REMARK VINA RESULT:      -4.5      1.233      3.828
REMARK  2 active torsions:
REMARK  status: ('A' for Active; 'I' for Inactive)
REMARK    1  A    between atoms: C2_2  and  C5_5 
REMARK    2  A    between atoms: C2_2  and  O9_9 
ROOT
HETATM    1  C1  UNL     1     -32.785   7.661   4.351  1.00 20.00     0.140 C 
HETATM    2  C3  UNL     1     -31.685   8.409   3.578  1.00 20.00     0.080 C 
HETATM    3  C4  UNL     1     -32.163   7.659   2.313  1.00 20.00     0.030 C 
HETATM    4  C5  UNL     1     -33.433   7.149   3.047  1.00 20.00     0.155 C 
HETATM    5  O7  UNL     1     -33.036   7.529   5.529  1.00 20.00    -0.297 OA
ENDROOT
BRANCH   4   6
HETATM    6  C2  UNL     1     -33.687   5.645   3.129  1.00 20.00     0.269 C 
HETATM    7  O8  UNL     1     -32.960   4.799   2.627  1.00 20.00    -0.264 OA
BRANCH   6   8
HETATM    8  O9  UNL     1     -34.830   5.413   3.835  1.00 20.00    -0.326 OA
HETATM    9  C6  UNL     1     -34.693   4.534   4.955  1.00 20.00     0.213 C 
ENDBRANCH   6   8
ENDBRANCH   4   6
TORSDOF 2
ENDMDL
MODEL 5
REMARK VINA RESULT:      -4.2      1.302      2.328
REMARK  2 active torsions:
REMARK  status: ('A' for Active; 'I' for Inactive)
REMARK    1  A    between atoms: C2_2  and  C5_5 
REMARK    2  A    between atoms: C2_2  and  O9_9 
ROOT
HETATM    1  C1  UNL     1     -34.003   6.332   5.317  1.00 20.00     0.140 C 
HETATM    2  C3  UNL     1     -34.842   5.139   5.807  1.00 20.00     0.080 C 
HETATM    3  C4  UNL     1     -34.458   4.421   4.494  1.00 20.00     0.030 C 
HETATM    4  C5  UNL     1     -33.397   5.504   4.164  1.00 20.00     0.155 C 
HETATM    5  O7  UNL     1     -33.875   7.476   5.696  1.00 20.00    -0.297 OA
ENDROOT
BRANCH   4   6
HETATM    6  C2  UNL     1     -33.501   6.267   2.844  1.00 20.00     0.269 C 
HETATM    7  O8  UNL     1     -34.478   6.232   2.108  1.00 20.00    -0.264 OA
BRANCH   6   8
HETATM    8  O9  UNL     1     -32.354   6.972   2.633  1.00 20.00    -0.326 OA
HETATM    9  C6  UNL     1     -32.532   8.311   2.162  1.00 20.00     0.213 C 
ENDBRANCH   6   8
ENDBRANCH   4   6
TORSDOF 2
ENDMDL
MODEL 6
REMARK VINA RESULT:      -4.0     11.532     12.567
REMARK  2 active torsions:
REMARK  status: ('A' for Active; 'I' for Inactive)
REMARK    1  A    between atoms: C2_2  and  C5_5 
REMARK    2  A    between atoms: C2_2  and  O9_9 
ROOT
HETATM    1  C1  UNL     1     -33.616  14.478  -4.788  1.00 20.00     0.140 C 
HETATM    2  C3  UNL     1     -33.192  15.679  -5.650  1.00 20.00     0.080 C 
HETATM    3  C4  UNL     1     -34.670  15.798  -6.085  1.00 20.00     0.030 C 
HETATM    4  C5  UNL     1     -35.114  14.784  -4.996  1.00 20.00     0.155 C 
HETATM    5  O7  UNL     1     -33.002  13.625  -4.184  1.00 20.00    -0.297 OA
ENDROOT
BRANCH   4   6
HETATM    6  C2  UNL     1     -35.865  13.523  -5.420  1.00 20.00     0.269 C 
HETATM    7  O8  UNL     1     -35.400  12.663  -6.156  1.00 20.00    -0.264 OA
BRANCH   6   8
HETATM    8  O9  UNL     1     -37.105  13.520  -4.855  1.00 20.00    -0.326 OA
HETATM    9  C6  UNL     1     -38.011  14.509  -5.354  1.00 20.00     0.213 C 
ENDBRANCH   6   8
ENDBRANCH   4   6
TORSDOF 2
ENDMDL
MODEL 7
REMARK VINA RESULT:      -3.7     11.660     13.254
REMARK  2 active torsions:
REMARK  status: ('A' for Active; 'I' for Inactive)
REMARK    1  A    between atoms: C2_2  and  C5_5 
REMARK    2  A    between atoms: C2_2  and  O9_9 
ROOT
HETATM    1  C1  UNL     1     -34.942  15.429  -6.683  1.00 20.00     0.140 C 
HETATM    2  C3  UNL     1     -33.944  14.890  -7.722  1.00 20.00     0.080 C 
HETATM    3  C4  UNL     1     -34.570  13.495  -7.494  1.00 20.00     0.030 C 
HETATM    4  C5  UNL     1     -35.741  14.110  -6.682  1.00 20.00     0.155 C 
HETATM    5  O7  UNL     1     -35.049  16.485  -6.097  1.00 20.00    -0.297 OA
ENDROOT
BRANCH   4   6
HETATM    6  C2  UNL     1     -35.983  13.631  -5.251  1.00 20.00     0.269 C 
HETATM    7  O8  UNL     1     -35.090  13.355  -4.461  1.00 20.00    -0.264 OA
BRANCH   6   8
HETATM    8  O9  UNL     1     -37.324  13.564  -5.013  1.00 20.00    -0.326 OA
HETATM    9  C6  UNL     1     -37.959  14.812  -4.719  1.00 20.00     0.213 C 
ENDBRANCH   6   8
ENDBRANCH   4   6
TORSDOF 2
ENDMDL
MODEL 8
REMARK VINA RESULT:      -3.7      1.798      3.355
REMARK  2 active torsions:
REMARK  status: ('A' for Active; 'I' for Inactive)
REMARK    1  A    between atoms: C2_2  and  C5_5 
REMARK    2  A    between atoms: C2_2  and  O9_9 
ROOT
HETATM    1  C1  UNL     1     -32.428   7.598   3.440  1.00 20.00     0.140 C 
HETATM    2  C3  UNL     1     -32.456   6.698   2.193  1.00 20.00     0.080 C 
HETATM    3  C4  UNL     1     -33.810   6.155   2.702  1.00 20.00     0.030 C 
HETATM    4  C5  UNL     1     -33.897   7.269   3.780  1.00 20.00     0.155 C 
HETATM    5  O7  UNL     1     -31.576   8.293   3.951  1.00 20.00    -0.297 OA
ENDROOT
BRANCH   4   6
HETATM    6  C2  UNL     1     -34.031   6.870   5.249  1.00 20.00     0.269 C 
HETATM    7  O8  UNL     1     -33.387   7.376   6.158  1.00 20.00    -0.264 OA
BRANCH   6   8
HETATM    8  O9  UNL     1     -34.962   5.882   5.370  1.00 20.00    -0.326 OA
HETATM    9  C6  UNL     1     -34.438   4.562   5.547  1.00 20.00     0.213 C 
ENDBRANCH   6   8
ENDBRANCH   4   6
TORSDOF 2
ENDMDL
MODEL 9
REMARK VINA RESULT:      -3.7     11.434     12.582
REMARK  2 active torsions:
REMARK  status: ('A' for Active; 'I' for Inactive)
REMARK    1  A    between atoms: C2_2  and  C5_5 
REMARK    2  A    between atoms: C2_2  and  O9_9 
ROOT
HETATM    1  C1  UNL     1     -37.512  14.816  -4.808  1.00 20.00     0.140 C 
HETATM    2  C3  UNL     1     -37.413  16.208  -4.160  1.00 20.00     0.080 C 
HETATM    3  C4  UNL     1     -35.906  16.181  -4.502  1.00 20.00     0.030 C 
HETATM    4  C5  UNL     1     -36.090  14.927  -5.397  1.00 20.00     0.155 C 
HETATM    5  O7  UNL     1     -38.377  13.967  -4.837  1.00 20.00    -0.297 OA
ENDROOT
BRANCH   4   6
HETATM    6  C2  UNL     1     -35.281  13.668  -5.085  1.00 20.00     0.269 C 
HETATM    7  O8  UNL     1     -34.608  13.520  -4.075  1.00 20.00    -0.264 OA
BRANCH   6   8
HETATM    8  O9  UNL     1     -35.433  12.767  -6.096  1.00 20.00    -0.326 OA
HETATM    9  C6  UNL     1     -35.238  13.284  -7.416  1.00 20.00     0.213 C 
ENDBRANCH   6   8
ENDBRANCH   4   6
TORSDOF 2
ENDMDL
