MODEL 1
REMARK VINA RESULT:      -5.4      0.000      0.000
REMARK  2 active torsions:
REMARK  status: ('A' for Active; 'I' for Inactive)
REMARK    1  A    between atoms: C2_2  and  C4_4 
REMARK    2  A    between atoms: C3_3  and  C5_5 
ROOT
HETATM    1  C1  UNL     1     -32.207   8.168   4.016  1.00 20.00     0.133 A 
HETATM    2  C2  UNL     1     -32.333   7.888   2.671  1.00 20.00     0.016 A 
HETATM    3  C3  UNL     1     -33.670   6.540   4.154  1.00 20.00     0.181 A 
HETATM    4  N6  UNL     1     -32.972   7.396   4.867  1.00 20.00    -0.248 NA
HETATM    5  S10 UNL     1     -33.453   6.607   2.453  1.00 20.00    -0.068 SA
ENDROOT
BRANCH   3   6
HETATM    6  C5  UNL     1     -34.607   5.545   4.720  1.00 20.00     0.441 C 
HETATM    7  F7  UNL     1     -34.203   4.244   4.563  1.00 20.00    -0.164 F 
HETATM    8  F8  UNL     1     -34.820   5.680   6.066  1.00 20.00    -0.164 F 
HETATM    9  F9  UNL     1     -35.854   5.599   4.155  1.00 20.00    -0.164 F 
ENDBRANCH   3   6
BRANCH   2  10
HETATM   10  C4  UNL     1     -31.673   8.513   1.509  1.00 20.00     0.162 C 
HETATM   11 CL11 UNL     1     -32.539   9.982   0.987  1.00 20.00    -0.125 Cl
ENDBRANCH   2  10
TORSDOF 2
ENDMDL
MODEL 2
REMARK VINA RESULT:      -4.7      1.267      1.414
REMARK  2 active torsions:
REMARK  status: ('A' for Active; 'I' for Inactive)
REMARK    1  A    between atoms: C2_2  and  C4_4 
REMARK    2  A    between atoms: C3_3  and  C5_5 
ROOT
HETATM    1  C1  UNL     1     -32.838   6.741   2.047  1.00 20.00     0.133 A 
HETATM    2  C2  UNL     1     -32.494   7.797   2.867  1.00 20.00     0.016 A 
HETATM    3  C3  UNL     1     -33.802   6.053   3.893  1.00 20.00     0.181 A 
HETATM    4  N6  UNL     1     -33.588   5.742   2.633  1.00 20.00    -0.248 NA
HETATM    5  S10 UNL     1     -33.131   7.536   4.438  1.00 20.00    -0.068 SA
ENDROOT
BRANCH   3   6
HETATM    6  C5  UNL     1     -34.571   5.220   4.843  1.00 20.00     0.441 C 
HETATM    7  F7  UNL     1     -34.098   3.940   4.973  1.00 20.00    -0.164 F 
HETATM    8  F8  UNL     1     -34.596   5.710   6.122  1.00 20.00    -0.164 F 
HETATM    9  F9  UNL     1     -35.887   5.078   4.491  1.00 20.00    -0.164 F 
ENDBRANCH   3   6
BRANCH   2  10
HETATM   10  C4  UNL     1     -31.710   9.010   2.567  1.00 20.00     0.162 C 
HETATM   11 CL11 UNL     1     -32.477   9.971   1.275  1.00 20.00    -0.125 Cl
ENDBRANCH   2  10
TORSDOF 2
ENDMDL
MODEL 3
REMARK VINA RESULT:      -4.5      3.965      4.795
REMARK  2 active torsions:
REMARK  status: ('A' for Active; 'I' for Inactive)
REMARK    1  A    between atoms: C2_2  and  C4_4 
REMARK    2  A    between atoms: C3_3  and  C5_5 
ROOT
HETATM    1  C1  UNL     1     -32.572   7.656   4.558  1.00 20.00     0.133 A 
HETATM    2  C2  UNL     1     -33.615   6.859   4.131  1.00 20.00     0.016 A 
HETATM    3  C3  UNL     1     -32.547   8.192   2.431  1.00 20.00     0.181 A 
HETATM    4  N6  UNL     1     -31.960   8.420   3.585  1.00 20.00    -0.248 NA
HETATM    5  S10 UNL     1     -33.845   7.069   2.444  1.00 20.00    -0.068 SA
ENDROOT
BRANCH   3   6
HETATM    6  C5  UNL     1     -32.164   8.832   1.154  1.00 20.00     0.441 C 
HETATM    7  F7  UNL     1     -30.976   8.382   0.638  1.00 20.00    -0.164 F 
HETATM    8  F8  UNL     1     -33.070   8.649   0.143  1.00 20.00    -0.164 F 
HETATM    9  F9  UNL     1     -32.014  10.190   1.257  1.00 20.00    -0.164 F 
ENDBRANCH   3   6
BRANCH   2  10
HETATM   10  C4  UNL     1     -34.471   5.933   4.896  1.00 20.00     0.162 C 
HETATM   11 CL11 UNL     1     -34.306   4.260   4.300  1.00 20.00    -0.125 Cl
ENDBRANCH   2  10
TORSDOF 2
ENDMDL
MODEL 4
REMARK VINA RESULT:      -4.3      4.223      4.977
REMARK  2 active torsions:
REMARK  status: ('A' for Active; 'I' for Inactive)
REMARK    1  A    between atoms: C2_2  and  C4_4 
REMARK    2  A    between atoms: C3_3  and  C5_5 
ROOT
HETATM    1  C1  UNL     1     -34.013   6.191   3.154  1.00 20.00     0.133 A 
HETATM    2  C2  UNL     1     -33.670   6.806   4.340  1.00 20.00     0.016 A 
HETATM    3  C3  UNL     1     -32.861   7.867   2.334  1.00 20.00     0.181 A 
HETATM    4  N6  UNL     1     -33.550   6.797   2.004  1.00 20.00    -0.248 NA
HETATM    5  S10 UNL     1     -32.729   8.202   4.012  1.00 20.00    -0.068 SA
ENDROOT
BRANCH   3   6
HETATM    6  C5  UNL     1     -32.208   8.775   1.367  1.00 20.00     0.441 C 
HETATM    7  F7  UNL     1     -30.972   8.353   0.950  1.00 20.00    -0.164 F 
HETATM    8  F8  UNL     1     -32.917   8.963   0.210  1.00 20.00    -0.164 F 
HETATM    9  F9  UNL     1     -32.001  10.034   1.866  1.00 20.00    -0.164 F 
ENDBRANCH   3   6
BRANCH   2  10
HETATM   10  C4  UNL     1     -33.996   6.430   5.729  1.00 20.00     0.162 C 
HETATM   11 CL11 UNL     1     -34.600   4.754   5.819  1.00 20.00    -0.125 Cl
ENDBRANCH   2  10
TORSDOF 2
ENDMDL
MODEL 5
REMARK VINA RESULT:      -4.1     11.648     12.280
REMARK  2 active torsions:
REMARK  status: ('A' for Active; 'I' for Inactive)
REMARK    1  A    between atoms: C2_2  and  C4_4 
REMARK    2  A    between atoms: C3_3  and  C5_5 
ROOT
HETATM    1  C1  UNL     1     -36.210  13.402  -5.584  1.00 20.00     0.133 A 
HETATM    2  C2  UNL     1     -36.937  14.425  -5.009  1.00 20.00     0.016 A 
HETATM    3  C3  UNL     1     -34.546  14.555  -4.744  1.00 20.00     0.181 A 
HETATM    4  N6  UNL     1     -34.841  13.476  -5.433  1.00 20.00    -0.248 NA
HETATM    5  S10 UNL     1     -35.869  15.528  -4.244  1.00 20.00    -0.068 SA
ENDROOT
BRANCH   3   6
HETATM    6  C5  UNL     1     -33.173  14.970  -4.381  1.00 20.00     0.441 C 
HETATM    7  F7  UNL     1     -32.340  13.928  -4.062  1.00 20.00    -0.164 F 
HETATM    8  F8  UNL     1     -32.513  15.647  -5.373  1.00 20.00    -0.164 F 
HETATM    9  F9  UNL     1     -33.131  15.802  -3.294  1.00 20.00    -0.164 F 
ENDBRANCH   3   6
BRANCH   2  10
HETATM   10  C4  UNL     1     -38.394  14.651  -4.983  1.00 20.00     0.162 C 
HETATM   11 CL11 UNL     1     -38.787  16.257  -4.315  1.00 20.00    -0.125 Cl
ENDBRANCH   2  10
TORSDOF 2
ENDMDL
MODEL 6
REMARK VINA RESULT:      -4.0     11.622     12.400
REMARK  2 active torsions:
REMARK  status: ('A' for Active; 'I' for Inactive)
REMARK    1  A    between atoms: C2_2  and  C4_4 
REMARK    2  A    between atoms: C3_3  and  C5_5 
ROOT
HETATM    1  C1  UNL     1     -33.921  14.713  -3.829  1.00 20.00     0.133 A 
HETATM    2  C2  UNL     1     -35.047  15.511  -3.805  1.00 20.00     0.016 A 
HETATM    3  C3  UNL     1     -34.738  14.191  -5.797  1.00 20.00     0.181 A 
HETATM    4  N6  UNL     1     -33.743  13.957  -4.970  1.00 20.00    -0.248 NA
HETATM    5  S10 UNL     1     -35.924  15.313  -5.265  1.00 20.00    -0.068 SA
ENDROOT
BRANCH   3   6
HETATM    6  C5  UNL     1     -34.890  13.561  -7.126  1.00 20.00     0.441 C 
HETATM    7  F7  UNL     1     -33.773  13.648  -7.917  1.00 20.00    -0.164 F 
HETATM    8  F8  UNL     1     -35.175  12.222  -7.080  1.00 20.00    -0.164 F 
HETATM    9  F9  UNL     1     -35.897  14.114  -7.872  1.00 20.00    -0.164 F 
ENDBRANCH   3   6
BRANCH   2  10
HETATM   10  C4  UNL     1     -35.533  16.428  -2.756  1.00 20.00     0.162 C 
HETATM   11 CL11 UNL     1     -34.203  16.954  -1.691  1.00 20.00    -0.125 Cl
ENDBRANCH   2  10
TORSDOF 2
ENDMDL
MODEL 7
REMARK VINA RESULT:      -3.9     11.888     12.526
REMARK  2 active torsions:
REMARK  status: ('A' for Active; 'I' for Inactive)
REMARK    1  A    between atoms: C2_2  and  C4_4 
REMARK    2  A    between atoms: C3_3  and  C5_5 
ROOT
HETATM    1  C1  UNL     1     -33.341  16.642  -5.101  1.00 20.00     0.133 A 
HETATM    2  C2  UNL     1     -33.837  16.239  -3.878  1.00 20.00     0.016 A 
HETATM    3  C3  UNL     1     -34.469  14.883  -5.767  1.00 20.00     0.181 A 
HETATM    4  N6  UNL     1     -33.702  15.866  -6.184  1.00 20.00    -0.248 NA
HETATM    5  S10 UNL     1     -34.797  14.833  -4.083  1.00 20.00    -0.068 SA
ENDROOT
BRANCH   3   6
HETATM    6  C5  UNL     1     -35.052  13.845  -6.644  1.00 20.00     0.441 C 
HETATM    7  F7  UNL     1     -34.131  13.184  -7.415  1.00 20.00    -0.164 F 
HETATM    8  F8  UNL     1     -35.715  12.853  -5.971  1.00 20.00    -0.164 F 
HETATM    9  F9  UNL     1     -35.966  14.344  -7.534  1.00 20.00    -0.164 F 
ENDBRANCH   3   6
BRANCH   2  10
HETATM   10  C4  UNL     1     -33.648  16.830  -2.539  1.00 20.00     0.162 C 
HETATM   11 CL11 UNL     1     -35.133  16.698  -1.560  1.00 20.00    -0.125 Cl
ENDBRANCH   2  10
TORSDOF 2
ENDMDL
MODEL 8
REMARK VINA RESULT:      -3.9     11.665     12.089
REMARK  2 active torsions:
REMARK  status: ('A' for Active; 'I' for Inactive)
REMARK    1  A    between atoms: C2_2  and  C4_4 
REMARK    2  A    between atoms: C3_3  and  C5_5 
ROOT
HETATM    1  C1  UNL     1     -36.863  15.132  -4.528  1.00 20.00     0.133 A 
HETATM    2  C2  UNL     1     -35.799  14.363  -4.954  1.00 20.00     0.016 A 
HETATM    3  C3  UNL     1     -35.303  15.992  -3.249  1.00 20.00     0.181 A 
HETATM    4  N6  UNL     1     -36.580  16.065  -3.551  1.00 20.00    -0.248 NA
HETATM    5  S10 UNL     1     -34.382  14.821  -4.103  1.00 20.00    -0.068 SA
ENDROOT
BRANCH   3   6
HETATM    6  C5  UNL     1     -34.629  16.839  -2.241  1.00 20.00     0.441 C 
HETATM    7  F7  UNL     1     -34.770  18.186  -2.459  1.00 20.00    -0.164 F 
HETATM    8  F8  UNL     1     -35.078  16.649  -0.961  1.00 20.00    -0.164 F 
HETATM    9  F9  UNL     1     -33.277  16.630  -2.179  1.00 20.00    -0.164 F 
ENDBRANCH   3   6
BRANCH   2  10
HETATM   10  C4  UNL     1     -35.753  13.290  -5.965  1.00 20.00     0.162 C 
HETATM   11 CL11 UNL     1     -34.409  13.541  -7.111  1.00 20.00    -0.125 Cl
ENDBRANCH   2  10
TORSDOF 2
ENDMDL
MODEL 9
REMARK VINA RESULT:      -3.8     11.816     12.612
REMARK  2 active torsions:
REMARK  status: ('A' for Active; 'I' for Inactive)
REMARK    1  A    between atoms: C2_2  and  C4_4 
REMARK    2  A    between atoms: C3_3  and  C5_5 
ROOT
HETATM    1  C1  UNL     1     -36.435  13.583  -5.339  1.00 20.00     0.133 A 
HETATM    2  C2  UNL     1     -36.785  14.829  -5.819  1.00 20.00     0.016 A 
HETATM    3  C3  UNL     1     -34.567  14.643  -4.899  1.00 20.00     0.181 A 
HETATM    4  N6  UNL     1     -35.165  13.476  -4.812  1.00 20.00    -0.248 NA
HETATM    5  S10 UNL     1     -35.477  15.916  -5.605  1.00 20.00    -0.068 SA
ENDROOT
BRANCH   3   6
HETATM    6  C5  UNL     1     -33.189  14.917  -4.435  1.00 20.00     0.441 C 
HETATM    7  F7  UNL     1     -32.404  15.556  -5.359  1.00 20.00    -0.164 F 
HETATM    8  F8  UNL     1     -33.123  15.710  -3.319  1.00 20.00    -0.164 F 
HETATM    9  F9  UNL     1     -32.497  13.781  -4.106  1.00 20.00    -0.164 F 
ENDBRANCH   3   6
BRANCH   2  10
HETATM   10  C4  UNL     1     -38.045  15.283  -6.440  1.00 20.00     0.162 C 
HETATM   11 CL11 UNL     1     -37.777  16.711  -7.474  1.00 20.00    -0.125 Cl
ENDBRANCH   2  10
TORSDOF 2
ENDMDL
