MODEL 1
REMARK VINA RESULT:      -4.2      0.000      0.000
REMARK  1 active torsions:
REMARK  status: ('A' for Active; 'I' for Inactive)
REMARK    1  A    between atoms: C2_2  and  C5_5 
ROOT
HETATM    1  C1  UNL     1     -33.970   6.008   4.902  1.00 20.00     0.153 A 
HETATM    2  C2  UNL     1     -33.624   6.202   3.437  1.00 20.00     0.096 A 
HETATM    3  C3  UNL     1     -33.997   7.118   5.891  1.00 20.00     0.042 C 
HETATM    4  C4  UNL     1     -33.145   5.020   2.653  1.00 20.00     0.050 C 
HETATM    5  O6  UNL     1     -34.983   6.082   3.889  1.00 20.00    -0.369 OA
ENDROOT
BRANCH   2   6
HETATM    6  C5  UNL     1     -33.281   7.550   2.888  1.00 20.00     0.154 C 
HETATM    7 CL7  UNL     1     -31.601   7.995   3.287  1.00 20.00    -0.127 Cl
ENDBRANCH   2   6
TORSDOF 1
ENDMDL
MODEL 2
REMARK VINA RESULT:      -4.0      1.760      2.382
REMARK  1 active torsions:
REMARK  status: ('A' for Active; 'I' for Inactive)
REMARK    1  A    between atoms: C2_2  and  C5_5 
ROOT
HETATM    1  C1  UNL     1     -33.403   5.109   3.266  1.00 20.00     0.153 A 
HETATM    2  C2  UNL     1     -33.454   6.621   3.383  1.00 20.00     0.096 A 
HETATM    3  C3  UNL     1     -34.185   4.193   4.137  1.00 20.00     0.042 C 
HETATM    4  C4  UNL     1     -32.311   7.420   2.839  1.00 20.00     0.050 C 
HETATM    5  O6  UNL     1     -34.193   5.910   2.377  1.00 20.00    -0.369 OA
ENDROOT
BRANCH   2   6
HETATM    6  C5  UNL     1     -34.311   7.295   4.407  1.00 20.00     0.154 C 
HETATM    7 CL7  UNL     1     -33.481   7.379   5.983  1.00 20.00    -0.127 Cl
ENDBRANCH   2   6
TORSDOF 1
ENDMDL
MODEL 3
REMARK VINA RESULT:      -3.9      2.193      2.979
REMARK  1 active torsions:
REMARK  status: ('A' for Active; 'I' for Inactive)
REMARK    1  A    between atoms: C2_2  and  C5_5 
ROOT
HETATM    1  C1  UNL     1     -32.933   7.367   2.390  1.00 20.00     0.153 A 
HETATM    2  C2  UNL     1     -33.628   6.781   3.606  1.00 20.00     0.096 A 
HETATM    3  C3  UNL     1     -31.928   8.459   2.467  1.00 20.00     0.042 C 
HETATM    4  C4  UNL     1     -34.933   6.074   3.413  1.00 20.00     0.050 C 
HETATM    5  O6  UNL     1     -32.517   6.125   2.974  1.00 20.00    -0.369 OA
ENDROOT
BRANCH   2   6
HETATM    6  C5  UNL     1     -33.337   7.280   4.985  1.00 20.00     0.154 C 
HETATM    7 CL7  UNL     1     -34.376   6.475   6.190  1.00 20.00    -0.127 Cl
ENDBRANCH   2   6
TORSDOF 1
ENDMDL
MODEL 4
REMARK VINA RESULT:      -3.9      2.201      3.269
REMARK  1 active torsions:
REMARK  status: ('A' for Active; 'I' for Inactive)
REMARK    1  A    between atoms: C2_2  and  C5_5 
ROOT
HETATM    1  C1  UNL     1     -32.876   7.012   3.550  1.00 20.00     0.153 A 
HETATM    2  C2  UNL     1     -33.990   6.764   4.552  1.00 20.00     0.096 A 
HETATM    3  C3  UNL     1     -32.715   6.233   2.294  1.00 20.00     0.042 C 
HETATM    4  C4  UNL     1     -33.797   7.223   5.964  1.00 20.00     0.050 C 
HETATM    5  O6  UNL     1     -34.049   7.837   3.598  1.00 20.00    -0.369 OA
ENDROOT
BRANCH   2   6
HETATM    6  C5  UNL     1     -35.012   5.695   4.331  1.00 20.00     0.154 C 
HETATM    7 CL7  UNL     1     -34.355   4.086   4.732  1.00 20.00    -0.127 Cl
ENDBRANCH   2   6
TORSDOF 1
ENDMDL
MODEL 5
REMARK VINA RESULT:      -3.7      2.176      3.058
REMARK  1 active torsions:
REMARK  status: ('A' for Active; 'I' for Inactive)
REMARK    1  A    between atoms: C2_2  and  C5_5 
ROOT
HETATM    1  C1  UNL     1     -32.278   7.928   2.013  1.00 20.00     0.153 A 
HETATM    2  C2  UNL     1     -32.950   7.034   3.040  1.00 20.00     0.096 A 
HETATM    3  C3  UNL     1     -32.613   9.365   1.833  1.00 20.00     0.042 C 
HETATM    4  C4  UNL     1     -32.923   5.553   2.826  1.00 20.00     0.050 C 
HETATM    5  O6  UNL     1     -31.652   7.609   3.264  1.00 20.00    -0.369 OA
ENDROOT
BRANCH   2   6
HETATM    6  C5  UNL     1     -34.014   7.558   3.951  1.00 20.00     0.154 C 
HETATM    7 CL7  UNL     1     -33.575   7.305   5.661  1.00 20.00    -0.127 Cl
ENDBRANCH   2   6
TORSDOF 1
ENDMDL
MODEL 6
REMARK VINA RESULT:      -3.6      1.884      2.514
REMARK  1 active torsions:
REMARK  status: ('A' for Active; 'I' for Inactive)
REMARK    1  A    between atoms: C2_2  and  C5_5 
ROOT
HETATM    1  C1  UNL     1     -33.040   7.321   4.670  1.00 20.00     0.153 A 
HETATM    2  C2  UNL     1     -34.080   6.266   4.337  1.00 20.00     0.096 A 
HETATM    3  C3  UNL     1     -32.120   7.910   3.662  1.00 20.00     0.042 C 
HETATM    4  C4  UNL     1     -34.595   5.397   5.442  1.00 20.00     0.050 C 
HETATM    5  O6  UNL     1     -34.423   7.653   4.486  1.00 20.00    -0.369 OA
ENDROOT
BRANCH   2   6
HETATM    6  C5  UNL     1     -34.242   5.744   2.946  1.00 20.00     0.154 C 
HETATM    7 CL7  UNL     1     -32.960   4.570   2.548  1.00 20.00    -0.127 Cl
ENDBRANCH   2   6
TORSDOF 1
ENDMDL
MODEL 7
REMARK VINA RESULT:      -3.5     11.414     12.185
REMARK  1 active torsions:
REMARK  status: ('A' for Active; 'I' for Inactive)
REMARK    1  A    between atoms: C2_2  and  C5_5 
ROOT
HETATM    1  C1  UNL     1     -35.758  13.673  -6.388  1.00 20.00     0.153 A 
HETATM    2  C2  UNL     1     -35.753  14.157  -4.949  1.00 20.00     0.096 A 
HETATM    3  C3  UNL     1     -34.521  13.396  -7.164  1.00 20.00     0.042 C 
HETATM    4  C4  UNL     1     -36.966  14.865  -4.428  1.00 20.00     0.050 C 
HETATM    5  O6  UNL     1     -35.989  12.781  -5.288  1.00 20.00    -0.369 OA
ENDROOT
BRANCH   2   6
HETATM    6  C5  UNL     1     -34.474  14.393  -4.211  1.00 20.00     0.154 C 
HETATM    7 CL7  UNL     1     -34.609  15.806  -3.132  1.00 20.00    -0.127 Cl
ENDBRANCH   2   6
TORSDOF 1
ENDMDL
MODEL 8
REMARK VINA RESULT:      -3.3      1.899      2.440
REMARK  1 active torsions:
REMARK  status: ('A' for Active; 'I' for Inactive)
REMARK    1  A    between atoms: C2_2  and  C5_5 
ROOT
HETATM    1  C1  UNL     1     -33.486   6.561   3.807  1.00 20.00     0.153 A 
HETATM    2  C2  UNL     1     -32.662   7.546   2.998  1.00 20.00     0.096 A 
HETATM    3  C3  UNL     1     -34.896   6.215   3.487  1.00 20.00     0.042 C 
HETATM    4  C4  UNL     1     -31.479   8.194   3.649  1.00 20.00     0.050 C 
HETATM    5  O6  UNL     1     -32.525   6.125   2.836  1.00 20.00    -0.369 OA
ENDROOT
BRANCH   2   6
HETATM    6  C5  UNL     1     -33.232   8.244   1.804  1.00 20.00     0.154 C 
HETATM    7 CL7  UNL     1     -32.014   9.293   1.033  1.00 20.00    -0.127 Cl
ENDBRANCH   2   6
TORSDOF 1
ENDMDL
MODEL 9
REMARK VINA RESULT:      -3.2     11.534     12.441
REMARK  1 active torsions:
REMARK  status: ('A' for Active; 'I' for Inactive)
REMARK    1  A    between atoms: C2_2  and  C5_5 
ROOT
HETATM    1  C1  UNL     1     -36.580  14.145  -5.129  1.00 20.00     0.153 A 
HETATM    2  C2  UNL     1     -35.079  13.981  -5.289  1.00 20.00     0.096 A 
HETATM    3  C3  UNL     1     -37.493  14.470  -6.256  1.00 20.00     0.042 C 
HETATM    4  C4  UNL     1     -34.209  14.149  -4.083  1.00 20.00     0.050 C 
HETATM    5  O6  UNL     1     -35.965  12.852  -5.210  1.00 20.00    -0.369 OA
ENDROOT
BRANCH   2   6
HETATM    6  C5  UNL     1     -34.415  14.142  -6.619  1.00 20.00     0.154 C 
HETATM    7 CL7  UNL     1     -33.525  15.685  -6.708  1.00 20.00    -0.127 Cl
ENDBRANCH   2   6
TORSDOF 1
ENDMDL
