MODEL 1
REMARK VINA RESULT:      -4.5      0.000      0.000
REMARK  2 active torsions:
REMARK  status: ('A' for Active; 'I' for Inactive)
REMARK       I    between atoms: C1_1  and  N6_6 
REMARK    1  A    between atoms: C4_4  and  C5_5 
REMARK    2  A    between atoms: C5_5  and  N6_6 
ROOT
HETATM    1  C1  UNL     1     -33.760   6.798   5.041  1.00 20.00     0.316 C 
HETATM    2  C3  UNL     1     -33.427   5.989   2.668  1.00 20.00     0.154 C 
HETATM    3  N6  UNL     1     -33.156   6.935   3.760  1.00 20.00    -0.343 N 
HETATM    4  O7  UNL     1     -33.540   7.585   5.965  1.00 20.00    -0.254 OA
HETATM    5 CL8  UNL     1     -34.857   5.445   5.248  1.00 20.00    -0.020 Cl
ENDROOT
BRANCH   3   6
HETATM    6  C5  UNL     1     -32.245   8.003   3.458  1.00 20.00     0.126 C 
BRANCH   6   7
HETATM    7  C4  UNL     1     -32.007   8.158   1.961  1.00 20.00     0.015 C 
HETATM    8  C2  UNL     1     -32.383   9.538   1.445  1.00 20.00     0.006 C 
ENDBRANCH   6   7
ENDBRANCH   3   6
TORSDOF 2
ENDMDL
MODEL 2
REMARK VINA RESULT:      -4.4      2.604      4.122
REMARK  2 active torsions:
REMARK  status: ('A' for Active; 'I' for Inactive)
REMARK       I    between atoms: C1_1  and  N6_6 
REMARK    1  A    between atoms: C4_4  and  C5_5 
REMARK    2  A    between atoms: C5_5  and  N6_6 
ROOT
HETATM    1  C1  UNL     1     -32.880   7.339   3.368  1.00 20.00     0.316 C 
HETATM    2  C3  UNL     1     -33.501   7.445   5.817  1.00 20.00     0.154 C 
HETATM    3  N6  UNL     1     -33.746   6.989   4.441  1.00 20.00    -0.343 N 
HETATM    4  O7  UNL     1     -33.075   6.962   2.210  1.00 20.00    -0.254 OA
HETATM    5 CL8  UNL     1     -31.507   8.354   3.769  1.00 20.00    -0.020 Cl
ENDROOT
BRANCH   3   6
HETATM    6  C5  UNL     1     -34.909   6.170   4.245  1.00 20.00     0.126 C 
BRANCH   6   7
HETATM    7  C4  UNL     1     -34.824   4.850   5.001  1.00 20.00     0.015 C 
HETATM    8  C2  UNL     1     -33.985   3.808   4.275  1.00 20.00     0.006 C 
ENDBRANCH   6   7
ENDBRANCH   3   6
TORSDOF 2
ENDMDL
MODEL 3
REMARK VINA RESULT:      -4.2      1.586      1.915
REMARK  2 active torsions:
REMARK  status: ('A' for Active; 'I' for Inactive)
REMARK       I    between atoms: C1_1  and  N6_6 
REMARK    1  A    between atoms: C4_4  and  C5_5 
REMARK    2  A    between atoms: C5_5  and  N6_6 
ROOT
HETATM    1  C1  UNL     1     -33.770   6.990   4.138  1.00 20.00     0.316 C 
HETATM    2  C3  UNL     1     -31.646   8.360   4.054  1.00 20.00     0.154 C 
HETATM    3  N6  UNL     1     -32.741   7.633   3.396  1.00 20.00    -0.343 N 
HETATM    4  O7  UNL     1     -34.694   6.378   3.597  1.00 20.00    -0.254 OA
HETATM    5 CL8  UNL     1     -33.660   7.101   5.886  1.00 20.00    -0.020 Cl
ENDROOT
BRANCH   3   6
HETATM    6  C5  UNL     1     -32.710   7.610   1.960  1.00 20.00     0.126 C 
BRANCH   6   7
HETATM    7  C4  UNL     1     -31.848   8.725   1.380  1.00 20.00     0.015 C 
HETATM    8  C2  UNL     1     -32.670   9.813   0.705  1.00 20.00     0.006 C 
ENDBRANCH   6   7
ENDBRANCH   3   6
TORSDOF 2
ENDMDL
MODEL 4
REMARK VINA RESULT:      -4.1      1.687      2.061
REMARK  2 active torsions:
REMARK  status: ('A' for Active; 'I' for Inactive)
REMARK       I    between atoms: C1_1  and  N6_6 
REMARK    1  A    between atoms: C4_4  and  C5_5 
REMARK    2  A    between atoms: C5_5  and  N6_6 
ROOT
HETATM    1  C1  UNL     1     -33.629   5.577   3.565  1.00 20.00     0.316 C 
HETATM    2  C3  UNL     1     -33.671   7.423   5.294  1.00 20.00     0.154 C 
HETATM    3  N6  UNL     1     -33.170   6.837   4.042  1.00 20.00    -0.343 N 
HETATM    4  O7  UNL     1     -33.217   5.076   2.516  1.00 20.00    -0.254 OA
HETATM    5 CL8  UNL     1     -34.819   4.752   4.554  1.00 20.00    -0.020 Cl
ENDROOT
BRANCH   3   6
HETATM    6  C5  UNL     1     -32.192   7.610   3.330  1.00 20.00     0.126 C 
BRANCH   6   7
HETATM    7  C4  UNL     1     -32.799   8.387   2.168  1.00 20.00     0.015 C 
HETATM    8  C2  UNL     1     -31.767   8.787   1.124  1.00 20.00     0.006 C 
ENDBRANCH   6   7
ENDBRANCH   3   6
TORSDOF 2
ENDMDL
MODEL 5
REMARK VINA RESULT:      -3.9      2.478      3.877
REMARK  2 active torsions:
REMARK  status: ('A' for Active; 'I' for Inactive)
REMARK       I    between atoms: C1_1  and  N6_6 
REMARK    1  A    between atoms: C4_4  and  C5_5 
REMARK    2  A    between atoms: C5_5  and  N6_6 
ROOT
HETATM    1  C1  UNL     1     -32.091   7.982   3.229  1.00 20.00     0.316 C 
HETATM    2  C3  UNL     1     -33.853   6.393   2.352  1.00 20.00     0.154 C 
HETATM    3  N6  UNL     1     -33.172   7.085   3.456  1.00 20.00    -0.343 N 
HETATM    4  O7  UNL     1     -31.513   8.568   4.147  1.00 20.00    -0.254 OA
HETATM    5 CL8  UNL     1     -31.605   8.215   1.559  1.00 20.00    -0.020 Cl
ENDROOT
BRANCH   3   6
HETATM    6  C5  UNL     1     -33.661   6.801   4.776  1.00 20.00     0.126 C 
BRANCH   6   7
HETATM    7  C4  UNL     1     -34.851   5.849   4.762  1.00 20.00     0.015 C 
HETATM    8  C2  UNL     1     -34.531   4.498   5.384  1.00 20.00     0.006 C 
ENDBRANCH   6   7
ENDBRANCH   3   6
TORSDOF 2
ENDMDL
MODEL 6
REMARK VINA RESULT:      -3.7      2.307      3.687
REMARK  2 active torsions:
REMARK  status: ('A' for Active; 'I' for Inactive)
REMARK       I    between atoms: C1_1  and  N6_6 
REMARK    1  A    between atoms: C4_4  and  C5_5 
REMARK    2  A    between atoms: C5_5  and  N6_6 
ROOT
HETATM    1  C1  UNL     1     -33.024   7.454   4.499  1.00 20.00     0.316 C 
HETATM    2  C3  UNL     1     -33.582   6.360   2.288  1.00 20.00     0.154 C 
HETATM    3  N6  UNL     1     -33.861   6.619   3.707  1.00 20.00    -0.343 N 
HETATM    4  O7  UNL     1     -33.248   7.678   5.690  1.00 20.00    -0.254 OA
HETATM    5 CL8  UNL     1     -31.631   8.154   3.693  1.00 20.00    -0.020 Cl
ENDROOT
BRANCH   3   6
HETATM    6  C5  UNL     1     -35.028   5.980   4.248  1.00 20.00     0.126 C 
BRANCH   6   7
HETATM    7  C4  UNL     1     -34.681   4.788   5.131  1.00 20.00     0.015 C 
HETATM    8  C2  UNL     1     -33.945   3.691   4.376  1.00 20.00     0.006 C 
ENDBRANCH   6   7
ENDBRANCH   3   6
TORSDOF 2
ENDMDL
MODEL 7
REMARK VINA RESULT:      -3.6     11.460     11.980
REMARK  2 active torsions:
REMARK  status: ('A' for Active; 'I' for Inactive)
REMARK       I    between atoms: C1_1  and  N6_6 
REMARK    1  A    between atoms: C4_4  and  C5_5 
REMARK    2  A    between atoms: C5_5  and  N6_6 
ROOT
HETATM    1  C1  UNL     1     -35.368  13.536  -6.014  1.00 20.00     0.316 C 
HETATM    2  C3  UNL     1     -33.730  15.409  -6.469  1.00 20.00     0.154 C 
HETATM    3  N6  UNL     1     -34.399  14.472  -5.555  1.00 20.00    -0.343 N 
HETATM    4  O7  UNL     1     -35.935  12.745  -5.257  1.00 20.00    -0.254 OA
HETATM    5 CL8  UNL     1     -35.731  13.565  -7.730  1.00 20.00    -0.020 Cl
ENDROOT
BRANCH   3   6
HETATM    6  C5  UNL     1     -34.017  14.556  -4.174  1.00 20.00     0.126 C 
BRANCH   6   7
HETATM    7  C4  UNL     1     -34.721  15.694  -3.445  1.00 20.00     0.015 C 
HETATM    8  C2  UNL     1     -33.752  16.621  -2.725  1.00 20.00     0.006 C 
ENDBRANCH   6   7
ENDBRANCH   3   6
TORSDOF 2
ENDMDL
MODEL 8
REMARK VINA RESULT:      -3.5     10.928     11.329
REMARK  2 active torsions:
REMARK  status: ('A' for Active; 'I' for Inactive)
REMARK       I    between atoms: C1_1  and  N6_6 
REMARK    1  A    between atoms: C4_4  and  C5_5 
REMARK    2  A    between atoms: C5_5  and  N6_6 
ROOT
HETATM    1  C1  UNL     1     -34.516  14.244  -4.320  1.00 20.00     0.316 C 
HETATM    2  C3  UNL     1     -36.172  16.039  -3.667  1.00 20.00     0.154 C 
HETATM    3  N6  UNL     1     -34.808  15.493  -3.706  1.00 20.00    -0.343 N 
HETATM    4  O7  UNL     1     -33.375  13.776  -4.360  1.00 20.00    -0.254 OA
HETATM    5 CL8  UNL     1     -35.872  13.381  -5.023  1.00 20.00    -0.020 Cl
ENDROOT
BRANCH   3   6
HETATM    6  C5  UNL     1     -33.790  16.294  -3.088  1.00 20.00     0.126 C 
BRANCH   6   7
HETATM    7  C4  UNL     1     -34.264  16.938  -1.791  1.00 20.00     0.015 C 
HETATM    8  C2  UNL     1     -33.252  17.919  -1.216  1.00 20.00     0.006 C 
ENDBRANCH   6   7
ENDBRANCH   3   6
TORSDOF 2
ENDMDL
MODEL 9
REMARK VINA RESULT:      -3.4      2.975      3.690
REMARK  2 active torsions:
REMARK  status: ('A' for Active; 'I' for Inactive)
REMARK       I    between atoms: C1_1  and  N6_6 
REMARK    1  A    between atoms: C4_4  and  C5_5 
REMARK    2  A    between atoms: C5_5  and  N6_6 
ROOT
HETATM    1  C1  UNL     1     -33.438   5.586   2.790  1.00 20.00     0.316 C 
HETATM    2  C3  UNL     1     -34.275   3.852   4.430  1.00 20.00     0.154 C 
HETATM    3  N6  UNL     1     -34.199   5.236   3.941  1.00 20.00    -0.343 N 
HETATM    4  O7  UNL     1     -33.367   6.743   2.370  1.00 20.00    -0.254 OA
HETATM    5 CL8  UNL     1     -32.587   4.279   1.987  1.00 20.00    -0.020 Cl
ENDROOT
BRANCH   3   6
HETATM    6  C5  UNL     1     -34.935   6.213   4.692  1.00 20.00     0.126 C 
BRANCH   6   7
HETATM    7  C4  UNL     1     -34.245   6.583   5.998  1.00 20.00     0.015 C 
HETATM    8  C2  UNL     1     -33.236   7.710   5.833  1.00 20.00     0.006 C 
ENDBRANCH   6   7
ENDBRANCH   3   6
TORSDOF 2
ENDMDL
