MODEL 1
REMARK VINA RESULT:      -5.3      0.000      0.000
REMARK  1 active torsions:
REMARK  status: ('A' for Active; 'I' for Inactive)
REMARK    1  A    between atoms: C3_3  and  C7_7 
REMARK       I    between atoms: C3_3  and  N8_8 
ROOT
HETATM    1  C1  UNL     1     -34.534   6.068   5.661  1.00 20.00    -0.010 A 
HETATM    2  C2  UNL     1     -34.950   5.601   4.479  1.00 20.00    -0.010 A 
HETATM    3  C3  UNL     1     -32.275   7.883   3.458  1.00 20.00     0.219 C 
HETATM    4  C4  UNL     1     -33.420   7.042   5.497  1.00 20.00     0.153 A 
HETATM    5  C5  UNL     1     -34.171   6.196   3.357  1.00 20.00     0.153 A 
HETATM    6  N8  UNL     1     -33.238   7.081   4.051  1.00 20.00    -0.345 N 
HETATM    7  O9  UNL     1     -31.508   8.615   4.085  1.00 20.00    -0.273 OA
ENDROOT
BRANCH   3   8
HETATM    8  C7  UNL     1     -32.211   7.815   1.954  1.00 20.00     0.098 C 
HETATM    9  C6  UNL     1     -32.263   9.206   1.371  1.00 20.00     0.014 C 
ENDBRANCH   3   8
TORSDOF 1
ENDMDL
MODEL 2
REMARK VINA RESULT:      -5.0      1.543      3.739
REMARK  1 active torsions:
REMARK  status: ('A' for Active; 'I' for Inactive)
REMARK    1  A    between atoms: C3_3  and  C7_7 
REMARK       I    between atoms: C3_3  and  N8_8 
ROOT
HETATM    1  C1  UNL     1     -31.511   8.553   3.160  1.00 20.00    -0.010 A 
HETATM    2  C2  UNL     1     -32.013   7.835   2.150  1.00 20.00    -0.010 A 
HETATM    3  C3  UNL     1     -34.059   6.674   4.954  1.00 20.00     0.219 C 
HETATM    4  C4  UNL     1     -32.204   8.244   4.440  1.00 20.00     0.153 A 
HETATM    5  C5  UNL     1     -33.113   6.944   2.613  1.00 20.00     0.153 A 
HETATM    6  N8  UNL     1     -33.185   7.243   4.042  1.00 20.00    -0.345 N 
HETATM    7  O9  UNL     1     -34.084   6.957   6.152  1.00 20.00    -0.273 OA
ENDROOT
BRANCH   3   8
HETATM    8  C7  UNL     1     -35.013   5.653   4.389  1.00 20.00     0.098 C 
HETATM    9  C6  UNL     1     -34.478   4.261   4.623  1.00 20.00     0.014 C 
ENDBRANCH   3   8
TORSDOF 1
ENDMDL
MODEL 3
REMARK VINA RESULT:      -4.8      1.398      1.876
REMARK  1 active torsions:
REMARK  status: ('A' for Active; 'I' for Inactive)
REMARK    1  A    between atoms: C3_3  and  C7_7 
REMARK       I    between atoms: C3_3  and  N8_8 
ROOT
HETATM    1  C1  UNL     1     -34.797   5.329   5.500  1.00 20.00    -0.010 A 
HETATM    2  C2  UNL     1     -34.375   6.427   6.135  1.00 20.00    -0.010 A 
HETATM    3  C3  UNL     1     -32.849   6.865   2.837  1.00 20.00     0.219 C 
HETATM    4  C4  UNL     1     -34.289   5.284   4.101  1.00 20.00     0.153 A 
HETATM    5  C5  UNL     1     -33.525   7.272   5.251  1.00 20.00     0.153 A 
HETATM    6  N8  UNL     1     -33.508   6.511   4.003  1.00 20.00    -0.345 N 
HETATM    7  O9  UNL     1     -32.863   6.192   1.806  1.00 20.00    -0.273 OA
ENDROOT
BRANCH   3   8
HETATM    8  C7  UNL     1     -32.083   8.163   2.892  1.00 20.00     0.098 C 
HETATM    9  C6  UNL     1     -32.013   8.780   1.517  1.00 20.00     0.014 C 
ENDBRANCH   3   8
TORSDOF 1
ENDMDL
MODEL 4
REMARK VINA RESULT:      -4.6      1.716      4.214
REMARK  1 active torsions:
REMARK  status: ('A' for Active; 'I' for Inactive)
REMARK    1  A    between atoms: C3_3  and  C7_7 
REMARK       I    between atoms: C3_3  and  N8_8 
ROOT
HETATM    1  C1  UNL     1     -31.949   8.362   1.880  1.00 20.00    -0.010 A 
HETATM    2  C2  UNL     1     -31.390   8.598   3.071  1.00 20.00    -0.010 A 
HETATM    3  C3  UNL     1     -34.262   6.533   4.014  1.00 20.00     0.219 C 
HETATM    4  C4  UNL     1     -33.168   7.518   2.012  1.00 20.00     0.153 A 
HETATM    5  C5  UNL     1     -32.157   7.945   4.169  1.00 20.00     0.153 A 
HETATM    6  N8  UNL     1     -33.248   7.291   3.450  1.00 20.00    -0.345 N 
HETATM    7  O9  UNL     1     -35.163   5.999   3.367  1.00 20.00    -0.273 OA
ENDROOT
BRANCH   3   8
HETATM    8  C7  UNL     1     -34.208   6.390   5.513  1.00 20.00     0.098 C 
HETATM    9  C6  UNL     1     -34.602   4.989   5.912  1.00 20.00     0.014 C 
ENDBRANCH   3   8
TORSDOF 1
ENDMDL
MODEL 5
REMARK VINA RESULT:      -3.9     11.435     11.799
REMARK  1 active torsions:
REMARK  status: ('A' for Active; 'I' for Inactive)
REMARK    1  A    between atoms: C3_3  and  C7_7 
REMARK       I    between atoms: C3_3  and  N8_8 
ROOT
HETATM    1  C1  UNL     1     -35.150  16.967  -1.578  1.00 20.00    -0.010 A 
HETATM    2  C2  UNL     1     -35.719  17.458  -0.472  1.00 20.00    -0.010 A 
HETATM    3  C3  UNL     1     -32.233  18.473  -0.008  1.00 20.00     0.219 C 
HETATM    4  C4  UNL     1     -33.692  17.263  -1.614  1.00 20.00     0.153 A 
HETATM    5  C5  UNL     1     -34.721  18.153   0.388  1.00 20.00     0.153 A 
HETATM    6  N8  UNL     1     -33.482  17.999  -0.373  1.00 20.00    -0.345 N 
HETATM    7  O9  UNL     1     -31.214  18.320  -0.682  1.00 20.00    -0.273 OA
ENDROOT
BRANCH   3   8
HETATM    8  C7  UNL     1     -32.178  19.213   1.304  1.00 20.00     0.098 C 
HETATM    9  C6  UNL     1     -30.839  18.995   1.965  1.00 20.00     0.014 C 
ENDBRANCH   3   8
TORSDOF 1
ENDMDL
MODEL 6
REMARK VINA RESULT:      -3.9      1.569      4.149
REMARK  1 active torsions:
REMARK  status: ('A' for Active; 'I' for Inactive)
REMARK    1  A    between atoms: C3_3  and  C7_7 
REMARK       I    between atoms: C3_3  and  N8_8 
ROOT
HETATM    1  C1  UNL     1     -32.426  10.369   0.694  1.00 20.00    -0.010 A 
HETATM    2  C2  UNL     1     -32.986   9.477  -0.130  1.00 20.00    -0.010 A 
HETATM    3  C3  UNL     1     -32.695   7.533   2.958  1.00 20.00     0.219 C 
HETATM    4  C4  UNL     1     -32.204   9.791   2.047  1.00 20.00     0.153 A 
HETATM    5  C5  UNL     1     -33.218   8.176   0.558  1.00 20.00     0.153 A 
HETATM    6  N8  UNL     1     -32.713   8.433   1.905  1.00 20.00    -0.345 N 
HETATM    7  O9  UNL     1     -32.259   7.794   4.080  1.00 20.00    -0.273 OA
ENDROOT
BRANCH   3   8
HETATM    8  C7  UNL     1     -33.256   6.167   2.654  1.00 20.00     0.098 C 
HETATM    9  C6  UNL     1     -34.376   5.844   3.612  1.00 20.00     0.014 C 
ENDBRANCH   3   8
TORSDOF 1
ENDMDL
MODEL 7
REMARK VINA RESULT:      -3.8     11.151     12.380
REMARK  1 active torsions:
REMARK  status: ('A' for Active; 'I' for Inactive)
REMARK    1  A    between atoms: C3_3  and  C7_7 
REMARK       I    between atoms: C3_3  and  N8_8 
ROOT
HETATM    1  C1  UNL     1     -33.664  15.969  -3.697  1.00 20.00    -0.010 A 
HETATM    2  C2  UNL     1     -33.303  16.464  -4.885  1.00 20.00    -0.010 A 
HETATM    3  C3  UNL     1     -35.334  13.587  -5.884  1.00 20.00     0.219 C 
HETATM    4  C4  UNL     1     -34.519  14.760  -3.852  1.00 20.00     0.153 A 
HETATM    5  C5  UNL     1     -33.866  15.656  -6.003  1.00 20.00     0.153 A 
HETATM    6  N8  UNL     1     -34.611  14.614  -5.299  1.00 20.00    -0.345 N 
HETATM    7  O9  UNL     1     -35.949  12.729  -5.250  1.00 20.00    -0.273 OA
ENDROOT
BRANCH   3   8
HETATM    8  C7  UNL     1     -35.333  13.570  -7.392  1.00 20.00     0.098 C 
HETATM    9  C6  UNL     1     -36.588  14.223  -7.916  1.00 20.00     0.014 C 
ENDBRANCH   3   8
TORSDOF 1
ENDMDL
MODEL 8
REMARK VINA RESULT:      -3.7     11.607     11.967
REMARK  1 active torsions:
REMARK  status: ('A' for Active; 'I' for Inactive)
REMARK    1  A    between atoms: C3_3  and  C7_7 
REMARK       I    between atoms: C3_3  and  N8_8 
ROOT
HETATM    1  C1  UNL     1     -30.892  19.263   3.401  1.00 20.00    -0.010 A 
HETATM    2  C2  UNL     1     -32.200  19.256   3.677  1.00 20.00    -0.010 A 
HETATM    3  C3  UNL     1     -32.205  18.417   0.114  1.00 20.00     0.219 C 
HETATM    4  C4  UNL     1     -30.639  18.940   1.970  1.00 20.00     0.153 A 
HETATM    5  C5  UNL     1     -33.007  18.928   2.469  1.00 20.00     0.153 A 
HETATM    6  N8  UNL     1     -31.983  18.742   1.443  1.00 20.00    -0.345 N 
HETATM    7  O9  UNL     1     -31.309  18.270  -0.718  1.00 20.00    -0.273 OA
ENDROOT
BRANCH   3   8
HETATM    8  C7  UNL     1     -33.650  18.247  -0.279  1.00 20.00     0.098 C 
HETATM    9  C6  UNL     1     -33.752  17.365  -1.499  1.00 20.00     0.014 C 
ENDBRANCH   3   8
TORSDOF 1
ENDMDL
MODEL 9
REMARK VINA RESULT:      -3.7     11.604     12.646
REMARK  1 active torsions:
REMARK  status: ('A' for Active; 'I' for Inactive)
REMARK    1  A    between atoms: C3_3  and  C7_7 
REMARK       I    between atoms: C3_3  and  N8_8 
ROOT
HETATM    1  C1  UNL     1     -32.959  15.722  -5.098  1.00 20.00    -0.010 A 
HETATM    2  C2  UNL     1     -33.721  16.687  -5.624  1.00 20.00    -0.010 A 
HETATM    3  C3  UNL     1     -36.054  13.867  -5.567  1.00 20.00     0.219 C 
HETATM    4  C4  UNL     1     -33.712  14.444  -4.974  1.00 20.00     0.153 A 
HETATM    5  C5  UNL     1     -35.092  16.189  -5.925  1.00 20.00     0.153 A 
HETATM    6  N8  UNL     1     -35.026  14.793  -5.500  1.00 20.00    -0.345 N 
HETATM    7  O9  UNL     1     -35.953  12.697  -5.195  1.00 20.00    -0.273 OA
ENDROOT
BRANCH   3   8
HETATM    8  C7  UNL     1     -37.353  14.379  -6.137  1.00 20.00     0.098 C 
HETATM    9  C6  UNL     1     -38.349  14.607  -5.027  1.00 20.00     0.014 C 
ENDBRANCH   3   8
TORSDOF 1
ENDMDL
