MODEL 1
REMARK VINA RESULT:      -3.3      0.000      0.000
REMARK  0 active torsions:
REMARK  status: ('A' for Active; 'I' for Inactive)
ROOT
HETATM    1  C1  UNL     1     -32.745   7.700   4.839  1.00 20.00     0.282 C 
HETATM    2  C2  UNL     1     -33.319   6.099   3.102  1.00 20.00     0.286 C 
HETATM    3  C3  UNL     1     -33.851   7.280   5.803  1.00 20.00     0.104 C 
HETATM    4  C4  UNL     1     -34.504   5.453   3.837  1.00 20.00     0.071 C 
HETATM    5  C5  UNL     1     -35.848   6.068   3.451  1.00 20.00     0.023 C 
HETATM    6  C6  UNL     1     -32.092   8.097   2.560  1.00 20.00     0.310 C 
HETATM    7  N7  UNL     1     -33.121   7.520   3.430  1.00 20.00     0.086 N 
HETATM    8  S8  UNL     1     -34.260   5.519   5.644  1.00 20.00    -0.161 SA
ENDROOT
TORSDOF 0
ENDMDL
MODEL 2
REMARK VINA RESULT:      -3.1      1.273      2.332
REMARK  0 active torsions:
REMARK  status: ('A' for Active; 'I' for Inactive)
ROOT
HETATM    1  C1  UNL     1     -32.896   5.913   2.460  1.00 20.00     0.282 C 
HETATM    2  C2  UNL     1     -33.754   7.884   3.594  1.00 20.00     0.286 C 
HETATM    3  C3  UNL     1     -33.451   4.907   3.465  1.00 20.00     0.104 C 
HETATM    4  C4  UNL     1     -34.436   7.143   4.754  1.00 20.00     0.071 C 
HETATM    5  C5  UNL     1     -33.553   7.045   5.997  1.00 20.00     0.023 C 
HETATM    6  C6  UNL     1     -31.873   8.059   2.102  1.00 20.00     0.310 C 
HETATM    7  N7  UNL     1     -32.556   7.203   3.076  1.00 20.00     0.086 N 
HETATM    8  S8  UNL     1     -34.993   5.487   4.226  1.00 20.00    -0.161 SA
ENDROOT
TORSDOF 0
ENDMDL
MODEL 3
REMARK VINA RESULT:      -3.0     12.016     12.900
REMARK  0 active torsions:
REMARK  status: ('A' for Active; 'I' for Inactive)
ROOT
HETATM    1  C1  UNL     1     -35.465  15.613  -6.050  1.00 20.00     0.282 C 
HETATM    2  C2  UNL     1     -34.336  14.643  -4.129  1.00 20.00     0.286 C 
HETATM    3  C3  UNL     1     -35.191  17.066  -5.670  1.00 20.00     0.104 C 
HETATM    4  C4  UNL     1     -33.899  15.969  -3.488  1.00 20.00     0.071 C 
HETATM    5  C5  UNL     1     -34.878  16.465  -2.425  1.00 20.00     0.023 C 
HETATM    6  C6  UNL     1     -36.027  13.398  -5.304  1.00 20.00     0.310 C 
HETATM    7  N7  UNL     1     -35.598  14.734  -4.880  1.00 20.00     0.086 N 
HETATM    8  S8  UNL     1     -33.630  17.248  -4.763  1.00 20.00    -0.161 SA
ENDROOT
TORSDOF 0
ENDMDL
MODEL 4
REMARK VINA RESULT:      -3.0     11.906     12.988
REMARK  0 active torsions:
REMARK  status: ('A' for Active; 'I' for Inactive)
ROOT
HETATM    1  C1  UNL     1     -34.091  14.905  -7.136  1.00 20.00     0.282 C 
HETATM    2  C2  UNL     1     -35.530  13.773  -5.538  1.00 20.00     0.286 C 
HETATM    3  C3  UNL     1     -33.308  15.703  -6.097  1.00 20.00     0.104 C 
HETATM    4  C4  UNL     1     -34.934  14.412  -4.274  1.00 20.00     0.071 C 
HETATM    5  C5  UNL     1     -35.708  15.645  -3.811  1.00 20.00     0.023 C 
HETATM    6  C6  UNL     1     -36.220  14.029  -7.829  1.00 20.00     0.310 C 
HETATM    7  N7  UNL     1     -35.477  14.642  -6.724  1.00 20.00     0.086 N 
HETATM    8  S8  UNL     1     -33.171  14.814  -4.521  1.00 20.00    -0.161 SA
ENDROOT
TORSDOF 0
ENDMDL
MODEL 5
REMARK VINA RESULT:      -3.0      1.918      2.968
REMARK  0 active torsions:
REMARK  status: ('A' for Active; 'I' for Inactive)
ROOT
HETATM    1  C1  UNL     1     -33.470   7.411   5.182  1.00 20.00     0.282 C 
HETATM    2  C2  UNL     1     -34.770   5.898   3.794  1.00 20.00     0.286 C 
HETATM    3  C3  UNL     1     -32.396   7.693   4.134  1.00 20.00     0.104 C 
HETATM    4  C4  UNL     1     -33.874   5.981   2.548  1.00 20.00     0.071 C 
HETATM    5  C5  UNL     1     -32.844   4.854   2.482  1.00 20.00     0.023 C 
HETATM    6  C6  UNL     1     -34.934   5.795   6.192  1.00 20.00     0.310 C 
HETATM    7  N7  UNL     1     -34.041   6.063   5.062  1.00 20.00     0.086 N 
HETATM    8  S8  UNL     1     -33.055   7.609   2.446  1.00 20.00    -0.161 SA
ENDROOT
TORSDOF 0
ENDMDL
MODEL 6
REMARK VINA RESULT:      -3.0     11.990     12.525
REMARK  0 active torsions:
REMARK  status: ('A' for Active; 'I' for Inactive)
ROOT
HETATM    1  C1  UNL     1     -33.580  16.207  -3.779  1.00 20.00     0.282 C 
HETATM    2  C2  UNL     1     -35.937  15.944  -4.311  1.00 20.00     0.286 C 
HETATM    3  C3  UNL     1     -33.071  15.293  -4.892  1.00 20.00     0.104 C 
HETATM    4  C4  UNL     1     -35.748  14.998  -5.506  1.00 20.00     0.071 C 
HETATM    5  C5  UNL     1     -35.865  13.524  -5.121  1.00 20.00     0.023 C 
HETATM    6  C6  UNL     1     -35.254  16.610  -2.102  1.00 20.00     0.310 C 
HETATM    7  N7  UNL     1     -34.901  15.806  -3.275  1.00 20.00     0.086 N 
HETATM    8  S8  UNL     1     -34.158  15.321  -6.344  1.00 20.00    -0.161 SA
ENDROOT
TORSDOF 0
ENDMDL
MODEL 7
REMARK VINA RESULT:      -2.9     11.991     13.190
REMARK  0 active torsions:
REMARK  status: ('A' for Active; 'I' for Inactive)
ROOT
HETATM    1  C1  UNL     1     -34.877  14.186  -4.525  1.00 20.00     0.282 C 
HETATM    2  C2  UNL     1     -33.335  15.577  -5.789  1.00 20.00     0.286 C 
HETATM    3  C3  UNL     1     -35.657  13.685  -5.738  1.00 20.00     0.104 C 
HETATM    4  C4  UNL     1     -33.903  15.257  -7.181  1.00 20.00     0.071 C 
HETATM    5  C5  UNL     1     -34.926  16.288  -7.655  1.00 20.00     0.023 C 
HETATM    6  C6  UNL     1     -33.755  16.028  -3.463  1.00 20.00     0.310 C 
HETATM    7  N7  UNL     1     -34.341  15.541  -4.715  1.00 20.00     0.086 N 
HETATM    8  S8  UNL     1     -34.616  13.577  -7.220  1.00 20.00    -0.161 SA
ENDROOT
TORSDOF 0
ENDMDL
MODEL 8
REMARK VINA RESULT:      -2.9     11.793     12.806
REMARK  0 active torsions:
REMARK  status: ('A' for Active; 'I' for Inactive)
ROOT
HETATM    1  C1  UNL     1     -33.493  17.748  -4.099  1.00 20.00     0.282 C 
HETATM    2  C2  UNL     1     -34.982  16.265  -2.877  1.00 20.00     0.286 C 
HETATM    3  C3  UNL     1     -33.658  17.051  -5.448  1.00 20.00     0.104 C 
HETATM    4  C4  UNL     1     -35.358  15.367  -4.066  1.00 20.00     0.071 C 
HETATM    5  C5  UNL     1     -34.491  14.112  -4.160  1.00 20.00     0.023 C 
HETATM    6  C6  UNL     1     -33.286  17.516  -1.716  1.00 20.00     0.310 C 
HETATM    7  N7  UNL     1     -33.623  16.825  -2.963  1.00 20.00     0.086 N 
HETATM    8  S8  UNL     1     -35.303  16.306  -5.630  1.00 20.00    -0.161 SA
ENDROOT
TORSDOF 0
ENDMDL
MODEL 9
REMARK VINA RESULT:      -2.9     11.824     12.657
REMARK  0 active torsions:
REMARK  status: ('A' for Active; 'I' for Inactive)
ROOT
HETATM    1  C1  UNL     1     -35.736  16.380  -4.736  1.00 20.00     0.282 C 
HETATM    2  C2  UNL     1     -35.000  14.084  -4.430  1.00 20.00     0.286 C 
HETATM    3  C3  UNL     1     -36.788  16.062  -5.796  1.00 20.00     0.104 C 
HETATM    4  C4  UNL     1     -35.962  13.449  -5.446  1.00 20.00     0.071 C 
HETATM    5  C5  UNL     1     -35.332  13.268  -6.826  1.00 20.00     0.023 C 
HETATM    6  C6  UNL     1     -33.548  15.915  -3.855  1.00 20.00     0.310 C 
HETATM    7  N7  UNL     1     -34.594  15.456  -4.774  1.00 20.00     0.086 N 
HETATM    8  S8  UNL     1     -37.508  14.413  -5.565  1.00 20.00    -0.161 SA
ENDROOT
TORSDOF 0
ENDMDL
