MODEL 1
REMARK VINA RESULT:      -4.8      0.000      0.000
REMARK  1 active torsions:
REMARK  status: ('A' for Active; 'I' for Inactive)
REMARK    1  A    between atoms: C1_1  and  C9_9 
ROOT
HETATM    1  C1  UNL     1     -32.940   7.034   3.219  1.00 20.00     0.020 C 
HETATM    2  C2  UNL     1     -33.004   5.868   2.299  1.00 20.00     0.058 C 
HETATM    3  C3  UNL     1     -33.574   4.788   3.212  1.00 20.00     0.038 C 
HETATM    4  C4  UNL     1     -34.427   5.540   4.243  1.00 20.00     0.055 C 
HETATM    5  C5  UNL     1     -34.353   4.922   5.631  1.00 20.00     0.041 C 
HETATM    6  C6  UNL     1     -35.859   5.784   3.779  1.00 20.00     0.041 C 
HETATM    7  N10 UNL     1     -33.729   6.852   4.245  1.00 20.00    -0.224 N 
HETATM    8  O11 UNL     1     -33.919   7.717   5.158  1.00 20.00    -0.085 OA
ENDROOT
BRANCH   1   9
HETATM    9  C9  UNL     1     -32.203   8.295   2.987  1.00 20.00     0.025 C 
HETATM   10  C7  UNL     1     -30.862   8.291   3.728  1.00 20.00     0.016 C 
HETATM   11  C8  UNL     1     -31.979   8.548   1.491  1.00 20.00     0.016 C 
ENDBRANCH   1   9
TORSDOF 1
ENDMDL
MODEL 2
REMARK VINA RESULT:      -4.2     11.713     12.515
REMARK  1 active torsions:
REMARK  status: ('A' for Active; 'I' for Inactive)
REMARK    1  A    between atoms: C1_1  and  C9_9 
ROOT
HETATM    1  C1  UNL     1     -34.856  15.963  -4.196  1.00 20.00     0.020 C 
HETATM    2  C2  UNL     1     -35.477  16.903  -5.165  1.00 20.00     0.058 C 
HETATM    3  C3  UNL     1     -35.409  16.100  -6.460  1.00 20.00     0.038 C 
HETATM    4  C4  UNL     1     -35.464  14.628  -6.024  1.00 20.00     0.055 C 
HETATM    5  C5  UNL     1     -34.587  13.728  -6.881  1.00 20.00     0.041 C 
HETATM    6  C6  UNL     1     -36.885  14.097  -5.869  1.00 20.00     0.041 C 
HETATM    7  N10 UNL     1     -34.879  14.742  -4.663  1.00 20.00    -0.224 N 
HETATM    8  O11 UNL     1     -34.471  13.726  -4.016  1.00 20.00    -0.085 OA
ENDROOT
BRANCH   1   9
HETATM    9  C9  UNL     1     -34.381  16.293  -2.836  1.00 20.00     0.025 C 
HETATM   10  C7  UNL     1     -33.372  17.446  -2.871  1.00 20.00     0.016 C 
HETATM   11  C8  UNL     1     -35.547  16.641  -1.902  1.00 20.00     0.016 C 
ENDBRANCH   1   9
TORSDOF 1
ENDMDL
MODEL 3
REMARK VINA RESULT:      -4.1      1.724      4.309
REMARK  1 active torsions:
REMARK  status: ('A' for Active; 'I' for Inactive)
REMARK    1  A    between atoms: C1_1  and  C9_9 
ROOT
HETATM    1  C1  UNL     1     -33.153   7.248   3.317  1.00 20.00     0.020 C 
HETATM    2  C2  UNL     1     -32.209   8.017   4.170  1.00 20.00     0.058 C 
HETATM    3  C3  UNL     1     -31.265   8.608   3.128  1.00 20.00     0.038 C 
HETATM    4  C4  UNL     1     -32.111   8.754   1.855  1.00 20.00     0.055 C 
HETATM    5  C5  UNL     1     -31.322   8.462   0.587  1.00 20.00     0.041 C 
HETATM    6  C6  UNL     1     -32.875  10.072   1.786  1.00 20.00     0.041 C 
HETATM    7  N10 UNL     1     -33.105   7.674   2.082  1.00 20.00    -0.224 N 
HETATM    8  O11 UNL     1     -33.854   7.237   1.151  1.00 20.00    -0.085 OA
ENDROOT
BRANCH   1   9
HETATM    9  C9  UNL     1     -34.118   6.227   3.778  1.00 20.00     0.025 C 
HETATM   10  C7  UNL     1     -33.665   4.821   3.371  1.00 20.00     0.016 C 
HETATM   11  C8  UNL     1     -34.328   6.296   5.295  1.00 20.00     0.016 C 
ENDBRANCH   1   9
TORSDOF 1
ENDMDL
MODEL 4
REMARK VINA RESULT:      -4.0      1.754      2.573
REMARK  1 active torsions:
REMARK  status: ('A' for Active; 'I' for Inactive)
REMARK    1  A    between atoms: C1_1  and  C9_9 
ROOT
HETATM    1  C1  UNL     1     -32.839   7.974   2.238  1.00 20.00     0.020 C 
HETATM    2  C2  UNL     1     -32.128   8.021   3.542  1.00 20.00     0.058 C 
HETATM    3  C3  UNL     1     -33.048   7.183   4.424  1.00 20.00     0.038 C 
HETATM    4  C4  UNL     1     -33.724   6.188   3.469  1.00 20.00     0.055 C 
HETATM    5  C5  UNL     1     -35.173   5.910   3.840  1.00 20.00     0.041 C 
HETATM    6  C6  UNL     1     -32.914   4.915   3.252  1.00 20.00     0.041 C 
HETATM    7  N10 UNL     1     -33.674   6.970   2.207  1.00 20.00    -0.224 N 
HETATM    8  O11 UNL     1     -34.369   6.654   1.189  1.00 20.00    -0.085 OA
ENDROOT
BRANCH   1   9
HETATM    9  C9  UNL     1     -32.581   8.841   1.067  1.00 20.00     0.025 C 
HETATM   10  C7  UNL     1     -32.862  10.310   1.400  1.00 20.00     0.016 C 
HETATM   11  C8  UNL     1     -31.145   8.681   0.555  1.00 20.00     0.016 C 
ENDBRANCH   1   9
TORSDOF 1
ENDMDL
MODEL 5
REMARK VINA RESULT:      -4.0     11.492     12.254
REMARK  1 active torsions:
REMARK  status: ('A' for Active; 'I' for Inactive)
REMARK    1  A    between atoms: C1_1  and  C9_9 
ROOT
HETATM    1  C1  UNL     1     -35.306  16.073  -3.290  1.00 20.00     0.020 C 
HETATM    2  C2  UNL     1     -33.864  15.741  -3.432  1.00 20.00     0.058 C 
HETATM    3  C3  UNL     1     -33.922  14.469  -4.271  1.00 20.00     0.038 C 
HETATM    4  C4  UNL     1     -35.204  14.596  -5.106  1.00 20.00     0.055 C 
HETATM    5  C5  UNL     1     -35.917  13.266  -5.295  1.00 20.00     0.041 C 
HETATM    6  C6  UNL     1     -34.999  15.349  -6.416  1.00 20.00     0.041 C 
HETATM    7  N10 UNL     1     -36.008  15.469  -4.212  1.00 20.00    -0.224 N 
HETATM    8  O11 UNL     1     -37.261  15.623  -4.365  1.00 20.00    -0.085 OA
ENDROOT
BRANCH   1   9
HETATM    9  C9  UNL     1     -35.893  17.040  -2.338  1.00 20.00     0.025 C 
HETATM   10  C7  UNL     1     -35.150  17.012  -0.998  1.00 20.00     0.016 C 
HETATM   11  C8  UNL     1     -35.894  18.463  -2.911  1.00 20.00     0.016 C 
ENDBRANCH   1   9
TORSDOF 1
ENDMDL
MODEL 6
REMARK VINA RESULT:      -4.0     11.601     12.319
REMARK  1 active torsions:
REMARK  status: ('A' for Active; 'I' for Inactive)
REMARK    1  A    between atoms: C1_1  and  C9_9 
ROOT
HETATM    1  C1  UNL     1     -35.096  16.110  -3.420  1.00 20.00     0.020 C 
HETATM    2  C2  UNL     1     -34.216  14.969  -3.786  1.00 20.00     0.058 C 
HETATM    3  C3  UNL     1     -35.190  14.052  -4.518  1.00 20.00     0.038 C 
HETATM    4  C4  UNL     1     -36.243  14.988  -5.128  1.00 20.00     0.055 C 
HETATM    5  C5  UNL     1     -37.643  14.393  -5.105  1.00 20.00     0.041 C 
HETATM    6  C6  UNL     1     -35.851  15.526  -6.500  1.00 20.00     0.041 C 
HETATM    7  N10 UNL     1     -36.168  16.119  -4.167  1.00 20.00    -0.224 N 
HETATM    8  O11 UNL     1     -37.064  17.021  -4.114  1.00 20.00    -0.085 OA
ENDROOT
BRANCH   1   9
HETATM    9  C9  UNL     1     -34.786  17.179  -2.447  1.00 20.00     0.025 C 
HETATM   10  C7  UNL     1     -35.458  16.904  -1.097  1.00 20.00     0.016 C 
HETATM   11  C8  UNL     1     -33.274  17.348  -2.259  1.00 20.00     0.016 C 
ENDBRANCH   1   9
TORSDOF 1
ENDMDL
MODEL 7
REMARK VINA RESULT:      -4.0     11.851     13.132
REMARK  1 active torsions:
REMARK  status: ('A' for Active; 'I' for Inactive)
REMARK    1  A    between atoms: C1_1  and  C9_9 
ROOT
HETATM    1  C1  UNL     1     -33.953  17.168  -3.368  1.00 20.00     0.020 C 
HETATM    2  C2  UNL     1     -34.083  18.457  -4.097  1.00 20.00     0.058 C 
HETATM    3  C3  UNL     1     -33.835  18.021  -5.538  1.00 20.00     0.038 C 
HETATM    4  C4  UNL     1     -34.307  16.562  -5.604  1.00 20.00     0.055 C 
HETATM    5  C5  UNL     1     -33.436  15.703  -6.509  1.00 20.00     0.041 C 
HETATM    6  C6  UNL     1     -35.795  16.421  -5.907  1.00 20.00     0.041 C 
HETATM    7  N10 UNL     1     -34.101  16.161  -4.188  1.00 20.00    -0.224 N 
HETATM    8  O11 UNL     1     -34.100  14.942  -3.824  1.00 20.00    -0.085 OA
ENDROOT
BRANCH   1   9
HETATM    9  C9  UNL     1     -33.805  16.999  -1.907  1.00 20.00     0.025 C 
HETATM   10  C7  UNL     1     -32.857  18.052  -1.326  1.00 20.00     0.016 C 
HETATM   11  C8  UNL     1     -35.162  17.059  -1.194  1.00 20.00     0.016 C 
ENDBRANCH   1   9
TORSDOF 1
ENDMDL
MODEL 8
REMARK VINA RESULT:      -3.9     11.116     12.708
REMARK  1 active torsions:
REMARK  status: ('A' for Active; 'I' for Inactive)
REMARK    1  A    between atoms: C1_1  and  C9_9 
ROOT
HETATM    1  C1  UNL     1     -36.011  14.792  -5.151  1.00 20.00     0.020 C 
HETATM    2  C2  UNL     1     -35.986  15.862  -4.119  1.00 20.00     0.058 C 
HETATM    3  C3  UNL     1     -34.623  15.635  -3.474  1.00 20.00     0.038 C 
HETATM    4  C4  UNL     1     -33.751  15.025  -4.581  1.00 20.00     0.055 C 
HETATM    5  C5  UNL     1     -32.785  13.973  -4.057  1.00 20.00     0.041 C 
HETATM    6  C6  UNL     1     -33.067  16.071  -5.456  1.00 20.00     0.041 C 
HETATM    7  N10 UNL     1     -34.800  14.372  -5.405  1.00 20.00    -0.224 N 
HETATM    8  O11 UNL     1     -34.521  13.505  -6.292  1.00 20.00    -0.085 OA
ENDROOT
BRANCH   1   9
HETATM    9  C9  UNL     1     -37.197  14.327  -5.902  1.00 20.00     0.025 C 
HETATM   10  C7  UNL     1     -38.478  14.536  -5.089  1.00 20.00     0.016 C 
HETATM   11  C8  UNL     1     -37.314  15.030  -7.260  1.00 20.00     0.016 C 
ENDBRANCH   1   9
TORSDOF 1
ENDMDL
MODEL 9
REMARK VINA RESULT:      -3.7     12.082     12.861
REMARK  1 active torsions:
REMARK  status: ('A' for Active; 'I' for Inactive)
REMARK    1  A    between atoms: C1_1  and  C9_9 
ROOT
HETATM    1  C1  UNL     1     -33.709  18.372  -0.742  1.00 20.00     0.020 C 
HETATM    2  C2  UNL     1     -34.764  17.391  -0.374  1.00 20.00     0.058 C 
HETATM    3  C3  UNL     1     -35.509  17.232  -1.695  1.00 20.00     0.038 C 
HETATM    4  C4  UNL     1     -34.462  17.504  -2.784  1.00 20.00     0.055 C 
HETATM    5  C5  UNL     1     -35.037  18.245  -3.982  1.00 20.00     0.041 C 
HETATM    6  C6  UNL     1     -33.668  16.264  -3.181  1.00 20.00     0.041 C 
HETATM    7  N10 UNL     1     -33.543  18.402  -2.038  1.00 20.00    -0.224 N 
HETATM    8  O11 UNL     1     -32.661  19.106  -2.625  1.00 20.00    -0.085 OA
ENDROOT
BRANCH   1   9
HETATM    9  C9  UNL     1     -32.856  19.134   0.195  1.00 20.00     0.025 C 
HETATM   10  C7  UNL     1     -33.520  19.252   1.570  1.00 20.00     0.016 C 
HETATM   11  C8  UNL     1     -31.466  18.499   0.333  1.00 20.00     0.016 C 
ENDBRANCH   1   9
TORSDOF 1
ENDMDL
