MODEL 1
REMARK VINA RESULT:      -3.5      0.000      0.000
REMARK  0 active torsions:
REMARK  status: ('A' for Active; 'I' for Inactive)
ROOT
HETATM    1  C1  UNL     1     -35.051   5.783   3.963  1.00 20.00     0.282 C 
HETATM    2  C2  UNL     1     -33.330   7.022   2.761  1.00 20.00     0.286 C 
HETATM    3  C3  UNL     1     -34.418   5.942   5.344  1.00 20.00     0.104 C 
HETATM    4  C4  UNL     1     -32.468   7.341   3.992  1.00 20.00     0.071 C 
HETATM    5  C5  UNL     1     -31.697   8.644   3.789  1.00 20.00     0.023 C 
HETATM    6  C6  UNL     1     -33.288   4.584   2.782  1.00 20.00     0.310 C 
HETATM    7  N7  UNL     1     -34.117   5.785   2.833  1.00 20.00     0.086 N 
HETATM    8  S8  UNL     1     -33.504   7.503   5.486  1.00 20.00    -0.161 SA
ENDROOT
TORSDOF 0
ENDMDL
MODEL 2
REMARK VINA RESULT:      -3.2     11.790     12.663
REMARK  0 active torsions:
REMARK  status: ('A' for Active; 'I' for Inactive)
ROOT
HETATM    1  C1  UNL     1     -34.819  13.663  -6.712  1.00 20.00     0.282 C 
HETATM    2  C2  UNL     1     -34.869  14.184  -4.331  1.00 20.00     0.286 C 
HETATM    3  C3  UNL     1     -34.443  15.072  -7.169  1.00 20.00     0.104 C 
HETATM    4  C4  UNL     1     -34.500  15.668  -4.480  1.00 20.00     0.071 C 
HETATM    5  C5  UNL     1     -33.768  16.170  -3.237  1.00 20.00     0.023 C 
HETATM    6  C6  UNL     1     -36.947  14.090  -5.604  1.00 20.00     0.310 C 
HETATM    7  N7  UNL     1     -35.585  13.584  -5.464  1.00 20.00     0.086 N 
HETATM    8  S8  UNL     1     -33.426  15.927  -5.934  1.00 20.00    -0.161 SA
ENDROOT
TORSDOF 0
ENDMDL
MODEL 3
REMARK VINA RESULT:      -3.1      1.389      3.147
REMARK  0 active torsions:
REMARK  status: ('A' for Active; 'I' for Inactive)
ROOT
HETATM    1  C1  UNL     1     -31.429   8.046   3.712  1.00 20.00     0.282 C 
HETATM    2  C2  UNL     1     -33.062   6.460   2.841  1.00 20.00     0.286 C 
HETATM    3  C3  UNL     1     -32.312   8.571   4.843  1.00 20.00     0.104 C 
HETATM    4  C4  UNL     1     -34.164   6.782   3.863  1.00 20.00     0.071 C 
HETATM    5  C5  UNL     1     -35.056   5.565   4.097  1.00 20.00     0.023 C 
HETATM    6  C6  UNL     1     -32.775   8.630   1.766  1.00 20.00     0.310 C 
HETATM    7  N7  UNL     1     -32.139   7.557   2.526  1.00 20.00     0.086 N 
HETATM    8  S8  UNL     1     -33.440   7.291   5.459  1.00 20.00    -0.161 SA
ENDROOT
TORSDOF 0
ENDMDL
MODEL 4
REMARK VINA RESULT:      -3.0     12.188     13.201
REMARK  0 active torsions:
REMARK  status: ('A' for Active; 'I' for Inactive)
ROOT
HETATM    1  C1  UNL     1     -33.683  16.229  -3.702  1.00 20.00     0.282 C 
HETATM    2  C2  UNL     1     -33.234  15.613  -6.018  1.00 20.00     0.286 C 
HETATM    3  C3  UNL     1     -35.061  15.574  -3.633  1.00 20.00     0.104 C 
HETATM    4  C4  UNL     1     -34.562  14.877  -6.251  1.00 20.00     0.071 C 
HETATM    5  C5  UNL     1     -34.395  13.781  -7.302  1.00 20.00     0.023 C 
HETATM    6  C6  UNL     1     -34.032  17.855  -5.483  1.00 20.00     0.310 C 
HETATM    7  N7  UNL     1     -33.268  16.698  -5.028  1.00 20.00     0.086 N 
HETATM    8  S8  UNL     1     -35.162  14.114  -4.705  1.00 20.00    -0.161 SA
ENDROOT
TORSDOF 0
ENDMDL
MODEL 5
REMARK VINA RESULT:      -2.9     11.979     12.565
REMARK  0 active torsions:
REMARK  status: ('A' for Active; 'I' for Inactive)
ROOT
HETATM    1  C1  UNL     1     -34.500  16.196  -5.596  1.00 20.00     0.282 C 
HETATM    2  C2  UNL     1     -33.694  16.702  -3.351  1.00 20.00     0.286 C 
HETATM    3  C3  UNL     1     -35.867  15.676  -5.155  1.00 20.00     0.104 C 
HETATM    4  C4  UNL     1     -34.963  16.243  -2.616  1.00 20.00     0.071 C 
HETATM    5  C5  UNL     1     -35.138  17.013  -1.308  1.00 20.00     0.023 C 
HETATM    6  C6  UNL     1     -33.020  14.633  -4.452  1.00 20.00     0.310 C 
HETATM    7  N7  UNL     1     -33.413  16.029  -4.626  1.00 20.00     0.086 N 
HETATM    8  S8  UNL     1     -36.444  16.506  -3.649  1.00 20.00    -0.161 SA
ENDROOT
TORSDOF 0
ENDMDL
MODEL 6
REMARK VINA RESULT:      -2.9     12.020     12.768
REMARK  0 active torsions:
REMARK  status: ('A' for Active; 'I' for Inactive)
ROOT
HETATM    1  C1  UNL     1     -34.768  15.587  -3.471  1.00 20.00     0.282 C 
HETATM    2  C2  UNL     1     -33.737  14.495  -5.391  1.00 20.00     0.286 C 
HETATM    3  C3  UNL     1     -36.176  15.640  -4.062  1.00 20.00     0.104 C 
HETATM    4  C4  UNL     1     -35.017  14.408  -6.236  1.00 20.00     0.071 C 
HETATM    5  C5  UNL     1     -34.960  13.211  -7.182  1.00 20.00     0.023 C 
HETATM    6  C6  UNL     1     -33.531  16.908  -5.103  1.00 20.00     0.310 C 
HETATM    7  N7  UNL     1     -33.670  15.614  -4.442  1.00 20.00     0.086 N 
HETATM    8  S8  UNL     1     -36.489  14.239  -5.170  1.00 20.00    -0.161 SA
ENDROOT
TORSDOF 0
ENDMDL
MODEL 7
REMARK VINA RESULT:      -2.9     11.921     12.736
REMARK  0 active torsions:
REMARK  status: ('A' for Active; 'I' for Inactive)
ROOT
HETATM    1  C1  UNL     1     -34.326  14.774  -6.567  1.00 20.00     0.282 C 
HETATM    2  C2  UNL     1     -34.181  14.632  -4.137  1.00 20.00     0.286 C 
HETATM    3  C3  UNL     1     -34.872  16.201  -6.605  1.00 20.00     0.104 C 
HETATM    4  C4  UNL     1     -34.712  16.047  -3.859  1.00 20.00     0.071 C 
HETATM    5  C5  UNL     1     -34.142  16.591  -2.551  1.00 20.00     0.023 C 
HETATM    6  C6  UNL     1     -36.079  13.643  -5.306  1.00 20.00     0.310 C 
HETATM    7  N7  UNL     1     -34.664  13.997  -5.370  1.00 20.00     0.086 N 
HETATM    8  S8  UNL     1     -34.261  17.188  -5.211  1.00 20.00    -0.161 SA
ENDROOT
TORSDOF 0
ENDMDL
MODEL 8
REMARK VINA RESULT:      -2.8     11.930     12.765
REMARK  0 active torsions:
REMARK  status: ('A' for Active; 'I' for Inactive)
ROOT
HETATM    1  C1  UNL     1     -33.187  14.732  -4.561  1.00 20.00     0.282 C 
HETATM    2  C2  UNL     1     -35.053  15.740  -3.358  1.00 20.00     0.286 C 
HETATM    3  C3  UNL     1     -33.135  15.781  -5.670  1.00 20.00     0.104 C 
HETATM    4  C4  UNL     1     -35.245  16.925  -4.318  1.00 20.00     0.071 C 
HETATM    5  C5  UNL     1     -35.825  18.129  -3.580  1.00 20.00     0.023 C 
HETATM    6  C6  UNL     1     -35.442  13.857  -4.858  1.00 20.00     0.310 C 
HETATM    7  N7  UNL     1     -34.504  14.515  -3.953  1.00 20.00     0.086 N 
HETATM    8  S8  UNL     1     -33.656  17.413  -5.073  1.00 20.00    -0.161 SA
ENDROOT
TORSDOF 0
ENDMDL
MODEL 9
REMARK VINA RESULT:      -2.8     12.292     13.024
REMARK  0 active torsions:
REMARK  status: ('A' for Active; 'I' for Inactive)
ROOT
HETATM    1  C1  UNL     1     -33.523  16.942  -4.910  1.00 20.00     0.282 C 
HETATM    2  C2  UNL     1     -35.787  16.187  -4.413  1.00 20.00     0.286 C 
HETATM    3  C3  UNL     1     -32.982  15.565  -5.292  1.00 20.00     0.104 C 
HETATM    4  C4  UNL     1     -35.538  14.704  -4.730  1.00 20.00     0.071 C 
HETATM    5  C5  UNL     1     -36.824  14.030  -5.205  1.00 20.00     0.023 C 
HETATM    6  C6  UNL     1     -34.196  16.549  -2.600  1.00 20.00     0.310 C 
HETATM    7  N7  UNL     1     -34.622  16.946  -3.939  1.00 20.00     0.086 N 
HETATM    8  S8  UNL     1     -34.270  14.523  -6.031  1.00 20.00    -0.161 SA
ENDROOT
TORSDOF 0
ENDMDL
