MODEL 1
REMARK VINA RESULT:      -4.9      0.000      0.000
REMARK  3 active torsions:
REMARK  status: ('A' for Active; 'I' for Inactive)
REMARK    1  A    between atoms: C2_2  and  C3_3 
REMARK    2  A    between atoms: C3_3  and  N8_8 
REMARK    3  A    between atoms: C7_7  and  N8_8 
ROOT
HETATM    1  C3  UNL     1     -33.613   6.228   3.615  1.00 20.00     0.102 C 
HETATM    2  S9  UNL     1     -33.297   4.846   2.708  1.00 20.00    -0.060 SA
ENDROOT
BRANCH   1   3
HETATM    3  C2  UNL     1     -34.090   6.191   5.026  1.00 20.00    -0.034 C 
HETATM    4  C1  UNL     1     -34.767   5.104   5.421  1.00 20.00     0.021 C 
HETATM    5  C4  UNL     1     -33.798   7.367   5.900  1.00 20.00     0.050 C 
ENDBRANCH   1   3
BRANCH   1   6
HETATM    6  N8  UNL     1     -33.440   7.472   3.047  1.00 20.00    -0.377 N 
HETATM    7  H22 UNL     1     -34.233   8.104   3.092  1.00 20.00     0.160 HD
BRANCH   6   8
HETATM    8  C7  UNL     1     -32.239   7.984   2.414  1.00 20.00     0.074 C 
HETATM    9  C5  UNL     1     -31.237   8.378   3.489  1.00 20.00     0.031 C 
HETATM   10  C6  UNL     1     -32.614   9.168   1.533  1.00 20.00     0.031 C 
ENDBRANCH   6   8
ENDBRANCH   1   6
TORSDOF 3
ENDMDL
MODEL 2
REMARK VINA RESULT:      -4.9      0.088      1.183
REMARK  3 active torsions:
REMARK  status: ('A' for Active; 'I' for Inactive)
REMARK    1  A    between atoms: C2_2  and  C3_3 
REMARK    2  A    between atoms: C3_3  and  N8_8 
REMARK    3  A    between atoms: C7_7  and  N8_8 
ROOT
HETATM    1  C3  UNL     1     -33.599   6.301   3.628  1.00 20.00     0.102 C 
HETATM    2  S9  UNL     1     -33.294   4.913   2.724  1.00 20.00    -0.060 SA
ENDROOT
BRANCH   1   3
HETATM    3  C2  UNL     1     -34.058   6.270   5.045  1.00 20.00    -0.034 C 
HETATM    4  C1  UNL     1     -33.802   7.347   5.801  1.00 20.00     0.021 C 
HETATM    5  C4  UNL     1     -34.756   5.043   5.534  1.00 20.00     0.050 C 
ENDBRANCH   1   3
BRANCH   1   6
HETATM    6  N8  UNL     1     -33.436   7.541   3.051  1.00 20.00    -0.377 N 
HETATM    7  H22 UNL     1     -34.220   8.182   3.125  1.00 20.00     0.160 HD
BRANCH   6   8
HETATM    8  C7  UNL     1     -32.255   8.040   2.371  1.00 20.00     0.074 C 
HETATM    9  C5  UNL     1     -31.202   8.410   3.404  1.00 20.00     0.031 C 
HETATM   10  C6  UNL     1     -32.648   9.236   1.515  1.00 20.00     0.031 C 
ENDBRANCH   6   8
ENDBRANCH   1   6
TORSDOF 3
ENDMDL
MODEL 3
REMARK VINA RESULT:      -4.6      1.548      2.049
REMARK  3 active torsions:
REMARK  status: ('A' for Active; 'I' for Inactive)
REMARK    1  A    between atoms: C2_2  and  C3_3 
REMARK    2  A    between atoms: C3_3  and  N8_8 
REMARK    3  A    between atoms: C7_7  and  N8_8 
ROOT
HETATM    1  C3  UNL     1     -33.735   6.686   4.138  1.00 20.00     0.102 C 
HETATM    2  S9  UNL     1     -33.796   7.236   5.728  1.00 20.00    -0.060 SA
ENDROOT
BRANCH   1   3
HETATM    3  C2  UNL     1     -33.856   5.249   3.764  1.00 20.00    -0.034 C 
HETATM    4  C1  UNL     1     -34.603   4.465   4.554  1.00 20.00     0.021 C 
HETATM    5  C4  UNL     1     -33.128   4.773   2.550  1.00 20.00     0.050 C 
ENDBRANCH   1   3
BRANCH   1   6
HETATM    6  N8  UNL     1     -33.555   7.585   3.111  1.00 20.00    -0.377 N 
HETATM    7  H22 UNL     1     -34.386   8.064   2.776  1.00 20.00     0.160 HD
BRANCH   6   8
HETATM    8  C7  UNL     1     -32.302   7.942   2.471  1.00 20.00     0.074 C 
HETATM    9  C5  UNL     1     -31.284   8.313   3.538  1.00 20.00     0.031 C 
HETATM   10  C6  UNL     1     -32.552   9.092   1.506  1.00 20.00     0.031 C 
ENDBRANCH   6   8
ENDBRANCH   1   6
TORSDOF 3
ENDMDL
MODEL 4
REMARK VINA RESULT:      -4.2      1.835      2.418
REMARK  3 active torsions:
REMARK  status: ('A' for Active; 'I' for Inactive)
REMARK    1  A    between atoms: C2_2  and  C3_3 
REMARK    2  A    between atoms: C3_3  and  N8_8 
REMARK    3  A    between atoms: C7_7  and  N8_8 
ROOT
HETATM    1  C3  UNL     1     -32.679   7.794   2.990  1.00 20.00     0.102 C 
HETATM    2  S9  UNL     1     -31.192   8.286   3.608  1.00 20.00    -0.060 SA
ENDROOT
BRANCH   1   3
HETATM    3  C2  UNL     1     -33.620   6.908   3.729  1.00 20.00    -0.034 C 
HETATM    4  C1  UNL     1     -34.246   5.951   3.031  1.00 20.00     0.021 C 
HETATM    5  C4  UNL     1     -33.817   7.152   5.191  1.00 20.00     0.050 C 
ENDBRANCH   1   3
BRANCH   1   6
HETATM    6  N8  UNL     1     -33.067   8.208   1.734  1.00 20.00    -0.377 N 
HETATM    7  H22 UNL     1     -33.870   7.736   1.330  1.00 20.00     0.160 HD
BRANCH   6   8
HETATM    8  C7  UNL     1     -32.468   9.261   0.937  1.00 20.00     0.074 C 
HETATM    9  C5  UNL     1     -32.879  10.612   1.503  1.00 20.00     0.031 C 
HETATM   10  C6  UNL     1     -32.913   9.098  -0.510  1.00 20.00     0.031 C 
ENDBRANCH   6   8
ENDBRANCH   1   6
TORSDOF 3
ENDMDL
MODEL 5
REMARK VINA RESULT:      -4.1      2.020      4.541
REMARK  3 active torsions:
REMARK  status: ('A' for Active; 'I' for Inactive)
REMARK    1  A    between atoms: C2_2  and  C3_3 
REMARK    2  A    between atoms: C3_3  and  N8_8 
REMARK    3  A    between atoms: C7_7  and  N8_8 
ROOT
HETATM    1  C3  UNL     1     -32.516   8.318   2.176  1.00 20.00     0.102 C 
HETATM    2  S9  UNL     1     -31.327   8.413   3.364  1.00 20.00    -0.060 SA
ENDROOT
BRANCH   1   3
HETATM    3  C2  UNL     1     -32.679   9.334   1.099  1.00 20.00    -0.034 C 
HETATM    4  C1  UNL     1     -32.675  10.625   1.459  1.00 20.00     0.021 C 
HETATM    5  C4  UNL     1     -32.854   8.851  -0.305  1.00 20.00     0.050 C 
ENDBRANCH   1   3
BRANCH   1   6
HETATM    6  N8  UNL     1     -33.404   7.265   2.182  1.00 20.00    -0.377 N 
HETATM    7  H22 UNL     1     -34.058   7.220   1.406  1.00 20.00     0.160 HD
BRANCH   6   8
HETATM    8  C7  UNL     1     -33.490   6.200   3.163  1.00 20.00     0.074 C 
HETATM    9  C5  UNL     1     -33.000   4.903   2.536  1.00 20.00     0.031 C 
HETATM   10  C6  UNL     1     -34.931   6.084   3.639  1.00 20.00     0.031 C 
ENDBRANCH   6   8
ENDBRANCH   1   6
TORSDOF 3
ENDMDL
MODEL 6
REMARK VINA RESULT:      -4.1      0.662      3.704
REMARK  3 active torsions:
REMARK  status: ('A' for Active; 'I' for Inactive)
REMARK    1  A    between atoms: C2_2  and  C3_3 
REMARK    2  A    between atoms: C3_3  and  N8_8 
REMARK    3  A    between atoms: C7_7  and  N8_8 
ROOT
HETATM    1  C3  UNL     1     -33.261   6.603   3.041  1.00 20.00     0.102 C 
HETATM    2  S9  UNL     1     -32.907   5.030   2.558  1.00 20.00    -0.060 SA
ENDROOT
BRANCH   1   3
HETATM    3  C2  UNL     1     -32.393   7.772   2.725  1.00 20.00    -0.034 C 
HETATM    4  C1  UNL     1     -31.444   8.096   3.614  1.00 20.00     0.021 C 
HETATM    5  C4  UNL     1     -32.645   8.513   1.452  1.00 20.00     0.050 C 
ENDBRANCH   1   3
BRANCH   1   6
HETATM    6  N8  UNL     1     -34.399   6.852   3.777  1.00 20.00    -0.377 N 
HETATM    7  H22 UNL     1     -35.161   7.313   3.290  1.00 20.00     0.160 HD
BRANCH   6   8
HETATM    8  C7  UNL     1     -34.635   6.503   5.165  1.00 20.00     0.074 C 
HETATM    9  C5  UNL     1     -33.625   7.229   6.042  1.00 20.00     0.031 C 
HETATM   10  C6  UNL     1     -34.532   4.993   5.319  1.00 20.00     0.031 C 
ENDBRANCH   6   8
ENDBRANCH   1   6
TORSDOF 3
ENDMDL
MODEL 7
REMARK VINA RESULT:      -3.9      1.775      3.881
REMARK  3 active torsions:
REMARK  status: ('A' for Active; 'I' for Inactive)
REMARK    1  A    between atoms: C2_2  and  C3_3 
REMARK    2  A    between atoms: C3_3  and  N8_8 
REMARK    3  A    between atoms: C7_7  and  N8_8 
ROOT
HETATM    1  C3  UNL     1     -33.449   7.255   4.076  1.00 20.00     0.102 C 
HETATM    2  S9  UNL     1     -33.548   7.457   5.745  1.00 20.00    -0.060 SA
ENDROOT
BRANCH   1   3
HETATM    3  C2  UNL     1     -32.437   7.943   3.227  1.00 20.00    -0.034 C 
HETATM    4  C1  UNL     1     -31.258   8.242   3.789  1.00 20.00     0.021 C 
HETATM    5  C4  UNL     1     -32.806   8.268   1.815  1.00 20.00     0.050 C 
ENDBRANCH   1   3
BRANCH   1   6
HETATM    6  N8  UNL     1     -34.343   6.426   3.435  1.00 20.00    -0.377 N 
HETATM    7  H22 UNL     1     -35.140   6.874   2.994  1.00 20.00     0.160 HD
BRANCH   6   8
HETATM    8  C7  UNL     1     -34.256   4.983   3.300  1.00 20.00     0.074 C 
HETATM    9  C5  UNL     1     -34.433   4.342   4.669  1.00 20.00     0.031 C 
HETATM   10  C6  UNL     1     -32.911   4.627   2.682  1.00 20.00     0.031 C 
ENDBRANCH   6   8
ENDBRANCH   1   6
TORSDOF 3
ENDMDL
MODEL 8
REMARK VINA RESULT:      -3.4     11.696     12.147
REMARK  3 active torsions:
REMARK  status: ('A' for Active; 'I' for Inactive)
REMARK    1  A    between atoms: C2_2  and  C3_3 
REMARK    2  A    between atoms: C3_3  and  N8_8 
REMARK    3  A    between atoms: C7_7  and  N8_8 
ROOT
HETATM    1  C3  UNL     1     -34.268  17.211  -3.492  1.00 20.00     0.102 C 
HETATM    2  S9  UNL     1     -33.616  18.348  -4.548  1.00 20.00    -0.060 SA
ENDROOT
BRANCH   1   3
HETATM    3  C2  UNL     1     -34.163  17.316  -2.010  1.00 20.00    -0.034 C 
HETATM    4  C1  UNL     1     -32.995  17.730  -1.500  1.00 20.00     0.021 C 
HETATM    5  C4  UNL     1     -35.355  16.940  -1.190  1.00 20.00     0.050 C 
ENDBRANCH   1   3
BRANCH   1   6
HETATM    6  N8  UNL     1     -34.929  16.112  -3.995  1.00 20.00    -0.377 N 
HETATM    7  H22 UNL     1     -35.810  16.290  -4.467  1.00 20.00     0.160 HD
BRANCH   6   8
HETATM    8  C7  UNL     1     -34.490  14.730  -3.946  1.00 20.00     0.074 C 
HETATM    9  C5  UNL     1     -33.057  14.643  -4.450  1.00 20.00     0.031 C 
HETATM   10  C6  UNL     1     -35.434  13.883  -4.786  1.00 20.00     0.031 C 
ENDBRANCH   6   8
ENDBRANCH   1   6
TORSDOF 3
ENDMDL
MODEL 9
REMARK VINA RESULT:      -3.4     11.622     12.138
REMARK  3 active torsions:
REMARK  status: ('A' for Active; 'I' for Inactive)
REMARK    1  A    between atoms: C2_2  and  C3_3 
REMARK    2  A    between atoms: C3_3  and  N8_8 
REMARK    3  A    between atoms: C7_7  and  N8_8 
ROOT
HETATM    1  C3  UNL     1     -34.217  16.645  -3.387  1.00 20.00     0.102 C 
HETATM    2  S9  UNL     1     -33.585  17.533  -4.670  1.00 20.00    -0.060 SA
ENDROOT
BRANCH   1   3
HETATM    3  C2  UNL     1     -34.195  17.118  -1.975  1.00 20.00    -0.034 C 
HETATM    4  C1  UNL     1     -35.290  16.902  -1.232  1.00 20.00     0.021 C 
HETATM    5  C4  UNL     1     -32.966  17.813  -1.483  1.00 20.00     0.050 C 
ENDBRANCH   1   3
BRANCH   1   6
HETATM    6  N8  UNL     1     -34.781  15.410  -3.623  1.00 20.00    -0.377 N 
HETATM    7  H22 UNL     1     -34.502  14.659  -2.999  1.00 20.00     0.160 HD
BRANCH   6   8
HETATM    8  C7  UNL     1     -35.748  15.073  -4.650  1.00 20.00     0.074 C 
HETATM    9  C5  UNL     1     -37.141  15.454  -4.170  1.00 20.00     0.031 C 
HETATM   10  C6  UNL     1     -35.646  13.585  -4.954  1.00 20.00     0.031 C 
ENDBRANCH   6   8
ENDBRANCH   1   6
TORSDOF 3
ENDMDL
