MODEL 1
REMARK VINA RESULT:      -4.4      0.000      0.000
REMARK  1 active torsions:
REMARK  status: ('A' for Active; 'I' for Inactive)
REMARK    1  A    between atoms: C2_2  and  C5_5 
ROOT
HETATM    1  C1  UNL     1     -34.464   6.117   4.695  1.00 20.00     0.153 A 
HETATM    2  C2  UNL     1     -33.757   6.156   3.352  1.00 20.00     0.096 A 
HETATM    3  C3  UNL     1     -34.538   4.901   5.546  1.00 20.00     0.042 C 
HETATM    4  C4  UNL     1     -33.075   4.947   2.796  1.00 20.00     0.050 C 
HETATM    5  O6  UNL     1     -35.183   6.028   3.457  1.00 20.00    -0.369 OA
ENDROOT
BRANCH   2   6
HETATM    6  C5  UNL     1     -33.308   7.480   2.817  1.00 20.00     0.154 C 
HETATM    7 CL7  UNL     1     -31.721   7.939   3.490  1.00 20.00    -0.127 Cl
ENDBRANCH   2   6
TORSDOF 1
ENDMDL
MODEL 2
REMARK VINA RESULT:      -4.3      2.345      3.362
REMARK  1 active torsions:
REMARK  status: ('A' for Active; 'I' for Inactive)
REMARK    1  A    between atoms: C2_2  and  C5_5 
ROOT
HETATM    1  C1  UNL     1     -32.823   7.207   3.231  1.00 20.00     0.153 A 
HETATM    2  C2  UNL     1     -33.861   6.859   4.282  1.00 20.00     0.096 A 
HETATM    3  C3  UNL     1     -31.602   8.003   3.518  1.00 20.00     0.042 C 
HETATM    4  C4  UNL     1     -33.711   7.304   5.702  1.00 20.00     0.050 C 
HETATM    5  O6  UNL     1     -34.054   7.933   3.349  1.00 20.00    -0.369 OA
ENDROOT
BRANCH   2   6
HETATM    6  C5  UNL     1     -34.757   5.684   4.043  1.00 20.00     0.154 C 
HETATM    7 CL7  UNL     1     -34.479   4.409   5.258  1.00 20.00    -0.127 Cl
ENDBRANCH   2   6
TORSDOF 1
ENDMDL
MODEL 3
REMARK VINA RESULT:      -4.1      2.166      3.122
REMARK  1 active torsions:
REMARK  status: ('A' for Active; 'I' for Inactive)
REMARK    1  A    between atoms: C2_2  and  C5_5 
ROOT
HETATM    1  C1  UNL     1     -33.410   7.640   3.082  1.00 20.00     0.153 A 
HETATM    2  C2  UNL     1     -33.703   6.181   3.383  1.00 20.00     0.096 A 
HETATM    3  C3  UNL     1     -32.411   8.085   2.075  1.00 20.00     0.042 C 
HETATM    4  C4  UNL     1     -32.989   5.080   2.666  1.00 20.00     0.050 C 
HETATM    5  O6  UNL     1     -32.855   6.977   4.226  1.00 20.00    -0.369 OA
ENDROOT
BRANCH   2   6
HETATM    6  C5  UNL     1     -35.016   5.828   4.009  1.00 20.00     0.154 C 
HETATM    7 CL7  UNL     1     -34.793   5.247   5.680  1.00 20.00    -0.127 Cl
ENDBRANCH   2   6
TORSDOF 1
ENDMDL
MODEL 4
REMARK VINA RESULT:      -3.9      2.182      3.315
REMARK  1 active torsions:
REMARK  status: ('A' for Active; 'I' for Inactive)
REMARK    1  A    between atoms: C2_2  and  C5_5 
ROOT
HETATM    1  C1  UNL     1     -32.654   8.321   2.686  1.00 20.00     0.153 A 
HETATM    2  C2  UNL     1     -33.153   7.027   3.302  1.00 20.00     0.096 A 
HETATM    3  C3  UNL     1     -31.906   8.383   1.404  1.00 20.00     0.042 C 
HETATM    4  C4  UNL     1     -32.918   5.707   2.639  1.00 20.00     0.050 C 
HETATM    5  O6  UNL     1     -31.955   7.675   3.758  1.00 20.00    -0.369 OA
ENDROOT
BRANCH   2   6
HETATM    6  C5  UNL     1     -34.283   7.088   4.282  1.00 20.00     0.154 C 
HETATM    7 CL7  UNL     1     -33.676   7.281   5.948  1.00 20.00    -0.127 Cl
ENDBRANCH   2   6
TORSDOF 1
ENDMDL
MODEL 5
REMARK VINA RESULT:      -3.9      2.128      2.647
REMARK  1 active torsions:
REMARK  status: ('A' for Active; 'I' for Inactive)
REMARK    1  A    between atoms: C2_2  and  C5_5 
ROOT
HETATM    1  C1  UNL     1     -33.693   7.236   3.467  1.00 20.00     0.153 A 
HETATM    2  C2  UNL     1     -32.476   7.839   2.792  1.00 20.00     0.096 A 
HETATM    3  C3  UNL     1     -33.823   7.086   4.940  1.00 20.00     0.042 C 
HETATM    4  C4  UNL     1     -31.308   8.334   3.586  1.00 20.00     0.050 C 
HETATM    5  O6  UNL     1     -32.678   6.419   2.869  1.00 20.00    -0.369 OA
ENDROOT
BRANCH   2   6
HETATM    6  C5  UNL     1     -32.625   8.396   1.410  1.00 20.00     0.154 C 
HETATM    7 CL7  UNL     1     -32.566  10.178   1.427  1.00 20.00    -0.127 Cl
ENDBRANCH   2   6
TORSDOF 1
ENDMDL
MODEL 6
REMARK VINA RESULT:      -3.7      2.006      2.849
REMARK  1 active torsions:
REMARK  status: ('A' for Active; 'I' for Inactive)
REMARK    1  A    between atoms: C2_2  and  C5_5 
ROOT
HETATM    1  C1  UNL     1     -33.355   4.647   3.837  1.00 20.00     0.153 A 
HETATM    2  C2  UNL     1     -34.543   5.364   4.452  1.00 20.00     0.096 A 
HETATM    3  C3  UNL     1     -33.096   4.597   2.375  1.00 20.00     0.042 C 
HETATM    4  C4  UNL     1     -35.544   6.082   3.604  1.00 20.00     0.050 C 
HETATM    5  O6  UNL     1     -34.528   3.941   4.263  1.00 20.00    -0.369 OA
ENDROOT
BRANCH   2   6
HETATM    6  C5  UNL     1     -34.463   5.783   5.887  1.00 20.00     0.154 C 
HETATM    7 CL7  UNL     1     -33.740   7.406   6.041  1.00 20.00    -0.127 Cl
ENDBRANCH   2   6
TORSDOF 1
ENDMDL
MODEL 7
REMARK VINA RESULT:      -3.6      2.091      2.381
REMARK  1 active torsions:
REMARK  status: ('A' for Active; 'I' for Inactive)
REMARK    1  A    between atoms: C2_2  and  C5_5 
ROOT
HETATM    1  C1  UNL     1     -33.195   7.311   4.739  1.00 20.00     0.153 A 
HETATM    2  C2  UNL     1     -33.866   6.428   3.703  1.00 20.00     0.096 A 
HETATM    3  C3  UNL     1     -33.662   7.422   6.146  1.00 20.00     0.042 C 
HETATM    4  C4  UNL     1     -35.062   5.597   4.044  1.00 20.00     0.050 C 
HETATM    5  O6  UNL     1     -34.100   7.844   3.763  1.00 20.00    -0.369 OA
ENDROOT
BRANCH   2   6
HETATM    6  C5  UNL     1     -33.075   5.999   2.507  1.00 20.00     0.154 C 
HETATM    7 CL7  UNL     1     -32.870   4.227   2.478  1.00 20.00    -0.127 Cl
ENDBRANCH   2   6
TORSDOF 1
ENDMDL
MODEL 8
REMARK VINA RESULT:      -3.5      1.461      1.865
REMARK  1 active torsions:
REMARK  status: ('A' for Active; 'I' for Inactive)
REMARK    1  A    between atoms: C2_2  and  C5_5 
ROOT
HETATM    1  C1  UNL     1     -34.260   5.869   3.260  1.00 20.00     0.153 A 
HETATM    2  C2  UNL     1     -33.342   7.069   3.409  1.00 20.00     0.096 A 
HETATM    3  C3  UNL     1     -34.822   5.119   4.414  1.00 20.00     0.042 C 
HETATM    4  C4  UNL     1     -32.941   7.580   4.756  1.00 20.00     0.050 C 
HETATM    5  O6  UNL     1     -32.839   5.758   3.106  1.00 20.00    -0.369 OA
ENDROOT
BRANCH   2   6
HETATM    6  C5  UNL     1     -33.234   8.034   2.270  1.00 20.00     0.154 C 
HETATM    7 CL7  UNL     1     -31.533   8.468   1.958  1.00 20.00    -0.127 Cl
ENDBRANCH   2   6
TORSDOF 1
ENDMDL
MODEL 9
REMARK VINA RESULT:      -3.5      1.518      2.513
REMARK  1 active torsions:
REMARK  status: ('A' for Active; 'I' for Inactive)
REMARK    1  A    between atoms: C2_2  and  C5_5 
ROOT
HETATM    1  C1  UNL     1     -33.835   4.907   3.457  1.00 20.00     0.153 A 
HETATM    2  C2  UNL     1     -33.847   6.291   4.079  1.00 20.00     0.096 A 
HETATM    3  C3  UNL     1     -32.982   4.537   2.297  1.00 20.00     0.042 C 
HETATM    4  C4  UNL     1     -32.980   7.390   3.551  1.00 20.00     0.050 C 
HETATM    5  O6  UNL     1     -34.866   5.859   3.164  1.00 20.00    -0.369 OA
ENDROOT
BRANCH   2   6
HETATM    6  C5  UNL     1     -34.326   6.439   5.489  1.00 20.00     0.154 C 
HETATM    7 CL7  UNL     1     -33.479   7.772   6.317  1.00 20.00    -0.127 Cl
ENDBRANCH   2   6
TORSDOF 1
ENDMDL
