MODEL 1
REMARK VINA RESULT:      -4.6      0.000      0.000
REMARK  2 active torsions:
REMARK  status: ('A' for Active; 'I' for Inactive)
REMARK    1  A    between atoms: C1_1  and  C3_3 
REMARK    2  A    between atoms: C2_2  and  N9_9 
ROOT
HETATM    1  C1  UNL     1     -33.756   7.303   3.637  1.00 20.00     0.050 C 
HETATM    2  C2  UNL     1     -33.982   5.978   3.585  1.00 20.00     0.002 C 
HETATM    3  C4  UNL     1     -33.124   5.119   2.692  1.00 20.00     0.068 C 
ENDROOT
BRANCH   1   4
HETATM    4  C3  UNL     1     -32.683   7.974   2.845  1.00 20.00     0.026 C 
HETATM    5  C5  UNL     1     -31.362   8.158   3.558  1.00 20.00     0.070 C 
HETATM    6  N8  UNL     1     -32.898   8.332   1.621  1.00 20.00    -0.299 NA
HETATM    7  C6  UNL     1     -31.820   8.969   0.881  1.00 20.00     0.177 C 
ENDBRANCH   1   4
BRANCH   2   8
HETATM    8  N9  UNL     1     -34.938   5.298   4.290  1.00 20.00    -0.398 N 
HETATM    9  C7  UNL     1     -34.705   4.922   5.655  1.00 20.00     0.146 C 
HETATM   10  H23 UNL     1     -35.778   5.089   3.812  1.00 20.00     0.158 HD
ENDBRANCH   2   8
TORSDOF 2
ENDMDL
MODEL 2
REMARK VINA RESULT:      -4.5      1.033      4.445
REMARK  2 active torsions:
REMARK  status: ('A' for Active; 'I' for Inactive)
REMARK    1  A    between atoms: C1_1  and  C3_3 
REMARK    2  A    between atoms: C2_2  and  N9_9 
ROOT
HETATM    1  C1  UNL     1     -33.299   7.327   2.153  1.00 20.00     0.050 C 
HETATM    2  C2  UNL     1     -32.292   8.209   2.288  1.00 20.00     0.002 C 
HETATM    3  C4  UNL     1     -31.451   8.180   3.538  1.00 20.00     0.068 C 
ENDROOT
BRANCH   1   4
HETATM    4  C3  UNL     1     -33.629   6.307   3.192  1.00 20.00     0.026 C 
HETATM    5  C5  UNL     1     -33.152   4.902   2.903  1.00 20.00     0.070 C 
HETATM    6  N8  UNL     1     -34.255   6.649   4.270  1.00 20.00    -0.299 NA
HETATM    7  C6  UNL     1     -34.543   5.626   5.264  1.00 20.00     0.177 C 
ENDBRANCH   1   4
BRANCH   2   8
HETATM    8  N9  UNL     1     -31.929   9.159   1.373  1.00 20.00    -0.398 N 
HETATM    9  C7  UNL     1     -32.802  10.260   1.080  1.00 20.00     0.146 C 
HETATM   10  H23 UNL     1     -31.048   9.042   0.936  1.00 20.00     0.158 HD
ENDBRANCH   2   8
TORSDOF 2
ENDMDL
MODEL 3
REMARK VINA RESULT:      -4.3      1.083      4.395
REMARK  2 active torsions:
REMARK  status: ('A' for Active; 'I' for Inactive)
REMARK    1  A    between atoms: C1_1  and  C3_3 
REMARK    2  A    between atoms: C2_2  and  N9_9 
ROOT
HETATM    1  C1  UNL     1     -33.449   7.318   2.519  1.00 20.00     0.050 C 
HETATM    2  C2  UNL     1     -32.344   8.082   2.469  1.00 20.00     0.002 C 
HETATM    3  C4  UNL     1     -31.397   8.084   3.642  1.00 20.00     0.068 C 
ENDROOT
BRANCH   1   4
HETATM    4  C3  UNL     1     -33.790   6.460   3.692  1.00 20.00     0.026 C 
HETATM    5  C5  UNL     1     -33.911   7.181   5.016  1.00 20.00     0.070 C 
HETATM    6  N8  UNL     1     -33.992   5.192   3.540  1.00 20.00    -0.299 NA
HETATM    7  C6  UNL     1     -34.336   4.395   4.707  1.00 20.00     0.177 C 
ENDBRANCH   1   4
BRANCH   2   8
HETATM    8  N9  UNL     1     -31.966   8.881   1.424  1.00 20.00    -0.398 N 
HETATM    9  C7  UNL     1     -32.704  10.072   1.114  1.00 20.00     0.146 C 
HETATM   10  H23 UNL     1     -31.173   8.592   0.908  1.00 20.00     0.158 HD
ENDBRANCH   2   8
TORSDOF 2
ENDMDL
MODEL 4
REMARK VINA RESULT:      -3.7     10.787     11.656
REMARK  2 active torsions:
REMARK  status: ('A' for Active; 'I' for Inactive)
REMARK    1  A    between atoms: C1_1  and  C3_3 
REMARK    2  A    between atoms: C2_2  and  N9_9 
ROOT
HETATM    1  C1  UNL     1     -34.961  15.713  -3.576  1.00 20.00     0.050 C 
HETATM    2  C2  UNL     1     -34.395  14.612  -4.102  1.00 20.00     0.002 C 
HETATM    3  C4  UNL     1     -32.924  14.624  -4.426  1.00 20.00     0.068 C 
ENDROOT
BRANCH   1   4
HETATM    4  C3  UNL     1     -34.194  16.963  -3.292  1.00 20.00     0.026 C 
HETATM    5  C5  UNL     1     -33.700  17.116  -1.871  1.00 20.00     0.070 C 
HETATM    6  N8  UNL     1     -33.962  17.818  -4.233  1.00 20.00    -0.299 NA
HETATM    7  C6  UNL     1     -33.197  19.014  -3.916  1.00 20.00     0.177 C 
ENDBRANCH   1   4
BRANCH   2   8
HETATM    8  N9  UNL     1     -35.035  13.434  -4.376  1.00 20.00    -0.398 N 
HETATM    9  C7  UNL     1     -36.052  13.375  -5.388  1.00 20.00     0.146 C 
HETATM   10  H23 UNL     1     -34.760  12.645  -3.846  1.00 20.00     0.158 HD
ENDBRANCH   2   8
TORSDOF 2
ENDMDL
MODEL 5
REMARK VINA RESULT:      -3.6     11.131     11.972
REMARK  2 active torsions:
REMARK  status: ('A' for Active; 'I' for Inactive)
REMARK    1  A    between atoms: C1_1  and  C3_3 
REMARK    2  A    between atoms: C2_2  and  N9_9 
ROOT
HETATM    1  C1  UNL     1     -34.532  14.573  -4.270  1.00 20.00     0.050 C 
HETATM    2  C2  UNL     1     -34.073  14.613  -5.533  1.00 20.00     0.002 C 
HETATM    3  C4  UNL     1     -33.627  15.931  -6.113  1.00 20.00     0.068 C 
ENDROOT
BRANCH   1   4
HETATM    4  C3  UNL     1     -34.622  15.784  -3.401  1.00 20.00     0.026 C 
HETATM    5  C5  UNL     1     -36.011  16.349  -3.209  1.00 20.00     0.070 C 
HETATM    6  N8  UNL     1     -33.562  16.268  -2.841  1.00 20.00    -0.299 NA
HETATM    7  C6  UNL     1     -33.697  17.440  -1.989  1.00 20.00     0.177 C 
ENDBRANCH   1   4
BRANCH   2   8
HETATM    8  N9  UNL     1     -33.954  13.543  -6.378  1.00 20.00    -0.398 N 
HETATM    9  C7  UNL     1     -35.048  13.155  -7.221  1.00 20.00     0.146 C 
HETATM   10  H23 UNL     1     -33.087  13.066  -6.371  1.00 20.00     0.158 HD
ENDBRANCH   2   8
TORSDOF 2
ENDMDL
MODEL 6
REMARK VINA RESULT:      -3.5     11.168     12.068
REMARK  2 active torsions:
REMARK  status: ('A' for Active; 'I' for Inactive)
REMARK    1  A    between atoms: C1_1  and  C3_3 
REMARK    2  A    between atoms: C2_2  and  N9_9 
ROOT
HETATM    1  C1  UNL     1     -34.552  14.744  -4.039  1.00 20.00     0.050 C 
HETATM    2  C2  UNL     1     -34.148  14.810  -5.320  1.00 20.00     0.002 C 
HETATM    3  C4  UNL     1     -34.017  16.157  -5.982  1.00 20.00     0.068 C 
ENDROOT
BRANCH   1   4
HETATM    4  C3  UNL     1     -34.880  15.955  -3.228  1.00 20.00     0.026 C 
HETATM    5  C5  UNL     1     -33.701  16.653  -2.590  1.00 20.00     0.070 C 
HETATM    6  N8  UNL     1     -36.102  16.366  -3.130  1.00 20.00    -0.299 NA
HETATM    7  C6  UNL     1     -36.376  17.559  -2.343  1.00 20.00     0.177 C 
ENDBRANCH   1   4
BRANCH   2   8
HETATM    8  N9  UNL     1     -33.821  13.744  -6.114  1.00 20.00    -0.398 N 
HETATM    9  C7  UNL     1     -34.671  13.361  -7.205  1.00 20.00     0.146 C 
HETATM   10  H23 UNL     1     -32.983  13.267  -5.893  1.00 20.00     0.158 HD
ENDBRANCH   2   8
TORSDOF 2
ENDMDL
MODEL 7
REMARK VINA RESULT:      -3.4      1.729      2.327
REMARK  2 active torsions:
REMARK  status: ('A' for Active; 'I' for Inactive)
REMARK    1  A    between atoms: C1_1  and  C3_3 
REMARK    2  A    between atoms: C2_2  and  N9_9 
ROOT
HETATM    1  C1  UNL     1     -32.094   8.809   2.923  1.00 20.00     0.050 C 
HETATM    2  C2  UNL     1     -32.643   7.776   3.587  1.00 20.00     0.002 C 
HETATM    3  C4  UNL     1     -33.381   6.713   2.814  1.00 20.00     0.068 C 
ENDROOT
BRANCH   1   4
HETATM    4  C3  UNL     1     -32.179   8.958   1.440  1.00 20.00     0.026 C 
HETATM    5  C5  UNL     1     -31.042   8.341   0.656  1.00 20.00     0.070 C 
HETATM    6  N8  UNL     1     -33.190   9.554   0.898  1.00 20.00    -0.299 NA
HETATM    7  C6  UNL     1     -33.240   9.663  -0.552  1.00 20.00     0.177 C 
ENDBRANCH   1   4
BRANCH   2   8
HETATM    8  N9  UNL     1     -32.593   7.573   4.939  1.00 20.00    -0.398 N 
HETATM    9  C7  UNL     1     -33.772   7.196   5.664  1.00 20.00     0.146 C 
HETATM   10  H23 UNL     1     -31.713   7.700   5.375  1.00 20.00     0.158 HD
ENDBRANCH   2   8
TORSDOF 2
ENDMDL
MODEL 8
REMARK VINA RESULT:      -3.4     11.058     11.905
REMARK  2 active torsions:
REMARK  status: ('A' for Active; 'I' for Inactive)
REMARK    1  A    between atoms: C1_1  and  C3_3 
REMARK    2  A    between atoms: C2_2  and  N9_9 
ROOT
HETATM    1  C1  UNL     1     -34.469  14.674  -3.935  1.00 20.00     0.050 C 
HETATM    2  C2  UNL     1     -34.195  15.986  -3.824  1.00 20.00     0.002 C 
HETATM    3  C4  UNL     1     -34.543  16.910  -4.962  1.00 20.00     0.068 C 
ENDROOT
BRANCH   1   4
HETATM    4  C3  UNL     1     -35.111  14.080  -5.145  1.00 20.00     0.026 C 
HETATM    5  C5  UNL     1     -36.623  14.035  -5.128  1.00 20.00     0.070 C 
HETATM    6  N8  UNL     1     -34.389  13.670  -6.136  1.00 20.00    -0.299 NA
HETATM    7  C6  UNL     1     -35.056  13.112  -7.302  1.00 20.00     0.177 C 
ENDBRANCH   1   4
BRANCH   2   8
HETATM    8  N9  UNL     1     -33.620  16.596  -2.742  1.00 20.00    -0.398 N 
HETATM    9  C7  UNL     1     -34.426  17.026  -1.635  1.00 20.00     0.146 C 
HETATM   10  H23 UNL     1     -32.639  16.719  -2.770  1.00 20.00     0.158 HD
ENDBRANCH   2   8
TORSDOF 2
ENDMDL
MODEL 9
REMARK VINA RESULT:      -3.4     11.033     11.798
REMARK  2 active torsions:
REMARK  status: ('A' for Active; 'I' for Inactive)
REMARK    1  A    between atoms: C1_1  and  C3_3 
REMARK    2  A    between atoms: C2_2  and  N9_9 
ROOT
HETATM    1  C1  UNL     1     -33.707  15.936  -3.699  1.00 20.00     0.050 C 
HETATM    2  C2  UNL     1     -34.087  16.596  -2.591  1.00 20.00     0.002 C 
HETATM    3  C4  UNL     1     -35.543  16.608  -2.202  1.00 20.00     0.068 C 
ENDROOT
BRANCH   1   4
HETATM    4  C3  UNL     1     -34.669  15.203  -4.576  1.00 20.00     0.026 C 
HETATM    5  C5  UNL     1     -35.280  16.014  -5.696  1.00 20.00     0.070 C 
HETATM    6  N8  UNL     1     -34.912  13.949  -4.377  1.00 20.00    -0.299 NA
HETATM    7  C6  UNL     1     -35.844  13.270  -5.264  1.00 20.00     0.177 C 
ENDBRANCH   1   4
BRANCH   2   8
HETATM    8  N9  UNL     1     -33.259  17.276  -1.739  1.00 20.00    -0.398 N 
HETATM    9  C7  UNL     1     -33.797  17.992  -0.617  1.00 20.00     0.146 C 
HETATM   10  H23 UNL     1     -32.291  17.244  -1.941  1.00 20.00     0.158 HD
ENDBRANCH   2   8
TORSDOF 2
ENDMDL
