MODEL 1
REMARK VINA RESULT:      -3.4      0.000      0.000
REMARK  0 active torsions:
REMARK  status: ('A' for Active; 'I' for Inactive)
ROOT
HETATM    1  C1  UNL     1     -33.110  14.831  -4.539  1.00 20.00     0.280 C 
HETATM    2  C2  UNL     1     -34.177  15.540  -3.714  1.00 20.00     0.104 C 
HETATM    3  C3  UNL     1     -35.784  15.055  -5.864  1.00 20.00     0.114 C 
HETATM    4  C4  UNL     1     -34.569  14.331  -6.480  1.00 20.00     0.159 C 
HETATM    5  C5  UNL     1     -33.831  15.219  -7.504  1.00 20.00     0.049 C 
HETATM    6  C6  UNL     1     -35.093  13.090  -7.234  1.00 20.00     0.049 C 
HETATM    7  N7  UNL     1     -33.651  13.821  -5.446  1.00 20.00     0.093 N 
HETATM    8  S8  UNL     1     -35.340  16.438  -4.773  1.00 20.00    -0.165 SA
HETATM    9  H21 UNL     1     -32.876  13.330  -5.893  1.00 20.00     0.316 HD
ENDROOT
TORSDOF 0
ENDMDL
MODEL 2
REMARK VINA RESULT:      -3.3     12.410     13.155
REMARK  0 active torsions:
REMARK  status: ('A' for Active; 'I' for Inactive)
ROOT
HETATM    1  C1  UNL     1     -32.853   7.078   2.751  1.00 20.00     0.280 C 
HETATM    2  C2  UNL     1     -32.236   7.820   3.929  1.00 20.00     0.104 C 
HETATM    3  C3  UNL     1     -33.752   6.134   5.445  1.00 20.00     0.114 C 
HETATM    4  C4  UNL     1     -34.196   5.499   4.111  1.00 20.00     0.159 C 
HETATM    5  C5  UNL     1     -35.585   6.005   3.670  1.00 20.00     0.049 C 
HETATM    6  C6  UNL     1     -34.304   3.975   4.330  1.00 20.00     0.049 C 
HETATM    7  N7  UNL     1     -33.190   5.687   3.051  1.00 20.00     0.093 N 
HETATM    8  S8  UNL     1     -33.383   7.910   5.328  1.00 20.00    -0.165 SA
HETATM    9  H21 UNL     1     -33.511   5.233   2.195  1.00 20.00     0.316 HD
ENDROOT
TORSDOF 0
ENDMDL
MODEL 3
REMARK VINA RESULT:      -3.3      1.295      3.039
REMARK  0 active torsions:
REMARK  status: ('A' for Active; 'I' for Inactive)
ROOT
HETATM    1  C1  UNL     1     -34.984  13.996  -7.096  1.00 20.00     0.280 C 
HETATM    2  C2  UNL     1     -34.592  15.221  -7.912  1.00 20.00     0.104 C 
HETATM    3  C3  UNL     1     -33.280  15.982  -5.645  1.00 20.00     0.114 C 
HETATM    4  C4  UNL     1     -33.753  14.642  -5.044  1.00 20.00     0.159 C 
HETATM    5  C5  UNL     1     -34.985  14.824  -4.134  1.00 20.00     0.049 C 
HETATM    6  C6  UNL     1     -32.607  14.089  -4.169  1.00 20.00     0.049 C 
HETATM    7  N7  UNL     1     -33.995  13.628  -6.085  1.00 20.00     0.093 N 
HETATM    8  S8  UNL     1     -34.430  16.688  -6.862  1.00 20.00    -0.165 SA
HETATM    9  H21 UNL     1     -34.282  12.752  -5.646  1.00 20.00     0.316 HD
ENDROOT
TORSDOF 0
ENDMDL
MODEL 4
REMARK VINA RESULT:      -3.2      1.572      3.026
REMARK  0 active torsions:
REMARK  status: ('A' for Active; 'I' for Inactive)
ROOT
HETATM    1  C1  UNL     1     -34.267  13.637  -7.201  1.00 20.00     0.280 C 
HETATM    2  C2  UNL     1     -35.787  13.591  -7.111  1.00 20.00     0.104 C 
HETATM    3  C3  UNL     1     -35.454  15.375  -5.074  1.00 20.00     0.114 C 
HETATM    4  C4  UNL     1     -33.946  15.299  -5.390  1.00 20.00     0.159 C 
HETATM    5  C5  UNL     1     -33.202  14.369  -4.410  1.00 20.00     0.049 C 
HETATM    6  C6  UNL     1     -33.359  16.717  -5.222  1.00 20.00     0.049 C 
HETATM    7  N7  UNL     1     -33.697  14.919  -6.792  1.00 20.00     0.093 N 
HETATM    8  S8  UNL     1     -36.354  13.832  -5.408  1.00 20.00    -0.165 SA
HETATM    9  H21 UNL     1     -32.691  14.903  -6.965  1.00 20.00     0.316 HD
ENDROOT
TORSDOF 0
ENDMDL
MODEL 5
REMARK VINA RESULT:      -3.2      1.169      1.328
REMARK  0 active torsions:
REMARK  status: ('A' for Active; 'I' for Inactive)
ROOT
HETATM    1  C1  UNL     1     -33.120  15.779  -5.776  1.00 20.00     0.280 C 
HETATM    2  C2  UNL     1     -33.297  15.605  -4.273  1.00 20.00     0.104 C 
HETATM    3  C3  UNL     1     -35.391  14.004  -4.973  1.00 20.00     0.114 C 
HETATM    4  C4  UNL     1     -34.985  14.284  -6.434  1.00 20.00     0.159 C 
HETATM    5  C5  UNL     1     -35.874  15.365  -7.080  1.00 20.00     0.049 C 
HETATM    6  C6  UNL     1     -35.184  12.979  -7.235  1.00 20.00     0.049 C 
HETATM    7  N7  UNL     1     -33.554  14.619  -6.552  1.00 20.00     0.093 N 
HETATM    8  S8  UNL     1     -35.039  15.378  -3.836  1.00 20.00    -0.165 SA
HETATM    9  H21 UNL     1     -33.322  14.773  -7.534  1.00 20.00     0.316 HD
ENDROOT
TORSDOF 0
ENDMDL
MODEL 6
REMARK VINA RESULT:      -3.1     12.033     12.872
REMARK  0 active torsions:
REMARK  status: ('A' for Active; 'I' for Inactive)
ROOT
HETATM    1  C1  UNL     1     -33.926   7.231   5.852  1.00 20.00     0.280 C 
HETATM    2  C2  UNL     1     -34.291   5.758   5.720  1.00 20.00     0.104 C 
HETATM    3  C3  UNL     1     -33.242   5.997   3.213  1.00 20.00     0.114 C 
HETATM    4  C4  UNL     1     -32.918   7.455   3.598  1.00 20.00     0.159 C 
HETATM    5  C5  UNL     1     -33.955   8.443   3.026  1.00 20.00     0.049 C 
HETATM    6  C6  UNL     1     -31.548   7.811   2.983  1.00 20.00     0.049 C 
HETATM    7  N7  UNL     1     -32.764   7.617   5.055  1.00 20.00     0.093 N 
HETATM    8  S8  UNL     1     -34.734   5.338   4.015  1.00 20.00    -0.165 SA
HETATM    9  H21 UNL     1     -32.527   8.588   5.265  1.00 20.00     0.316 HD
ENDROOT
TORSDOF 0
ENDMDL
MODEL 7
REMARK VINA RESULT:      -3.1      1.511      2.707
REMARK  0 active torsions:
REMARK  status: ('A' for Active; 'I' for Inactive)
ROOT
HETATM    1  C1  UNL     1     -35.944  13.329  -5.208  1.00 20.00     0.280 C 
HETATM    2  C2  UNL     1     -37.225  14.138  -5.362  1.00 20.00     0.104 C 
HETATM    3  C3  UNL     1     -35.546  16.288  -5.412  1.00 20.00     0.114 C 
HETATM    4  C4  UNL     1     -34.397  15.264  -5.307  1.00 20.00     0.159 C 
HETATM    5  C5  UNL     1     -33.861  15.150  -3.865  1.00 20.00     0.049 C 
HETATM    6  C6  UNL     1     -33.238  15.764  -6.195  1.00 20.00     0.049 C 
HETATM    7  N7  UNL     1     -34.783  13.947  -5.845  1.00 20.00     0.093 N 
HETATM    8  S8  UNL     1     -37.075  15.765  -4.580  1.00 20.00    -0.165 SA
HETATM    9  H21 UNL     1     -33.991  13.308  -5.779  1.00 20.00     0.316 HD
ENDROOT
TORSDOF 0
ENDMDL
MODEL 8
REMARK VINA RESULT:      -3.0      1.445      1.576
REMARK  0 active torsions:
REMARK  status: ('A' for Active; 'I' for Inactive)
ROOT
HETATM    1  C1  UNL     1     -32.963  15.535  -5.184  1.00 20.00     0.280 C 
HETATM    2  C2  UNL     1     -33.514  16.945  -5.348  1.00 20.00     0.104 C 
HETATM    3  C3  UNL     1     -35.767  15.678  -6.218  1.00 20.00     0.114 C 
HETATM    4  C4  UNL     1     -35.020  14.362  -5.919  1.00 20.00     0.159 C 
HETATM    5  C5  UNL     1     -34.431  13.733  -7.198  1.00 20.00     0.049 C 
HETATM    6  C6  UNL     1     -36.042  13.362  -5.337  1.00 20.00     0.049 C 
HETATM    7  N7  UNL     1     -33.989  14.540  -4.880  1.00 20.00     0.093 N 
HETATM    8  S8  UNL     1     -34.681  17.041  -6.731  1.00 20.00    -0.165 SA
HETATM    9  H21 UNL     1     -33.536  13.644  -4.695  1.00 20.00     0.316 HD
ENDROOT
TORSDOF 0
ENDMDL
MODEL 9
REMARK VINA RESULT:      -3.0      1.730      3.217
REMARK  0 active torsions:
REMARK  status: ('A' for Active; 'I' for Inactive)
ROOT
HETATM    1  C1  UNL     1     -33.700  15.631  -6.837  1.00 20.00     0.280 C 
HETATM    2  C2  UNL     1     -35.059  15.060  -7.221  1.00 20.00     0.104 C 
HETATM    3  C3  UNL     1     -35.348  14.649  -4.540  1.00 20.00     0.114 C 
HETATM    4  C4  UNL     1     -33.965  15.317  -4.392  1.00 20.00     0.159 C 
HETATM    5  C5  UNL     1     -32.842  14.275  -4.213  1.00 20.00     0.049 C 
HETATM    6  C6  UNL     1     -33.998  16.188  -3.118  1.00 20.00     0.049 C 
HETATM    7  N7  UNL     1     -33.677  16.236  -5.507  1.00 20.00     0.093 N 
HETATM    8  S8  UNL     1     -35.560  13.733  -6.095  1.00 20.00    -0.165 SA
HETATM    9  H21 UNL     1     -32.767  16.674  -5.359  1.00 20.00     0.316 HD
ENDROOT
TORSDOF 0
ENDMDL
