MODEL 1
REMARK VINA RESULT:      -4.6      0.000      0.000
REMARK  3 active torsions:
REMARK  status: ('A' for Active; 'I' for Inactive)
REMARK    1  A    between atoms: C1_1  and  C4_4 
REMARK    2  A    between atoms: C2_2  and  C5_5 
REMARK    3  A    between atoms: C2_2  and  O9_9 
ROOT
HETATM    1  C3  UNL     1     -34.644   4.470   4.819  1.00 20.00     0.028 A 
HETATM    2  C4  UNL     1     -34.785   5.911   5.228  1.00 20.00     0.061 A 
HETATM    3  C5  UNL     1     -34.727   5.540   3.765  1.00 20.00     0.097 A 
ENDROOT
BRANCH   3   4
HETATM    4  C2  UNL     1     -33.540   5.848   2.959  1.00 20.00     0.263 C 
HETATM    5  O8  UNL     1     -32.694   5.023   2.643  1.00 20.00    -0.265 OA
BRANCH   4   6
HETATM    6  O9  UNL     1     -33.542   7.172   2.632  1.00 20.00    -0.326 OA
HETATM    7  C6  UNL     1     -32.259   7.806   2.631  1.00 20.00     0.213 C 
ENDBRANCH   4   6
ENDBRANCH   3   4
BRANCH   2   8
HETATM    8  C1  UNL     1     -33.655   6.587   5.876  1.00 20.00     0.236 C 
HETATM    9  O7  UNL     1     -33.584   7.804   6.013  1.00 20.00    -0.306 OA
ENDBRANCH   2   8
TORSDOF 3
ENDMDL
MODEL 2
REMARK VINA RESULT:      -4.3      1.800      2.331
REMARK  3 active torsions:
REMARK  status: ('A' for Active; 'I' for Inactive)
REMARK    1  A    between atoms: C1_1  and  C4_4 
REMARK    2  A    between atoms: C2_2  and  C5_5 
REMARK    3  A    between atoms: C2_2  and  O9_9 
ROOT
HETATM    1  C3  UNL     1     -32.968   5.618   3.044  1.00 20.00     0.028 A 
HETATM    2  C4  UNL     1     -34.074   6.449   3.635  1.00 20.00     0.061 A 
HETATM    3  C5  UNL     1     -33.289   6.962   2.451  1.00 20.00     0.097 A 
ENDROOT
BRANCH   3   4
HETATM    4  C2  UNL     1     -32.331   8.063   2.605  1.00 20.00     0.263 C 
HETATM    5  O8  UNL     1     -31.349   8.019   3.334  1.00 20.00    -0.265 OA
BRANCH   4   6
HETATM    6  O9  UNL     1     -32.712   9.111   1.821  1.00 20.00    -0.326 OA
HETATM    7  C6  UNL     1     -31.983   9.261   0.598  1.00 20.00     0.213 C 
ENDBRANCH   4   6
ENDBRANCH   3   4
BRANCH   2   8
HETATM    8  C1  UNL     1     -33.894   7.039   4.966  1.00 20.00     0.236 C 
HETATM    9  O7  UNL     1     -34.217   6.472   6.006  1.00 20.00    -0.306 OA
ENDBRANCH   2   8
TORSDOF 3
ENDMDL
MODEL 3
REMARK VINA RESULT:      -4.3      1.419      2.598
REMARK  3 active torsions:
REMARK  status: ('A' for Active; 'I' for Inactive)
REMARK    1  A    between atoms: C1_1  and  C4_4 
REMARK    2  A    between atoms: C2_2  and  C5_5 
REMARK    3  A    between atoms: C2_2  and  O9_9 
ROOT
HETATM    1  C3  UNL     1     -34.437   5.986   2.710  1.00 20.00     0.028 A 
HETATM    2  C4  UNL     1     -35.125   5.702   4.017  1.00 20.00     0.061 A 
HETATM    3  C5  UNL     1     -34.423   7.021   3.800  1.00 20.00     0.097 A 
ENDROOT
BRANCH   3   4
HETATM    4  C2  UNL     1     -33.161   7.322   4.489  1.00 20.00     0.263 C 
HETATM    5  O8  UNL     1     -33.082   7.626   5.671  1.00 20.00    -0.265 OA
BRANCH   4   6
HETATM    6  O9  UNL     1     -32.125   7.210   3.610  1.00 20.00    -0.326 OA
HETATM    7  C6  UNL     1     -31.656   8.442   3.053  1.00 20.00     0.213 C 
ENDBRANCH   4   6
ENDBRANCH   3   4
BRANCH   2   8
HETATM    8  C1  UNL     1     -34.563   4.691   4.919  1.00 20.00     0.236 C 
HETATM    9  O7  UNL     1     -34.124   3.612   4.535  1.00 20.00    -0.306 OA
ENDBRANCH   2   8
TORSDOF 3
ENDMDL
MODEL 4
REMARK VINA RESULT:      -4.2      1.382      2.104
REMARK  3 active torsions:
REMARK  status: ('A' for Active; 'I' for Inactive)
REMARK    1  A    between atoms: C1_1  and  C4_4 
REMARK    2  A    between atoms: C2_2  and  C5_5 
REMARK    3  A    between atoms: C2_2  and  O9_9 
ROOT
HETATM    1  C3  UNL     1     -35.480   6.100   3.686  1.00 20.00     0.028 A 
HETATM    2  C4  UNL     1     -34.764   5.728   4.955  1.00 20.00     0.061 A 
HETATM    3  C5  UNL     1     -34.234   6.842   4.084  1.00 20.00     0.097 A 
ENDROOT
BRANCH   3   4
HETATM    4  C2  UNL     1     -33.008   6.661   3.298  1.00 20.00     0.263 C 
HETATM    5  O8  UNL     1     -32.822   5.733   2.522  1.00 20.00    -0.265 OA
BRANCH   4   6
HETATM    6  O9  UNL     1     -32.137   7.674   3.572  1.00 20.00    -0.326 OA
HETATM    7  C6  UNL     1     -31.779   8.495   2.456  1.00 20.00     0.213 C 
ENDBRANCH   4   6
ENDBRANCH   3   4
BRANCH   2   8
HETATM    8  C1  UNL     1     -34.067   4.440   5.034  1.00 20.00     0.236 C 
HETATM    9  O7  UNL     1     -34.323   3.487   4.305  1.00 20.00    -0.306 OA
ENDBRANCH   2   8
TORSDOF 3
ENDMDL
MODEL 5
REMARK VINA RESULT:      -3.9      1.638      3.150
REMARK  3 active torsions:
REMARK  status: ('A' for Active; 'I' for Inactive)
REMARK    1  A    between atoms: C1_1  and  C4_4 
REMARK    2  A    between atoms: C2_2  and  C5_5 
REMARK    3  A    between atoms: C2_2  and  O9_9 
ROOT
HETATM    1  C3  UNL     1     -33.384   5.069   2.269  1.00 20.00     0.028 A 
HETATM    2  C4  UNL     1     -32.606   6.208   2.868  1.00 20.00     0.061 A 
HETATM    3  C5  UNL     1     -33.441   5.313   3.752  1.00 20.00     0.097 A 
ENDROOT
BRANCH   3   4
HETATM    4  C2  UNL     1     -34.688   5.802   4.352  1.00 20.00     0.263 C 
HETATM    5  O8  UNL     1     -35.728   5.968   3.730  1.00 20.00    -0.265 OA
BRANCH   4   6
HETATM    6  O9  UNL     1     -34.493   6.035   5.681  1.00 20.00    -0.326 OA
HETATM    7  C6  UNL     1     -33.834   7.266   5.999  1.00 20.00     0.213 C 
ENDBRANCH   4   6
ENDBRANCH   3   4
BRANCH   2   8
HETATM    8  C1  UNL     1     -33.023   7.587   2.588  1.00 20.00     0.236 C 
HETATM    9  O7  UNL     1     -32.243   8.475   2.258  1.00 20.00    -0.306 OA
ENDBRANCH   2   8
TORSDOF 3
ENDMDL
MODEL 6
REMARK VINA RESULT:      -3.8      1.445      3.777
REMARK  3 active torsions:
REMARK  status: ('A' for Active; 'I' for Inactive)
REMARK    1  A    between atoms: C1_1  and  C4_4 
REMARK    2  A    between atoms: C2_2  and  C5_5 
REMARK    3  A    between atoms: C2_2  and  O9_9 
ROOT
HETATM    1  C3  UNL     1     -32.339   7.724   3.169  1.00 20.00     0.028 A 
HETATM    2  C4  UNL     1     -33.142   6.589   2.596  1.00 20.00     0.061 A 
HETATM    3  C5  UNL     1     -33.736   7.474   3.665  1.00 20.00     0.097 A 
ENDROOT
BRANCH   3   4
HETATM    4  C2  UNL     1     -33.935   6.973   5.030  1.00 20.00     0.263 C 
HETATM    5  O8  UNL     1     -33.287   7.347   5.998  1.00 20.00    -0.265 OA
BRANCH   4   6
HETATM    6  O9  UNL     1     -34.934   6.045   5.034  1.00 20.00    -0.326 OA
HETATM    7  C6  UNL     1     -34.621   4.807   5.681  1.00 20.00     0.213 C 
ENDBRANCH   4   6
ENDBRANCH   3   4
BRANCH   2   8
HETATM    8  C1  UNL     1     -32.749   5.207   2.897  1.00 20.00     0.236 C 
HETATM    9  O7  UNL     1     -32.990   4.259   2.157  1.00 20.00    -0.306 OA
ENDBRANCH   2   8
TORSDOF 3
ENDMDL
MODEL 7
REMARK VINA RESULT:      -3.8      1.215      2.876
REMARK  3 active torsions:
REMARK  status: ('A' for Active; 'I' for Inactive)
REMARK    1  A    between atoms: C1_1  and  C4_4 
REMARK    2  A    between atoms: C2_2  and  C5_5 
REMARK    3  A    between atoms: C2_2  and  O9_9 
ROOT
HETATM    1  C3  UNL     1     -32.721   8.052   2.581  1.00 20.00     0.028 A 
HETATM    2  C4  UNL     1     -32.466   7.597   3.992  1.00 20.00     0.061 A 
HETATM    3  C5  UNL     1     -32.581   6.584   2.878  1.00 20.00     0.097 A 
ENDROOT
BRANCH   3   4
HETATM    4  C2  UNL     1     -33.759   5.715   2.772  1.00 20.00     0.263 C 
HETATM    5  O8  UNL     1     -34.806   6.042   2.230  1.00 20.00    -0.265 OA
BRANCH   4   6
HETATM    6  O9  UNL     1     -33.494   4.515   3.364  1.00 20.00    -0.326 OA
HETATM    7  C6  UNL     1     -34.337   4.177   4.471  1.00 20.00     0.213 C 
ENDBRANCH   4   6
ENDBRANCH   3   4
BRANCH   2   8
HETATM    8  C1  UNL     1     -33.530   7.735   4.993  1.00 20.00     0.236 C 
HETATM    9  O7  UNL     1     -33.456   7.271   6.127  1.00 20.00    -0.306 OA
ENDBRANCH   2   8
TORSDOF 3
ENDMDL
MODEL 8
REMARK VINA RESULT:      -3.7     11.827     12.863
REMARK  3 active torsions:
REMARK  status: ('A' for Active; 'I' for Inactive)
REMARK    1  A    between atoms: C1_1  and  C4_4 
REMARK    2  A    between atoms: C2_2  and  C5_5 
REMARK    3  A    between atoms: C2_2  and  O9_9 
ROOT
HETATM    1  C3  UNL     1     -33.352  14.409  -4.436  1.00 20.00     0.028 A 
HETATM    2  C4  UNL     1     -34.334  15.511  -4.144  1.00 20.00     0.061 A 
HETATM    3  C5  UNL     1     -34.786  14.070  -4.131  1.00 20.00     0.097 A 
ENDROOT
BRANCH   3   4
HETATM    4  C2  UNL     1     -35.642  13.541  -5.200  1.00 20.00     0.263 C 
HETATM    5  O8  UNL     1     -36.864  13.582  -5.181  1.00 20.00    -0.265 OA
BRANCH   4   6
HETATM    6  O9  UNL     1     -34.864  13.012  -6.186  1.00 20.00    -0.326 OA
HETATM    7  C6  UNL     1     -35.200  13.417  -7.518  1.00 20.00     0.213 C 
ENDBRANCH   4   6
ENDBRANCH   3   4
BRANCH   2   8
HETATM    8  C1  UNL     1     -34.741  16.415  -5.226  1.00 20.00     0.236 C 
HETATM    9  O7  UNL     1     -33.993  16.758  -6.137  1.00 20.00    -0.306 OA
ENDBRANCH   2   8
TORSDOF 3
ENDMDL
MODEL 9
REMARK VINA RESULT:      -3.7     11.663     13.235
REMARK  3 active torsions:
REMARK  status: ('A' for Active; 'I' for Inactive)
REMARK    1  A    between atoms: C1_1  and  C4_4 
REMARK    2  A    between atoms: C2_2  and  C5_5 
REMARK    3  A    between atoms: C2_2  and  O9_9 
ROOT
HETATM    1  C3  UNL     1     -34.151  15.524  -3.458  1.00 20.00     0.028 A 
HETATM    2  C4  UNL     1     -34.321  14.189  -4.129  1.00 20.00     0.061 A 
HETATM    3  C5  UNL     1     -33.314  15.182  -4.659  1.00 20.00     0.097 A 
ENDROOT
BRANCH   3   4
HETATM    4  C2  UNL     1     -33.550  15.888  -5.924  1.00 20.00     0.263 C 
HETATM    5  O8  UNL     1     -33.350  15.402  -7.028  1.00 20.00    -0.265 OA
BRANCH   4   6
HETATM    6  O9  UNL     1     -34.016  17.143  -5.664  1.00 20.00    -0.326 OA
HETATM    7  C6  UNL     1     -35.179  17.532  -6.404  1.00 20.00     0.213 C 
ENDBRANCH   4   6
ENDBRANCH   3   4
BRANCH   2   8
HETATM    8  C1  UNL     1     -35.559  13.909  -4.866  1.00 20.00     0.236 C 
HETATM    9  O7  UNL     1     -35.903  12.781  -5.204  1.00 20.00    -0.306 OA
ENDBRANCH   2   8
TORSDOF 3
ENDMDL
