MODEL 1
REMARK VINA RESULT:      -6.1      0.000      0.000
REMARK  3 active torsions:
REMARK  status: ('A' for Active; 'I' for Inactive)
REMARK    1  A    between atoms: C4_4  and  C10_10 
REMARK    2  A    between atoms: C8_8  and  C10_10 
REMARK    3  A    between atoms: C8_8  and  O11_11 
ROOT
HETATM    1  C1  UNL     1     -34.694   5.145   5.439  1.00 20.00    -0.030 C 
HETATM    2  C2  UNL     1     -34.326   4.643   4.252  1.00 20.00    -0.028 C 
HETATM    3  C5  UNL     1     -34.299   6.509   5.912  1.00 20.00     0.030 C 
HETATM    4  C6  UNL     1     -33.502   5.405   3.253  1.00 20.00     0.065 C 
HETATM    5  C7  UNL     1     -33.183   7.140   5.070  1.00 20.00     0.042 C 
HETATM    6  C8  UNL     1     -33.393   6.911   3.565  1.00 20.00     0.068 C 
ENDROOT
BRANCH   6   7
HETATM    7  C10 UNL     1     -32.264   7.551   2.757  1.00 20.00     0.038 C 
HETATM    8  C9  UNL     1     -31.331   8.344   3.672  1.00 20.00     0.017 C 
BRANCH   7   9
HETATM    9  C4  UNL     1     -32.832   8.447   1.688  1.00 20.00    -0.030 C 
HETATM   10  C3  UNL     1     -32.123   9.376   1.038  1.00 20.00     0.007 C 
ENDBRANCH   7   9
ENDBRANCH   6   7
BRANCH   6  11
HETATM   11  O11 UNL     1     -34.615   7.555   3.187  1.00 20.00    -0.389 OA
HETATM   12  H27 UNL     1     -34.369   8.247   2.556  1.00 20.00     0.210 HD
ENDBRANCH   6  11
TORSDOF 3
ENDMDL
MODEL 2
REMARK VINA RESULT:      -5.0      1.163      4.182
REMARK  3 active torsions:
REMARK  status: ('A' for Active; 'I' for Inactive)
REMARK    1  A    between atoms: C4_4  and  C10_10 
REMARK    2  A    between atoms: C8_8  and  C10_10 
REMARK    3  A    between atoms: C8_8  and  O11_11 
ROOT
HETATM    1  C1  UNL     1     -31.613   8.796   1.643  1.00 20.00    -0.030 C 
HETATM    2  C2  UNL     1     -32.900   8.623   1.312  1.00 20.00    -0.028 C 
HETATM    3  C5  UNL     1     -31.035   8.349   2.950  1.00 20.00     0.030 C 
HETATM    4  C6  UNL     1     -33.897   7.935   2.201  1.00 20.00     0.065 C 
HETATM    5  C7  UNL     1     -32.102   7.978   3.987  1.00 20.00     0.042 C 
HETATM    6  C8  UNL     1     -33.251   7.166   3.370  1.00 20.00     0.068 C 
ENDROOT
BRANCH   6   7
HETATM    7  C10 UNL     1     -34.296   6.814   4.430  1.00 20.00     0.038 C 
HETATM    8  C9  UNL     1     -33.796   7.194   5.824  1.00 20.00     0.017 C 
BRANCH   7   9
HETATM    9  C4  UNL     1     -34.619   5.344   4.375  1.00 20.00    -0.030 C 
HETATM   10  C3  UNL     1     -34.643   4.544   5.446  1.00 20.00     0.007 C 
ENDBRANCH   7   9
ENDBRANCH   6   7
BRANCH   6  11
HETATM   11  O11 UNL     1     -32.706   5.936   2.876  1.00 20.00    -0.389 OA
HETATM   12  H27 UNL     1     -33.465   5.369   2.673  1.00 20.00     0.210 HD
ENDBRANCH   6  11
TORSDOF 3
ENDMDL
MODEL 3
REMARK VINA RESULT:      -4.9      1.294      1.870
REMARK  3 active torsions:
REMARK  status: ('A' for Active; 'I' for Inactive)
REMARK    1  A    between atoms: C4_4  and  C10_10 
REMARK    2  A    between atoms: C8_8  and  C10_10 
REMARK    3  A    between atoms: C8_8  and  O11_11 
ROOT
HETATM    1  C1  UNL     1     -34.797   6.057   5.304  1.00 20.00    -0.030 C 
HETATM    2  C2  UNL     1     -33.751   6.817   5.654  1.00 20.00    -0.028 C 
HETATM    3  C5  UNL     1     -35.190   5.805   3.881  1.00 20.00     0.030 C 
HETATM    4  C6  UNL     1     -32.839   7.476   4.658  1.00 20.00     0.065 C 
HETATM    5  C7  UNL     1     -34.497   6.746   2.888  1.00 20.00     0.042 C 
HETATM    6  C8  UNL     1     -33.010   6.945   3.221  1.00 20.00     0.068 C 
ENDROOT
BRANCH   6   7
HETATM    7  C10 UNL     1     -32.351   7.888   2.213  1.00 20.00     0.038 C 
HETATM    8  C9  UNL     1     -31.111   8.542   2.821  1.00 20.00     0.017 C 
BRANCH   7   9
HETATM    9  C4  UNL     1     -33.332   8.941   1.767  1.00 20.00    -0.030 C 
HETATM   10  C3  UNL     1     -32.986  10.051   1.106  1.00 20.00     0.007 C 
ENDBRANCH   7   9
ENDBRANCH   6   7
BRANCH   6  11
HETATM   11  O11 UNL     1     -32.359   5.673   3.113  1.00 20.00    -0.389 OA
HETATM   12  H27 UNL     1     -32.858   5.068   3.681  1.00 20.00     0.210 HD
ENDBRANCH   6  11
TORSDOF 3
ENDMDL
MODEL 4
REMARK VINA RESULT:      -4.7     11.320     12.418
REMARK  3 active torsions:
REMARK  status: ('A' for Active; 'I' for Inactive)
REMARK    1  A    between atoms: C4_4  and  C10_10 
REMARK    2  A    between atoms: C8_8  and  C10_10 
REMARK    3  A    between atoms: C8_8  and  O11_11 
ROOT
HETATM    1  C1  UNL     1     -34.523  13.919  -7.873  1.00 20.00    -0.030 C 
HETATM    2  C2  UNL     1     -35.321  13.260  -7.022  1.00 20.00    -0.028 C 
HETATM    3  C5  UNL     1     -33.693  15.099  -7.473  1.00 20.00     0.030 C 
HETATM    4  C6  UNL     1     -35.448  13.614  -5.567  1.00 20.00     0.065 C 
HETATM    5  C7  UNL     1     -34.082  15.677  -6.107  1.00 20.00     0.042 C 
HETATM    6  C8  UNL     1     -34.351  14.577  -5.069  1.00 20.00     0.068 C 
ENDROOT
BRANCH   6   7
HETATM    7  C10 UNL     1     -34.738  15.187  -3.721  1.00 20.00     0.038 C 
HETATM    8  C9  UNL     1     -36.144  15.782  -3.784  1.00 20.00     0.017 C 
BRANCH   7   9
HETATM    9  C4  UNL     1     -33.741  16.244  -3.324  1.00 20.00    -0.030 C 
HETATM   10  C3  UNL     1     -33.809  16.944  -2.187  1.00 20.00     0.007 C 
ENDBRANCH   7   9
ENDBRANCH   6   7
BRANCH   6  11
HETATM   11  O11 UNL     1     -33.137  13.842  -4.879  1.00 20.00    -0.389 OA
HETATM   12  H27 UNL     1     -32.954  13.402  -5.722  1.00 20.00     0.210 HD
ENDBRANCH   6  11
TORSDOF 3
ENDMDL
MODEL 5
REMARK VINA RESULT:      -4.4      1.647      4.469
REMARK  3 active torsions:
REMARK  status: ('A' for Active; 'I' for Inactive)
REMARK    1  A    between atoms: C4_4  and  C10_10 
REMARK    2  A    between atoms: C8_8  and  C10_10 
REMARK    3  A    between atoms: C8_8  and  O11_11 
ROOT
HETATM    1  C1  UNL     1     -32.188  10.039   0.548  1.00 20.00    -0.030 C 
HETATM    2  C2  UNL     1     -31.631   8.833   0.370  1.00 20.00    -0.028 C 
HETATM    3  C5  UNL     1     -33.090  10.364   1.697  1.00 20.00     0.030 C 
HETATM    4  C6  UNL     1     -31.826   7.685   1.319  1.00 20.00     0.065 C 
HETATM    5  C7  UNL     1     -33.573   9.122   2.457  1.00 20.00     0.042 C 
HETATM    6  C8  UNL     1     -32.446   8.099   2.668  1.00 20.00     0.068 C 
ENDROOT
BRANCH   6   7
HETATM    7  C10 UNL     1     -32.961   6.875   3.426  1.00 20.00     0.038 C 
HETATM    8  C9  UNL     1     -33.634   5.894   2.467  1.00 20.00     0.017 C 
BRANCH   7   9
HETATM    9  C4  UNL     1     -33.926   7.298   4.502  1.00 20.00    -0.030 C 
HETATM   10  C3  UNL     1     -33.652   7.252   5.811  1.00 20.00     0.007 C 
ENDBRANCH   7   9
ENDBRANCH   6   7
BRANCH   6  11
HETATM   11  O11 UNL     1     -31.436   8.715   3.476  1.00 20.00    -0.389 OA
HETATM   12  H27 UNL     1     -31.842   9.508   3.855  1.00 20.00     0.210 HD
ENDBRANCH   6  11
TORSDOF 3
ENDMDL
MODEL 6
REMARK VINA RESULT:      -4.3     11.151     12.072
REMARK  3 active torsions:
REMARK  status: ('A' for Active; 'I' for Inactive)
REMARK    1  A    between atoms: C4_4  and  C10_10 
REMARK    2  A    between atoms: C8_8  and  C10_10 
REMARK    3  A    between atoms: C8_8  and  O11_11 
ROOT
HETATM    1  C1  UNL     1     -34.574  18.284   0.391  1.00 20.00    -0.030 C 
HETATM    2  C2  UNL     1     -35.447  17.432  -0.162  1.00 20.00    -0.028 C 
HETATM    3  C5  UNL     1     -33.281  18.670  -0.257  1.00 20.00     0.030 C 
HETATM    4  C6  UNL     1     -35.240  16.792  -1.505  1.00 20.00     0.065 C 
HETATM    5  C7  UNL     1     -32.903  17.765  -1.436  1.00 20.00     0.042 C 
HETATM    6  C8  UNL     1     -34.111  17.443  -2.329  1.00 20.00     0.068 C 
ENDROOT
BRANCH   6   7
HETATM    7  C10 UNL     1     -33.699  16.540  -3.492  1.00 20.00     0.038 C 
HETATM    8  C9  UNL     1     -33.562  17.351  -4.780  1.00 20.00     0.017 C 
BRANCH   7   9
HETATM    9  C4  UNL     1     -34.707  15.436  -3.675  1.00 20.00    -0.030 C 
HETATM   10  C3  UNL     1     -34.409  14.225  -4.158  1.00 20.00     0.007 C 
ENDBRANCH   7   9
ENDBRANCH   6   7
BRANCH   6  11
HETATM   11  O11 UNL     1     -34.589  18.674  -2.886  1.00 20.00    -0.389 OA
HETATM   12  H27 UNL     1     -34.120  19.380  -2.417  1.00 20.00     0.210 HD
ENDBRANCH   6  11
TORSDOF 3
ENDMDL
MODEL 7
REMARK VINA RESULT:      -4.3     11.403     12.719
REMARK  3 active torsions:
REMARK  status: ('A' for Active; 'I' for Inactive)
REMARK    1  A    between atoms: C4_4  and  C10_10 
REMARK    2  A    between atoms: C8_8  and  C10_10 
REMARK    3  A    between atoms: C8_8  and  O11_11 
ROOT
HETATM    1  C1  UNL     1     -33.677  16.973  -3.675  1.00 20.00    -0.030 C 
HETATM    2  C2  UNL     1     -33.293  17.101  -4.952  1.00 20.00    -0.028 C 
HETATM    3  C5  UNL     1     -34.455  15.800  -3.165  1.00 20.00     0.030 C 
HETATM    4  C6  UNL     1     -33.573  16.069  -6.007  1.00 20.00     0.065 C 
HETATM    5  C7  UNL     1     -35.044  14.934  -4.286  1.00 20.00     0.042 C 
HETATM    6  C8  UNL     1     -34.048  14.718  -5.435  1.00 20.00     0.068 C 
ENDROOT
BRANCH   6   7
HETATM    7  C10 UNL     1     -34.667  13.852  -6.533  1.00 20.00     0.038 C 
HETATM    8  C9  UNL     1     -34.044  14.181  -7.890  1.00 20.00     0.017 C 
BRANCH   7   9
HETATM    9  C4  UNL     1     -36.158  14.059  -6.579  1.00 20.00    -0.030 C 
HETATM   10  C3  UNL     1     -36.785  14.765  -7.526  1.00 20.00     0.007 C 
ENDBRANCH   7   9
ENDBRANCH   6   7
BRANCH   6  11
HETATM   11  O11 UNL     1     -32.917  14.010  -4.912  1.00 20.00    -0.389 OA
HETATM   12  H27 UNL     1     -32.610  14.521  -4.149  1.00 20.00     0.210 HD
ENDBRANCH   6  11
TORSDOF 3
ENDMDL
MODEL 8
REMARK VINA RESULT:      -4.3     11.168     12.349
REMARK  3 active torsions:
REMARK  status: ('A' for Active; 'I' for Inactive)
REMARK    1  A    between atoms: C4_4  and  C10_10 
REMARK    2  A    between atoms: C8_8  and  C10_10 
REMARK    3  A    between atoms: C8_8  and  O11_11 
ROOT
HETATM    1  C1  UNL     1     -33.996  14.777  -6.461  1.00 20.00    -0.030 C 
HETATM    2  C2  UNL     1     -33.310  15.895  -6.187  1.00 20.00    -0.028 C 
HETATM    3  C5  UNL     1     -34.821  14.049  -5.445  1.00 20.00     0.030 C 
HETATM    4  C6  UNL     1     -33.317  16.558  -4.838  1.00 20.00     0.065 C 
HETATM    5  C7  UNL     1     -34.550  14.508  -4.007  1.00 20.00     0.042 C 
HETATM    6  C8  UNL     1     -34.424  16.036  -3.901  1.00 20.00     0.068 C 
ENDROOT
BRANCH   6   7
HETATM    7  C10 UNL     1     -34.153  16.458  -2.456  1.00 20.00     0.038 C 
HETATM    8  C9  UNL     1     -35.465  16.757  -1.730  1.00 20.00     0.017 C 
BRANCH   7   9
HETATM    9  C4  UNL     1     -33.253  17.666  -2.427  1.00 20.00    -0.030 C 
HETATM   10  C3  UNL     1     -32.702  18.159  -1.313  1.00 20.00     0.007 C 
ENDBRANCH   7   9
ENDBRANCH   6   7
BRANCH   6  11
HETATM   11  O11 UNL     1     -35.677  16.610  -4.292  1.00 20.00    -0.389 OA
HETATM   12  H27 UNL     1     -36.197  15.887  -4.670  1.00 20.00     0.210 HD
ENDBRANCH   6  11
TORSDOF 3
ENDMDL
MODEL 9
REMARK VINA RESULT:      -4.1     10.919     12.347
REMARK  3 active torsions:
REMARK  status: ('A' for Active; 'I' for Inactive)
REMARK    1  A    between atoms: C4_4  and  C10_10 
REMARK    2  A    between atoms: C8_8  and  C10_10 
REMARK    3  A    between atoms: C8_8  and  O11_11 
ROOT
HETATM    1  C1  UNL     1     -37.060  14.539  -6.659  1.00 20.00    -0.030 C 
HETATM    2  C2  UNL     1     -36.884  14.002  -5.444  1.00 20.00    -0.028 C 
HETATM    3  C5  UNL     1     -36.036  15.399  -7.333  1.00 20.00     0.030 C 
HETATM    4  C6  UNL     1     -35.629  14.179  -4.637  1.00 20.00     0.065 C 
HETATM    5  C7  UNL     1     -34.926  15.870  -6.386  1.00 20.00     0.042 C 
HETATM    6  C8  UNL     1     -34.449  14.749  -5.449  1.00 20.00     0.068 C 
ENDROOT
BRANCH   6   7
HETATM    7  C10 UNL     1     -33.345  15.253  -4.520  1.00 20.00     0.038 C 
HETATM    8  C9  UNL     1     -32.398  14.113  -4.143  1.00 20.00     0.017 C 
BRANCH   7   9
HETATM    9  C4  UNL     1     -33.946  15.863  -3.280  1.00 20.00    -0.030 C 
HETATM   10  C3  UNL     1     -33.584  17.050  -2.782  1.00 20.00     0.007 C 
ENDBRANCH   7   9
ENDBRANCH   6   7
BRANCH   6  11
HETATM   11  O11 UNL     1     -33.892  13.706  -6.257  1.00 20.00    -0.389 OA
HETATM   12  H27 UNL     1     -33.938  12.900  -5.723  1.00 20.00     0.210 HD
ENDBRANCH   6  11
TORSDOF 3
ENDMDL
