MODEL 1
REMARK VINA RESULT:      -5.3      0.000      0.000
REMARK  3 active torsions:
REMARK  status: ('A' for Active; 'I' for Inactive)
REMARK    1  A    between atoms: C2_2  and  N9_9 
REMARK    2  A    between atoms: C3_3  and  C8_8 
REMARK    3  A    between atoms: C7_7  and  C8_8 
ROOT
HETATM    1  C3  UNL     1     -33.192   7.438   3.318  1.00 20.00     0.099 C 
HETATM    2  N9  UNL     1     -32.695   7.695   2.152  1.00 20.00    -0.277 NA
ENDROOT
BRANCH   1   3
HETATM    3  C8  UNL     1     -33.914   6.126   3.618  1.00 20.00    -0.001 C 
HETATM    4  C5  UNL     1     -35.341   6.274   3.061  1.00 20.00     0.021 C 
HETATM    5  C6  UNL     1     -33.244   4.922   2.939  1.00 20.00     0.021 C 
BRANCH   3   6
HETATM    6  C7  UNL     1     -33.999   5.945   5.146  1.00 20.00     0.129 C 
HETATM    7 CL10 UNL     1     -33.646   7.439   6.055  1.00 20.00    -0.129 Cl
ENDBRANCH   3   6
ENDBRANCH   1   3
BRANCH   2   8
HETATM    8  C2  UNL     1     -32.080   8.904   2.034  1.00 20.00     0.111 C 
HETATM    9  C1  UNL     1     -32.219   9.697   0.964  1.00 20.00    -0.012 C 
HETATM   10  C4  UNL     1     -33.059   9.355  -0.222  1.00 20.00     0.037 C 
ENDBRANCH   2   8
TORSDOF 3
ENDMDL
MODEL 2
REMARK VINA RESULT:      -4.9      1.373      1.918
REMARK  3 active torsions:
REMARK  status: ('A' for Active; 'I' for Inactive)
REMARK    1  A    between atoms: C2_2  and  N9_9 
REMARK    2  A    between atoms: C3_3  and  C8_8 
REMARK    3  A    between atoms: C7_7  and  C8_8 
ROOT
HETATM    1  C3  UNL     1     -33.190   7.544   3.414  1.00 20.00     0.099 C 
HETATM    2  N9  UNL     1     -32.763   7.675   2.200  1.00 20.00    -0.277 NA
ENDROOT
BRANCH   1   3
HETATM    3  C8  UNL     1     -34.059   6.364   3.842  1.00 20.00    -0.001 C 
HETATM    4  C5  UNL     1     -34.125   6.404   5.379  1.00 20.00     0.021 C 
HETATM    5  C6  UNL     1     -35.488   6.458   3.286  1.00 20.00     0.021 C 
BRANCH   3   6
HETATM    6  C7  UNL     1     -33.366   5.055   3.415  1.00 20.00     0.129 C 
HETATM    7 CL10 UNL     1     -33.991   3.615   4.262  1.00 20.00    -0.129 Cl
ENDBRANCH   3   6
ENDBRANCH   1   3
BRANCH   2   8
HETATM    8  C2  UNL     1     -31.998   8.777   1.967  1.00 20.00     0.111 C 
HETATM    9  C1  UNL     1     -32.124   9.541   0.875  1.00 20.00    -0.012 C 
HETATM   10  C4  UNL     1     -33.111   9.280  -0.214  1.00 20.00     0.037 C 
ENDBRANCH   2   8
TORSDOF 3
ENDMDL
MODEL 3
REMARK VINA RESULT:      -4.4      2.414      4.825
REMARK  3 active torsions:
REMARK  status: ('A' for Active; 'I' for Inactive)
REMARK    1  A    between atoms: C2_2  and  N9_9 
REMARK    2  A    between atoms: C3_3  and  C8_8 
REMARK    3  A    between atoms: C7_7  and  C8_8 
ROOT
HETATM    1  C3  UNL     1     -33.188   7.444   2.135  1.00 20.00     0.099 C 
HETATM    2  N9  UNL     1     -33.156   6.706   3.197  1.00 20.00    -0.277 NA
ENDROOT
BRANCH   1   3
HETATM    3  C8  UNL     1     -32.149   8.534   1.877  1.00 20.00    -0.001 C 
HETATM    4  C5  UNL     1     -31.379   8.726   3.196  1.00 20.00     0.021 C 
HETATM    5  C6  UNL     1     -31.152   8.142   0.777  1.00 20.00     0.021 C 
BRANCH   3   6
HETATM    6  C7  UNL     1     -32.882   9.847   1.541  1.00 20.00     0.129 C 
HETATM    7 CL10 UNL     1     -33.237  10.033  -0.198  1.00 20.00    -0.129 Cl
ENDBRANCH   3   6
ENDBRANCH   1   3
BRANCH   2   8
HETATM    8  C2  UNL     1     -34.147   5.776   3.290  1.00 20.00     0.111 C 
HETATM    9  C1  UNL     1     -34.742   5.450   4.443  1.00 20.00    -0.012 C 
HETATM   10  C4  UNL     1     -34.397   6.063   5.760  1.00 20.00     0.037 C 
ENDBRANCH   2   8
TORSDOF 3
ENDMDL
MODEL 4
REMARK VINA RESULT:      -4.2      2.487      4.849
REMARK  3 active torsions:
REMARK  status: ('A' for Active; 'I' for Inactive)
REMARK    1  A    between atoms: C2_2  and  N9_9 
REMARK    2  A    between atoms: C3_3  and  C8_8 
REMARK    3  A    between atoms: C7_7  and  C8_8 
ROOT
HETATM    1  C3  UNL     1     -33.309   7.643   2.274  1.00 20.00     0.099 C 
HETATM    2  N9  UNL     1     -33.187   6.678   3.126  1.00 20.00    -0.277 NA
ENDROOT
BRANCH   1   3
HETATM    3  C8  UNL     1     -32.202   8.672   2.053  1.00 20.00    -0.001 C 
HETATM    4  C5  UNL     1     -32.873  10.056   2.102  1.00 20.00     0.021 C 
HETATM    5  C6  UNL     1     -31.121   8.611   3.142  1.00 20.00     0.021 C 
BRANCH   3   6
HETATM    6  C7  UNL     1     -31.606   8.465   0.646  1.00 20.00     0.129 C 
HETATM    7 CL10 UNL     1     -32.665   9.058  -0.663  1.00 20.00    -0.129 Cl
ENDBRANCH   3   6
ENDBRANCH   1   3
BRANCH   2   8
HETATM    8  C2  UNL     1     -34.256   5.840   3.214  1.00 20.00     0.111 C 
HETATM    9  C1  UNL     1     -34.842   5.516   4.373  1.00 20.00    -0.012 C 
HETATM   10  C4  UNL     1     -34.399   6.032   5.702  1.00 20.00     0.037 C 
ENDBRANCH   2   8
TORSDOF 3
ENDMDL
MODEL 5
REMARK VINA RESULT:      -4.0      1.434      2.089
REMARK  3 active torsions:
REMARK  status: ('A' for Active; 'I' for Inactive)
REMARK    1  A    between atoms: C2_2  and  N9_9 
REMARK    2  A    between atoms: C3_3  and  C8_8 
REMARK    3  A    between atoms: C7_7  and  C8_8 
ROOT
HETATM    1  C3  UNL     1     -33.365   7.436   2.091  1.00 20.00     0.099 C 
HETATM    2  N9  UNL     1     -32.363   8.230   1.897  1.00 20.00    -0.277 NA
ENDROOT
BRANCH   1   3
HETATM    3  C8  UNL     1     -33.486   6.579   3.350  1.00 20.00    -0.001 C 
HETATM    4  C5  UNL     1     -32.628   5.324   3.108  1.00 20.00     0.021 C 
HETATM    5  C6  UNL     1     -32.962   7.299   4.600  1.00 20.00     0.021 C 
BRANCH   3   6
HETATM    6  C7  UNL     1     -34.955   6.144   3.515  1.00 20.00     0.129 C 
HETATM    7 CL10 UNL     1     -35.178   4.848   4.722  1.00 20.00    -0.129 Cl
ENDBRANCH   3   6
ENDBRANCH   1   3
BRANCH   2   8
HETATM    8  C2  UNL     1     -32.391   8.931   0.730  1.00 20.00     0.111 C 
HETATM    9  C1  UNL     1     -32.558  10.258   0.674  1.00 20.00    -0.012 C 
HETATM   10  C4  UNL     1     -32.731  11.126   1.876  1.00 20.00     0.037 C 
ENDBRANCH   2   8
TORSDOF 3
ENDMDL
MODEL 6
REMARK VINA RESULT:      -3.7      1.828      2.407
REMARK  3 active torsions:
REMARK  status: ('A' for Active; 'I' for Inactive)
REMARK    1  A    between atoms: C2_2  and  N9_9 
REMARK    2  A    between atoms: C3_3  and  C8_8 
REMARK    3  A    between atoms: C7_7  and  C8_8 
ROOT
HETATM    1  C3  UNL     1     -33.009   6.288   3.809  1.00 20.00     0.099 C 
HETATM    2  N9  UNL     1     -32.850   7.563   3.662  1.00 20.00    -0.277 NA
ENDROOT
BRANCH   1   3
HETATM    3  C8  UNL     1     -34.279   5.696   4.416  1.00 20.00    -0.001 C 
HETATM    4  C5  UNL     1     -34.102   4.167   4.399  1.00 20.00     0.021 C 
HETATM    5  C6  UNL     1     -34.500   6.149   5.867  1.00 20.00     0.021 C 
BRANCH   3   6
HETATM    6  C7  UNL     1     -35.476   6.061   3.516  1.00 20.00     0.129 C 
HETATM    7 CL10 UNL     1     -35.049   6.178   1.787  1.00 20.00    -0.129 Cl
ENDBRANCH   3   6
ENDBRANCH   1   3
BRANCH   2   8
HETATM    8  C2  UNL     1     -31.667   7.943   3.106  1.00 20.00     0.111 C 
HETATM    9  C1  UNL     1     -31.581   8.701   2.006  1.00 20.00    -0.012 C 
HETATM   10  C4  UNL     1     -32.765   9.220   1.260  1.00 20.00     0.037 C 
ENDBRANCH   2   8
TORSDOF 3
ENDMDL
MODEL 7
REMARK VINA RESULT:      -3.7     10.853     11.544
REMARK  3 active torsions:
REMARK  status: ('A' for Active; 'I' for Inactive)
REMARK    1  A    between atoms: C2_2  and  N9_9 
REMARK    2  A    between atoms: C3_3  and  C8_8 
REMARK    3  A    between atoms: C7_7  and  C8_8 
ROOT
HETATM    1  C3  UNL     1     -35.089  15.740  -3.417  1.00 20.00     0.099 C 
HETATM    2  N9  UNL     1     -34.225  16.302  -2.635  1.00 20.00    -0.277 NA
ENDROOT
BRANCH   1   3
HETATM    3  C8  UNL     1     -34.666  14.955  -4.657  1.00 20.00    -0.001 C 
HETATM    4  C5  UNL     1     -33.231  14.465  -4.396  1.00 20.00     0.021 C 
HETATM    5  C6  UNL     1     -35.564  13.735  -4.909  1.00 20.00     0.021 C 
BRANCH   3   6
HETATM    6  C7  UNL     1     -34.647  15.909  -5.867  1.00 20.00     0.129 C 
HETATM    7 CL10 UNL     1     -33.743  15.262  -7.263  1.00 20.00    -0.129 Cl
ENDBRANCH   3   6
ENDBRANCH   1   3
BRANCH   2   8
HETATM    8  C2  UNL     1     -34.750  16.968  -1.570  1.00 20.00     0.111 C 
HETATM    9  C1  UNL     1     -34.052  17.839  -0.831  1.00 20.00    -0.012 C 
HETATM   10  C4  UNL     1     -32.622  18.185  -1.084  1.00 20.00     0.037 C 
ENDBRANCH   2   8
TORSDOF 3
ENDMDL
MODEL 8
REMARK VINA RESULT:      -3.7      1.383      4.337
REMARK  3 active torsions:
REMARK  status: ('A' for Active; 'I' for Inactive)
REMARK    1  A    between atoms: C2_2  and  N9_9 
REMARK    2  A    between atoms: C3_3  and  C8_8 
REMARK    3  A    between atoms: C7_7  and  C8_8 
ROOT
HETATM    1  C3  UNL     1     -33.279   7.644   2.173  1.00 20.00     0.099 C 
HETATM    2  N9  UNL     1     -33.089   6.577   2.878  1.00 20.00    -0.277 NA
ENDROOT
BRANCH   1   3
HETATM    3  C8  UNL     1     -32.180   8.685   1.970  1.00 20.00    -0.001 C 
HETATM    4  C5  UNL     1     -31.463   8.314   0.660  1.00 20.00     0.021 C 
HETATM    5  C6  UNL     1     -32.740  10.109   1.837  1.00 20.00     0.021 C 
BRANCH   3   6
HETATM    6  C7  UNL     1     -31.171   8.574   3.130  1.00 20.00     0.129 C 
HETATM    7 CL10 UNL     1     -31.937   8.633   4.741  1.00 20.00    -0.129 Cl
ENDBRANCH   3   6
ENDBRANCH   1   3
BRANCH   2   8
HETATM    8  C2  UNL     1     -34.160   5.741   2.970  1.00 20.00     0.111 C 
HETATM    9  C1  UNL     1     -34.793   5.482   4.121  1.00 20.00    -0.012 C 
HETATM   10  C4  UNL     1     -34.405   6.075   5.435  1.00 20.00     0.037 C 
ENDBRANCH   2   8
TORSDOF 3
ENDMDL
MODEL 9
REMARK VINA RESULT:      -3.6     10.514     11.406
REMARK  3 active torsions:
REMARK  status: ('A' for Active; 'I' for Inactive)
REMARK    1  A    between atoms: C2_2  and  N9_9 
REMARK    2  A    between atoms: C3_3  and  C8_8 
REMARK    3  A    between atoms: C7_7  and  C8_8 
ROOT
HETATM    1  C3  UNL     1     -34.715  15.875  -3.186  1.00 20.00     0.099 C 
HETATM    2  N9  UNL     1     -34.184  16.810  -2.468  1.00 20.00    -0.277 NA
ENDROOT
BRANCH   1   3
HETATM    3  C8  UNL     1     -34.122  15.450  -4.528  1.00 20.00    -0.001 C 
HETATM    4  C5  UNL     1     -33.443  16.698  -5.121  1.00 20.00     0.021 C 
HETATM    5  C6  UNL     1     -33.069  14.342  -4.378  1.00 20.00     0.021 C 
BRANCH   3   6
HETATM    6  C7  UNL     1     -35.269  15.024  -5.465  1.00 20.00     0.129 C 
HETATM    7 CL10 UNL     1     -35.917  13.403  -5.096  1.00 20.00    -0.129 Cl
ENDBRANCH   3   6
ENDBRANCH   1   3
BRANCH   2   8
HETATM    8  C2  UNL     1     -34.823  17.080  -1.297  1.00 20.00     0.111 C 
HETATM    9  C1  UNL     1     -34.302  17.854  -0.337  1.00 20.00    -0.012 C 
HETATM   10  C4  UNL     1     -32.967  18.514  -0.434  1.00 20.00     0.037 C 
ENDBRANCH   2   8
TORSDOF 3
ENDMDL
