MODEL 1
REMARK VINA RESULT:      -5.9      0.000      0.000
REMARK  2 active torsions:
REMARK  status: ('A' for Active; 'I' for Inactive)
REMARK    1  A    between atoms: C6_6  and  C8_8 
REMARK    2  A    between atoms: C7_7  and  C8_8 
ROOT
HETATM    1  C1  UNL     1     -34.531   5.993   5.699  1.00 20.00     0.001 A 
HETATM    2  C2  UNL     1     -35.073   5.475   4.458  1.00 20.00     0.001 A 
HETATM    3  C3  UNL     1     -33.560   6.881   5.428  1.00 20.00     0.013 A 
HETATM    4  C4  UNL     1     -34.437   6.041   3.420  1.00 20.00     0.013 A 
HETATM    5  C5  UNL     1     -33.458   6.949   3.984  1.00 20.00    -0.018 A 
HETATM    6  C7  UNL     1     -32.611   7.716   3.293  1.00 20.00     0.028 C 
HETATM    7 CL10 UNL     1     -31.465   8.712   4.128  1.00 20.00    -0.088 Cl
ENDROOT
BRANCH   6   8
HETATM    8  C8  UNL     1     -32.540   7.756   1.798  1.00 20.00     0.121 C 
BRANCH   8   9
HETATM    9  C6  UNL     1     -32.135   9.120   1.280  1.00 20.00     0.236 C 
HETATM   10  O9  UNL     1     -32.892  10.071   1.121  1.00 20.00    -0.307 OA
ENDBRANCH   8   9
ENDBRANCH   6   8
TORSDOF 2
ENDMDL
MODEL 2
REMARK VINA RESULT:      -5.7      2.667      4.289
REMARK  2 active torsions:
REMARK  status: ('A' for Active; 'I' for Inactive)
REMARK    1  A    between atoms: C6_6  and  C8_8 
REMARK    2  A    between atoms: C7_7  and  C8_8 
ROOT
HETATM    1  C1  UNL     1     -31.335   8.702   2.765  1.00 20.00     0.001 A 
HETATM    2  C2  UNL     1     -32.027   8.048   1.671  1.00 20.00     0.001 A 
HETATM    3  C3  UNL     1     -31.908   8.354   3.929  1.00 20.00     0.013 A 
HETATM    4  C4  UNL     1     -33.027   7.297   2.157  1.00 20.00     0.013 A 
HETATM    5  C5  UNL     1     -32.997   7.456   3.598  1.00 20.00    -0.018 A 
HETATM    6  C7  UNL     1     -33.827   6.875   4.469  1.00 20.00     0.028 C 
HETATM    7 CL10 UNL     1     -33.683   7.215   6.162  1.00 20.00    -0.088 Cl
ENDROOT
BRANCH   6   8
HETATM    8  C8  UNL     1     -34.940   5.952   4.082  1.00 20.00     0.121 C 
BRANCH   8   9
HETATM    9  C6  UNL     1     -34.798   4.585   4.718  1.00 20.00     0.236 C 
HETATM   10  O9  UNL     1     -34.160   3.649   4.249  1.00 20.00    -0.307 OA
ENDBRANCH   8   9
ENDBRANCH   6   8
TORSDOF 2
ENDMDL
MODEL 3
REMARK VINA RESULT:      -5.4      1.580      2.002
REMARK  2 active torsions:
REMARK  status: ('A' for Active; 'I' for Inactive)
REMARK    1  A    between atoms: C6_6  and  C8_8 
REMARK    2  A    between atoms: C7_7  and  C8_8 
ROOT
HETATM    1  C1  UNL     1     -34.784   5.814   5.781  1.00 20.00     0.001 A 
HETATM    2  C2  UNL     1     -34.040   6.926   6.342  1.00 20.00     0.001 A 
HETATM    3  C3  UNL     1     -34.515   5.712   4.470  1.00 20.00     0.013 A 
HETATM    4  C4  UNL     1     -33.313   7.511   5.378  1.00 20.00     0.013 A 
HETATM    5  C5  UNL     1     -33.579   6.774   4.158  1.00 20.00    -0.018 A 
HETATM    6  C7  UNL     1     -33.053   7.029   2.957  1.00 20.00     0.028 C 
HETATM    7 CL10 UNL     1     -33.520   6.076   1.586  1.00 20.00    -0.088 Cl
ENDROOT
BRANCH   6   8
HETATM    8  C8  UNL     1     -32.088   8.139   2.680  1.00 20.00     0.121 C 
BRANCH   8   9
HETATM    9  C6  UNL     1     -32.414   8.875   1.398  1.00 20.00     0.236 C 
HETATM   10  O9  UNL     1     -31.637   9.054   0.467  1.00 20.00    -0.307 OA
ENDBRANCH   8   9
ENDBRANCH   6   8
TORSDOF 2
ENDMDL
MODEL 4
REMARK VINA RESULT:      -4.9     11.067     11.286
REMARK  2 active torsions:
REMARK  status: ('A' for Active; 'I' for Inactive)
REMARK    1  A    between atoms: C6_6  and  C8_8 
REMARK    2  A    between atoms: C7_7  and  C8_8 
ROOT
HETATM    1  C1  UNL     1     -33.615  17.789  -1.148  1.00 20.00     0.001 A 
HETATM    2  C2  UNL     1     -35.014  17.539  -0.854  1.00 20.00     0.001 A 
HETATM    3  C3  UNL     1     -33.263  17.118  -2.257  1.00 20.00     0.013 A 
HETATM    4  C4  UNL     1     -35.525  16.714  -1.782  1.00 20.00     0.013 A 
HETATM    5  C5  UNL     1     -34.448  16.413  -2.704  1.00 20.00    -0.018 A 
HETATM    6  C7  UNL     1     -34.533  15.624  -3.778  1.00 20.00     0.028 C 
HETATM    7 CL10 UNL     1     -33.128  15.330  -4.750  1.00 20.00    -0.088 Cl
ENDROOT
BRANCH   6   8
HETATM    8  C8  UNL     1     -35.780  14.914  -4.204  1.00 20.00     0.121 C 
BRANCH   8   9
HETATM    9  C6  UNL     1     -35.506  13.851  -5.247  1.00 20.00     0.236 C 
HETATM   10  O9  UNL     1     -35.919  12.697  -5.208  1.00 20.00    -0.307 OA
ENDBRANCH   8   9
ENDBRANCH   6   8
TORSDOF 2
ENDMDL
MODEL 5
REMARK VINA RESULT:      -4.8      2.899      4.661
REMARK  2 active torsions:
REMARK  status: ('A' for Active; 'I' for Inactive)
REMARK    1  A    between atoms: C6_6  and  C8_8 
REMARK    2  A    between atoms: C7_7  and  C8_8 
ROOT
HETATM    1  C1  UNL     1     -31.970   8.424   1.895  1.00 20.00     0.001 A 
HETATM    2  C2  UNL     1     -31.281   8.519   3.168  1.00 20.00     0.001 A 
HETATM    3  C3  UNL     1     -33.126   7.760   2.060  1.00 20.00     0.013 A 
HETATM    4  C4  UNL     1     -32.010   7.912   4.119  1.00 20.00     0.013 A 
HETATM    5  C5  UNL     1     -33.201   7.409   3.464  1.00 20.00    -0.018 A 
HETATM    6  C7  UNL     1     -34.195   6.739   4.053  1.00 20.00     0.028 C 
HETATM    7 CL10 UNL     1     -35.530   6.161   3.109  1.00 20.00    -0.088 Cl
ENDROOT
BRANCH   6   8
HETATM    8  C8  UNL     1     -34.232   6.397   5.510  1.00 20.00     0.121 C 
BRANCH   8   9
HETATM    9  C6  UNL     1     -34.450   4.917   5.746  1.00 20.00     0.236 C 
HETATM   10  O9  UNL     1     -34.455   4.055   4.874  1.00 20.00    -0.307 OA
ENDBRANCH   8   9
ENDBRANCH   6   8
TORSDOF 2
ENDMDL
MODEL 6
REMARK VINA RESULT:      -4.7      2.145      4.421
REMARK  2 active torsions:
REMARK  status: ('A' for Active; 'I' for Inactive)
REMARK    1  A    between atoms: C6_6  and  C8_8 
REMARK    2  A    between atoms: C7_7  and  C8_8 
ROOT
HETATM    1  C1  UNL     1     -32.394  10.411   0.688  1.00 20.00     0.001 A 
HETATM    2  C2  UNL     1     -32.989   9.445  -0.216  1.00 20.00     0.001 A 
HETATM    3  C3  UNL     1     -32.236   9.852   1.899  1.00 20.00     0.013 A 
HETATM    4  C4  UNL     1     -33.198   8.291   0.435  1.00 20.00     0.013 A 
HETATM    5  C5  UNL     1     -32.734   8.495   1.793  1.00 20.00    -0.018 A 
HETATM    6  C7  UNL     1     -32.761   7.590   2.775  1.00 20.00     0.028 C 
HETATM    7 CL10 UNL     1     -32.211   8.017   4.363  1.00 20.00    -0.088 Cl
ENDROOT
BRANCH   6   8
HETATM    8  C8  UNL     1     -33.286   6.197   2.622  1.00 20.00     0.121 C 
BRANCH   8   9
HETATM    9  C6  UNL     1     -34.158   5.781   3.787  1.00 20.00     0.236 C 
HETATM   10  O9  UNL     1     -35.384   5.822   3.803  1.00 20.00    -0.307 OA
ENDBRANCH   8   9
ENDBRANCH   6   8
TORSDOF 2
ENDMDL
MODEL 7
REMARK VINA RESULT:      -4.5      2.533      4.742
REMARK  2 active torsions:
REMARK  status: ('A' for Active; 'I' for Inactive)
REMARK    1  A    between atoms: C6_6  and  C8_8 
REMARK    2  A    between atoms: C7_7  and  C8_8 
ROOT
HETATM    1  C1  UNL     1     -32.651   9.495  -0.077  1.00 20.00     0.001 A 
HETATM    2  C2  UNL     1     -32.431  10.488   0.958  1.00 20.00     0.001 A 
HETATM    3  C3  UNL     1     -32.796   8.285   0.487  1.00 20.00     0.013 A 
HETATM    4  C4  UNL     1     -32.439   9.891   2.160  1.00 20.00     0.013 A 
HETATM    5  C5  UNL     1     -32.668   8.480   1.918  1.00 20.00    -0.018 A 
HETATM    6  C7  UNL     1     -32.748   7.527   2.850  1.00 20.00     0.028 C 
HETATM    7 CL10 UNL     1     -32.977   5.874   2.382  1.00 20.00    -0.088 Cl
ENDROOT
BRANCH   6   8
HETATM    8  C8  UNL     1     -32.610   7.774   4.320  1.00 20.00     0.121 C 
BRANCH   8   9
HETATM    9  C6  UNL     1     -33.719   7.122   5.118  1.00 20.00     0.236 C 
HETATM   10  O9  UNL     1     -33.956   7.330   6.302  1.00 20.00    -0.307 OA
ENDBRANCH   8   9
ENDBRANCH   6   8
TORSDOF 2
ENDMDL
MODEL 8
REMARK VINA RESULT:      -4.5     10.921     11.302
REMARK  2 active torsions:
REMARK  status: ('A' for Active; 'I' for Inactive)
REMARK    1  A    between atoms: C6_6  and  C8_8 
REMARK    2  A    between atoms: C7_7  and  C8_8 
ROOT
HETATM    1  C1  UNL     1     -34.823  17.693  -0.255  1.00 20.00     0.001 A 
HETATM    2  C2  UNL     1     -33.460  17.986  -0.657  1.00 20.00     0.001 A 
HETATM    3  C3  UNL     1     -35.437  17.000  -1.227  1.00 20.00     0.013 A 
HETATM    4  C4  UNL     1     -33.233  17.475  -1.877  1.00 20.00     0.013 A 
HETATM    5  C5  UNL     1     -34.465  16.832  -2.290  1.00 20.00    -0.018 A 
HETATM    6  C7  UNL     1     -34.669  16.197  -3.446  1.00 20.00     0.028 C 
HETATM    7 CL10 UNL     1     -36.226  15.525  -3.804  1.00 20.00    -0.088 Cl
ENDROOT
BRANCH   6   8
HETATM    8  C8  UNL     1     -33.634  16.047  -4.518  1.00 20.00     0.121 C 
BRANCH   8   9
HETATM    9  C6  UNL     1     -32.927  14.711  -4.448  1.00 20.00     0.236 C 
HETATM   10  O9  UNL     1     -33.480  13.620  -4.363  1.00 20.00    -0.307 OA
ENDBRANCH   8   9
ENDBRANCH   6   8
TORSDOF 2
ENDMDL
MODEL 9
REMARK VINA RESULT:      -4.3      2.980      4.495
REMARK  2 active torsions:
REMARK  status: ('A' for Active; 'I' for Inactive)
REMARK    1  A    between atoms: C6_6  and  C8_8 
REMARK    2  A    between atoms: C7_7  and  C8_8 
ROOT
HETATM    1  C1  UNL     1     -31.493   8.512   3.063  1.00 20.00     0.001 A 
HETATM    2  C2  UNL     1     -31.830   8.528   4.474  1.00 20.00     0.001 A 
HETATM    3  C3  UNL     1     -32.330   7.689   2.411  1.00 20.00     0.013 A 
HETATM    4  C4  UNL     1     -32.875   7.716   4.694  1.00 20.00     0.013 A 
HETATM    5  C5  UNL     1     -33.236   7.152   3.408  1.00 20.00    -0.018 A 
HETATM    6  C7  UNL     1     -34.230   6.289   3.180  1.00 20.00     0.028 C 
HETATM    7 CL10 UNL     1     -34.494   5.672   1.582  1.00 20.00    -0.088 Cl
ENDROOT
BRANCH   6   8
HETATM    8  C8  UNL     1     -35.143   5.759   4.242  1.00 20.00     0.121 C 
BRANCH   8   9
HETATM    9  C6  UNL     1     -34.595   4.509   4.897  1.00 20.00     0.236 C 
HETATM   10  O9  UNL     1     -34.152   3.534   4.302  1.00 20.00    -0.307 OA
ENDBRANCH   8   9
ENDBRANCH   6   8
TORSDOF 2
ENDMDL
