MODEL 1
REMARK VINA RESULT:      -5.6      0.000      0.000
REMARK  2 active torsions:
REMARK  status: ('A' for Active; 'I' for Inactive)
REMARK    1  A    between atoms: C4_4  and  C7_7 
REMARK    2  A    between atoms: C5_5  and  O8_8 
ROOT
HETATM    1  C1  UNL     1     -33.403   7.255   5.358  1.00 20.00     0.007 C 
HETATM    2  C2  UNL     1     -34.396   6.136   5.687  1.00 20.00     0.032 C 
HETATM    3  C3  UNL     1     -33.530   5.843   3.436  1.00 20.00     0.036 C 
HETATM    4  C4  UNL     1     -33.337   7.306   3.833  1.00 20.00    -0.012 C 
HETATM    5  C5  UNL     1     -34.629   5.374   4.381  1.00 20.00     0.118 C 
ENDROOT
BRANCH   4   6
HETATM    6  C7  UNL     1     -32.041   7.901   3.309  1.00 20.00     0.000 C 
HETATM    7  C6  UNL     1     -32.191   8.429   1.917  1.00 20.00     0.005 C 
ENDBRANCH   4   6
BRANCH   5   8
HETATM    8  O8  UNL     1     -35.894   5.733   3.833  1.00 20.00    -0.396 OA
HETATM    9  H22 UNL     1     -35.994   6.689   3.971  1.00 20.00     0.210 HD
ENDBRANCH   5   8
TORSDOF 2
ENDMDL
MODEL 2
REMARK VINA RESULT:      -4.9      1.432      1.969
REMARK  2 active torsions:
REMARK  status: ('A' for Active; 'I' for Inactive)
REMARK    1  A    between atoms: C4_4  and  C7_7 
REMARK    2  A    between atoms: C5_5  and  O8_8 
ROOT
HETATM    1  C1  UNL     1     -33.115   5.018   2.926  1.00 20.00     0.007 C 
HETATM    2  C2  UNL     1     -34.063   4.206   3.815  1.00 20.00     0.032 C 
HETATM    3  C3  UNL     1     -34.636   6.565   3.925  1.00 20.00     0.036 C 
HETATM    4  C4  UNL     1     -33.187   6.450   3.453  1.00 20.00    -0.012 C 
HETATM    5  C5  UNL     1     -34.882   5.226   4.609  1.00 20.00     0.118 C 
ENDROOT
BRANCH   4   6
HETATM    6  C7  UNL     1     -32.813   7.491   2.412  1.00 20.00     0.000 C 
HETATM    7  C6  UNL     1     -31.676   8.351   2.865  1.00 20.00     0.005 C 
ENDBRANCH   4   6
BRANCH   5   8
HETATM    8  O8  UNL     1     -34.396   5.296   5.947  1.00 20.00    -0.396 OA
HETATM    9  H22 UNL     1     -33.852   6.097   6.003  1.00 20.00     0.210 HD
ENDBRANCH   5   8
TORSDOF 2
ENDMDL
MODEL 3
REMARK VINA RESULT:      -4.9      1.134      1.787
REMARK  2 active torsions:
REMARK  status: ('A' for Active; 'I' for Inactive)
REMARK    1  A    between atoms: C4_4  and  C7_7 
REMARK    2  A    between atoms: C5_5  and  O8_8 
ROOT
HETATM    1  C1  UNL     1     -34.026   6.390   2.933  1.00 20.00     0.007 C 
HETATM    2  C2  UNL     1     -35.104   5.742   3.808  1.00 20.00     0.032 C 
HETATM    3  C3  UNL     1     -33.666   7.150   5.168  1.00 20.00     0.036 C 
HETATM    4  C4  UNL     1     -32.907   6.787   3.893  1.00 20.00    -0.012 C 
HETATM    5  C5  UNL     1     -34.729   6.062   5.256  1.00 20.00     0.118 C 
ENDROOT
BRANCH   4   6
HETATM    6  C7  UNL     1     -32.043   7.922   3.369  1.00 20.00     0.000 C 
HETATM    7  C6  UNL     1     -32.429   8.323   1.980  1.00 20.00     0.005 C 
ENDBRANCH   4   6
BRANCH   5   8
HETATM    8  O8  UNL     1     -34.160   4.910   5.872  1.00 20.00    -0.396 OA
HETATM    9  H22 UNL     1     -33.775   5.206   6.712  1.00 20.00     0.210 HD
ENDBRANCH   5   8
TORSDOF 2
ENDMDL
MODEL 4
REMARK VINA RESULT:      -4.9      1.877      3.614
REMARK  2 active torsions:
REMARK  status: ('A' for Active; 'I' for Inactive)
REMARK    1  A    between atoms: C4_4  and  C7_7 
REMARK    2  A    between atoms: C5_5  and  O8_8 
ROOT
HETATM    1  C1  UNL     1     -33.964   6.042   3.326  1.00 20.00     0.007 C 
HETATM    2  C2  UNL     1     -33.109   6.451   2.123  1.00 20.00     0.032 C 
HETATM    3  C3  UNL     1     -32.412   7.685   4.096  1.00 20.00     0.036 C 
HETATM    4  C4  UNL     1     -33.840   7.191   4.325  1.00 20.00    -0.012 C 
HETATM    5  C5  UNL     1     -32.276   7.651   2.579  1.00 20.00     0.118 C 
ENDROOT
BRANCH   4   6
HETATM    6  C7  UNL     1     -34.103   6.768   5.760  1.00 20.00     0.000 C 
HETATM    7  C6  UNL     1     -34.585   5.354   5.847  1.00 20.00     0.005 C 
ENDBRANCH   4   6
BRANCH   5   8
HETATM    8  O8  UNL     1     -32.823   8.850   2.039  1.00 20.00    -0.396 OA
HETATM    9  H22 UNL     1     -33.740   8.650   1.791  1.00 20.00     0.210 HD
ENDBRANCH   5   8
TORSDOF 2
ENDMDL
MODEL 5
REMARK VINA RESULT:      -4.1     11.454     11.977
REMARK  2 active torsions:
REMARK  status: ('A' for Active; 'I' for Inactive)
REMARK    1  A    between atoms: C4_4  and  C7_7 
REMARK    2  A    between atoms: C5_5  and  O8_8 
ROOT
HETATM    1  C1  UNL     1     -33.568  14.970  -5.098  1.00 20.00     0.007 C 
HETATM    2  C2  UNL     1     -34.358  14.125  -6.103  1.00 20.00     0.032 C 
HETATM    3  C3  UNL     1     -35.854  15.014  -4.408  1.00 20.00     0.036 C 
HETATM    4  C4  UNL     1     -34.434  15.025  -3.841  1.00 20.00    -0.012 C 
HETATM    5  C5  UNL     1     -35.769  13.985  -5.527  1.00 20.00     0.118 C 
ENDROOT
BRANCH   4   6
HETATM    6  C7  UNL     1     -34.148  16.236  -2.969  1.00 20.00     0.000 C 
HETATM    7  C6  UNL     1     -35.315  16.589  -2.102  1.00 20.00     0.005 C 
ENDBRANCH   4   6
BRANCH   5   8
HETATM    8  O8  UNL     1     -35.935  12.684  -4.972  1.00 20.00    -0.396 OA
HETATM    9  H22 UNL     1     -35.107  12.471  -4.512  1.00 20.00     0.210 HD
ENDBRANCH   5   8
TORSDOF 2
ENDMDL
MODEL 6
REMARK VINA RESULT:      -4.1     11.439     12.202
REMARK  2 active torsions:
REMARK  status: ('A' for Active; 'I' for Inactive)
REMARK    1  A    between atoms: C4_4  and  C7_7 
REMARK    2  A    between atoms: C5_5  and  O8_8 
ROOT
HETATM    1  C1  UNL     1     -33.615  16.836  -4.319  1.00 20.00     0.007 C 
HETATM    2  C2  UNL     1     -33.120  15.890  -5.418  1.00 20.00     0.032 C 
HETATM    3  C3  UNL     1     -34.638  14.713  -3.931  1.00 20.00     0.036 C 
HETATM    4  C4  UNL     1     -34.091  15.930  -3.185  1.00 20.00    -0.012 C 
HETATM    5  C5  UNL     1     -33.607  14.492  -5.030  1.00 20.00     0.118 C 
ENDROOT
BRANCH   4   6
HETATM    6  C7  UNL     1     -35.120  16.590  -2.283  1.00 20.00     0.000 C 
HETATM    7  C6  UNL     1     -34.480  17.307  -1.137  1.00 20.00     0.005 C 
ENDBRANCH   4   6
BRANCH   5   8
HETATM    8  O8  UNL     1     -32.523  13.734  -4.501  1.00 20.00    -0.396 OA
HETATM    9  H22 UNL     1     -31.754  14.327  -4.479  1.00 20.00     0.210 HD
ENDBRANCH   5   8
TORSDOF 2
ENDMDL
MODEL 7
REMARK VINA RESULT:      -4.0      1.661      3.149
REMARK  2 active torsions:
REMARK  status: ('A' for Active; 'I' for Inactive)
REMARK    1  A    between atoms: C4_4  and  C7_7 
REMARK    2  A    between atoms: C5_5  and  O8_8 
ROOT
HETATM    1  C1  UNL     1     -33.922   4.394   4.177  1.00 20.00     0.007 C 
HETATM    2  C2  UNL     1     -33.384   4.437   2.743  1.00 20.00     0.032 C 
HETATM    3  C3  UNL     1     -33.606   6.693   3.615  1.00 20.00     0.036 C 
HETATM    4  C4  UNL     1     -34.518   5.777   4.430  1.00 20.00    -0.012 C 
HETATM    5  C5  UNL     1     -33.395   5.909   2.326  1.00 20.00     0.118 C 
ENDROOT
BRANCH   4   6
HETATM    6  C7  UNL     1     -34.571   6.145   5.904  1.00 20.00     0.000 C 
HETATM    7  C6  UNL     1     -33.764   7.368   6.204  1.00 20.00     0.005 C 
ENDBRANCH   4   6
BRANCH   5   8
HETATM    8  O8  UNL     1     -34.493   6.153   1.452  1.00 20.00    -0.396 OA
HETATM    9  H22 UNL     1     -34.230   5.825   0.578  1.00 20.00     0.210 HD
ENDBRANCH   5   8
TORSDOF 2
ENDMDL
MODEL 8
REMARK VINA RESULT:      -3.9      2.015      2.804
REMARK  2 active torsions:
REMARK  status: ('A' for Active; 'I' for Inactive)
REMARK    1  A    between atoms: C4_4  and  C7_7 
REMARK    2  A    between atoms: C5_5  and  O8_8 
ROOT
HETATM    1  C1  UNL     1     -34.387   5.005   4.672  1.00 20.00     0.007 C 
HETATM    2  C2  UNL     1     -34.643   5.889   5.897  1.00 20.00     0.032 C 
HETATM    3  C3  UNL     1     -33.910   7.255   4.027  1.00 20.00     0.036 C 
HETATM    4  C4  UNL     1     -33.459   5.817   3.771  1.00 20.00    -0.012 C 
HETATM    5  C5  UNL     1     -34.127   7.283   5.534  1.00 20.00     0.118 C 
ENDROOT
BRANCH   4   6
HETATM    6  C7  UNL     1     -33.543   5.416   2.308  1.00 20.00     0.000 C 
HETATM    7  C6  UNL     1     -32.852   4.116   2.044  1.00 20.00     0.005 C 
ENDBRANCH   4   6
BRANCH   5   8
HETATM    8  O8  UNL     1     -32.877   7.516   6.177  1.00 20.00    -0.396 OA
HETATM    9  H22 UNL     1     -32.361   8.083   5.582  1.00 20.00     0.210 HD
ENDBRANCH   5   8
TORSDOF 2
ENDMDL
MODEL 9
REMARK VINA RESULT:      -3.8      2.385      3.921
REMARK  2 active torsions:
REMARK  status: ('A' for Active; 'I' for Inactive)
REMARK    1  A    between atoms: C4_4  and  C7_7 
REMARK    2  A    between atoms: C5_5  and  O8_8 
ROOT
HETATM    1  C1  UNL     1     -32.200   7.527   3.817  1.00 20.00     0.007 C 
HETATM    2  C2  UNL     1     -31.539   8.762   3.195  1.00 20.00     0.032 C 
HETATM    3  C3  UNL     1     -33.373   8.007   1.793  1.00 20.00     0.036 C 
HETATM    4  C4  UNL     1     -32.931   6.835   2.669  1.00 20.00    -0.012 C 
HETATM    5  C5  UNL     1     -32.155   8.922   1.804  1.00 20.00     0.118 C 
ENDROOT
BRANCH   4   6
HETATM    6  C7  UNL     1     -34.088   5.967   3.133  1.00 20.00     0.000 C 
HETATM    7  C6  UNL     1     -34.404   6.183   4.580  1.00 20.00     0.005 C 
ENDBRANCH   4   6
BRANCH   5   8
HETATM    8  O8  UNL     1     -31.233   8.475   0.815  1.00 20.00    -0.396 OA
HETATM    9  H22 UNL     1     -31.592   8.750  -0.044  1.00 20.00     0.210 HD
ENDBRANCH   5   8
TORSDOF 2
ENDMDL
