MODEL 1
REMARK VINA RESULT:      -5.7      0.000      0.000
REMARK  1 active torsions:
REMARK  status: ('A' for Active; 'I' for Inactive)
REMARK    1  A    between atoms: C5_5  and  O10_10 
ROOT
HETATM    1  C1  UNL     1     -32.983   7.825   4.498  1.00 20.00     0.050 A 
HETATM    2  C2  UNL     1     -32.324   6.735   2.424  1.00 20.00     0.079 A 
HETATM    3  C3  UNL     1     -33.692   6.683   4.830  1.00 20.00    -0.046 A 
HETATM    4  C4  UNL     1     -33.726   5.579   3.972  1.00 20.00    -0.018 A 
HETATM    5  C5  UNL     1     -33.053   5.592   2.762  1.00 20.00     0.075 A 
HETATM    6  C6  UNL     1     -32.290   7.843   3.285  1.00 20.00     0.119 A 
HETATM    7  C7  UNL     1     -34.536   6.444   6.043  1.00 20.00     0.039 C 
HETATM    8  C8  UNL     1     -34.595   4.496   4.532  1.00 20.00     0.042 C 
HETATM    9  C9  UNL     1     -34.678   4.914   6.008  1.00 20.00     0.009 C 
HETATM   10  F11 UNL     1     -31.590   8.932   2.936  1.00 20.00    -0.206 F 
ENDROOT
BRANCH   5  11
HETATM   11  O10 UNL     1     -33.094   4.529   1.920  1.00 20.00    -0.360 OA
HETATM   12  H20 UNL     1     -33.097   3.697   2.422  1.00 20.00     0.217 HD
ENDBRANCH   5  11
TORSDOF 1
ENDMDL
MODEL 2
REMARK VINA RESULT:      -5.7      2.683      4.304
REMARK  1 active torsions:
REMARK  status: ('A' for Active; 'I' for Inactive)
REMARK    1  A    between atoms: C5_5  and  O10_10 
ROOT
HETATM    1  C1  UNL     1     -34.128   5.717   3.105  1.00 20.00     0.050 A 
HETATM    2  C2  UNL     1     -34.250   6.069   5.510  1.00 20.00     0.079 A 
HETATM    3  C3  UNL     1     -33.270   6.801   3.026  1.00 20.00    -0.046 A 
HETATM    4  C4  UNL     1     -32.908   7.520   4.170  1.00 20.00    -0.018 A 
HETATM    5  C5  UNL     1     -33.395   7.170   5.419  1.00 20.00     0.075 A 
HETATM    6  C6  UNL     1     -34.614   5.348   4.362  1.00 20.00     0.119 A 
HETATM    7  C7  UNL     1     -32.658   7.404   1.800  1.00 20.00     0.039 C 
HETATM    8  C8  UNL     1     -32.018   8.670   3.817  1.00 20.00     0.042 C 
HETATM    9  C9  UNL     1     -31.538   8.256   2.418  1.00 20.00     0.009 C 
HETATM   10  F11 UNL     1     -35.441   4.300   4.472  1.00 20.00    -0.206 F 
ENDROOT
BRANCH   5  11
HETATM   11  O10 UNL     1     -33.058   7.873   6.530  1.00 20.00    -0.360 OA
HETATM   12  H20 UNL     1     -33.829   7.976   7.114  1.00 20.00     0.217 HD
ENDBRANCH   5  11
TORSDOF 1
ENDMDL
MODEL 3
REMARK VINA RESULT:      -5.4      2.072      3.581
REMARK  1 active torsions:
REMARK  status: ('A' for Active; 'I' for Inactive)
REMARK    1  A    between atoms: C5_5  and  O10_10 
ROOT
HETATM    1  C1  UNL     1     -33.367   7.208   5.481  1.00 20.00     0.050 A 
HETATM    2  C2  UNL     1     -34.754   5.688   4.180  1.00 20.00     0.079 A 
HETATM    3  C3  UNL     1     -32.772   7.618   4.300  1.00 20.00    -0.046 A 
HETATM    4  C4  UNL     1     -33.153   7.069   3.071  1.00 20.00    -0.018 A 
HETATM    5  C5  UNL     1     -34.138   6.098   2.995  1.00 20.00     0.075 A 
HETATM    6  C6  UNL     1     -34.371   6.238   5.414  1.00 20.00     0.119 A 
HETATM    7  C7  UNL     1     -31.659   8.603   4.123  1.00 20.00     0.039 C 
HETATM    8  C8  UNL     1     -32.332   7.638   1.956  1.00 20.00     0.042 C 
HETATM    9  C9  UNL     1     -31.764   8.901   2.619  1.00 20.00     0.009 C 
HETATM   10  F11 UNL     1     -34.970   5.824   6.538  1.00 20.00    -0.206 F 
ENDROOT
BRANCH   5  11
HETATM   11  O10 UNL     1     -34.502   5.553   1.807  1.00 20.00    -0.360 OA
HETATM   12  H20 UNL     1     -34.954   4.703   1.947  1.00 20.00     0.217 HD
ENDBRANCH   5  11
TORSDOF 1
ENDMDL
MODEL 4
REMARK VINA RESULT:      -5.4      2.099      2.770
REMARK  1 active torsions:
REMARK  status: ('A' for Active; 'I' for Inactive)
REMARK    1  A    between atoms: C5_5  and  O10_10 
ROOT
HETATM    1  C1  UNL     1     -32.926   6.907   2.156  1.00 20.00     0.050 A 
HETATM    2  C2  UNL     1     -31.669   8.674   3.262  1.00 20.00     0.079 A 
HETATM    3  C3  UNL     1     -33.465   6.570   3.387  1.00 20.00    -0.046 A 
HETATM    4  C4  UNL     1     -33.110   7.269   4.546  1.00 20.00    -0.018 A 
HETATM    5  C5  UNL     1     -32.208   8.319   4.500  1.00 20.00     0.075 A 
HETATM    6  C6  UNL     1     -32.025   7.974   2.099  1.00 20.00     0.119 A 
HETATM    7  C7  UNL     1     -34.409   5.453   3.704  1.00 20.00     0.039 C 
HETATM    8  C8  UNL     1     -33.786   6.685   5.747  1.00 20.00     0.042 C 
HETATM    9  C9  UNL     1     -34.917   5.880   5.090  1.00 20.00     0.009 C 
HETATM   10  F11 UNL     1     -31.490   8.327   0.922  1.00 20.00    -0.206 F 
ENDROOT
BRANCH   5  11
HETATM   11  O10 UNL     1     -31.850   8.991   5.624  1.00 20.00    -0.360 OA
HETATM   12  H20 UNL     1     -32.560   8.949   6.287  1.00 20.00     0.217 HD
ENDBRANCH   5  11
TORSDOF 1
ENDMDL
MODEL 5
REMARK VINA RESULT:      -4.9     12.297     12.698
REMARK  1 active torsions:
REMARK  status: ('A' for Active; 'I' for Inactive)
REMARK    1  A    between atoms: C5_5  and  O10_10 
ROOT
HETATM    1  C1  UNL     1     -35.638  17.559   0.150  1.00 20.00     0.050 A 
HETATM    2  C2  UNL     1     -33.494  18.527   0.774  1.00 20.00     0.079 A 
HETATM    3  C3  UNL     1     -35.085  17.209  -1.070  1.00 20.00    -0.046 A 
HETATM    4  C4  UNL     1     -33.754  17.518  -1.374  1.00 20.00    -0.018 A 
HETATM    5  C5  UNL     1     -32.949  18.183  -0.465  1.00 20.00     0.075 A 
HETATM    6  C6  UNL     1     -34.829  18.218   1.079  1.00 20.00     0.119 A 
HETATM    7  C7  UNL     1     -35.756  16.541  -2.228  1.00 20.00     0.039 C 
HETATM    8  C8  UNL     1     -33.411  17.083  -2.764  1.00 20.00     0.042 C 
HETATM    9  C9  UNL     1     -34.542  16.083  -3.050  1.00 20.00     0.009 C 
HETATM   10  F11 UNL     1     -35.334  18.565   2.271  1.00 20.00    -0.206 F 
ENDROOT
BRANCH   5  11
HETATM   11  O10 UNL     1     -31.662  18.497  -0.760  1.00 20.00    -0.360 OA
HETATM   12  H20 UNL     1     -31.440  19.380  -0.419  1.00 20.00     0.217 HD
ENDBRANCH   5  11
TORSDOF 1
ENDMDL
MODEL 6
REMARK VINA RESULT:      -4.9     12.291     12.523
REMARK  1 active torsions:
REMARK  status: ('A' for Active; 'I' for Inactive)
REMARK    1  A    between atoms: C5_5  and  O10_10 
ROOT
HETATM    1  C1  UNL     1     -33.672  15.310  -4.356  1.00 20.00     0.050 A 
HETATM    2  C2  UNL     1     -35.924  14.572  -4.908  1.00 20.00     0.079 A 
HETATM    3  C3  UNL     1     -34.211  16.070  -3.332  1.00 20.00    -0.046 A 
HETATM    4  C4  UNL     1     -35.590  16.091  -3.097  1.00 20.00    -0.018 A 
HETATM    5  C5  UNL     1     -36.460  15.352  -3.881  1.00 20.00     0.075 A 
HETATM    6  C6  UNL     1     -34.540  14.551  -5.144  1.00 20.00     0.119 A 
HETATM    7  C7  UNL     1     -33.495  16.986  -2.389  1.00 20.00     0.039 C 
HETATM    8  C8  UNL     1     -35.925  17.021  -1.973  1.00 20.00     0.042 C 
HETATM    9  C9  UNL     1     -34.556  17.171  -1.293  1.00 20.00     0.009 C 
HETATM   10  F11 UNL     1     -34.049  13.802  -6.140  1.00 20.00    -0.206 F 
ENDROOT
BRANCH   5  11
HETATM   11  O10 UNL     1     -37.800  15.379  -3.667  1.00 20.00    -0.360 OA
HETATM   12  H20 UNL     1     -37.994  15.308  -2.717  1.00 20.00     0.217 HD
ENDBRANCH   5  11
TORSDOF 1
ENDMDL
MODEL 7
REMARK VINA RESULT:      -4.8     12.513     12.981
REMARK  1 active torsions:
REMARK  status: ('A' for Active; 'I' for Inactive)
REMARK    1  A    between atoms: C5_5  and  O10_10 
ROOT
HETATM    1  C1  UNL     1     -34.219  18.414   2.529  1.00 20.00     0.050 A 
HETATM    2  C2  UNL     1     -31.944  18.990   3.175  1.00 20.00     0.079 A 
HETATM    3  C3  UNL     1     -33.799  18.385   1.210  1.00 20.00    -0.046 A 
HETATM    4  C4  UNL     1     -32.470  18.660   0.870  1.00 20.00    -0.018 A 
HETATM    5  C5  UNL     1     -31.533  18.971   1.840  1.00 20.00     0.075 A 
HETATM    6  C6  UNL     1     -33.278  18.714   3.517  1.00 20.00     0.119 A 
HETATM    7  C7  UNL     1     -34.623  18.131  -0.013  1.00 20.00     0.039 C 
HETATM    8  C8  UNL     1     -32.281  18.614  -0.614  1.00 20.00     0.042 C 
HETATM    9  C9  UNL     1     -33.528  17.831  -1.050  1.00 20.00     0.009 C 
HETATM   10  F11 UNL     1     -33.652  18.745   4.803  1.00 20.00    -0.206 F 
ENDROOT
BRANCH   5  11
HETATM   11  O10 UNL     1     -30.246  19.253   1.514  1.00 20.00    -0.360 OA
HETATM   12  H20 UNL     1     -29.909  19.984   2.059  1.00 20.00     0.217 HD
ENDBRANCH   5  11
TORSDOF 1
ENDMDL
MODEL 8
REMARK VINA RESULT:      -4.8     12.317     12.659
REMARK  1 active torsions:
REMARK  status: ('A' for Active; 'I' for Inactive)
REMARK    1  A    between atoms: C5_5  and  O10_10 
ROOT
HETATM    1  C1  UNL     1     -37.013  15.291  -4.088  1.00 20.00     0.050 A 
HETATM    2  C2  UNL     1     -36.307  13.815  -5.890  1.00 20.00     0.079 A 
HETATM    3  C3  UNL     1     -35.678  15.519  -3.801  1.00 20.00    -0.046 A 
HETATM    4  C4  UNL     1     -34.664  14.901  -4.541  1.00 20.00    -0.018 A 
HETATM    5  C5  UNL     1     -34.963  14.041  -5.584  1.00 20.00     0.075 A 
HETATM    6  C6  UNL     1     -37.324  14.435  -5.148  1.00 20.00     0.119 A 
HETATM    7  C7  UNL     1     -35.103  16.355  -2.701  1.00 20.00     0.039 C 
HETATM    8  C8  UNL     1     -33.315  15.268  -4.006  1.00 20.00     0.042 C 
HETATM    9  C9  UNL     1     -33.652  16.520  -3.182  1.00 20.00     0.009 C 
HETATM   10  F11 UNL     1     -38.607  14.197  -5.454  1.00 20.00    -0.206 F 
ENDROOT
BRANCH   5  11
HETATM   11  O10 UNL     1     -33.984  13.428  -6.297  1.00 20.00    -0.360 OA
HETATM   12  H20 UNL     1     -33.215  13.245  -5.730  1.00 20.00     0.217 HD
ENDBRANCH   5  11
TORSDOF 1
ENDMDL
MODEL 9
REMARK VINA RESULT:      -4.8      2.280      3.382
REMARK  1 active torsions:
REMARK  status: ('A' for Active; 'I' for Inactive)
REMARK    1  A    between atoms: C5_5  and  O10_10 
ROOT
HETATM    1  C1  UNL     1     -32.735   5.904   2.686  1.00 20.00     0.050 A 
HETATM    2  C2  UNL     1     -34.114   4.193   3.732  1.00 20.00     0.079 A 
HETATM    3  C3  UNL     1     -32.984   6.720   3.777  1.00 20.00    -0.046 A 
HETATM    4  C4  UNL     1     -33.792   6.287   4.833  1.00 20.00    -0.018 A 
HETATM    5  C5  UNL     1     -34.370   5.028   4.822  1.00 20.00     0.075 A 
HETATM    6  C6  UNL     1     -33.303   4.628   2.672  1.00 20.00     0.119 A 
HETATM    7  C7  UNL     1     -32.524   8.127   3.998  1.00 20.00     0.039 C 
HETATM    8  C8  UNL     1     -33.947   7.363   5.862  1.00 20.00     0.042 C 
HETATM    9  C9  UNL     1     -32.770   8.285   5.507  1.00 20.00     0.009 C 
HETATM   10  F11 UNL     1     -33.078   3.812   1.633  1.00 20.00    -0.206 F 
ENDROOT
BRANCH   5  11
HETATM   11  O10 UNL     1     -35.166   4.608   5.838  1.00 20.00    -0.360 OA
HETATM   12  H20 UNL     1     -35.654   3.808   5.579  1.00 20.00     0.217 HD
ENDBRANCH   5  11
TORSDOF 1
ENDMDL
