MODEL 1
REMARK VINA RESULT:      -5.4      0.000      0.000
REMARK  2 active torsions:
REMARK  status: ('A' for Active; 'I' for Inactive)
REMARK    1  A    between atoms: C4_4  and  C7_7 
REMARK    2  A    between atoms: C5_5  and  O8_8 
ROOT
HETATM    1  C1  UNL     1     -33.955   6.061   3.081  1.00 20.00     0.007 C 
HETATM    2  C2  UNL     1     -35.167   5.660   3.911  1.00 20.00     0.032 C 
HETATM    3  C3  UNL     1     -33.702   7.085   5.253  1.00 20.00     0.036 C 
HETATM    4  C4  UNL     1     -33.500   7.350   3.756  1.00 20.00    -0.012 C 
HETATM    5  C5  UNL     1     -34.738   5.959   5.344  1.00 20.00     0.118 C 
ENDROOT
BRANCH   4   6
HETATM    6  C7  UNL     1     -32.075   7.737   3.401  1.00 20.00     0.000 C 
HETATM    7  C6  UNL     1     -31.994   8.422   2.073  1.00 20.00     0.005 C 
ENDBRANCH   4   6
BRANCH   5   8
HETATM    8  O8  UNL     1     -34.132   4.794   5.896  1.00 20.00    -0.396 OA
HETATM    9  H22 UNL     1     -33.563   5.096   6.621  1.00 20.00     0.210 HD
ENDBRANCH   5   8
TORSDOF 2
ENDMDL
MODEL 2
REMARK VINA RESULT:      -5.0      1.207      1.812
REMARK  2 active torsions:
REMARK  status: ('A' for Active; 'I' for Inactive)
REMARK    1  A    between atoms: C4_4  and  C7_7 
REMARK    2  A    between atoms: C5_5  and  O8_8 
ROOT
HETATM    1  C1  UNL     1     -33.653   7.446   4.650  1.00 20.00     0.007 C 
HETATM    2  C2  UNL     1     -34.104   6.222   5.434  1.00 20.00     0.032 C 
HETATM    3  C3  UNL     1     -33.692   5.588   3.108  1.00 20.00     0.036 C 
HETATM    4  C4  UNL     1     -32.880   6.833   3.487  1.00 20.00    -0.012 C 
HETATM    5  C5  UNL     1     -34.518   5.232   4.350  1.00 20.00     0.118 C 
ENDROOT
BRANCH   4   6
HETATM    6  C7  UNL     1     -32.681   7.796   2.330  1.00 20.00     0.000 C 
HETATM    7  C6  UNL     1     -31.516   8.709   2.554  1.00 20.00     0.005 C 
ENDBRANCH   4   6
BRANCH   5   8
HETATM    8  O8  UNL     1     -35.903   5.408   4.070  1.00 20.00    -0.396 OA
HETATM    9  H22 UNL     1     -36.381   4.772   4.626  1.00 20.00     0.210 HD
ENDBRANCH   5   8
TORSDOF 2
ENDMDL
MODEL 3
REMARK VINA RESULT:      -4.8      1.094      1.381
REMARK  2 active torsions:
REMARK  status: ('A' for Active; 'I' for Inactive)
REMARK    1  A    between atoms: C4_4  and  C7_7 
REMARK    2  A    between atoms: C5_5  and  O8_8 
ROOT
HETATM    1  C1  UNL     1     -33.067   4.929   3.182  1.00 20.00     0.007 C 
HETATM    2  C2  UNL     1     -34.213   4.264   3.932  1.00 20.00     0.032 C 
HETATM    3  C3  UNL     1     -34.558   6.685   3.906  1.00 20.00     0.036 C 
HETATM    4  C4  UNL     1     -33.685   6.244   2.723  1.00 20.00    -0.012 C 
HETATM    5  C5  UNL     1     -34.850   5.412   4.709  1.00 20.00     0.118 C 
ENDROOT
BRANCH   4   6
HETATM    6  C7  UNL     1     -32.651   7.282   2.322  1.00 20.00     0.000 C 
HETATM    7  C6  UNL     1     -31.981   7.894   3.511  1.00 20.00     0.005 C 
ENDBRANCH   4   6
BRANCH   5   8
HETATM    8  O8  UNL     1     -34.231   5.500   5.988  1.00 20.00    -0.396 OA
HETATM    9  H22 UNL     1     -33.334   5.838   5.839  1.00 20.00     0.210 HD
ENDBRANCH   5   8
TORSDOF 2
ENDMDL
MODEL 4
REMARK VINA RESULT:      -4.7      1.846      3.600
REMARK  2 active torsions:
REMARK  status: ('A' for Active; 'I' for Inactive)
REMARK    1  A    between atoms: C4_4  and  C7_7 
REMARK    2  A    between atoms: C5_5  and  O8_8 
ROOT
HETATM    1  C1  UNL     1     -33.644   6.793   5.832  1.00 20.00     0.007 C 
HETATM    2  C2  UNL     1     -33.446   8.085   5.053  1.00 20.00     0.032 C 
HETATM    3  C3  UNL     1     -34.206   6.329   3.530  1.00 20.00     0.036 C 
HETATM    4  C4  UNL     1     -34.645   6.032   4.969  1.00 20.00    -0.012 C 
HETATM    5  C5  UNL     1     -33.390   7.625   3.599  1.00 20.00     0.118 C 
ENDROOT
BRANCH   4   6
HETATM    6  C7  UNL     1     -34.698   4.547   5.286  1.00 20.00     0.000 C 
HETATM    7  C6  UNL     1     -34.003   3.727   4.246  1.00 20.00     0.005 C 
ENDBRANCH   4   6
BRANCH   5   8
HETATM    8  O8  UNL     1     -32.034   7.356   3.254  1.00 20.00    -0.396 OA
HETATM    9  H22 UNL     1     -31.486   7.785   3.930  1.00 20.00     0.210 HD
ENDBRANCH   5   8
TORSDOF 2
ENDMDL
MODEL 5
REMARK VINA RESULT:      -4.6      1.652      3.367
REMARK  2 active torsions:
REMARK  status: ('A' for Active; 'I' for Inactive)
REMARK    1  A    between atoms: C4_4  and  C7_7 
REMARK    2  A    between atoms: C5_5  and  O8_8 
ROOT
HETATM    1  C1  UNL     1     -32.629   7.382   3.975  1.00 20.00     0.007 C 
HETATM    2  C2  UNL     1     -32.722   7.229   2.464  1.00 20.00     0.032 C 
HETATM    3  C3  UNL     1     -34.526   5.960   3.519  1.00 20.00     0.036 C 
HETATM    4  C4  UNL     1     -34.058   7.103   4.429  1.00 20.00    -0.012 C 
HETATM    5  C5  UNL     1     -33.627   6.015   2.278  1.00 20.00     0.118 C 
ENDROOT
BRANCH   4   6
HETATM    6  C7  UNL     1     -34.160   6.773   5.908  1.00 20.00     0.000 C 
HETATM    7  C6  UNL     1     -34.593   5.359   6.138  1.00 20.00     0.005 C 
ENDBRANCH   4   6
BRANCH   5   8
HETATM    8  O8  UNL     1     -32.819   4.844   2.221  1.00 20.00    -0.396 OA
HETATM    9  H22 UNL     1     -33.257   4.235   1.605  1.00 20.00     0.210 HD
ENDBRANCH   5   8
TORSDOF 2
ENDMDL
MODEL 6
REMARK VINA RESULT:      -4.5      1.804      2.464
REMARK  2 active torsions:
REMARK  status: ('A' for Active; 'I' for Inactive)
REMARK    1  A    between atoms: C4_4  and  C7_7 
REMARK    2  A    between atoms: C5_5  and  O8_8 
ROOT
HETATM    1  C1  UNL     1     -34.323   5.040   4.758  1.00 20.00     0.007 C 
HETATM    2  C2  UNL     1     -34.680   5.854   5.993  1.00 20.00     0.032 C 
HETATM    3  C3  UNL     1     -34.152   7.371   4.149  1.00 20.00     0.036 C 
HETATM    4  C4  UNL     1     -34.622   6.009   3.620  1.00 20.00    -0.012 C 
HETATM    5  C5  UNL     1     -34.141   7.246   5.677  1.00 20.00     0.118 C 
ENDROOT
BRANCH   4   6
HETATM    6  C7  UNL     1     -33.963   5.614   2.310  1.00 20.00     0.000 C 
HETATM    7  C6  UNL     1     -32.891   4.589   2.510  1.00 20.00     0.005 C 
ENDBRANCH   4   6
BRANCH   5   8
HETATM    8  O8  UNL     1     -32.803   7.341   6.156  1.00 20.00    -0.396 OA
HETATM    9  H22 UNL     1     -32.808   8.005   6.862  1.00 20.00     0.210 HD
ENDBRANCH   5   8
TORSDOF 2
ENDMDL
MODEL 7
REMARK VINA RESULT:      -4.2      2.455      3.821
REMARK  2 active torsions:
REMARK  status: ('A' for Active; 'I' for Inactive)
REMARK    1  A    between atoms: C4_4  and  C7_7 
REMARK    2  A    between atoms: C5_5  and  O8_8 
ROOT
HETATM    1  C1  UNL     1     -33.682   6.867   3.026  1.00 20.00     0.007 C 
HETATM    2  C2  UNL     1     -32.704   7.094   1.883  1.00 20.00     0.032 C 
HETATM    3  C3  UNL     1     -31.942   8.321   3.856  1.00 20.00     0.036 C 
HETATM    4  C4  UNL     1     -32.825   7.132   4.259  1.00 20.00    -0.012 C 
HETATM    5  C5  UNL     1     -31.912   8.321   2.323  1.00 20.00     0.118 C 
ENDROOT
BRANCH   4   6
HETATM    6  C7  UNL     1     -33.645   7.390   5.511  1.00 20.00     0.000 C 
HETATM    7  C6  UNL     1     -34.444   6.190   5.914  1.00 20.00     0.005 C 
ENDBRANCH   4   6
BRANCH   5   8
HETATM    8  O8  UNL     1     -32.562   9.489   1.832  1.00 20.00    -0.396 OA
HETATM    9  H22 UNL     1     -31.902  10.200   1.846  1.00 20.00     0.210 HD
ENDBRANCH   5   8
TORSDOF 2
ENDMDL
MODEL 8
REMARK VINA RESULT:      -4.1     11.710     12.086
REMARK  2 active torsions:
REMARK  status: ('A' for Active; 'I' for Inactive)
REMARK    1  A    between atoms: C4_4  and  C7_7 
REMARK    2  A    between atoms: C5_5  and  O8_8 
ROOT
HETATM    1  C1  UNL     1     -33.794  14.863  -4.228  1.00 20.00     0.007 C 
HETATM    2  C2  UNL     1     -34.180  14.252  -5.567  1.00 20.00     0.032 C 
HETATM    3  C3  UNL     1     -36.190  15.075  -4.443  1.00 20.00     0.036 C 
HETATM    4  C4  UNL     1     -34.944  15.826  -3.955  1.00 20.00    -0.012 C 
HETATM    5  C5  UNL     1     -35.684  14.028  -5.442  1.00 20.00     0.118 C 
ENDROOT
BRANCH   4   6
HETATM    6  C7  UNL     1     -35.032  16.254  -2.500  1.00 20.00     0.000 C 
HETATM    7  C6  UNL     1     -33.815  17.008  -2.063  1.00 20.00     0.005 C 
ENDBRANCH   4   6
BRANCH   5   8
HETATM    8  O8  UNL     1     -35.912  12.722  -4.922  1.00 20.00    -0.396 OA
HETATM    9  H22 UNL     1     -36.804  12.464  -5.203  1.00 20.00     0.210 HD
ENDBRANCH   5   8
TORSDOF 2
ENDMDL
MODEL 9
REMARK VINA RESULT:      -4.0     11.510     12.332
REMARK  2 active torsions:
REMARK  status: ('A' for Active; 'I' for Inactive)
REMARK    1  A    between atoms: C4_4  and  C7_7 
REMARK    2  A    between atoms: C5_5  and  O8_8 
ROOT
HETATM    1  C1  UNL     1     -33.483  16.674  -4.168  1.00 20.00     0.007 C 
HETATM    2  C2  UNL     1     -33.181  15.837  -5.402  1.00 20.00     0.032 C 
HETATM    3  C3  UNL     1     -34.703  14.603  -3.939  1.00 20.00     0.036 C 
HETATM    4  C4  UNL     1     -34.823  16.114  -3.703  1.00 20.00    -0.012 C 
HETATM    5  C5  UNL     1     -33.607  14.429  -4.997  1.00 20.00     0.118 C 
ENDROOT
BRANCH   4   6
HETATM    6  C7  UNL     1     -35.153  16.473  -2.264  1.00 20.00     0.000 C 
HETATM    7  C6  UNL     1     -34.006  17.146  -1.579  1.00 20.00     0.005 C 
ENDBRANCH   4   6
BRANCH   5   8
HETATM    8  O8  UNL     1     -32.490  13.758  -4.422  1.00 20.00    -0.396 OA
HETATM    9  H22 UNL     1     -32.442  12.887  -4.846  1.00 20.00     0.210 HD
ENDBRANCH   5   8
TORSDOF 2
ENDMDL
