MODEL 1
REMARK VINA RESULT:      -5.7      0.000      0.000
REMARK  2 active torsions:
REMARK  status: ('A' for Active; 'I' for Inactive)
REMARK    1  A    between atoms: C4_4  and  C8_8 
REMARK    2  A    between atoms: C5_5  and  O9_9 
ROOT
HETATM    1  C1  UNL     1     -34.023   7.032   5.578  1.00 20.00     0.007 C 
HETATM    2  C2  UNL     1     -34.159   5.561   5.957  1.00 20.00     0.032 C 
HETATM    3  C3  UNL     1     -35.192   5.998   3.775  1.00 20.00     0.036 C 
HETATM    4  C4  UNL     1     -34.115   7.049   4.055  1.00 20.00    -0.009 C 
HETATM    5  C5  UNL     1     -35.011   4.929   4.855  1.00 20.00     0.118 C 
ENDROOT
BRANCH   4   6
HETATM    6  C8  UNL     1     -32.783   6.711   3.386  1.00 20.00    -0.019 C 
HETATM    7  C6  UNL     1     -33.007   5.900   2.109  1.00 20.00     0.010 C 
HETATM    8  C7  UNL     1     -31.992   7.982   3.076  1.00 20.00     0.010 C 
ENDBRANCH   4   6
BRANCH   5   9
HETATM    9  O9  UNL     1     -34.330   3.797   4.327  1.00 20.00    -0.396 OA
HETATM   10  H25 UNL     1     -34.960   3.061   4.349  1.00 20.00     0.210 HD
ENDBRANCH   5   9
TORSDOF 2
ENDMDL
MODEL 2
REMARK VINA RESULT:      -4.9      1.883      3.696
REMARK  2 active torsions:
REMARK  status: ('A' for Active; 'I' for Inactive)
REMARK    1  A    between atoms: C4_4  and  C8_8 
REMARK    2  A    between atoms: C5_5  and  O9_9 
ROOT
HETATM    1  C1  UNL     1     -33.894   5.539   2.774  1.00 20.00     0.007 C 
HETATM    2  C2  UNL     1     -32.519   6.089   2.411  1.00 20.00     0.032 C 
HETATM    3  C3  UNL     1     -33.938   7.850   3.362  1.00 20.00     0.036 C 
HETATM    4  C4  UNL     1     -34.415   6.482   3.855  1.00 20.00    -0.009 C 
HETATM    5  C5  UNL     1     -32.592   7.593   2.680  1.00 20.00     0.118 C 
ENDROOT
BRANCH   4   6
HETATM    6  C8  UNL     1     -33.868   6.139   5.240  1.00 20.00    -0.019 C 
HETATM    7  C6  UNL     1     -33.887   7.367   6.152  1.00 20.00     0.010 C 
HETATM    8  C7  UNL     1     -34.663   4.996   5.872  1.00 20.00     0.010 C 
ENDBRANCH   4   6
BRANCH   5   9
HETATM    9  O9  UNL     1     -31.520   7.970   3.535  1.00 20.00    -0.396 OA
HETATM   10  H25 UNL     1     -31.902   8.098   4.417  1.00 20.00     0.210 HD
ENDBRANCH   5   9
TORSDOF 2
ENDMDL
MODEL 3
REMARK VINA RESULT:      -4.6      1.385      2.223
REMARK  2 active torsions:
REMARK  status: ('A' for Active; 'I' for Inactive)
REMARK    1  A    between atoms: C4_4  and  C8_8 
REMARK    2  A    between atoms: C5_5  and  O9_9 
ROOT
HETATM    1  C1  UNL     1     -34.898   5.085   5.149  1.00 20.00     0.007 C 
HETATM    2  C2  UNL     1     -34.088   4.030   4.404  1.00 20.00     0.032 C 
HETATM    3  C3  UNL     1     -34.489   5.986   2.979  1.00 20.00     0.036 C 
HETATM    4  C4  UNL     1     -34.556   6.399   4.451  1.00 20.00    -0.009 C 
HETATM    5  C5  UNL     1     -33.931   4.561   2.978  1.00 20.00     0.118 C 
ENDROOT
BRANCH   4   6
HETATM    6  C8  UNL     1     -33.242   6.998   4.948  1.00 20.00    -0.019 C 
HETATM    7  C6  UNL     1     -32.573   7.828   3.851  1.00 20.00     0.010 C 
HETATM    8  C7  UNL     1     -33.470   7.853   6.195  1.00 20.00     0.010 C 
ENDBRANCH   4   6
BRANCH   5   9
HETATM    9  O9  UNL     1     -32.552   4.566   2.628  1.00 20.00    -0.396 OA
HETATM   10  H25 UNL     1     -32.465   5.148   1.858  1.00 20.00     0.210 HD
ENDBRANCH   5   9
TORSDOF 2
ENDMDL
MODEL 4
REMARK VINA RESULT:      -4.4      1.772      3.045
REMARK  2 active torsions:
REMARK  status: ('A' for Active; 'I' for Inactive)
REMARK    1  A    between atoms: C4_4  and  C8_8 
REMARK    2  A    between atoms: C5_5  and  O9_9 
ROOT
HETATM    1  C1  UNL     1     -32.776   7.223   2.583  1.00 20.00     0.007 C 
HETATM    2  C2  UNL     1     -32.277   7.828   3.890  1.00 20.00     0.032 C 
HETATM    3  C3  UNL     1     -34.570   6.992   4.137  1.00 20.00     0.036 C 
HETATM    4  C4  UNL     1     -33.868   6.243   3.002  1.00 20.00    -0.009 C 
HETATM    5  C5  UNL     1     -33.470   7.783   4.847  1.00 20.00     0.118 C 
ENDROOT
BRANCH   4   6
HETATM    6  C8  UNL     1     -33.302   4.898   3.454  1.00 20.00    -0.019 C 
HETATM    7  C6  UNL     1     -34.299   4.161   4.350  1.00 20.00     0.010 C 
HETATM    8  C7  UNL     1     -32.929   4.031   2.251  1.00 20.00     0.010 C 
ENDBRANCH   4   6
BRANCH   5   9
HETATM    9  O9  UNL     1     -33.083   7.130   6.050  1.00 20.00    -0.396 OA
HETATM   10  H25 UNL     1     -33.845   7.179   6.647  1.00 20.00     0.210 HD
ENDBRANCH   5   9
TORSDOF 2
ENDMDL
MODEL 5
REMARK VINA RESULT:      -4.2     11.907     12.683
REMARK  2 active torsions:
REMARK  status: ('A' for Active; 'I' for Inactive)
REMARK    1  A    between atoms: C4_4  and  C8_8 
REMARK    2  A    between atoms: C5_5  and  O9_9 
ROOT
HETATM    1  C1  UNL     1     -36.373  16.020  -4.852  1.00 20.00     0.007 C 
HETATM    2  C2  UNL     1     -37.088  14.674  -4.810  1.00 20.00     0.032 C 
HETATM    3  C3  UNL     1     -35.042  14.532  -6.157  1.00 20.00     0.036 C 
HETATM    4  C4  UNL     1     -34.916  15.675  -5.147  1.00 20.00    -0.009 C 
HETATM    5  C5  UNL     1     -36.295  13.757  -5.743  1.00 20.00     0.118 C 
ENDROOT
BRANCH   4   6
HETATM    6  C8  UNL     1     -34.149  15.261  -3.892  1.00 20.00    -0.019 C 
HETATM    7  C6  UNL     1     -32.916  14.432  -4.257  1.00 20.00     0.010 C 
HETATM    8  C7  UNL     1     -33.741  16.487  -3.074  1.00 20.00     0.010 C 
ENDBRANCH   4   6
BRANCH   5   9
HETATM    9  O9  UNL     1     -35.939  12.570  -5.044  1.00 20.00    -0.396 OA
HETATM   10  H25 UNL     1     -35.595  11.952  -5.707  1.00 20.00     0.210 HD
ENDBRANCH   5   9
TORSDOF 2
ENDMDL
MODEL 6
REMARK VINA RESULT:      -4.1     11.921     12.733
REMARK  2 active torsions:
REMARK  status: ('A' for Active; 'I' for Inactive)
REMARK    1  A    between atoms: C4_4  and  C8_8 
REMARK    2  A    between atoms: C5_5  and  O9_9 
ROOT
HETATM    1  C1  UNL     1     -35.841  15.343  -4.270  1.00 20.00     0.007 C 
HETATM    2  C2  UNL     1     -35.033  14.069  -4.494  1.00 20.00     0.032 C 
HETATM    3  C3  UNL     1     -33.697  16.054  -5.035  1.00 20.00     0.036 C 
HETATM    4  C4  UNL     1     -34.794  16.428  -4.036  1.00 20.00    -0.009 C 
HETATM    5  C5  UNL     1     -33.703  14.525  -5.096  1.00 20.00     0.118 C 
ENDROOT
BRANCH   4   6
HETATM    6  C8  UNL     1     -34.286  16.448  -2.595  1.00 20.00    -0.019 C 
HETATM    7  C6  UNL     1     -33.173  17.483  -2.424  1.00 20.00     0.010 C 
HETATM    8  C7  UNL     1     -35.429  16.733  -1.619  1.00 20.00     0.010 C 
ENDBRANCH   4   6
BRANCH   5   9
HETATM    9  O9  UNL     1     -32.632  13.992  -4.326  1.00 20.00    -0.396 OA
HETATM   10  H25 UNL     1     -33.020  13.329  -3.735  1.00 20.00     0.210 HD
ENDBRANCH   5   9
TORSDOF 2
ENDMDL
MODEL 7
REMARK VINA RESULT:      -4.1      3.032      4.813
REMARK  2 active torsions:
REMARK  status: ('A' for Active; 'I' for Inactive)
REMARK    1  A    between atoms: C4_4  and  C8_8 
REMARK    2  A    between atoms: C5_5  and  O9_9 
ROOT
HETATM    1  C1  UNL     1     -32.142   9.765   2.531  1.00 20.00     0.007 C 
HETATM    2  C2  UNL     1     -32.868  10.297   1.300  1.00 20.00     0.032 C 
HETATM    3  C3  UNL     1     -31.549   8.305   0.740  1.00 20.00     0.036 C 
HETATM    4  C4  UNL     1     -31.901   8.288   2.229  1.00 20.00    -0.009 C 
HETATM    5  C5  UNL     1     -32.392   9.430   0.134  1.00 20.00     0.118 C 
ENDROOT
BRANCH   4   6
HETATM    6  C8  UNL     1     -33.126   7.425   2.528  1.00 20.00    -0.019 C 
HETATM    7  C6  UNL     1     -32.802   5.941   2.348  1.00 20.00     0.010 C 
HETATM    8  C7  UNL     1     -33.644   7.687   3.943  1.00 20.00     0.010 C 
ENDBRANCH   4   6
BRANCH   5   9
HETATM    9  O9  UNL     1     -33.522   8.895  -0.546  1.00 20.00    -0.396 OA
HETATM   10  H25 UNL     1     -34.123   8.562   0.138  1.00 20.00     0.210 HD
ENDBRANCH   5   9
TORSDOF 2
ENDMDL
MODEL 8
REMARK VINA RESULT:      -3.8     12.022     13.218
REMARK  2 active torsions:
REMARK  status: ('A' for Active; 'I' for Inactive)
REMARK    1  A    between atoms: C4_4  and  C8_8 
REMARK    2  A    between atoms: C5_5  and  O9_9 
ROOT
HETATM    1  C1  UNL     1     -36.191  15.577  -6.046  1.00 20.00     0.007 C 
HETATM    2  C2  UNL     1     -36.607  14.198  -6.546  1.00 20.00     0.032 C 
HETATM    3  C3  UNL     1     -34.213  14.576  -6.926  1.00 20.00     0.036 C 
HETATM    4  C4  UNL     1     -34.696  15.452  -5.767  1.00 20.00    -0.009 C 
HETATM    5  C5  UNL     1     -35.364  13.610  -7.215  1.00 20.00     0.118 C 
ENDROOT
BRANCH   4   6
HETATM    6  C8  UNL     1     -34.407  14.826  -4.404  1.00 20.00    -0.019 C 
HETATM    7  C6  UNL     1     -32.953  14.360  -4.317  1.00 20.00     0.010 C 
HETATM    8  C7  UNL     1     -34.717  15.810  -3.276  1.00 20.00     0.010 C 
ENDBRANCH   4   6
BRANCH   5   9
HETATM    9  O9  UNL     1     -35.092  12.330  -6.656  1.00 20.00    -0.396 OA
HETATM   10  H25 UNL     1     -35.079  12.446  -5.694  1.00 20.00     0.210 HD
ENDBRANCH   5   9
TORSDOF 2
ENDMDL
MODEL 9
REMARK VINA RESULT:      -3.8      1.490      2.404
REMARK  2 active torsions:
REMARK  status: ('A' for Active; 'I' for Inactive)
REMARK    1  A    between atoms: C4_4  and  C8_8 
REMARK    2  A    between atoms: C5_5  and  O9_9 
ROOT
HETATM    1  C1  UNL     1     -34.648   6.148   2.274  1.00 20.00     0.007 C 
HETATM    2  C2  UNL     1     -35.377   6.146   3.613  1.00 20.00     0.032 C 
HETATM    3  C3  UNL     1     -33.019   5.535   3.904  1.00 20.00     0.036 C 
HETATM    4  C4  UNL     1     -33.182   6.371   2.632  1.00 20.00    -0.009 C 
HETATM    5  C5  UNL     1     -34.359   5.639   4.636  1.00 20.00     0.118 C 
ENDROOT
BRANCH   4   6
HETATM    6  C8  UNL     1     -32.855   7.846   2.859  1.00 20.00    -0.019 C 
HETATM    7  C6  UNL     1     -31.635   7.999   3.768  1.00 20.00     0.010 C 
HETATM    8  C7  UNL     1     -32.618   8.562   1.528  1.00 20.00     0.010 C 
ENDBRANCH   4   6
BRANCH   5   9
HETATM    9  O9  UNL     1     -34.270   6.567   5.710  1.00 20.00    -0.396 OA
HETATM   10  H25 UNL     1     -33.563   6.248   6.292  1.00 20.00     0.210 HD
ENDBRANCH   5   9
TORSDOF 2
ENDMDL
