MODEL 1
REMARK VINA RESULT:      -5.3      0.000      0.000
REMARK  1 active torsions:
REMARK  status: ('A' for Active; 'I' for Inactive)
REMARK    1  A    between atoms: C5_5  and  C8_8 
ROOT
HETATM    1  C1  UNL     1     -32.210   6.361   2.634  1.00 20.00     0.052 C 
HETATM    2  C2  UNL     1     -32.547   7.619   2.956  1.00 20.00    -0.080 C 
HETATM    3  C3  UNL     1     -33.209   5.267   2.712  1.00 20.00     0.150 C 
HETATM    4  C6  UNL     1     -33.915   7.997   3.468  1.00 20.00     0.043 C 
HETATM    5  C7  UNL     1     -34.637   5.617   3.075  1.00 20.00     0.092 C 
HETATM    6  C8  UNL     1     -34.711   6.808   4.030  1.00 20.00     0.024 C 
HETATM    7  C9  UNL     1     -31.565   8.746   2.820  1.00 20.00     0.043 C 
HETATM    8  O11 UNL     1     -32.880   4.117   2.424  1.00 20.00    -0.293 OA
ENDROOT
BRANCH   6   9
HETATM    9  C5  UNL     1     -34.249   6.435   5.412  1.00 20.00    -0.088 C 
HETATM   10  C4  UNL     1     -33.608   7.306   6.205  1.00 20.00     0.014 C 
HETATM   11  C10 UNL     1     -34.546   5.033   5.854  1.00 20.00     0.043 C 
ENDBRANCH   6   9
TORSDOF 1
ENDMDL
MODEL 2
REMARK VINA RESULT:      -4.8      1.644      3.041
REMARK  1 active torsions:
REMARK  status: ('A' for Active; 'I' for Inactive)
REMARK    1  A    between atoms: C5_5  and  C8_8 
ROOT
HETATM    1  C1  UNL     1     -32.589   7.730   4.447  1.00 20.00     0.052 C 
HETATM    2  C2  UNL     1     -33.696   7.298   5.069  1.00 20.00    -0.080 C 
HETATM    3  C3  UNL     1     -32.445   7.587   2.977  1.00 20.00     0.150 C 
HETATM    4  C6  UNL     1     -34.823   6.598   4.350  1.00 20.00     0.043 C 
HETATM    5  C7  UNL     1     -33.609   7.029   2.186  1.00 20.00     0.092 C 
HETATM    6  C8  UNL     1     -34.412   6.007   2.991  1.00 20.00     0.024 C 
HETATM    7  C9  UNL     1     -33.885   7.494   6.546  1.00 20.00     0.043 C 
HETATM    8  O11 UNL     1     -31.418   7.979   2.424  1.00 20.00    -0.293 OA
ENDROOT
BRANCH   6   9
HETATM    9  C5  UNL     1     -33.654   4.717   3.154  1.00 20.00    -0.088 C 
HETATM   10  C4  UNL     1     -32.725   4.324   2.272  1.00 20.00     0.014 C 
HETATM   11  C10 UNL     1     -33.998   3.896   4.361  1.00 20.00     0.043 C 
ENDBRANCH   6   9
TORSDOF 1
ENDMDL
MODEL 3
REMARK VINA RESULT:      -4.5     11.566     13.329
REMARK  1 active torsions:
REMARK  status: ('A' for Active; 'I' for Inactive)
REMARK    1  A    between atoms: C5_5  and  C8_8 
ROOT
HETATM    1  C1  UNL     1     -34.861  14.574  -4.157  1.00 20.00     0.052 C 
HETATM    2  C2  UNL     1     -33.999  15.598  -4.247  1.00 20.00    -0.080 C 
HETATM    3  C3  UNL     1     -35.137  13.712  -5.332  1.00 20.00     0.150 C 
HETATM    4  C6  UNL     1     -33.308  15.978  -5.534  1.00 20.00     0.043 C 
HETATM    5  C7  UNL     1     -34.357  13.956  -6.607  1.00 20.00     0.092 C 
HETATM    6  C8  UNL     1     -34.006  15.433  -6.791  1.00 20.00     0.024 C 
HETATM    7  C9  UNL     1     -33.660  16.438  -3.051  1.00 20.00     0.043 C 
HETATM    8  O11 UNL     1     -35.939  12.784  -5.234  1.00 20.00    -0.293 OA
ENDROOT
BRANCH   6   9
HETATM    9  C5  UNL     1     -35.219  16.247  -7.149  1.00 20.00    -0.088 C 
HETATM   10  C4  UNL     1     -35.335  17.537  -6.803  1.00 20.00     0.014 C 
HETATM   11  C10 UNL     1     -36.291  15.534  -7.917  1.00 20.00     0.043 C 
ENDBRANCH   6   9
TORSDOF 1
ENDMDL
MODEL 4
REMARK VINA RESULT:      -4.4     11.757     12.846
REMARK  1 active torsions:
REMARK  status: ('A' for Active; 'I' for Inactive)
REMARK    1  A    between atoms: C5_5  and  C8_8 
ROOT
HETATM    1  C1  UNL     1     -36.398  15.347  -4.000  1.00 20.00     0.052 C 
HETATM    2  C2  UNL     1     -35.134  15.544  -3.597  1.00 20.00    -0.080 C 
HETATM    3  C3  UNL     1     -36.722  14.277  -4.976  1.00 20.00     0.150 C 
HETATM    4  C6  UNL     1     -33.967  14.754  -4.137  1.00 20.00     0.043 C 
HETATM    5  C7  UNL     1     -35.611  13.356  -5.435  1.00 20.00     0.092 C 
HETATM    6  C8  UNL     1     -34.258  14.068  -5.482  1.00 20.00     0.024 C 
HETATM    7  C9  UNL     1     -34.799  16.579  -2.563  1.00 20.00     0.043 C 
HETATM    8  O11 UNL     1     -37.885  14.118  -5.342  1.00 20.00    -0.293 OA
ENDROOT
BRANCH   6   9
HETATM    9  C5  UNL     1     -34.187  15.040  -6.627  1.00 20.00    -0.088 C 
HETATM   10  C4  UNL     1     -33.597  16.238  -6.505  1.00 20.00     0.014 C 
HETATM   11  C10 UNL     1     -34.813  14.593  -7.915  1.00 20.00     0.043 C 
ENDBRANCH   6   9
TORSDOF 1
ENDMDL
MODEL 5
REMARK VINA RESULT:      -4.4      1.653      3.018
REMARK  1 active torsions:
REMARK  status: ('A' for Active; 'I' for Inactive)
REMARK    1  A    between atoms: C5_5  and  C8_8 
ROOT
HETATM    1  C1  UNL     1     -33.719   4.153   3.978  1.00 20.00     0.052 C 
HETATM    2  C2  UNL     1     -33.342   4.631   2.782  1.00 20.00    -0.080 C 
HETATM    3  C3  UNL     1     -34.614   4.941   4.859  1.00 20.00     0.150 C 
HETATM    4  C6  UNL     1     -33.740   5.999   2.283  1.00 20.00     0.043 C 
HETATM    5  C7  UNL     1     -35.165   6.254   4.343  1.00 20.00     0.092 C 
HETATM    6  C8  UNL     1     -34.187   6.955   3.400  1.00 20.00     0.024 C 
HETATM    7  C9  UNL     1     -32.490   3.818   1.852  1.00 20.00     0.043 C 
HETATM    8  O11 UNL     1     -34.941   4.491   5.957  1.00 20.00    -0.293 OA
ENDROOT
BRANCH   6   9
HETATM    9  C5  UNL     1     -33.011   7.522   4.148  1.00 20.00    -0.088 C 
HETATM   10  C4  UNL     1     -31.883   7.890   3.523  1.00 20.00     0.014 C 
HETATM   11  C10 UNL     1     -33.172   7.653   5.633  1.00 20.00     0.043 C 
ENDBRANCH   6   9
TORSDOF 1
ENDMDL
MODEL 6
REMARK VINA RESULT:      -4.4     11.531     12.856
REMARK  1 active torsions:
REMARK  status: ('A' for Active; 'I' for Inactive)
REMARK    1  A    between atoms: C5_5  and  C8_8 
ROOT
HETATM    1  C1  UNL     1     -35.910  14.960  -3.854  1.00 20.00     0.052 C 
HETATM    2  C2  UNL     1     -35.236  16.008  -3.358  1.00 20.00    -0.080 C 
HETATM    3  C3  UNL     1     -35.216  13.931  -4.666  1.00 20.00     0.150 C 
HETATM    4  C6  UNL     1     -33.771  16.247  -3.632  1.00 20.00     0.043 C 
HETATM    5  C7  UNL     1     -33.716  14.041  -4.845  1.00 20.00     0.092 C 
HETATM    6  C8  UNL     1     -33.246  15.496  -4.866  1.00 20.00     0.024 C 
HETATM    7  C9  UNL     1     -35.911  17.023  -2.481  1.00 20.00     0.043 C 
HETATM    8  O11 UNL     1     -35.852  12.982  -5.122  1.00 20.00    -0.293 OA
ENDROOT
BRANCH   6   9
HETATM    9  C5  UNL     1     -33.643  16.184  -6.144  1.00 20.00    -0.088 C 
HETATM   10  C4  UNL     1     -33.917  17.496  -6.187  1.00 20.00     0.014 C 
HETATM   11  C10 UNL     1     -33.712  15.319  -7.367  1.00 20.00     0.043 C 
ENDBRANCH   6   9
TORSDOF 1
ENDMDL
MODEL 7
REMARK VINA RESULT:      -4.4     11.160     12.781
REMARK  1 active torsions:
REMARK  status: ('A' for Active; 'I' for Inactive)
REMARK    1  A    between atoms: C5_5  and  C8_8 
ROOT
HETATM    1  C1  UNL     1     -36.824  14.591  -4.926  1.00 20.00     0.052 C 
HETATM    2  C2  UNL     1     -36.872  15.688  -4.155  1.00 20.00    -0.080 C 
HETATM    3  C3  UNL     1     -35.610  13.739  -4.951  1.00 20.00     0.150 C 
HETATM    4  C6  UNL     1     -35.705  16.160  -3.323  1.00 20.00     0.043 C 
HETATM    5  C7  UNL     1     -34.465  14.082  -4.021  1.00 20.00     0.092 C 
HETATM    6  C8  UNL     1     -34.353  15.588  -3.781  1.00 20.00     0.024 C 
HETATM    7  C9  UNL     1     -38.116  16.525  -4.069  1.00 20.00     0.043 C 
HETATM    8  O11 UNL     1     -35.579  12.743  -5.672  1.00 20.00    -0.293 OA
ENDROOT
BRANCH   6   9
HETATM    9  C5  UNL     1     -33.832  16.303  -4.998  1.00 20.00    -0.088 C 
HETATM   10  C4  UNL     1     -33.112  15.672  -5.937  1.00 20.00     0.014 C 
HETATM   11  C10 UNL     1     -34.165  17.761  -5.102  1.00 20.00     0.043 C 
ENDBRANCH   6   9
TORSDOF 1
ENDMDL
MODEL 8
REMARK VINA RESULT:      -4.2     11.844     13.057
REMARK  1 active torsions:
REMARK  status: ('A' for Active; 'I' for Inactive)
REMARK    1  A    between atoms: C5_5  and  C8_8 
ROOT
HETATM    1  C1  UNL     1     -35.338  15.581  -6.233  1.00 20.00     0.052 C 
HETATM    2  C2  UNL     1     -35.657  14.676  -5.296  1.00 20.00    -0.080 C 
HETATM    3  C3  UNL     1     -34.000  16.223  -6.239  1.00 20.00     0.150 C 
HETATM    4  C6  UNL     1     -34.725  14.296  -4.170  1.00 20.00     0.043 C 
HETATM    5  C7  UNL     1     -32.974  15.767  -5.223  1.00 20.00     0.092 C 
HETATM    6  C8  UNL     1     -33.622  15.334  -3.908  1.00 20.00     0.024 C 
HETATM    7  C9  UNL     1     -36.982  13.971  -5.314  1.00 20.00     0.043 C 
HETATM    8  O11 UNL     1     -33.729  17.059  -7.100  1.00 20.00    -0.293 OA
ENDROOT
BRANCH   6   9
HETATM    9  C5  UNL     1     -34.145  16.515  -3.136  1.00 20.00    -0.088 C 
HETATM   10  C4  UNL     1     -35.219  16.423  -2.340  1.00 20.00     0.014 C 
HETATM   11  C10 UNL     1     -33.394  17.802  -3.308  1.00 20.00     0.043 C 
ENDBRANCH   6   9
TORSDOF 1
ENDMDL
MODEL 9
REMARK VINA RESULT:      -4.1     11.450     12.763
REMARK  1 active torsions:
REMARK  status: ('A' for Active; 'I' for Inactive)
REMARK    1  A    between atoms: C5_5  and  C8_8 
ROOT
HETATM    1  C1  UNL     1     -34.824  14.405  -4.167  1.00 20.00     0.052 C 
HETATM    2  C2  UNL     1     -34.658  15.735  -4.100  1.00 20.00    -0.080 C 
HETATM    3  C3  UNL     1     -35.684  13.802  -5.214  1.00 20.00     0.150 C 
HETATM    4  C6  UNL     1     -35.364  16.697  -5.024  1.00 20.00     0.043 C 
HETATM    5  C7  UNL     1     -36.296  14.711  -6.260  1.00 20.00     0.092 C 
HETATM    6  C8  UNL     1     -36.608  16.100  -5.701  1.00 20.00     0.024 C 
HETATM    7  C9  UNL     1     -33.740  16.355  -3.087  1.00 20.00     0.043 C 
HETATM    8  O11 UNL     1     -35.834  12.582  -5.254  1.00 20.00    -0.293 OA
ENDROOT
BRANCH   6   9
HETATM    9  C5  UNL     1     -37.786  16.064  -4.765  1.00 20.00    -0.088 C 
HETATM   10  C4  UNL     1     -38.702  15.086  -4.814  1.00 20.00     0.014 C 
HETATM   11  C10 UNL     1     -37.876  17.185  -3.773  1.00 20.00     0.043 C 
ENDBRANCH   6   9
TORSDOF 1
ENDMDL
