MODEL 1
REMARK VINA RESULT:      -4.6      0.000      0.000
REMARK  0 active torsions:
REMARK  status: ('A' for Active; 'I' for Inactive)
ROOT
HETATM    1  C1  UNL     1     -34.636  15.270  -3.436  1.00 20.00     0.047 A 
HETATM    2  C2  UNL     1     -34.691  14.870  -4.784  1.00 20.00     0.026 A 
HETATM    3  C3  UNL     1     -34.060  15.744  -5.622  1.00 20.00    -0.001 A 
HETATM    4  C4  UNL     1     -33.945  16.466  -3.316  1.00 20.00     0.075 A 
HETATM    5  C5  UNL     1     -35.237  13.784  -5.556  1.00 20.00     0.175 A 
HETATM    6  C6  UNL     1     -34.073  15.362  -7.057  1.00 20.00     0.071 A 
HETATM    7  C7  UNL     1     -34.926  14.058  -7.036  1.00 20.00     0.137 A 
HETATM    8  O8  UNL     1     -35.853  12.832  -5.105  1.00 20.00    -0.291 OA
HETATM    9  S9  UNL     1     -33.385  17.064  -4.840  1.00 20.00    -0.082 SA
HETATM   10 CL10 UNL     1     -33.617  17.349  -1.884  1.00 20.00    -0.076 Cl
HETATM   11 BR11 UNL     1     -36.637  14.330  -7.909  1.00 20.00    -0.082 Br
ENDROOT
TORSDOF 0
ENDMDL
MODEL 2
REMARK VINA RESULT:      -4.3      6.279      7.161
REMARK  0 active torsions:
REMARK  status: ('A' for Active; 'I' for Inactive)
ROOT
HETATM    1  C1  UNL     1     -31.445  18.953   0.963  1.00 20.00     0.047 A 
HETATM    2  C2  UNL     1     -32.670  18.792   0.293  1.00 20.00     0.026 A 
HETATM    3  C3  UNL     1     -33.723  18.624   1.146  1.00 20.00    -0.001 A 
HETATM    4  C4  UNL     1     -31.634  18.895   2.335  1.00 20.00     0.075 A 
HETATM    5  C5  UNL     1     -33.149  18.747  -1.065  1.00 20.00     0.175 A 
HETATM    6  C6  UNL     1     -35.046  18.466   0.491  1.00 20.00     0.071 A 
HETATM    7  C7  UNL     1     -34.663  18.486  -1.020  1.00 20.00     0.137 A 
HETATM    8  O8  UNL     1     -32.462  18.875  -2.065  1.00 20.00    -0.291 OA
HETATM    9  S9  UNL     1     -33.293  18.650   2.766  1.00 20.00    -0.082 SA
HETATM   10 CL10 UNL     1     -30.448  19.036   3.566  1.00 20.00    -0.076 Cl
HETATM   11 BR11 UNL     1     -34.939  16.746  -1.832  1.00 20.00    -0.082 Br
ENDROOT
TORSDOF 0
ENDMDL
MODEL 3
REMARK VINA RESULT:      -4.3      2.866      3.549
REMARK  0 active torsions:
REMARK  status: ('A' for Active; 'I' for Inactive)
ROOT
HETATM    1  C1  UNL     1     -33.215  17.466  -1.930  1.00 20.00     0.047 A 
HETATM    2  C2  UNL     1     -34.094  16.890  -2.864  1.00 20.00     0.026 A 
HETATM    3  C3  UNL     1     -35.373  16.791  -2.397  1.00 20.00    -0.001 A 
HETATM    4  C4  UNL     1     -33.893  17.783  -0.762  1.00 20.00     0.075 A 
HETATM    5  C5  UNL     1     -34.035  16.358  -4.201  1.00 20.00     0.175 A 
HETATM    6  C6  UNL     1     -36.348  16.204  -3.350  1.00 20.00     0.071 A 
HETATM    7  C7  UNL     1     -35.438  15.846  -4.564  1.00 20.00     0.137 A 
HETATM    8  O8  UNL     1     -33.037  16.308  -4.902  1.00 20.00    -0.291 OA
HETATM    9  S9  UNL     1     -35.572  17.374  -0.838  1.00 20.00    -0.082 SA
HETATM   10 CL10 UNL     1     -33.256  18.499   0.660  1.00 20.00    -0.076 Cl
HETATM   11 BR11 UNL     1     -35.278  13.924  -4.774  1.00 20.00    -0.082 Br
ENDROOT
TORSDOF 0
ENDMDL
MODEL 4
REMARK VINA RESULT:      -4.3      1.272      1.431
REMARK  0 active torsions:
REMARK  status: ('A' for Active; 'I' for Inactive)
ROOT
HETATM    1  C1  UNL     1     -34.016  16.360  -2.713  1.00 20.00     0.047 A 
HETATM    2  C2  UNL     1     -33.983  15.786  -3.997  1.00 20.00     0.026 A 
HETATM    3  C3  UNL     1     -33.668  16.688  -4.973  1.00 20.00    -0.001 A 
HETATM    4  C4  UNL     1     -33.718  17.712  -2.782  1.00 20.00     0.075 A 
HETATM    5  C5  UNL     1     -34.193  14.494  -4.597  1.00 20.00     0.175 A 
HETATM    6  C6  UNL     1     -33.603  16.132  -6.348  1.00 20.00     0.071 A 
HETATM    7  C7  UNL     1     -34.019  14.647  -6.116  1.00 20.00     0.137 A 
HETATM    8  O8  UNL     1     -34.479  13.470  -3.996  1.00 20.00    -0.291 OA
HETATM    9  S9  UNL     1     -33.406  18.241  -4.400  1.00 20.00    -0.082 SA
HETATM   10 CL10 UNL     1     -33.635  18.835  -1.489  1.00 20.00    -0.076 Cl
HETATM   11 BR11 UNL     1     -35.754  14.279  -6.901  1.00 20.00    -0.082 Br
ENDROOT
TORSDOF 0
ENDMDL
MODEL 5
REMARK VINA RESULT:      -4.2     11.665     12.492
REMARK  0 active torsions:
REMARK  status: ('A' for Active; 'I' for Inactive)
ROOT
HETATM    1  C1  UNL     1     -33.285   7.478   1.992  1.00 20.00     0.047 A 
HETATM    2  C2  UNL     1     -33.706   7.141   3.291  1.00 20.00     0.026 A 
HETATM    3  C3  UNL     1     -32.847   7.579   4.257  1.00 20.00    -0.001 A 
HETATM    4  C4  UNL     1     -32.089   8.176   2.039  1.00 20.00     0.075 A 
HETATM    5  C5  UNL     1     -34.804   6.447   3.913  1.00 20.00     0.175 A 
HETATM    6  C6  UNL     1     -33.252   7.265   5.650  1.00 20.00     0.071 A 
HETATM    7  C7  UNL     1     -34.555   6.438   5.429  1.00 20.00     0.137 A 
HETATM    8  O8  UNL     1     -35.749   5.942   3.327  1.00 20.00    -0.291 OA
HETATM    9  S9  UNL     1     -31.515   8.401   3.657  1.00 20.00    -0.082 SA
HETATM   10 CL10 UNL     1     -31.183   8.797   0.722  1.00 20.00    -0.076 Cl
HETATM   11 BR11 UNL     1     -34.295   4.581   5.926  1.00 20.00    -0.082 Br
ENDROOT
TORSDOF 0
ENDMDL
MODEL 6
REMARK VINA RESULT:      -4.2      3.642      4.181
REMARK  0 active torsions:
REMARK  status: ('A' for Active; 'I' for Inactive)
ROOT
HETATM    1  C1  UNL     1     -38.266  14.465  -5.241  1.00 20.00     0.047 A 
HETATM    2  C2  UNL     1     -36.954  14.630  -4.761  1.00 20.00     0.026 A 
HETATM    3  C3  UNL     1     -36.786  15.797  -4.071  1.00 20.00    -0.001 A 
HETATM    4  C4  UNL     1     -39.051  15.549  -4.882  1.00 20.00     0.075 A 
HETATM    5  C5  UNL     1     -35.706  13.913  -4.790  1.00 20.00     0.175 A 
HETATM    6  C6  UNL     1     -35.422  16.015  -3.527  1.00 20.00     0.071 A 
HETATM    7  C7  UNL     1     -34.657  14.767  -4.062  1.00 20.00     0.137 A 
HETATM    8  O8  UNL     1     -35.522  12.828  -5.320  1.00 20.00    -0.291 OA
HETATM    9  S9  UNL     1     -38.173  16.731  -3.973  1.00 20.00    -0.082 SA
HETATM   10 CL10 UNL     1     -40.709  15.807  -5.235  1.00 20.00    -0.076 Cl
HETATM   11 BR11 UNL     1     -33.345  15.273  -5.399  1.00 20.00    -0.082 Br
ENDROOT
TORSDOF 0
ENDMDL
MODEL 7
REMARK VINA RESULT:      -4.0      1.970      2.033
REMARK  0 active torsions:
REMARK  status: ('A' for Active; 'I' for Inactive)
ROOT
HETATM    1  C1  UNL     1     -36.793  15.673  -3.825  1.00 20.00     0.047 A 
HETATM    2  C2  UNL     1     -35.721  15.188  -4.595  1.00 20.00     0.026 A 
HETATM    3  C3  UNL     1     -34.772  16.139  -4.839  1.00 20.00    -0.001 A 
HETATM    4  C4  UNL     1     -36.599  17.010  -3.516  1.00 20.00     0.075 A 
HETATM    5  C5  UNL     1     -35.324  13.953  -5.220  1.00 20.00     0.175 A 
HETATM    6  C6  UNL     1     -33.607  15.677  -5.635  1.00 20.00     0.071 A 
HETATM    7  C7  UNL     1     -33.998  14.203  -5.955  1.00 20.00     0.137 A 
HETATM    8  O8  UNL     1     -35.950  12.905  -5.182  1.00 20.00    -0.291 OA
HETATM    9  S9  UNL     1     -35.122  17.634  -4.167  1.00 20.00    -0.082 SA
HETATM   10 CL10 UNL     1     -37.626  18.036  -2.603  1.00 20.00    -0.076 Cl
HETATM   11 BR11 UNL     1     -34.374  13.975  -7.845  1.00 20.00    -0.082 Br
ENDROOT
TORSDOF 0
ENDMDL
MODEL 8
REMARK VINA RESULT:      -4.0      4.086      5.036
REMARK  0 active torsions:
REMARK  status: ('A' for Active; 'I' for Inactive)
ROOT
HETATM    1  C1  UNL     1     -36.596  15.450  -4.151  1.00 20.00     0.047 A 
HETATM    2  C2  UNL     1     -35.970  16.336  -3.257  1.00 20.00     0.026 A 
HETATM    3  C3  UNL     1     -34.646  16.057  -3.074  1.00 20.00    -0.001 A 
HETATM    4  C4  UNL     1     -35.688  14.511  -4.616  1.00 20.00     0.075 A 
HETATM    5  C5  UNL     1     -36.328  17.477  -2.455  1.00 20.00     0.175 A 
HETATM    6  C6  UNL     1     -33.930  16.973  -2.151  1.00 20.00     0.071 A 
HETATM    7  C7  UNL     1     -35.079  17.911  -1.672  1.00 20.00     0.137 A 
HETATM    8  O8  UNL     1     -37.436  17.987  -2.400  1.00 20.00    -0.291 OA
HETATM    9  S9  UNL     1     -34.105  14.737  -3.954  1.00 20.00    -0.082 SA
HETATM   10 CL10 UNL     1     -35.974  13.229  -5.718  1.00 20.00    -0.076 Cl
HETATM   11 BR11 UNL     1     -35.484  17.617   0.203  1.00 20.00    -0.082 Br
ENDROOT
TORSDOF 0
ENDMDL
MODEL 9
REMARK VINA RESULT:      -4.0      2.129      2.460
REMARK  0 active torsions:
REMARK  status: ('A' for Active; 'I' for Inactive)
ROOT
HETATM    1  C1  UNL     1     -37.138  16.654  -3.730  1.00 20.00     0.047 A 
HETATM    2  C2  UNL     1     -36.548  15.467  -4.199  1.00 20.00     0.026 A 
HETATM    3  C3  UNL     1     -35.230  15.361  -3.859  1.00 20.00    -0.001 A 
HETATM    4  C4  UNL     1     -36.208  17.414  -3.038  1.00 20.00     0.075 A 
HETATM    5  C5  UNL     1     -36.938  14.305  -4.955  1.00 20.00     0.175 A 
HETATM    6  C6  UNL     1     -34.560  14.116  -4.315  1.00 20.00     0.071 A 
HETATM    7  C7  UNL     1     -35.697  13.413  -5.118  1.00 20.00     0.137 A 
HETATM    8  O8  UNL     1     -38.054  14.088  -5.399  1.00 20.00    -0.291 OA
HETATM    9  S9  UNL     1     -34.650  16.663  -2.978  1.00 20.00    -0.082 SA
HETATM   10 CL10 UNL     1     -36.447  18.936  -2.284  1.00 20.00    -0.076 Cl
HETATM   11 BR11 UNL     1     -35.295  13.383  -7.015  1.00 20.00    -0.082 Br
ENDROOT
TORSDOF 0
ENDMDL
