MODEL 1
REMARK VINA RESULT:      -5.4      0.000      0.000
REMARK  4 active torsions:
REMARK  status: ('A' for Active; 'I' for Inactive)
REMARK    1  A    between atoms: C1_1  and  C7_7 
REMARK    2  A    between atoms: C1_1  and  O11_11 
REMARK    3  A    between atoms: C7_7  and  C8_8 
REMARK    4  A    between atoms: C8_8  and  C9_9 
ROOT
HETATM    1  C2  UNL     1     -33.740   7.393   5.911  1.00 20.00     0.011 C 
HETATM    2  C8  UNL     1     -33.388   6.809   4.529  1.00 20.00    -0.002 C 
ENDROOT
BRANCH   2   3
HETATM    3  C7  UNL     1     -33.484   7.934   3.471  1.00 20.00     0.116 C 
BRANCH   3   4
HETATM    4  C1  UNL     1     -32.154   8.244   2.811  1.00 20.00     0.258 C 
HETATM    5  O10 UNL     1     -31.070   8.236   3.379  1.00 20.00    -0.265 OA
BRANCH   4   6
HETATM    6  O11 UNL     1     -32.360   8.489   1.484  1.00 20.00    -0.326 OA
HETATM    7  C6  UNL     1     -32.492   9.869   1.125  1.00 20.00     0.213 C 
ENDBRANCH   4   6
ENDBRANCH   3   4
ENDBRANCH   2   3
BRANCH   2   8
HETATM    8  C9  UNL     1     -34.238   5.533   4.161  1.00 20.00    -0.048 C 
HETATM    9  C3  UNL     1     -34.485   4.623   5.378  1.00 20.00     0.015 C 
HETATM   10  C4  UNL     1     -33.526   4.701   3.071  1.00 20.00     0.015 C 
HETATM   11  C5  UNL     1     -35.608   5.954   3.583  1.00 20.00     0.015 C 
ENDBRANCH   2   8
TORSDOF 4
ENDMDL
MODEL 2
REMARK VINA RESULT:      -5.4      0.036      1.305
REMARK  4 active torsions:
REMARK  status: ('A' for Active; 'I' for Inactive)
REMARK    1  A    between atoms: C1_1  and  C7_7 
REMARK    2  A    between atoms: C1_1  and  O11_11 
REMARK    3  A    between atoms: C7_7  and  C8_8 
REMARK    4  A    between atoms: C8_8  and  C9_9 
ROOT
HETATM    1  C2  UNL     1     -33.762   7.376   5.923  1.00 20.00     0.011 C 
HETATM    2  C8  UNL     1     -33.389   6.823   4.534  1.00 20.00    -0.002 C 
ENDROOT
BRANCH   2   3
HETATM    3  C7  UNL     1     -33.483   7.969   3.497  1.00 20.00     0.116 C 
BRANCH   3   4
HETATM    4  C1  UNL     1     -32.166   8.245   2.797  1.00 20.00     0.258 C 
HETATM    5  O10 UNL     1     -31.067   8.229   3.336  1.00 20.00    -0.265 OA
BRANCH   4   6
HETATM    6  O11 UNL     1     -32.404   8.472   1.472  1.00 20.00    -0.326 OA
HETATM    7  C6  UNL     1     -32.458   9.849   1.082  1.00 20.00     0.213 C 
ENDBRANCH   4   6
ENDBRANCH   3   4
ENDBRANCH   2   3
BRANCH   2   8
HETATM    8  C9  UNL     1     -34.223   5.548   4.130  1.00 20.00    -0.048 C 
HETATM    9  C3  UNL     1     -33.516   4.703   3.055  1.00 20.00     0.015 C 
HETATM   10  C4  UNL     1     -35.612   5.954   3.590  1.00 20.00     0.015 C 
HETATM   11  C5  UNL     1     -34.465   4.656   5.369  1.00 20.00     0.015 C 
ENDBRANCH   2   8
TORSDOF 4
ENDMDL
MODEL 3
REMARK VINA RESULT:      -4.9      1.095      1.908
REMARK  4 active torsions:
REMARK  status: ('A' for Active; 'I' for Inactive)
REMARK    1  A    between atoms: C1_1  and  C7_7 
REMARK    2  A    between atoms: C1_1  and  O11_11 
REMARK    3  A    between atoms: C7_7  and  C8_8 
REMARK    4  A    between atoms: C8_8  and  C9_9 
ROOT
HETATM    1  C2  UNL     1     -32.689   4.947   2.379  1.00 20.00     0.011 C 
HETATM    2  C8  UNL     1     -33.399   6.217   2.885  1.00 20.00    -0.002 C 
ENDROOT
BRANCH   2   3
HETATM    3  C7  UNL     1     -32.336   7.304   3.177  1.00 20.00     0.116 C 
BRANCH   3   4
HETATM    4  C1  UNL     1     -32.114   8.246   2.009  1.00 20.00     0.258 C 
HETATM    5  O10 UNL     1     -31.248   8.113   1.155  1.00 20.00    -0.265 OA
BRANCH   4   6
HETATM    6  O11 UNL     1     -33.057   9.232   2.046  1.00 20.00    -0.326 OA
HETATM    7  C6  UNL     1     -32.856  10.311   1.127  1.00 20.00     0.213 C 
ENDBRANCH   4   6
ENDBRANCH   3   4
ENDBRANCH   2   3
BRANCH   2   8
HETATM    8  C9  UNL     1     -34.363   5.946   4.102  1.00 20.00    -0.048 C 
HETATM    9  C3  UNL     1     -34.064   6.863   5.301  1.00 20.00     0.015 C 
HETATM   10  C4  UNL     1     -34.245   4.479   4.574  1.00 20.00     0.015 C 
HETATM   11  C5  UNL     1     -35.833   6.166   3.677  1.00 20.00     0.015 C 
ENDBRANCH   2   8
TORSDOF 4
ENDMDL
MODEL 4
REMARK VINA RESULT:      -4.5      2.090      4.803
REMARK  4 active torsions:
REMARK  status: ('A' for Active; 'I' for Inactive)
REMARK    1  A    between atoms: C1_1  and  C7_7 
REMARK    2  A    between atoms: C1_1  and  O11_11 
REMARK    3  A    between atoms: C7_7  and  C8_8 
REMARK    4  A    between atoms: C8_8  and  C9_9 
ROOT
HETATM    1  C2  UNL     1     -31.451   8.331   3.385  1.00 20.00     0.011 C 
HETATM    2  C8  UNL     1     -32.670   8.335   2.441  1.00 20.00    -0.002 C 
ENDROOT
BRANCH   2   3
HETATM    3  C7  UNL     1     -33.139   6.876   2.223  1.00 20.00     0.116 C 
BRANCH   3   4
HETATM    4  C1  UNL     1     -33.787   6.271   3.453  1.00 20.00     0.258 C 
HETATM    5  O10 UNL     1     -34.317   6.908   4.354  1.00 20.00    -0.265 OA
BRANCH   4   6
HETATM    6  O11 UNL     1     -33.719   4.910   3.370  1.00 20.00    -0.326 OA
HETATM    7  C6  UNL     1     -34.338   4.194   4.444  1.00 20.00     0.213 C 
ENDBRANCH   4   6
ENDBRANCH   3   4
ENDBRANCH   2   3
BRANCH   2   8
HETATM    8  C9  UNL     1     -32.409   9.113   1.095  1.00 20.00    -0.048 C 
HETATM    9  C3  UNL     1     -32.486  10.640   1.278  1.00 20.00     0.015 C 
HETATM   10  C4  UNL     1     -33.439   8.702   0.020  1.00 20.00     0.015 C 
HETATM   11  C5  UNL     1     -31.011   8.761   0.538  1.00 20.00     0.015 C 
ENDBRANCH   2   8
TORSDOF 4
ENDMDL
MODEL 5
REMARK VINA RESULT:      -4.3     11.191     12.133
REMARK  4 active torsions:
REMARK  status: ('A' for Active; 'I' for Inactive)
REMARK    1  A    between atoms: C1_1  and  C7_7 
REMARK    2  A    between atoms: C1_1  and  O11_11 
REMARK    3  A    between atoms: C7_7  and  C8_8 
REMARK    4  A    between atoms: C8_8  and  C9_9 
ROOT
HETATM    1  C2  UNL     1     -33.396  14.756  -4.227  1.00 20.00     0.011 C 
HETATM    2  C8  UNL     1     -34.794  15.233  -3.787  1.00 20.00    -0.002 C 
ENDROOT
BRANCH   2   3
HETATM    3  C7  UNL     1     -35.767  15.106  -4.984  1.00 20.00     0.116 C 
BRANCH   3   4
HETATM    4  C1  UNL     1     -36.418  13.739  -5.077  1.00 20.00     0.258 C 
HETATM    5  O10 UNL     1     -35.820  12.687  -5.258  1.00 20.00    -0.265 OA
BRANCH   4   6
HETATM    6  O11 UNL     1     -37.764  13.872  -4.886  1.00 20.00    -0.326 OA
HETATM    7  C6  UNL     1     -38.215  15.195  -4.579  1.00 20.00     0.213 C 
ENDBRANCH   4   6
ENDBRANCH   3   4
ENDBRANCH   2   3
BRANCH   2   8
HETATM    8  C9  UNL     1     -34.784  16.671  -3.142  1.00 20.00    -0.048 C 
HETATM    9  C3  UNL     1     -35.336  17.745  -4.097  1.00 20.00     0.015 C 
HETATM   10  C4  UNL     1     -33.349  17.076  -2.737  1.00 20.00     0.015 C 
HETATM   11  C5  UNL     1     -35.637  16.683  -1.853  1.00 20.00     0.015 C 
ENDBRANCH   2   8
TORSDOF 4
ENDMDL
MODEL 6
REMARK VINA RESULT:      -4.3     10.707     11.989
REMARK  4 active torsions:
REMARK  status: ('A' for Active; 'I' for Inactive)
REMARK    1  A    between atoms: C1_1  and  C7_7 
REMARK    2  A    between atoms: C1_1  and  O11_11 
REMARK    3  A    between atoms: C7_7  and  C8_8 
REMARK    4  A    between atoms: C8_8  and  C9_9 
ROOT
HETATM    1  C2  UNL     1     -33.536  17.135  -4.819  1.00 20.00     0.011 C 
HETATM    2  C8  UNL     1     -33.806  16.432  -3.474  1.00 20.00    -0.002 C 
ENDROOT
BRANCH   2   3
HETATM    3  C7  UNL     1     -34.870  15.329  -3.689  1.00 20.00     0.116 C 
BRANCH   3   4
HETATM    4  C1  UNL     1     -34.292  14.051  -4.267  1.00 20.00     0.258 C 
HETATM    5  O10 UNL     1     -33.109  13.740  -4.240  1.00 20.00    -0.265 OA
BRANCH   4   6
HETATM    6  O11 UNL     1     -35.307  13.294  -4.778  1.00 20.00    -0.326 OA
HETATM    7  C6  UNL     1     -36.500  14.009  -5.114  1.00 20.00     0.213 C 
ENDBRANCH   4   6
ENDBRANCH   3   4
ENDBRANCH   2   3
BRANCH   2   8
HETATM    8  C9  UNL     1     -34.172  17.434  -2.314  1.00 20.00    -0.048 C 
HETATM    9  C3  UNL     1     -32.951  17.807  -1.455  1.00 20.00     0.015 C 
HETATM   10  C4  UNL     1     -35.248  16.824  -1.387  1.00 20.00     0.015 C 
HETATM   11  C5  UNL     1     -34.768  18.734  -2.901  1.00 20.00     0.015 C 
ENDBRANCH   2   8
TORSDOF 4
ENDMDL
MODEL 7
REMARK VINA RESULT:      -4.3     11.249     12.199
REMARK  4 active torsions:
REMARK  status: ('A' for Active; 'I' for Inactive)
REMARK    1  A    between atoms: C1_1  and  C7_7 
REMARK    2  A    between atoms: C1_1  and  O11_11 
REMARK    3  A    between atoms: C7_7  and  C8_8 
REMARK    4  A    between atoms: C8_8  and  C9_9 
ROOT
HETATM    1  C2  UNL     1     -33.300  14.805  -4.167  1.00 20.00     0.011 C 
HETATM    2  C8  UNL     1     -34.760  15.236  -3.926  1.00 20.00    -0.002 C 
ENDROOT
BRANCH   2   3
HETATM    3  C7  UNL     1     -35.557  15.065  -5.242  1.00 20.00     0.116 C 
BRANCH   3   4
HETATM    4  C1  UNL     1     -36.385  13.795  -5.274  1.00 20.00     0.258 C 
HETATM    5  O10 UNL     1     -37.554  13.709  -4.921  1.00 20.00    -0.265 OA
BRANCH   4   6
HETATM    6  O11 UNL     1     -35.630  12.782  -5.794  1.00 20.00    -0.326 OA
HETATM    7  C6  UNL     1     -35.096  13.021  -7.100  1.00 20.00     0.213 C 
ENDBRANCH   4   6
ENDBRANCH   3   4
ENDBRANCH   2   3
BRANCH   2   8
HETATM    8  C9  UNL     1     -34.886  16.679  -3.305  1.00 20.00    -0.048 C 
HETATM    9  C3  UNL     1     -35.005  16.648  -1.771  1.00 20.00     0.015 C 
HETATM   10  C4  UNL     1     -36.125  17.410  -3.871  1.00 20.00     0.015 C 
HETATM   11  C5  UNL     1     -33.652  17.530  -3.680  1.00 20.00     0.015 C 
ENDBRANCH   2   8
TORSDOF 4
ENDMDL
MODEL 8
REMARK VINA RESULT:      -4.3     11.264     12.213
REMARK  4 active torsions:
REMARK  status: ('A' for Active; 'I' for Inactive)
REMARK    1  A    between atoms: C1_1  and  C7_7 
REMARK    2  A    between atoms: C1_1  and  O11_11 
REMARK    3  A    between atoms: C7_7  and  C8_8 
REMARK    4  A    between atoms: C8_8  and  C9_9 
ROOT
HETATM    1  C2  UNL     1     -33.250  14.782  -4.219  1.00 20.00     0.011 C 
HETATM    2  C8  UNL     1     -34.710  15.215  -3.979  1.00 20.00    -0.002 C 
ENDROOT
BRANCH   2   3
HETATM    3  C7  UNL     1     -35.510  15.027  -5.291  1.00 20.00     0.116 C 
BRANCH   3   4
HETATM    4  C1  UNL     1     -36.350  13.764  -5.299  1.00 20.00     0.258 C 
HETATM    5  O10 UNL     1     -37.505  13.686  -4.902  1.00 20.00    -0.265 OA
BRANCH   4   6
HETATM    6  O11 UNL     1     -35.624  12.749  -5.855  1.00 20.00    -0.326 OA
HETATM    7  C6  UNL     1     -35.076  13.021  -7.149  1.00 20.00     0.213 C 
ENDBRANCH   4   6
ENDBRANCH   3   4
ENDBRANCH   2   3
BRANCH   2   8
HETATM    8  C9  UNL     1     -34.836  16.665  -3.375  1.00 20.00    -0.048 C 
HETATM    9  C3  UNL     1     -33.581  17.518  -3.634  1.00 20.00     0.015 C 
HETATM   10  C4  UNL     1     -35.069  16.600  -1.849  1.00 20.00     0.015 C 
HETATM   11  C5  UNL     1     -36.054  17.394  -3.987  1.00 20.00     0.015 C 
ENDBRANCH   2   8
TORSDOF 4
ENDMDL
MODEL 9
REMARK VINA RESULT:      -4.3     11.136     12.634
REMARK  4 active torsions:
REMARK  status: ('A' for Active; 'I' for Inactive)
REMARK    1  A    between atoms: C1_1  and  C7_7 
REMARK    2  A    between atoms: C1_1  and  O11_11 
REMARK    3  A    between atoms: C7_7  and  C8_8 
REMARK    4  A    between atoms: C8_8  and  C9_9 
ROOT
HETATM    1  C2  UNL     1     -34.735  16.177  -2.784  1.00 20.00     0.011 C 
HETATM    2  C8  UNL     1     -35.100  15.750  -4.219  1.00 20.00    -0.002 C 
ENDROOT
BRANCH   2   3
HETATM    3  C7  UNL     1     -34.896  14.222  -4.354  1.00 20.00     0.116 C 
BRANCH   3   4
HETATM    4  C1  UNL     1     -36.038  13.531  -5.073  1.00 20.00     0.258 C 
HETATM    5  O10 UNL     1     -37.224  13.797  -4.927  1.00 20.00    -0.265 OA
BRANCH   4   6
HETATM    6  O11 UNL     1     -35.527  12.602  -5.934  1.00 20.00    -0.326 OA
HETATM    7  C6  UNL     1     -35.145  13.099  -7.221  1.00 20.00     0.213 C 
ENDBRANCH   4   6
ENDBRANCH   3   4
ENDBRANCH   2   3
BRANCH   2   8
HETATM    8  C9  UNL     1     -34.344  16.581  -5.324  1.00 20.00    -0.048 C 
HETATM    9  C3  UNL     1     -33.875  17.953  -4.807  1.00 20.00     0.015 C 
HETATM   10  C4  UNL     1     -35.254  16.811  -6.551  1.00 20.00     0.015 C 
HETATM   11  C5  UNL     1     -33.105  15.801  -5.822  1.00 20.00     0.015 C 
ENDBRANCH   2   8
TORSDOF 4
ENDMDL
