MODEL 1
REMARK VINA RESULT:      -4.3      0.000      0.000
REMARK  2 active torsions:
REMARK  status: ('A' for Active; 'I' for Inactive)
REMARK    1  A    between atoms: C7_7  and  C8_8 
REMARK    2  A    between atoms: C8_8  and  O10_10 
ROOT
HETATM    1  C1  UNL     1     -35.979  13.976  -4.998  1.00 20.00     0.071 C 
HETATM    2  C2  UNL     1     -33.156  16.342  -5.208  1.00 20.00     0.000 C 
HETATM    3  C3  UNL     1     -33.476  15.498  -3.980  1.00 20.00     0.002 C 
HETATM    4  C4  UNL     1     -34.124  16.061  -6.352  1.00 20.00     0.002 C 
HETATM    5  C5  UNL     1     -34.930  15.677  -3.534  1.00 20.00     0.027 C 
HETATM    6  C6  UNL     1     -35.581  16.242  -5.918  1.00 20.00     0.027 C 
HETATM    7  C7  UNL     1     -35.949  15.419  -4.665  1.00 20.00     0.070 C 
HETATM    8  N9  UNL     1     -36.003  12.846  -5.259  1.00 20.00    -0.196 NA
ENDROOT
BRANCH   7   9
HETATM    9  C8  UNL     1     -37.354  15.824  -4.185  1.00 20.00     0.188 C 
BRANCH   9  10
HETATM   10  O10 UNL     1     -38.146  14.658  -4.114  1.00 20.00    -0.399 OA
HETATM   11  H23 UNL     1     -37.586  13.911  -4.392  1.00 20.00     0.209 HD
ENDBRANCH   9  10
ENDBRANCH   7   9
TORSDOF 2
ENDMDL
MODEL 2
REMARK VINA RESULT:      -4.2      1.907      2.228
REMARK  2 active torsions:
REMARK  status: ('A' for Active; 'I' for Inactive)
REMARK    1  A    between atoms: C7_7  and  C8_8 
REMARK    2  A    between atoms: C8_8  and  O10_10 
ROOT
HETATM    1  C1  UNL     1     -33.585  14.298  -4.307  1.00 20.00     0.071 C 
HETATM    2  C2  UNL     1     -33.809  17.926  -3.679  1.00 20.00     0.000 C 
HETATM    3  C3  UNL     1     -33.976  16.860  -2.603  1.00 20.00     0.002 C 
HETATM    4  C4  UNL     1     -33.502  17.310  -5.039  1.00 20.00     0.002 C 
HETATM    5  C5  UNL     1     -35.032  15.822  -2.995  1.00 20.00     0.027 C 
HETATM    6  C6  UNL     1     -34.554  16.275  -5.443  1.00 20.00     0.027 C 
HETATM    7  C7  UNL     1     -34.772  15.181  -4.376  1.00 20.00     0.070 C 
HETATM    8  N9  UNL     1     -32.655  13.606  -4.253  1.00 20.00    -0.196 NA
ENDROOT
BRANCH   7   9
HETATM    9  C8  UNL     1     -35.983  14.318  -4.771  1.00 20.00     0.188 C 
BRANCH   9  10
HETATM   10  O10 UNL     1     -35.568  12.969  -4.799  1.00 20.00    -0.399 OA
HETATM   11  H23 UNL     1     -35.059  12.806  -3.986  1.00 20.00     0.209 HD
ENDBRANCH   9  10
ENDBRANCH   7   9
TORSDOF 2
ENDMDL
MODEL 3
REMARK VINA RESULT:      -4.2      2.014      3.264
REMARK  2 active torsions:
REMARK  status: ('A' for Active; 'I' for Inactive)
REMARK    1  A    between atoms: C7_7  and  C8_8 
REMARK    2  A    between atoms: C8_8  and  O10_10 
ROOT
HETATM    1  C1  UNL     1     -35.199  13.948  -4.934  1.00 20.00     0.071 C 
HETATM    2  C2  UNL     1     -36.538  17.330  -4.315  1.00 20.00     0.000 C 
HETATM    3  C3  UNL     1     -36.244  16.766  -5.700  1.00 20.00     0.002 C 
HETATM    4  C4  UNL     1     -36.245  16.312  -3.219  1.00 20.00     0.002 C 
HETATM    5  C5  UNL     1     -34.811  16.236  -5.803  1.00 20.00     0.027 C 
HETATM    6  C6  UNL     1     -34.813  15.779  -3.309  1.00 20.00     0.027 C 
HETATM    7  C7  UNL     1     -34.462  15.212  -4.701  1.00 20.00     0.070 C 
HETATM    8  N9  UNL     1     -35.778  12.959  -5.116  1.00 20.00    -0.196 NA
ENDROOT
BRANCH   7   9
HETATM    9  C8  UNL     1     -32.956  14.899  -4.758  1.00 20.00     0.188 C 
BRANCH   9  10
HETATM   10  O10 UNL     1     -32.780  13.534  -4.443  1.00 20.00    -0.399 OA
HETATM   11  H23 UNL     1     -32.222  13.146  -5.140  1.00 20.00     0.209 HD
ENDBRANCH   9  10
ENDBRANCH   7   9
TORSDOF 2
ENDMDL
MODEL 4
REMARK VINA RESULT:      -4.1      1.959      2.864
REMARK  2 active torsions:
REMARK  status: ('A' for Active; 'I' for Inactive)
REMARK    1  A    between atoms: C7_7  and  C8_8 
REMARK    2  A    between atoms: C8_8  and  O10_10 
ROOT
HETATM    1  C1  UNL     1     -36.358  14.095  -5.391  1.00 20.00     0.071 C 
HETATM    2  C2  UNL     1     -34.325  16.908  -4.142  1.00 20.00     0.000 C 
HETATM    3  C3  UNL     1     -35.310  17.013  -5.299  1.00 20.00     0.002 C 
HETATM    4  C4  UNL     1     -34.309  15.508  -3.540  1.00 20.00     0.002 C 
HETATM    5  C5  UNL     1     -35.041  15.951  -6.370  1.00 20.00     0.027 C 
HETATM    6  C6  UNL     1     -34.035  14.439  -4.601  1.00 20.00     0.027 C 
HETATM    7  C7  UNL     1     -34.998  14.515  -5.804  1.00 20.00     0.070 C 
HETATM    8  N9  UNL     1     -37.422  13.766  -5.067  1.00 20.00    -0.196 NA
ENDROOT
BRANCH   7   9
HETATM    9  C8  UNL     1     -34.518  13.551  -6.903  1.00 20.00     0.188 C 
BRANCH   9  10
HETATM   10  O10 UNL     1     -35.145  12.303  -6.695  1.00 20.00    -0.399 OA
HETATM   11  H23 UNL     1     -35.857  12.224  -7.355  1.00 20.00     0.209 HD
ENDBRANCH   9  10
ENDBRANCH   7   9
TORSDOF 2
ENDMDL
MODEL 5
REMARK VINA RESULT:      -4.1      2.043      3.035
REMARK  2 active torsions:
REMARK  status: ('A' for Active; 'I' for Inactive)
REMARK    1  A    between atoms: C7_7  and  C8_8 
REMARK    2  A    between atoms: C8_8  and  O10_10 
ROOT
HETATM    1  C1  UNL     1     -35.266  13.836  -5.605  1.00 20.00     0.071 C 
HETATM    2  C2  UNL     1     -34.580  16.869  -3.621  1.00 20.00     0.000 C 
HETATM    3  C3  UNL     1     -35.815  16.678  -4.493  1.00 20.00     0.002 C 
HETATM    4  C4  UNL     1     -33.681  15.638  -3.641  1.00 20.00     0.002 C 
HETATM    5  C5  UNL     1     -35.442  16.286  -5.925  1.00 20.00     0.027 C 
HETATM    6  C6  UNL     1     -33.297  15.241  -5.068  1.00 20.00     0.027 C 
HETATM    7  C7  UNL     1     -34.516  15.052  -5.996  1.00 20.00     0.070 C 
HETATM    8  N9  UNL     1     -35.853  12.883  -5.298  1.00 20.00    -0.196 NA
ENDROOT
BRANCH   7   9
HETATM    9  C8  UNL     1     -34.030  14.864  -7.444  1.00 20.00     0.188 C 
BRANCH   9  10
HETATM   10  O10 UNL     1     -33.980  13.479  -7.713  1.00 20.00    -0.399 OA
HETATM   11  H23 UNL     1     -33.520  13.056  -6.966  1.00 20.00     0.209 HD
ENDBRANCH   9  10
ENDBRANCH   7   9
TORSDOF 2
ENDMDL
MODEL 6
REMARK VINA RESULT:      -4.1      2.382      3.612
REMARK  2 active torsions:
REMARK  status: ('A' for Active; 'I' for Inactive)
REMARK    1  A    between atoms: C7_7  and  C8_8 
REMARK    2  A    between atoms: C8_8  and  O10_10 
ROOT
HETATM    1  C1  UNL     1     -34.483  14.606  -4.229  1.00 20.00     0.071 C 
HETATM    2  C2  UNL     1     -36.141  17.278  -2.300  1.00 20.00     0.000 C 
HETATM    3  C3  UNL     1     -36.669  16.719  -3.615  1.00 20.00     0.002 C 
HETATM    4  C4  UNL     1     -34.862  16.573  -1.861  1.00 20.00     0.002 C 
HETATM    5  C5  UNL     1     -35.605  16.760  -4.716  1.00 20.00     0.027 C 
HETATM    6  C6  UNL     1     -33.790  16.613  -2.951  1.00 20.00     0.027 C 
HETATM    7  C7  UNL     1     -34.283  16.072  -4.310  1.00 20.00     0.070 C 
HETATM    8  N9  UNL     1     -34.639  13.458  -4.164  1.00 20.00    -0.196 NA
ENDROOT
BRANCH   7   9
HETATM    9  C8  UNL     1     -33.217  16.345  -5.385  1.00 20.00     0.188 C 
BRANCH   9  10
HETATM   10  O10 UNL     1     -32.371  15.218  -5.460  1.00 20.00    -0.399 OA
HETATM   11  H23 UNL     1     -32.745  14.620  -6.131  1.00 20.00     0.209 HD
ENDBRANCH   9  10
ENDBRANCH   7   9
TORSDOF 2
ENDMDL
MODEL 7
REMARK VINA RESULT:      -4.1      1.951      2.750
REMARK  2 active torsions:
REMARK  status: ('A' for Active; 'I' for Inactive)
REMARK    1  A    between atoms: C7_7  and  C8_8 
REMARK    2  A    between atoms: C8_8  and  O10_10 
ROOT
HETATM    1  C1  UNL     1     -35.329  15.978  -6.177  1.00 20.00     0.071 C 
HETATM    2  C2  UNL     1     -34.935  16.294  -2.522  1.00 20.00     0.000 C 
HETATM    3  C3  UNL     1     -33.850  15.776  -3.458  1.00 20.00     0.002 C 
HETATM    4  C4  UNL     1     -36.190  16.700  -3.286  1.00 20.00     0.002 C 
HETATM    5  C5  UNL     1     -34.360  14.630  -4.337  1.00 20.00     0.027 C 
HETATM    6  C6  UNL     1     -36.712  15.560  -4.164  1.00 20.00     0.027 C 
HETATM    7  C7  UNL     1     -35.643  14.989  -5.119  1.00 20.00     0.070 C 
HETATM    8  N9  UNL     1     -35.083  16.752  -7.005  1.00 20.00    -0.196 NA
ENDROOT
BRANCH   7   9
HETATM    9  C8  UNL     1     -36.192  13.724  -5.801  1.00 20.00     0.188 C 
BRANCH   9  10
HETATM   10  O10 UNL     1     -35.899  12.618  -4.974  1.00 20.00    -0.399 OA
HETATM   11  H23 UNL     1     -35.382  11.987  -5.507  1.00 20.00     0.209 HD
ENDBRANCH   9  10
ENDBRANCH   7   9
TORSDOF 2
ENDMDL
MODEL 8
REMARK VINA RESULT:      -3.9      2.205      3.108
REMARK  2 active torsions:
REMARK  status: ('A' for Active; 'I' for Inactive)
REMARK    1  A    between atoms: C7_7  and  C8_8 
REMARK    2  A    between atoms: C8_8  and  O10_10 
ROOT
HETATM    1  C1  UNL     1     -35.807  15.534  -6.650  1.00 20.00     0.071 C 
HETATM    2  C2  UNL     1     -33.639  15.998  -3.701  1.00 20.00     0.000 C 
HETATM    3  C3  UNL     1     -33.365  16.609  -5.070  1.00 20.00     0.002 C 
HETATM    4  C4  UNL     1     -34.939  15.201  -3.691  1.00 20.00     0.002 C 
HETATM    5  C5  UNL     1     -33.376  15.549  -6.176  1.00 20.00     0.027 C 
HETATM    6  C6  UNL     1     -34.959  14.135  -4.789  1.00 20.00     0.027 C 
HETATM    7  C7  UNL     1     -34.668  14.704  -6.194  1.00 20.00     0.070 C 
HETATM    8  N9  UNL     1     -36.700  16.184  -7.007  1.00 20.00    -0.196 NA
ENDROOT
BRANCH   7   9
HETATM    9  C8  UNL     1     -34.500  13.542  -7.189  1.00 20.00     0.188 C 
BRANCH   9  10
HETATM   10  O10 UNL     1     -35.085  12.390  -6.620  1.00 20.00    -0.399 OA
HETATM   11  H23 UNL     1     -34.546  12.144  -5.847  1.00 20.00     0.209 HD
ENDBRANCH   9  10
ENDBRANCH   7   9
TORSDOF 2
ENDMDL
MODEL 9
REMARK VINA RESULT:      -3.8      1.884      2.954
REMARK  2 active torsions:
REMARK  status: ('A' for Active; 'I' for Inactive)
REMARK    1  A    between atoms: C7_7  and  C8_8 
REMARK    2  A    between atoms: C8_8  and  O10_10 
ROOT
HETATM    1  C1  UNL     1     -37.303  14.601  -4.810  1.00 20.00     0.071 C 
HETATM    2  C2  UNL     1     -36.261  18.135  -4.625  1.00 20.00     0.000 C 
HETATM    3  C3  UNL     1     -36.348  17.336  -5.919  1.00 20.00     0.002 C 
HETATM    4  C4  UNL     1     -36.692  17.306  -3.421  1.00 20.00     0.002 C 
HETATM    5  C5  UNL     1     -35.555  16.028  -5.832  1.00 20.00     0.027 C 
HETATM    6  C6  UNL     1     -35.902  16.000  -3.320  1.00 20.00     0.027 C 
HETATM    7  C7  UNL     1     -35.945  15.161  -4.615  1.00 20.00     0.070 C 
HETATM    8  N9  UNL     1     -38.367  14.163  -4.962  1.00 20.00    -0.196 NA
ENDROOT
BRANCH   7   9
HETATM    9  C8  UNL     1     -34.961  13.985  -4.494  1.00 20.00     0.188 C 
BRANCH   9  10
HETATM   10  O10 UNL     1     -35.630  12.810  -4.902  1.00 20.00    -0.399 OA
HETATM   11  H23 UNL     1     -34.963  12.103  -4.958  1.00 20.00     0.209 HD
ENDBRANCH   9  10
ENDBRANCH   7   9
TORSDOF 2
ENDMDL
