MODEL 1
REMARK VINA RESULT:      -4.8      0.000      0.000
REMARK  2 active torsions:
REMARK  status: ('A' for Active; 'I' for Inactive)
REMARK    1  A    between atoms: C2_2  and  C6_6 
REMARK    2  A    between atoms: C3_3  and  C7_7 
ROOT
HETATM    1  C1  UNL     1     -31.832   8.331   3.554  1.00 20.00     0.133 A 
HETATM    2  C2  UNL     1     -32.194   8.168   2.234  1.00 20.00     0.016 A 
HETATM    3  C3  UNL     1     -33.473   6.902   3.835  1.00 20.00     0.078 A 
HETATM    4  N8  UNL     1     -32.565   7.606   4.475  1.00 20.00    -0.257 NA
HETATM    5  S9  UNL     1     -33.502   7.063   2.128  1.00 20.00    -0.076 SA
ENDROOT
BRANCH   3   6
HETATM    6  C7  UNL     1     -34.471   5.978   4.507  1.00 20.00     0.037 C 
HETATM    7  C4  UNL     1     -34.449   6.134   6.029  1.00 20.00     0.016 C 
HETATM    8  C5  UNL     1     -34.245   4.518   4.105  1.00 20.00     0.016 C 
ENDBRANCH   3   6
BRANCH   2   9
HETATM    9  C6  UNL     1     -31.630   8.782   1.017  1.00 20.00     0.162 C 
HETATM   10 CL10 UNL     1     -32.522  10.260   0.569  1.00 20.00    -0.125 Cl
ENDBRANCH   2   9
TORSDOF 2
ENDMDL
MODEL 2
REMARK VINA RESULT:      -4.2      1.408      1.559
REMARK  2 active torsions:
REMARK  status: ('A' for Active; 'I' for Inactive)
REMARK    1  A    between atoms: C2_2  and  C6_6 
REMARK    2  A    between atoms: C3_3  and  C7_7 
ROOT
HETATM    1  C1  UNL     1     -33.259   6.638   1.737  1.00 20.00     0.133 A 
HETATM    2  C2  UNL     1     -32.545   7.707   2.236  1.00 20.00     0.016 A 
HETATM    3  C3  UNL     1     -33.894   6.509   3.833  1.00 20.00     0.078 A 
HETATM    4  N8  UNL     1     -34.033   5.950   2.651  1.00 20.00    -0.257 NA
HETATM    5  S9  UNL     1     -32.849   7.866   3.917  1.00 20.00    -0.076 SA
ENDROOT
BRANCH   3   6
HETATM    6  C7  UNL     1     -34.590   6.034   5.095  1.00 20.00     0.037 C 
HETATM    7  C4  UNL     1     -34.082   6.777   6.332  1.00 20.00     0.016 C 
HETATM    8  C5  UNL     1     -34.456   4.520   5.275  1.00 20.00     0.016 C 
ENDBRANCH   3   6
BRANCH   2   9
HETATM    9  C6  UNL     1     -31.634   8.640   1.547  1.00 20.00     0.162 C 
HETATM   10 CL10 UNL     1     -32.500  10.101   1.002  1.00 20.00    -0.125 Cl
ENDBRANCH   2   9
TORSDOF 2
ENDMDL
MODEL 3
REMARK VINA RESULT:      -4.1      2.897      4.817
REMARK  2 active torsions:
REMARK  status: ('A' for Active; 'I' for Inactive)
REMARK    1  A    between atoms: C2_2  and  C6_6 
REMARK    2  A    between atoms: C3_3  and  C7_7 
ROOT
HETATM    1  C1  UNL     1     -33.893   6.291   3.111  1.00 20.00     0.133 A 
HETATM    2  C2  UNL     1     -33.664   6.791   4.376  1.00 20.00     0.016 A 
HETATM    3  C3  UNL     1     -32.664   8.024   2.563  1.00 20.00     0.078 A 
HETATM    4  N8  UNL     1     -33.321   6.997   2.070  1.00 20.00    -0.257 NA
HETATM    5  S9  UNL     1     -32.693   8.201   4.269  1.00 20.00    -0.076 SA
ENDROOT
BRANCH   3   6
HETATM    6  C7  UNL     1     -31.901   9.036   1.729  1.00 20.00     0.037 C 
HETATM    7  C4  UNL     1     -32.773  10.241   1.369  1.00 20.00     0.016 C 
HETATM    8  C5  UNL     1     -31.310   8.396   0.470  1.00 20.00     0.016 C 
ENDBRANCH   3   6
BRANCH   2   9
HETATM    9  C6  UNL     1     -34.121   6.291   5.686  1.00 20.00     0.162 C 
HETATM   10 CL10 UNL     1     -34.600   4.576   5.590  1.00 20.00    -0.125 Cl
ENDBRANCH   2   9
TORSDOF 2
ENDMDL
MODEL 4
REMARK VINA RESULT:      -3.9     11.395     11.967
REMARK  2 active torsions:
REMARK  status: ('A' for Active; 'I' for Inactive)
REMARK    1  A    between atoms: C2_2  and  C6_6 
REMARK    2  A    between atoms: C3_3  and  C7_7 
ROOT
HETATM    1  C1  UNL     1     -33.466  15.997  -6.052  1.00 20.00     0.133 A 
HETATM    2  C2  UNL     1     -34.103  14.784  -5.894  1.00 20.00     0.016 A 
HETATM    3  C3  UNL     1     -33.851  16.104  -3.895  1.00 20.00     0.078 A 
HETATM    4  N8  UNL     1     -33.321  16.756  -4.906  1.00 20.00    -0.257 NA
HETATM    5  S9  UNL     1     -34.541  14.574  -4.249  1.00 20.00    -0.076 SA
ENDROOT
BRANCH   3   6
HETATM    6  C7  UNL     1     -33.885  16.616  -2.467  1.00 20.00     0.037 C 
HETATM    7  C4  UNL     1     -35.315  16.689  -1.928  1.00 20.00     0.016 C 
HETATM    8  C5  UNL     1     -33.184  17.971  -2.338  1.00 20.00     0.016 C 
ENDBRANCH   3   6
BRANCH   2   9
HETATM    9  C6  UNL     1     -34.420  13.746  -6.894  1.00 20.00     0.162 C 
HETATM   10 CL10 UNL     1     -36.020  14.026  -7.629  1.00 20.00    -0.125 Cl
ENDBRANCH   2   9
TORSDOF 2
ENDMDL
MODEL 5
REMARK VINA RESULT:      -3.8     11.157     11.557
REMARK  2 active torsions:
REMARK  status: ('A' for Active; 'I' for Inactive)
REMARK    1  A    between atoms: C2_2  and  C6_6 
REMARK    2  A    between atoms: C3_3  and  C7_7 
ROOT
HETATM    1  C1  UNL     1     -36.688  15.227  -4.408  1.00 20.00     0.133 A 
HETATM    2  C2  UNL     1     -35.708  14.402  -4.918  1.00 20.00     0.016 A 
HETATM    3  C3  UNL     1     -35.003  15.925  -3.189  1.00 20.00     0.078 A 
HETATM    4  N8  UNL     1     -36.286  16.101  -3.417  1.00 20.00    -0.257 NA
HETATM    5  S9  UNL     1     -34.219  14.725  -4.131  1.00 20.00    -0.076 SA
ENDROOT
BRANCH   3   6
HETATM    6  C7  UNL     1     -34.198  16.704  -2.166  1.00 20.00     0.037 C 
HETATM    7  C4  UNL     1     -35.072  17.176  -1.002  1.00 20.00     0.016 C 
HETATM    8  C5  UNL     1     -33.462  17.883  -2.808  1.00 20.00     0.016 C 
ENDBRANCH   3   6
BRANCH   2   9
HETATM    9  C6  UNL     1     -35.794  13.368  -5.966  1.00 20.00     0.162 C 
HETATM   10 CL10 UNL     1     -34.439  13.504  -7.118  1.00 20.00    -0.125 Cl
ENDBRANCH   2   9
TORSDOF 2
ENDMDL
MODEL 6
REMARK VINA RESULT:      -3.8     11.035     11.492
REMARK  2 active torsions:
REMARK  status: ('A' for Active; 'I' for Inactive)
REMARK    1  A    between atoms: C2_2  and  C6_6 
REMARK    2  A    between atoms: C3_3  and  C7_7 
ROOT
HETATM    1  C1  UNL     1     -33.049  15.021  -4.163  1.00 20.00     0.133 A 
HETATM    2  C2  UNL     1     -33.919  15.859  -3.498  1.00 20.00     0.016 A 
HETATM    3  C3  UNL     1     -34.929  14.309  -5.041  1.00 20.00     0.078 A 
HETATM    4  N8  UNL     1     -33.626  14.131  -5.048  1.00 20.00    -0.257 NA
HETATM    5  S9  UNL     1     -35.527  15.528  -3.994  1.00 20.00    -0.076 SA
ENDROOT
BRANCH   3   6
HETATM    6  C7  UNL     1     -35.908  13.515  -5.886  1.00 20.00     0.037 C 
HETATM    7  C4  UNL     1     -35.274  13.057  -7.201  1.00 20.00     0.016 C 
HETATM    8  C5  UNL     1     -37.194  14.303  -6.146  1.00 20.00     0.016 C 
ENDBRANCH   3   6
BRANCH   2   9
HETATM    9  C6  UNL     1     -33.642  16.909  -2.499  1.00 20.00     0.162 C 
HETATM   10 CL10 UNL     1     -34.916  16.965  -1.253  1.00 20.00    -0.125 Cl
ENDBRANCH   2   9
TORSDOF 2
ENDMDL
MODEL 7
REMARK VINA RESULT:      -3.7     11.341     11.789
REMARK  2 active torsions:
REMARK  status: ('A' for Active; 'I' for Inactive)
REMARK    1  A    between atoms: C2_2  and  C6_6 
REMARK    2  A    between atoms: C3_3  and  C7_7 
ROOT
HETATM    1  C1  UNL     1     -31.620  18.793   0.449  1.00 20.00     0.133 A 
HETATM    2  C2  UNL     1     -32.547  18.860   1.467  1.00 20.00     0.016 A 
HETATM    3  C3  UNL     1     -33.387  18.132  -0.670  1.00 20.00     0.078 A 
HETATM    4  N8  UNL     1     -32.099  18.375  -0.778  1.00 20.00    -0.257 NA
HETATM    5  S9  UNL     1     -34.085  18.384   0.876  1.00 20.00    -0.076 SA
ENDROOT
BRANCH   3   6
HETATM    6  C7  UNL     1     -34.267  17.653  -1.809  1.00 20.00     0.037 C 
HETATM    7  C4  UNL     1     -35.521  16.943  -1.293  1.00 20.00     0.016 C 
HETATM    8  C5  UNL     1     -33.495  16.757  -2.780  1.00 20.00     0.016 C 
ENDBRANCH   3   6
BRANCH   2   9
HETATM    9  C6  UNL     1     -32.375  19.258   2.877  1.00 20.00     0.162 C 
HETATM   10 CL10 UNL     1     -33.372  18.249   3.958  1.00 20.00    -0.125 Cl
ENDBRANCH   2   9
TORSDOF 2
ENDMDL
MODEL 8
REMARK VINA RESULT:      -3.5     11.228     11.892
REMARK  2 active torsions:
REMARK  status: ('A' for Active; 'I' for Inactive)
REMARK    1  A    between atoms: C2_2  and  C6_6 
REMARK    2  A    between atoms: C3_3  and  C7_7 
ROOT
HETATM    1  C1  UNL     1     -32.837  18.646  -0.160  1.00 20.00     0.133 A 
HETATM    2  C2  UNL     1     -34.088  18.321   0.320  1.00 20.00     0.016 A 
HETATM    3  C3  UNL     1     -33.530  17.427  -1.847  1.00 20.00     0.078 A 
HETATM    4  N8  UNL     1     -32.515  18.135  -1.402  1.00 20.00    -0.257 NA
HETATM    5  S9  UNL     1     -34.903  17.335  -0.823  1.00 20.00    -0.076 SA
ENDROOT
BRANCH   3   6
HETATM    6  C7  UNL     1     -33.554  16.706  -3.181  1.00 20.00     0.037 C 
HETATM    7  C4  UNL     1     -33.536  17.690  -4.353  1.00 20.00     0.016 C 
HETATM    8  C5  UNL     1     -34.748  15.755  -3.286  1.00 20.00     0.016 C 
ENDBRANCH   3   6
BRANCH   2   9
HETATM    9  C6  UNL     1     -34.740  18.693   1.590  1.00 20.00     0.162 C 
HETATM   10 CL10 UNL     1     -33.715  18.272   2.988  1.00 20.00    -0.125 Cl
ENDBRANCH   2   9
TORSDOF 2
ENDMDL
MODEL 9
REMARK VINA RESULT:      -3.4     11.216     11.565
REMARK  2 active torsions:
REMARK  status: ('A' for Active; 'I' for Inactive)
REMARK    1  A    between atoms: C2_2  and  C6_6 
REMARK    2  A    between atoms: C3_3  and  C7_7 
ROOT
HETATM    1  C1  UNL     1     -36.217  15.848  -3.647  1.00 20.00     0.133 A 
HETATM    2  C2  UNL     1     -35.022  15.425  -4.189  1.00 20.00     0.016 A 
HETATM    3  C3  UNL     1     -34.851  17.024  -2.395  1.00 20.00     0.078 A 
HETATM    4  N8  UNL     1     -36.121  16.765  -2.618  1.00 20.00    -0.257 NA
HETATM    5  S9  UNL     1     -33.720  16.201  -3.387  1.00 20.00    -0.076 SA
ENDROOT
BRANCH   3   6
HETATM    6  C7  UNL     1     -34.344  17.986  -1.338  1.00 20.00     0.037 C 
HETATM    7  C4  UNL     1     -32.815  17.995  -1.271  1.00 20.00     0.016 C 
HETATM    8  C5  UNL     1     -34.948  17.683   0.035  1.00 20.00     0.016 C 
ENDBRANCH   3   6
BRANCH   2   9
HETATM    9  C6  UNL     1     -34.767  14.467  -5.282  1.00 20.00     0.162 C 
HETATM   10 CL10 UNL     1     -36.061  13.244  -5.382  1.00 20.00    -0.125 Cl
ENDBRANCH   2   9
TORSDOF 2
ENDMDL
