MODEL 1
REMARK VINA RESULT:      -6.1      0.000      0.000
REMARK  2 active torsions:
REMARK  status: ('A' for Active; 'I' for Inactive)
REMARK    1  A    between atoms: C5_5  and  C8_8 
REMARK    2  A    between atoms: C6_6  and  N9_9 
ROOT
HETATM    1  C1  UNL     1     -33.690   6.444   2.813  1.00 20.00     0.006 C 
HETATM    2  C2  UNL     1     -32.935   7.360   5.043  1.00 20.00     0.006 C 
HETATM    3  C3  UNL     1     -34.991   5.951   3.448  1.00 20.00     0.024 C 
HETATM    4  C4  UNL     1     -34.232   6.873   5.690  1.00 20.00     0.024 C 
HETATM    5  C5  UNL     1     -33.122   7.661   3.551  1.00 20.00    -0.015 C 
HETATM    6  C6  UNL     1     -34.867   5.697   4.950  1.00 20.00     0.109 C 
ENDROOT
BRANCH   5   7
HETATM    7  C8  UNL     1     -31.803   8.105   2.922  1.00 20.00     0.000 C 
HETATM    8  C7  UNL     1     -32.019   8.789   1.612  1.00 20.00     0.005 C 
ENDBRANCH   5   7
BRANCH   6   9
HETATM    9  N9  UNL     1     -34.079   4.478   5.184  1.00 20.00    -0.059 NA
HETATM   10  O10 UNL     1     -34.312   3.623   4.332  1.00 20.00    -0.101 OA
ENDBRANCH   6   9
TORSDOF 2
ENDMDL
MODEL 2
REMARK VINA RESULT:      -4.8      3.152      4.385
REMARK  2 active torsions:
REMARK  status: ('A' for Active; 'I' for Inactive)
REMARK    1  A    between atoms: C5_5  and  C8_8 
REMARK    2  A    between atoms: C6_6  and  N9_9 
ROOT
HETATM    1  C1  UNL     1     -33.862   6.721   3.131  1.00 20.00     0.006 C 
HETATM    2  C2  UNL     1     -32.430   8.158   4.635  1.00 20.00     0.006 C 
HETATM    3  C3  UNL     1     -32.862   6.906   1.989  1.00 20.00     0.024 C 
HETATM    4  C4  UNL     1     -31.421   8.351   3.503  1.00 20.00     0.024 C 
HETATM    5  C5  UNL     1     -33.187   6.832   4.502  1.00 20.00    -0.015 C 
HETATM    6  C6  UNL     1     -32.039   8.188   2.115  1.00 20.00     0.109 C 
ENDROOT
BRANCH   5   7
HETATM    7  C8  UNL     1     -34.216   6.684   5.622  1.00 20.00     0.000 C 
HETATM    8  C7  UNL     1     -34.640   5.263   5.798  1.00 20.00     0.005 C 
ENDBRANCH   5   7
BRANCH   6   9
HETATM    9  N9  UNL     1     -32.883   9.352   1.807  1.00 20.00    -0.059 NA
HETATM   10  O10 UNL     1     -32.432   9.996   0.861  1.00 20.00    -0.101 OA
ENDBRANCH   6   9
TORSDOF 2
ENDMDL
MODEL 3
REMARK VINA RESULT:      -4.7     11.716     12.241
REMARK  2 active torsions:
REMARK  status: ('A' for Active; 'I' for Inactive)
REMARK    1  A    between atoms: C5_5  and  C8_8 
REMARK    2  A    between atoms: C6_6  and  N9_9 
ROOT
HETATM    1  C1  UNL     1     -33.261  15.664  -3.748  1.00 20.00     0.006 C 
HETATM    2  C2  UNL     1     -35.715  16.108  -3.344  1.00 20.00     0.006 C 
HETATM    3  C3  UNL     1     -33.571  15.205  -5.174  1.00 20.00     0.024 C 
HETATM    4  C4  UNL     1     -36.039  15.653  -4.767  1.00 20.00     0.024 C 
HETATM    5  C5  UNL     1     -34.294  16.676  -3.238  1.00 20.00    -0.015 C 
HETATM    6  C6  UNL     1     -35.000  14.689  -5.340  1.00 20.00     0.109 C 
ENDROOT
BRANCH   5   7
HETATM    7  C8  UNL     1     -33.983  17.084  -1.799  1.00 20.00     0.000 C 
HETATM    8  C7  UNL     1     -35.214  17.101  -0.952  1.00 20.00     0.005 C 
ENDBRANCH   5   7
BRANCH   6   9
HETATM    9  N9  UNL     1     -35.131  13.375  -4.693  1.00 20.00    -0.059 NA
HETATM   10  O10 UNL     1     -35.881  12.636  -5.328  1.00 20.00    -0.101 OA
ENDBRANCH   6   9
TORSDOF 2
ENDMDL
MODEL 4
REMARK VINA RESULT:      -4.4     11.977     12.622
REMARK  2 active torsions:
REMARK  status: ('A' for Active; 'I' for Inactive)
REMARK    1  A    between atoms: C5_5  and  C8_8 
REMARK    2  A    between atoms: C6_6  and  N9_9 
ROOT
HETATM    1  C1  UNL     1     -33.587  15.287  -5.150  1.00 20.00     0.006 C 
HETATM    2  C2  UNL     1     -35.848  15.427  -4.033  1.00 20.00     0.006 C 
HETATM    3  C3  UNL     1     -34.258  14.970  -6.488  1.00 20.00     0.024 C 
HETATM    4  C4  UNL     1     -36.533  15.111  -5.363  1.00 20.00     0.024 C 
HETATM    5  C5  UNL     1     -34.496  16.120  -4.240  1.00 20.00    -0.015 C 
HETATM    6  C6  UNL     1     -35.639  14.333  -6.328  1.00 20.00     0.109 C 
ENDROOT
BRANCH   5   7
HETATM    7  C8  UNL     1     -33.817  16.386  -2.898  1.00 20.00     0.000 C 
HETATM    8  C7  UNL     1     -34.804  16.773  -1.846  1.00 20.00     0.005 C 
ENDBRANCH   5   7
BRANCH   6   9
HETATM    9  N9  UNL     1     -35.494  12.945  -5.864  1.00 20.00    -0.059 NA
HETATM   10  O10 UNL     1     -35.073  12.215  -6.758  1.00 20.00    -0.101 OA
ENDBRANCH   6   9
TORSDOF 2
ENDMDL
MODEL 5
REMARK VINA RESULT:      -4.3      2.610      4.246
REMARK  2 active torsions:
REMARK  status: ('A' for Active; 'I' for Inactive)
REMARK    1  A    between atoms: C5_5  and  C8_8 
REMARK    2  A    between atoms: C6_6  and  N9_9 
ROOT
HETATM    1  C1  UNL     1     -34.019   6.867   4.577  1.00 20.00     0.006 C 
HETATM    2  C2  UNL     1     -33.230   5.368   2.704  1.00 20.00     0.006 C 
HETATM    3  C3  UNL     1     -33.787   8.098   3.699  1.00 20.00     0.024 C 
HETATM    4  C4  UNL     1     -32.994   6.589   1.815  1.00 20.00     0.024 C 
HETATM    5  C5  UNL     1     -34.331   5.622   3.739  1.00 20.00    -0.015 C 
HETATM    6  C6  UNL     1     -32.739   7.869   2.610  1.00 20.00     0.109 C 
ENDROOT
BRANCH   5   7
HETATM    7  C8  UNL     1     -34.517   4.401   4.639  1.00 20.00     0.000 C 
HETATM    8  C7  UNL     1     -34.644   4.789   6.076  1.00 20.00     0.005 C 
ENDBRANCH   5   7
BRANCH   6   9
HETATM    9  N9  UNL     1     -31.399   7.821   3.214  1.00 20.00    -0.059 NA
HETATM   10  O10 UNL     1     -31.259   8.698   4.064  1.00 20.00    -0.101 OA
ENDBRANCH   6   9
TORSDOF 2
ENDMDL
MODEL 6
REMARK VINA RESULT:      -4.2     11.502     13.046
REMARK  2 active torsions:
REMARK  status: ('A' for Active; 'I' for Inactive)
REMARK    1  A    between atoms: C5_5  and  C8_8 
REMARK    2  A    between atoms: C6_6  and  N9_9 
ROOT
HETATM    1  C1  UNL     1     -35.500  16.379  -5.177  1.00 20.00     0.006 C 
HETATM    2  C2  UNL     1     -33.059  15.821  -5.507  1.00 20.00     0.006 C 
HETATM    3  C3  UNL     1     -35.609  15.298  -4.100  1.00 20.00     0.024 C 
HETATM    4  C4  UNL     1     -33.153  14.738  -4.432  1.00 20.00     0.024 C 
HETATM    5  C5  UNL     1     -34.078  16.943  -5.275  1.00 20.00    -0.015 C 
HETATM    6  C6  UNL     1     -34.568  14.189  -4.257  1.00 20.00     0.109 C 
ENDROOT
BRANCH   5   7
HETATM    7  C8  UNL     1     -33.989  17.989  -6.384  1.00 20.00     0.000 C 
HETATM    8  C7  UNL     1     -33.948  17.357  -7.737  1.00 20.00     0.005 C 
ENDBRANCH   5   7
BRANCH   6   9
HETATM    9  N9  UNL     1     -34.918  13.339  -5.404  1.00 20.00    -0.059 NA
HETATM   10  O10 UNL     1     -35.958  12.716  -5.200  1.00 20.00    -0.101 OA
ENDBRANCH   6   9
TORSDOF 2
ENDMDL
MODEL 7
REMARK VINA RESULT:      -4.2     11.798     12.643
REMARK  2 active torsions:
REMARK  status: ('A' for Active; 'I' for Inactive)
REMARK    1  A    between atoms: C5_5  and  C8_8 
REMARK    2  A    between atoms: C6_6  and  N9_9 
ROOT
HETATM    1  C1  UNL     1     -34.787  14.171  -4.280  1.00 20.00     0.006 C 
HETATM    2  C2  UNL     1     -35.972  16.382  -4.572  1.00 20.00     0.006 C 
HETATM    3  C3  UNL     1     -35.463  13.634  -5.544  1.00 20.00     0.024 C 
HETATM    4  C4  UNL     1     -36.653  15.859  -5.837  1.00 20.00     0.024 C 
HETATM    5  C5  UNL     1     -34.624  15.694  -4.326  1.00 20.00    -0.015 C 
HETATM    6  C6  UNL     1     -36.782  14.337  -5.863  1.00 20.00     0.109 C 
ENDROOT
BRANCH   5   7
HETATM    7  C8  UNL     1     -33.986  16.205  -3.035  1.00 20.00     0.000 C 
HETATM    8  C7  UNL     1     -35.017  16.605  -2.031  1.00 20.00     0.005 C 
ENDBRANCH   5   7
BRANCH   6   9
HETATM    9  N9  UNL     1     -37.816  13.909  -4.909  1.00 20.00    -0.059 NA
HETATM   10  O10 UNL     1     -38.938  14.243  -5.283  1.00 20.00    -0.101 OA
ENDBRANCH   6   9
TORSDOF 2
ENDMDL
MODEL 8
REMARK VINA RESULT:      -4.1      2.191      3.269
REMARK  2 active torsions:
REMARK  status: ('A' for Active; 'I' for Inactive)
REMARK    1  A    between atoms: C5_5  and  C8_8 
REMARK    2  A    between atoms: C6_6  and  N9_9 
ROOT
HETATM    1  C1  UNL     1     -31.812   9.201   2.947  1.00 20.00     0.006 C 
HETATM    2  C2  UNL     1     -33.350   7.727   1.589  1.00 20.00     0.006 C 
HETATM    3  C3  UNL     1     -31.545   8.045   3.913  1.00 20.00     0.024 C 
HETATM    4  C4  UNL     1     -33.091   6.563   2.546  1.00 20.00     0.024 C 
HETATM    5  C5  UNL     1     -32.165   8.699   1.542  1.00 20.00    -0.015 C 
HETATM    6  C6  UNL     1     -32.676   7.017   3.945  1.00 20.00     0.109 C 
ENDROOT
BRANCH   5   7
HETATM    7  C8  UNL     1     -32.467   9.872   0.612  1.00 20.00     0.000 C 
HETATM    8  C7  UNL     1     -33.201   9.431  -0.613  1.00 20.00     0.005 C 
ENDBRANCH   5   7
BRANCH   6   9
HETATM    9  N9  UNL     1     -33.837   7.578   4.651  1.00 20.00    -0.059 NA
HETATM   10  O10 UNL     1     -33.778   7.354   5.858  1.00 20.00    -0.101 OA
ENDBRANCH   6   9
TORSDOF 2
ENDMDL
MODEL 9
REMARK VINA RESULT:      -4.1     11.741     12.719
REMARK  2 active torsions:
REMARK  status: ('A' for Active; 'I' for Inactive)
REMARK    1  A    between atoms: C5_5  and  C8_8 
REMARK    2  A    between atoms: C6_6  and  N9_9 
ROOT
HETATM    1  C1  UNL     1     -33.848  15.321  -3.565  1.00 20.00     0.006 C 
HETATM    2  C2  UNL     1     -34.923  16.870  -5.246  1.00 20.00     0.006 C 
HETATM    3  C3  UNL     1     -33.593  14.291  -4.668  1.00 20.00     0.024 C 
HETATM    4  C4  UNL     1     -34.674  15.850  -6.357  1.00 20.00     0.024 C 
HETATM    5  C5  UNL     1     -33.889  16.749  -4.120  1.00 20.00    -0.015 C 
HETATM    6  C6  UNL     1     -34.564  14.416  -5.841  1.00 20.00     0.109 C 
ENDROOT
BRANCH   5   7
HETATM    7  C8  UNL     1     -34.187  17.751  -3.006  1.00 20.00     0.000 C 
HETATM    8  C7  UNL     1     -33.896  17.178  -1.657  1.00 20.00     0.005 C 
ENDBRANCH   5   7
BRANCH   6   9
HETATM    9  N9  UNL     1     -35.892  13.928  -5.441  1.00 20.00    -0.059 NA
HETATM   10  O10 UNL     1     -35.872  12.723  -5.199  1.00 20.00    -0.101 OA
ENDBRANCH   6   9
TORSDOF 2
ENDMDL
