MODEL 1
REMARK VINA RESULT:      -5.3      0.000      0.000
REMARK  0 active torsions:
REMARK  status: ('A' for Active; 'I' for Inactive)
ROOT
HETATM    1  C1  UNL     1     -34.764  13.792  -5.946  1.00 20.00     0.097 A 
HETATM    2  C2  UNL     1     -33.235  14.775  -4.470  1.00 20.00     0.097 A 
HETATM    3  C3  UNL     1     -35.828  14.476  -5.357  1.00 20.00    -0.016 A 
HETATM    4  C4  UNL     1     -34.251  15.489  -3.834  1.00 20.00    -0.016 A 
HETATM    5  C5  UNL     1     -35.577  15.365  -4.294  1.00 20.00     0.045 A 
HETATM    6  C6  UNL     1     -37.219  14.288  -5.903  1.00 20.00     0.044 C 
HETATM    7  C7  UNL     1     -33.904  16.419  -2.703  1.00 20.00     0.044 C 
HETATM    8  C8  UNL     1     -38.271  14.707  -4.883  1.00 20.00     0.025 C 
HETATM    9  C9  UNL     1     -35.127  16.726  -1.848  1.00 20.00     0.025 C 
HETATM   10  C10 UNL     1     -37.938  16.078  -4.310  1.00 20.00     0.123 C 
HETATM   11  C11 UNL     1     -36.301  17.130  -2.730  1.00 20.00     0.123 C 
HETATM   12  N12 UNL     1     -33.519  13.962  -5.491  1.00 20.00    -0.374 N 
HETATM   13  N13 UNL     1     -36.616  16.073  -3.688  1.00 20.00    -0.380 N 
HETATM   14  H28 UNL     1     -32.759  13.451  -5.938  1.00 20.00     0.164 HD
ENDROOT
TORSDOF 0
ENDMDL
MODEL 2
REMARK VINA RESULT:      -5.0      4.337      7.470
REMARK  0 active torsions:
REMARK  status: ('A' for Active; 'I' for Inactive)
ROOT
HETATM    1  C1  UNL     1     -34.922  18.737   2.909  1.00 20.00     0.097 A 
HETATM    2  C2  UNL     1     -36.307  17.894   1.220  1.00 20.00     0.097 A 
HETATM    3  C3  UNL     1     -33.812  18.707   2.065  1.00 20.00    -0.016 A 
HETATM    4  C4  UNL     1     -35.241  17.837   0.323  1.00 20.00    -0.016 A 
HETATM    5  C5  UNL     1     -33.965  18.274   0.734  1.00 20.00     0.045 A 
HETATM    6  C6  UNL     1     -32.480  19.187   2.578  1.00 20.00     0.044 C 
HETATM    7  C7  UNL     1     -35.483  17.359  -1.084  1.00 20.00     0.044 C 
HETATM    8  C8  UNL     1     -31.336  18.652   1.725  1.00 20.00     0.025 C 
HETATM    9  C9  UNL     1     -34.185  16.918  -1.747  1.00 20.00     0.025 C 
HETATM   10  C10 UNL     1     -31.625  18.882   0.247  1.00 20.00     0.123 C 
HETATM   11  C11 UNL     1     -33.108  17.979  -1.560  1.00 20.00     0.123 C 
HETATM   12  N12 UNL     1     -36.117  18.336   2.467  1.00 20.00    -0.374 N 
HETATM   13  N13 UNL     1     -32.879  18.240  -0.141  1.00 20.00    -0.380 N 
HETATM   14  H28 UNL     1     -36.913  18.368   3.103  1.00 20.00     0.164 HD
ENDROOT
TORSDOF 0
ENDMDL
MODEL 3
REMARK VINA RESULT:      -4.9      0.958      1.073
REMARK  0 active torsions:
REMARK  status: ('A' for Active; 'I' for Inactive)
ROOT
HETATM    1  C1  UNL     1     -36.205  13.587  -5.498  1.00 20.00     0.097 A 
HETATM    2  C2  UNL     1     -34.326  14.256  -4.271  1.00 20.00     0.097 A 
HETATM    3  C3  UNL     1     -36.965  14.633  -4.975  1.00 20.00    -0.016 A 
HETATM    4  C4  UNL     1     -35.027  15.323  -3.709  1.00 20.00    -0.016 A 
HETATM    5  C5  UNL     1     -36.368  15.543  -4.080  1.00 20.00     0.045 A 
HETATM    6  C6  UNL     1     -38.394  14.801  -5.417  1.00 20.00     0.044 C 
HETATM    7  C7  UNL     1     -34.321  16.251  -2.757  1.00 20.00     0.044 C 
HETATM    8  C8  UNL     1     -39.180  15.653  -4.428  1.00 20.00     0.025 C 
HETATM    9  C9  UNL     1     -35.317  17.027  -1.905  1.00 20.00     0.025 C 
HETATM   10  C10 UNL     1     -38.411  16.925  -4.097  1.00 20.00     0.123 C 
HETATM   11  C11 UNL     1     -36.400  17.641  -2.783  1.00 20.00     0.123 C 
HETATM   12  N12 UNL     1     -34.928  13.434  -5.135  1.00 20.00    -0.374 N 
HETATM   13  N13 UNL     1     -37.096  16.607  -3.545  1.00 20.00    -0.380 N 
HETATM   14  H28 UNL     1     -34.394  12.661  -5.532  1.00 20.00     0.164 HD
ENDROOT
TORSDOF 0
ENDMDL
MODEL 4
REMARK VINA RESULT:      -4.5      0.531      3.242
REMARK  0 active torsions:
REMARK  status: ('A' for Active; 'I' for Inactive)
ROOT
HETATM    1  C1  UNL     1     -33.149  14.760  -4.464  1.00 20.00     0.097 A 
HETATM    2  C2  UNL     1     -34.682  13.869  -5.994  1.00 20.00     0.097 A 
HETATM    3  C3  UNL     1     -34.131  15.571  -3.896  1.00 20.00    -0.016 A 
HETATM    4  C4  UNL     1     -35.713  14.652  -5.474  1.00 20.00    -0.016 A 
HETATM    5  C5  UNL     1     -35.451  15.507  -4.384  1.00 20.00     0.045 A 
HETATM    6  C6  UNL     1     -33.774  16.462  -2.736  1.00 20.00     0.044 C 
HETATM    7  C7  UNL     1     -37.097  14.530  -6.052  1.00 20.00     0.044 C 
HETATM    8  C8  UNL     1     -34.794  17.581  -2.566  1.00 20.00     0.025 C 
HETATM    9  C9  UNL     1     -37.944  15.750  -5.712  1.00 20.00     0.025 C 
HETATM   10  C10 UNL     1     -36.208  17.016  -2.587  1.00 20.00     0.123 C 
HETATM   11  C11 UNL     1     -37.848  16.063  -4.224  1.00 20.00     0.123 C 
HETATM   12  N12 UNL     1     -33.451  13.946  -5.480  1.00 20.00    -0.374 N 
HETATM   13  N13 UNL     1     -36.461  16.297  -3.833  1.00 20.00    -0.380 N 
HETATM   14  H28 UNL     1     -32.715  13.364  -5.878  1.00 20.00     0.164 HD
ENDROOT
TORSDOF 0
ENDMDL
MODEL 5
REMARK VINA RESULT:      -4.4      1.434      4.434
REMARK  0 active torsions:
REMARK  status: ('A' for Active; 'I' for Inactive)
ROOT
HETATM    1  C1  UNL     1     -37.356  15.510  -3.897  1.00 20.00     0.097 A 
HETATM    2  C2  UNL     1     -37.726  14.403  -5.927  1.00 20.00     0.097 A 
HETATM    3  C3  UNL     1     -36.005  15.686  -4.196  1.00 20.00    -0.016 A 
HETATM    4  C4  UNL     1     -36.387  14.544  -6.291  1.00 20.00    -0.016 A 
HETATM    5  C5  UNL     1     -35.502  15.221  -5.427  1.00 20.00     0.045 A 
HETATM    6  C6  UNL     1     -35.121  16.417  -3.221  1.00 20.00     0.044 C 
HETATM    7  C7  UNL     1     -35.923  14.018  -7.622  1.00 20.00     0.044 C 
HETATM    8  C8  UNL     1     -33.651  16.104  -3.470  1.00 20.00     0.025 C 
HETATM    9  C9  UNL     1     -34.412  13.828  -7.643  1.00 20.00     0.025 C 
HETATM   10  C10 UNL     1     -33.319  16.263  -4.948  1.00 20.00     0.123 C 
HETATM   11  C11 UNL     1     -33.715  15.078  -7.120  1.00 20.00     0.123 C 
HETATM   12  N12 UNL     1     -38.162  14.884  -4.759  1.00 20.00    -0.374 N 
HETATM   13  N13 UNL     1     -34.159  15.389  -5.764  1.00 20.00    -0.380 N 
HETATM   14  H28 UNL     1     -39.146  14.768  -4.517  1.00 20.00     0.164 HD
ENDROOT
TORSDOF 0
ENDMDL
MODEL 6
REMARK VINA RESULT:      -4.4      1.114      3.247
REMARK  0 active torsions:
REMARK  status: ('A' for Active; 'I' for Inactive)
ROOT
HETATM    1  C1  UNL     1     -38.310  16.650  -3.799  1.00 20.00     0.097 A 
HETATM    2  C2  UNL     1     -36.484  17.459  -2.575  1.00 20.00     0.097 A 
HETATM    3  C3  UNL     1     -37.521  15.668  -4.397  1.00 20.00    -0.016 A 
HETATM    4  C4  UNL     1     -35.638  16.502  -3.134  1.00 20.00    -0.016 A 
HETATM    5  C5  UNL     1     -36.160  15.564  -4.047  1.00 20.00     0.045 A 
HETATM    6  C6  UNL     1     -38.151  14.703  -5.366  1.00 20.00     0.044 C 
HETATM    7  C7  UNL     1     -34.193  16.456  -2.713  1.00 20.00     0.044 C 
HETATM    8  C8  UNL     1     -37.098  14.044  -6.249  1.00 20.00     0.025 C 
HETATM    9  C9  UNL     1     -33.346  15.708  -3.734  1.00 20.00     0.025 C 
HETATM   10  C10 UNL     1     -35.952  13.512  -5.400  1.00 20.00     0.123 C 
HETATM   11  C11 UNL     1     -33.998  14.378  -4.090  1.00 20.00     0.123 C 
HETATM   12  N12 UNL     1     -37.775  17.502  -2.919  1.00 20.00    -0.374 N 
HETATM   13  N13 UNL     1     -35.344  14.587  -4.618  1.00 20.00    -0.380 N 
HETATM   14  H28 UNL     1     -38.372  18.212  -2.496  1.00 20.00     0.164 HD
ENDROOT
TORSDOF 0
ENDMDL
MODEL 7
REMARK VINA RESULT:      -4.3      2.422      3.964
REMARK  0 active torsions:
REMARK  status: ('A' for Active; 'I' for Inactive)
ROOT
HETATM    1  C1  UNL     1     -34.403  14.224  -4.161  1.00 20.00     0.097 A 
HETATM    2  C2  UNL     1     -34.550  14.187  -6.498  1.00 20.00     0.097 A 
HETATM    3  C3  UNL     1     -34.246  15.610  -4.156  1.00 20.00    -0.016 A 
HETATM    4  C4  UNL     1     -34.398  15.572  -6.566  1.00 20.00    -0.016 A 
HETATM    5  C5  UNL     1     -34.268  16.314  -5.375  1.00 20.00     0.045 A 
HETATM    6  C6  UNL     1     -34.109  16.333  -2.842  1.00 20.00     0.044 C 
HETATM    7  C7  UNL     1     -34.429  16.253  -7.908  1.00 20.00     0.044 C 
HETATM    8  C8  UNL     1     -33.488  17.711  -3.035  1.00 20.00     0.025 C 
HETATM    9  C9  UNL     1     -33.789  17.634  -7.839  1.00 20.00     0.025 C 
HETATM   10  C10 UNL     1     -34.194  18.458  -4.159  1.00 20.00     0.123 C 
HETATM   11  C11 UNL     1     -34.351  18.419  -6.659  1.00 20.00     0.123 C 
HETATM   12  N12 UNL     1     -34.548  13.566  -5.315  1.00 20.00    -0.374 N 
HETATM   13  N13 UNL     1     -34.125  17.702  -5.407  1.00 20.00    -0.380 N 
HETATM   14  H28 UNL     1     -34.661  12.553  -5.292  1.00 20.00     0.164 HD
ENDROOT
TORSDOF 0
ENDMDL
MODEL 8
REMARK VINA RESULT:      -4.3      5.234      7.580
REMARK  0 active torsions:
REMARK  status: ('A' for Active; 'I' for Inactive)
ROOT
HETATM    1  C1  UNL     1     -32.096  19.263   3.288  1.00 20.00     0.097 A 
HETATM    2  C2  UNL     1     -31.012  18.908   1.242  1.00 20.00     0.097 A 
HETATM    3  C3  UNL     1     -33.340  18.991   2.718  1.00 20.00    -0.016 A 
HETATM    4  C4  UNL     1     -32.222  18.624   0.608  1.00 20.00    -0.016 A 
HETATM    5  C5  UNL     1     -33.416  18.638   1.356  1.00 20.00     0.045 A 
HETATM    6  C6  UNL     1     -34.572  19.029   3.582  1.00 20.00     0.044 C 
HETATM    7  C7  UNL     1     -32.222  18.258  -0.852  1.00 20.00     0.044 C 
HETATM    8  C8  UNL     1     -35.832  19.181   2.737  1.00 20.00     0.025 C 
HETATM    9  C9  UNL     1     -33.603  18.452  -1.467  1.00 20.00     0.025 C 
HETATM   10  C10 UNL     1     -35.827  18.175   1.593  1.00 20.00     0.123 C 
HETATM   11  C11 UNL     1     -34.667  17.796  -0.596  1.00 20.00     0.123 C 
HETATM   12  N12 UNL     1     -30.987  19.213   2.543  1.00 20.00    -0.374 N 
HETATM   13  N13 UNL     1     -34.642  18.350   0.756  1.00 20.00    -0.380 N 
HETATM   14  H28 UNL     1     -30.091  19.416   2.983  1.00 20.00     0.164 HD
ENDROOT
TORSDOF 0
ENDMDL
MODEL 9
REMARK VINA RESULT:      -4.3      1.540      4.545
REMARK  0 active torsions:
REMARK  status: ('A' for Active; 'I' for Inactive)
ROOT
HETATM    1  C1  UNL     1     -37.602  17.808  -2.605  1.00 20.00     0.097 A 
HETATM    2  C2  UNL     1     -37.733  16.126  -4.229  1.00 20.00     0.097 A 
HETATM    3  C3  UNL     1     -36.253  17.533  -2.377  1.00 20.00    -0.016 A 
HETATM    4  C4  UNL     1     -36.389  15.798  -4.052  1.00 20.00    -0.016 A 
HETATM    5  C5  UNL     1     -35.615  16.527  -3.127  1.00 20.00     0.045 A 
HETATM    6  C6  UNL     1     -35.493  18.353  -1.369  1.00 20.00     0.044 C 
HETATM    7  C7  UNL     1     -35.778  14.707  -4.889  1.00 20.00     0.044 C 
HETATM    8  C8  UNL     1     -34.229  17.634  -0.915  1.00 20.00     0.025 C 
HETATM    9  C9  UNL     1     -34.500  14.175  -4.253  1.00 20.00     0.025 C 
HETATM   10  C10 UNL     1     -33.445  17.129  -2.120  1.00 20.00     0.123 C 
HETATM   11  C11 UNL     1     -33.586  15.328  -3.857  1.00 20.00     0.123 C 
HETATM   12  N12 UNL     1     -38.289  17.106  -3.511  1.00 20.00    -0.374 N 
HETATM   13  N13 UNL     1     -34.265  16.232  -2.932  1.00 20.00    -0.380 N 
HETATM   14  H28 UNL     1     -39.273  17.327  -3.660  1.00 20.00     0.164 HD
ENDROOT
TORSDOF 0
ENDMDL
