MODEL 1
REMARK VINA RESULT:      -4.5      0.000      0.000
REMARK  1 active torsions:
REMARK  status: ('A' for Active; 'I' for Inactive)
REMARK    1  A    between atoms: C2_2  and  C6_6 
ROOT
HETATM    1  C1  UNL     1     -32.652   7.643   4.448  1.00 20.00     0.134 A 
HETATM    2  C2  UNL     1     -33.552   6.757   3.895  1.00 20.00     0.006 A 
HETATM    3  C3  UNL     1     -32.163   7.955   2.333  1.00 20.00     0.167 A 
HETATM    4  N7  UNL     1     -31.855   8.331   3.554  1.00 20.00    -0.240 NA
HETATM    5  S8  UNL     1     -33.404   6.778   2.187  1.00 20.00    -0.061 SA
HETATM    6 CL9  UNL     1     -31.396   8.580   0.934  1.00 20.00    -0.054 Cl
ENDROOT
BRANCH   2   7
HETATM    7  C6  UNL     1     -34.565   5.851   4.570  1.00 20.00     0.019 C 
HETATM    8  C4  UNL     1     -34.579   6.057   6.087  1.00 20.00     0.015 C 
HETATM    9  C5  UNL     1     -34.325   4.380   4.222  1.00 20.00     0.015 C 
ENDBRANCH   2   7
TORSDOF 1
ENDMDL
MODEL 2
REMARK VINA RESULT:      -3.9      2.848      4.403
REMARK  1 active torsions:
REMARK  status: ('A' for Active; 'I' for Inactive)
REMARK    1  A    between atoms: C2_2  and  C6_6 
ROOT
HETATM    1  C1  UNL     1     -33.313   6.548   2.181  1.00 20.00     0.134 A 
HETATM    2  C2  UNL     1     -32.792   7.709   2.711  1.00 20.00     0.006 A 
HETATM    3  C3  UNL     1     -33.890   6.243   4.275  1.00 20.00     0.167 A 
HETATM    4  N7  UNL     1     -33.943   5.705   3.076  1.00 20.00    -0.240 NA
HETATM    5  S8  UNL     1     -33.098   7.760   4.397  1.00 20.00    -0.061 SA
HETATM    6 CL9  UNL     1     -34.563   5.504   5.667  1.00 20.00    -0.054 Cl
ENDROOT
BRANCH   2   7
HETATM    7  C6  UNL     1     -32.048   8.841   2.027  1.00 20.00     0.019 C 
HETATM    8  C4  UNL     1     -32.972  10.026   1.734  1.00 20.00     0.015 C 
HETATM    9  C5  UNL     1     -31.350   8.366   0.751  1.00 20.00     0.015 C 
ENDBRANCH   2   7
TORSDOF 1
ENDMDL
MODEL 3
REMARK VINA RESULT:      -3.9     11.564     12.272
REMARK  1 active torsions:
REMARK  status: ('A' for Active; 'I' for Inactive)
REMARK    1  A    between atoms: C2_2  and  C6_6 
ROOT
HETATM    1  C1  UNL     1     -34.605  14.382  -4.104  1.00 20.00     0.134 A 
HETATM    2  C2  UNL     1     -33.996  15.619  -4.084  1.00 20.00     0.006 A 
HETATM    3  C3  UNL     1     -34.091  14.532  -6.232  1.00 20.00     0.167 A 
HETATM    4  N7  UNL     1     -34.661  13.757  -5.335  1.00 20.00    -0.240 NA
HETATM    5  S8  UNL     1     -33.466  16.026  -5.663  1.00 20.00    -0.061 SA
HETATM    6 CL9  UNL     1     -33.956  14.112  -7.887  1.00 20.00    -0.054 Cl
ENDROOT
BRANCH   2   7
HETATM    7  C6  UNL     1     -33.764  16.569  -2.923  1.00 20.00     0.019 C 
HETATM    8  C4  UNL     1     -34.961  16.593  -1.969  1.00 20.00     0.015 C 
HETATM    9  C5  UNL     1     -33.426  17.980  -3.409  1.00 20.00     0.015 C 
ENDBRANCH   2   7
TORSDOF 1
ENDMDL
MODEL 4
REMARK VINA RESULT:      -3.9     11.793     12.295
REMARK  1 active torsions:
REMARK  status: ('A' for Active; 'I' for Inactive)
REMARK    1  A    between atoms: C2_2  and  C6_6 
ROOT
HETATM    1  C1  UNL     1     -33.336  16.631  -5.005  1.00 20.00     0.134 A 
HETATM    2  C2  UNL     1     -33.875  16.053  -3.875  1.00 20.00     0.006 A 
HETATM    3  C3  UNL     1     -34.047  14.759  -5.901  1.00 20.00     0.167 A 
HETATM    4  N7  UNL     1     -33.433  15.891  -6.167  1.00 20.00    -0.240 NA
HETATM    5  S8  UNL     1     -34.534  14.520  -4.273  1.00 20.00    -0.061 SA
HETATM    6 CL9  UNL     1     -34.364  13.560  -7.083  1.00 20.00    -0.054 Cl
ENDROOT
BRANCH   2   7
HETATM    7  C6  UNL     1     -33.943  16.577  -2.453  1.00 20.00     0.019 C 
HETATM    8  C4  UNL     1     -35.389  16.694  -1.965  1.00 20.00     0.015 C 
HETATM    9  C5  UNL     1     -33.209  17.912  -2.309  1.00 20.00     0.015 C 
ENDBRANCH   2   7
TORSDOF 1
ENDMDL
MODEL 5
REMARK VINA RESULT:      -3.9      1.465      1.654
REMARK  1 active torsions:
REMARK  status: ('A' for Active; 'I' for Inactive)
REMARK    1  A    between atoms: C2_2  and  C6_6 
ROOT
HETATM    1  C1  UNL     1     -34.037   6.082   2.668  1.00 20.00     0.134 A 
HETATM    2  C2  UNL     1     -33.863   6.596   3.935  1.00 20.00     0.006 A 
HETATM    3  C3  UNL     1     -32.534   7.609   2.200  1.00 20.00     0.167 A 
HETATM    4  N7  UNL     1     -33.276   6.661   1.672  1.00 20.00    -0.240 NA
HETATM    5  S8  UNL     1     -32.701   7.856   3.890  1.00 20.00    -0.061 SA
HETATM    6 CL9  UNL     1     -31.445   8.569   1.290  1.00 20.00    -0.054 Cl
ENDROOT
BRANCH   2   7
HETATM    7  C6  UNL     1     -34.526   6.204   5.243  1.00 20.00     0.019 C 
HETATM    8  C4  UNL     1     -33.944   6.984   6.424  1.00 20.00     0.015 C 
HETATM    9  C5  UNL     1     -34.439   4.696   5.489  1.00 20.00     0.015 C 
ENDBRANCH   2   7
TORSDOF 1
ENDMDL
MODEL 6
REMARK VINA RESULT:      -3.8     11.807     12.089
REMARK  1 active torsions:
REMARK  status: ('A' for Active; 'I' for Inactive)
REMARK    1  A    between atoms: C2_2  and  C6_6 
ROOT
HETATM    1  C1  UNL     1     -32.576  18.106  -1.061  1.00 20.00     0.134 A 
HETATM    2  C2  UNL     1     -33.723  18.205  -0.303  1.00 20.00     0.006 A 
HETATM    3  C3  UNL     1     -31.667  18.752   0.828  1.00 20.00     0.167 A 
HETATM    4  N7  UNL     1     -31.396  18.420  -0.415  1.00 20.00    -0.240 NA
HETATM    5  S8  UNL     1     -33.321  18.709   1.286  1.00 20.00    -0.061 SA
HETATM    6 CL9  UNL     1     -30.468  19.209   1.963  1.00 20.00    -0.054 Cl
ENDROOT
BRANCH   2   7
HETATM    7  C6  UNL     1     -35.167  17.940  -0.686  1.00 20.00     0.019 C 
HETATM    8  C4  UNL     1     -36.049  17.740   0.549  1.00 20.00     0.015 C 
HETATM    9  C5  UNL     1     -35.287  16.749  -1.640  1.00 20.00     0.015 C 
ENDBRANCH   2   7
TORSDOF 1
ENDMDL
MODEL 7
REMARK VINA RESULT:      -3.7     11.907     12.328
REMARK  1 active torsions:
REMARK  status: ('A' for Active; 'I' for Inactive)
REMARK    1  A    between atoms: C2_2  and  C6_6 
ROOT
HETATM    1  C1  UNL     1     -35.755  13.691  -5.042  1.00 20.00     0.134 A 
HETATM    2  C2  UNL     1     -35.339  14.816  -4.363  1.00 20.00     0.006 A 
HETATM    3  C3  UNL     1     -37.688  14.716  -4.888  1.00 20.00     0.167 A 
HETATM    4  N7  UNL     1     -37.102  13.631  -5.343  1.00 20.00    -0.240 NA
HETATM    5  S8  UNL     1     -36.679  15.849  -4.087  1.00 20.00    -0.061 SA
HETATM    6 CL9  UNL     1     -39.365  15.022  -5.062  1.00 20.00    -0.054 Cl
ENDROOT
BRANCH   2   7
HETATM    7  C6  UNL     1     -33.954  15.204  -3.880  1.00 20.00     0.019 C 
HETATM    8  C4  UNL     1     -34.006  16.390  -2.913  1.00 20.00     0.015 C 
HETATM    9  C5  UNL     1     -33.010  15.495  -5.049  1.00 20.00     0.015 C 
ENDBRANCH   2   7
TORSDOF 1
ENDMDL
MODEL 8
REMARK VINA RESULT:      -3.6     11.688     12.058
REMARK  1 active torsions:
REMARK  status: ('A' for Active; 'I' for Inactive)
REMARK    1  A    between atoms: C2_2  and  C6_6 
ROOT
HETATM    1  C1  UNL     1     -35.799  15.615  -3.915  1.00 20.00     0.134 A 
HETATM    2  C2  UNL     1     -34.526  15.888  -3.461  1.00 20.00     0.006 A 
HETATM    3  C3  UNL     1     -34.663  14.599  -5.492  1.00 20.00     0.167 A 
HETATM    4  N7  UNL     1     -35.880  14.877  -5.079  1.00 20.00    -0.240 NA
HETATM    5  S8  UNL     1     -33.375  15.195  -4.527  1.00 20.00    -0.061 SA
HETATM    6 CL9  UNL     1     -34.334  13.694  -6.909  1.00 20.00    -0.054 Cl
ENDROOT
BRANCH   2   7
HETATM    7  C6  UNL     1     -34.075  16.661  -2.236  1.00 20.00     0.019 C 
HETATM    8  C4  UNL     1     -35.249  16.967  -1.301  1.00 20.00     0.015 C 
HETATM    9  C5  UNL     1     -33.335  17.944  -2.620  1.00 20.00     0.015 C 
ENDBRANCH   2   7
TORSDOF 1
ENDMDL
MODEL 9
REMARK VINA RESULT:      -3.6      2.486      4.382
REMARK  1 active torsions:
REMARK  status: ('A' for Active; 'I' for Inactive)
REMARK    1  A    between atoms: C2_2  and  C6_6 
ROOT
HETATM    1  C1  UNL     1     -32.093   8.344   3.665  1.00 20.00     0.134 A 
HETATM    2  C2  UNL     1     -32.741   8.157   2.462  1.00 20.00     0.006 A 
HETATM    3  C3  UNL     1     -33.568   6.856   4.314  1.00 20.00     0.167 A 
HETATM    4  N7  UNL     1     -32.565   7.599   4.728  1.00 20.00    -0.240 NA
HETATM    5  S8  UNL     1     -33.994   7.003   2.658  1.00 20.00    -0.061 SA
HETATM    6 CL9  UNL     1     -34.429   5.784   5.336  1.00 20.00    -0.054 Cl
ENDROOT
BRANCH   2   7
HETATM    7  C6  UNL     1     -32.489   8.801   1.112  1.00 20.00     0.019 C 
HETATM    8  C4  UNL     1     -31.046   8.586   0.647  1.00 20.00     0.015 C 
HETATM    9  C5  UNL     1     -32.842  10.290   1.123  1.00 20.00     0.015 C 
ENDBRANCH   2   7
TORSDOF 1
ENDMDL
