MODEL 1
REMARK VINA RESULT:      -5.6      0.000      0.000
REMARK  2 active torsions:
REMARK  status: ('A' for Active; 'I' for Inactive)
REMARK    1  A    between atoms: C4_4  and  C8_8 
REMARK    2  A    between atoms: C5_5  and  O9_9 
ROOT
HETATM    1  C1  UNL     1     -33.234   7.411   4.882  1.00 20.00     0.007 C 
HETATM    2  C2  UNL     1     -32.121   8.086   4.072  1.00 20.00     0.032 C 
HETATM    3  C3  UNL     1     -33.025   6.225   2.813  1.00 20.00     0.036 C 
HETATM    4  C4  UNL     1     -34.057   6.612   3.871  1.00 20.00    -0.009 C 
HETATM    5  C5  UNL     1     -32.198   7.496   2.664  1.00 20.00     0.118 C 
ENDROOT
BRANCH   4   6
HETATM    6  C8  UNL     1     -34.761   5.414   4.485  1.00 20.00    -0.019 C 
HETATM    7  C6  UNL     1     -34.130   4.106   4.004  1.00 20.00     0.010 C 
HETATM    8  C7  UNL     1     -34.729   5.487   6.013  1.00 20.00     0.010 C 
ENDBRANCH   4   6
BRANCH   5   9
HETATM    9  O9  UNL     1     -32.874   8.418   1.815  1.00 20.00    -0.396 OA
HETATM   10  H25 UNL     1     -32.694   9.303   2.168  1.00 20.00     0.210 HD
ENDBRANCH   5   9
TORSDOF 2
ENDMDL
MODEL 2
REMARK VINA RESULT:      -5.5      1.698      3.832
REMARK  2 active torsions:
REMARK  status: ('A' for Active; 'I' for Inactive)
REMARK    1  A    between atoms: C4_4  and  C8_8 
REMARK    2  A    between atoms: C5_5  and  O9_9 
ROOT
HETATM    1  C1  UNL     1     -32.960   5.247   2.737  1.00 20.00     0.007 C 
HETATM    2  C2  UNL     1     -33.921   4.541   3.702  1.00 20.00     0.032 C 
HETATM    3  C3  UNL     1     -33.794   6.893   4.262  1.00 20.00     0.036 C 
HETATM    4  C4  UNL     1     -33.305   6.734   2.823  1.00 20.00    -0.009 C 
HETATM    5  C5  UNL     1     -34.642   5.646   4.472  1.00 20.00     0.118 C 
ENDROOT
BRANCH   4   6
HETATM    6  C8  UNL     1     -32.133   7.641   2.486  1.00 20.00    -0.019 C 
HETATM    7  C6  UNL     1     -32.560   8.742   1.513  1.00 20.00     0.010 C 
HETATM    8  C7  UNL     1     -31.536   8.255   3.754  1.00 20.00     0.010 C 
ENDBRANCH   4   6
BRANCH   5   9
HETATM    9  O9  UNL     1     -35.934   5.835   3.904  1.00 20.00    -0.396 OA
HETATM   10  H25 UNL     1     -36.111   6.788   3.931  1.00 20.00     0.210 HD
ENDBRANCH   5   9
TORSDOF 2
ENDMDL
MODEL 3
REMARK VINA RESULT:      -5.4      1.996      3.779
REMARK  2 active torsions:
REMARK  status: ('A' for Active; 'I' for Inactive)
REMARK    1  A    between atoms: C4_4  and  C8_8 
REMARK    2  A    between atoms: C5_5  and  O9_9 
ROOT
HETATM    1  C1  UNL     1     -33.650   6.945   5.398  1.00 20.00     0.007 C 
HETATM    2  C2  UNL     1     -34.672   5.861   5.758  1.00 20.00     0.032 C 
HETATM    3  C3  UNL     1     -34.503   6.046   3.350  1.00 20.00     0.036 C 
HETATM    4  C4  UNL     1     -33.242   6.667   3.951  1.00 20.00    -0.009 C 
HETATM    5  C5  UNL     1     -34.988   5.122   4.459  1.00 20.00     0.118 C 
ENDROOT
BRANCH   4   6
HETATM    6  C8  UNL     1     -32.776   7.909   3.210  1.00 20.00    -0.019 C 
HETATM    7  C6  UNL     1     -31.392   8.344   3.696  1.00 20.00     0.010 C 
HETATM    8  C7  UNL     1     -32.756   7.668   1.700  1.00 20.00     0.010 C 
ENDBRANCH   4   6
BRANCH   5   9
HETATM    9  O9  UNL     1     -34.252   3.903   4.432  1.00 20.00    -0.396 OA
HETATM   10  H25 UNL     1     -34.117   3.641   5.356  1.00 20.00     0.210 HD
ENDBRANCH   5   9
TORSDOF 2
ENDMDL
MODEL 4
REMARK VINA RESULT:      -4.9      1.132      1.601
REMARK  2 active torsions:
REMARK  status: ('A' for Active; 'I' for Inactive)
REMARK    1  A    between atoms: C4_4  and  C8_8 
REMARK    2  A    between atoms: C5_5  and  O9_9 
ROOT
HETATM    1  C1  UNL     1     -32.206   7.976   4.361  1.00 20.00     0.007 C 
HETATM    2  C2  UNL     1     -31.369   8.583   3.230  1.00 20.00     0.032 C 
HETATM    3  C3  UNL     1     -32.924   6.971   2.311  1.00 20.00     0.036 C 
HETATM    4  C4  UNL     1     -33.443   7.380   3.688  1.00 20.00    -0.009 C 
HETATM    5  C5  UNL     1     -32.028   8.140   1.924  1.00 20.00     0.118 C 
ENDROOT
BRANCH   4   6
HETATM    6  C8  UNL     1     -34.051   6.225   4.467  1.00 20.00    -0.019 C 
HETATM    7  C6  UNL     1     -34.228   6.596   5.940  1.00 20.00     0.010 C 
HETATM    8  C7  UNL     1     -35.391   5.805   3.860  1.00 20.00     0.010 C 
ENDBRANCH   4   6
BRANCH   5   9
HETATM    9  O9  UNL     1     -32.818   9.212   1.420  1.00 20.00    -0.396 OA
HETATM   10  H25 UNL     1     -32.481  10.022   1.832  1.00 20.00     0.210 HD
ENDBRANCH   5   9
TORSDOF 2
ENDMDL
MODEL 5
REMARK VINA RESULT:      -4.6      2.339      4.370
REMARK  2 active torsions:
REMARK  status: ('A' for Active; 'I' for Inactive)
REMARK    1  A    between atoms: C4_4  and  C8_8 
REMARK    2  A    between atoms: C5_5  and  O9_9 
ROOT
HETATM    1  C1  UNL     1     -31.544   8.621   3.029  1.00 20.00     0.007 C 
HETATM    2  C2  UNL     1     -32.195   7.634   4.004  1.00 20.00     0.032 C 
HETATM    3  C3  UNL     1     -33.548   7.806   2.004  1.00 20.00     0.036 C 
HETATM    4  C4  UNL     1     -32.147   8.309   1.659  1.00 20.00    -0.009 C 
HETATM    5  C5  UNL     1     -33.302   6.928   3.224  1.00 20.00     0.118 C 
ENDROOT
BRANCH   4   6
HETATM    6  C8  UNL     1     -32.154   9.505   0.721  1.00 20.00    -0.019 C 
HETATM    7  C6  UNL     1     -33.025   9.229  -0.506  1.00 20.00     0.010 C 
HETATM    8  C7  UNL     1     -32.641  10.762   1.445  1.00 20.00     0.010 C 
ENDBRANCH   4   6
BRANCH   5   9
HETATM    9  O9  UNL     1     -32.833   5.648   2.814  1.00 20.00    -0.396 OA
HETATM   10  H25 UNL     1     -33.574   5.211   2.366  1.00 20.00     0.210 HD
ENDBRANCH   5   9
TORSDOF 2
ENDMDL
MODEL 6
REMARK VINA RESULT:      -4.5      1.083      1.705
REMARK  2 active torsions:
REMARK  status: ('A' for Active; 'I' for Inactive)
REMARK    1  A    between atoms: C4_4  and  C8_8 
REMARK    2  A    between atoms: C5_5  and  O9_9 
ROOT
HETATM    1  C1  UNL     1     -33.522   6.539   2.337  1.00 20.00     0.007 C 
HETATM    2  C2  UNL     1     -32.716   7.803   2.019  1.00 20.00     0.032 C 
HETATM    3  C3  UNL     1     -33.131   7.687   4.402  1.00 20.00     0.036 C 
HETATM    4  C4  UNL     1     -33.318   6.282   3.831  1.00 20.00    -0.009 C 
HETATM    5  C5  UNL     1     -32.246   8.361   3.361  1.00 20.00     0.118 C 
ENDROOT
BRANCH   4   6
HETATM    6  C8  UNL     1     -34.469   5.524   4.471  1.00 20.00    -0.019 C 
HETATM    7  C6  UNL     1     -34.261   4.013   4.348  1.00 20.00     0.010 C 
HETATM    8  C7  UNL     1     -34.630   5.919   5.941  1.00 20.00     0.010 C 
ENDBRANCH   4   6
BRANCH   5   9
HETATM    9  O9  UNL     1     -30.887   7.987   3.565  1.00 20.00    -0.396 OA
HETATM   10  H25 UNL     1     -30.345   8.659   3.123  1.00 20.00     0.210 HD
ENDBRANCH   5   9
TORSDOF 2
ENDMDL
MODEL 7
REMARK VINA RESULT:      -4.3     11.683     12.401
REMARK  2 active torsions:
REMARK  status: ('A' for Active; 'I' for Inactive)
REMARK    1  A    between atoms: C4_4  and  C8_8 
REMARK    2  A    between atoms: C5_5  and  O9_9 
ROOT
HETATM    1  C1  UNL     1     -36.197  15.617  -3.881  1.00 20.00     0.007 C 
HETATM    2  C2  UNL     1     -36.955  14.744  -4.887  1.00 20.00     0.032 C 
HETATM    3  C3  UNL     1     -34.573  14.549  -5.278  1.00 20.00     0.036 C 
HETATM    4  C4  UNL     1     -34.767  15.077  -3.857  1.00 20.00    -0.009 C 
HETATM    5  C5  UNL     1     -35.905  13.871  -5.572  1.00 20.00     0.118 C 
ENDROOT
BRANCH   4   6
HETATM    6  C8  UNL     1     -33.738  16.123  -3.462  1.00 20.00    -0.019 C 
HETATM    7  C6  UNL     1     -33.537  17.141  -4.587  1.00 20.00     0.010 C 
HETATM    8  C7  UNL     1     -34.151  16.833  -2.171  1.00 20.00     0.010 C 
ENDBRANCH   4   6
BRANCH   5   9
HETATM    9  O9  UNL     1     -35.930  12.574  -4.985  1.00 20.00    -0.396 OA
HETATM   10  H25 UNL     1     -35.839  11.939  -5.712  1.00 20.00     0.210 HD
ENDBRANCH   5   9
TORSDOF 2
ENDMDL
MODEL 8
REMARK VINA RESULT:      -4.2     11.706     12.192
REMARK  2 active torsions:
REMARK  status: ('A' for Active; 'I' for Inactive)
REMARK    1  A    between atoms: C4_4  and  C8_8 
REMARK    2  A    between atoms: C5_5  and  O9_9 
ROOT
HETATM    1  C1  UNL     1     -35.518  15.339  -3.699  1.00 20.00     0.007 C 
HETATM    2  C2  UNL     1     -35.116  14.541  -4.944  1.00 20.00     0.032 C 
HETATM    3  C3  UNL     1     -33.348  16.094  -4.372  1.00 20.00     0.036 C 
HETATM    4  C4  UNL     1     -34.216  15.903  -3.129  1.00 20.00    -0.009 C 
HETATM    5  C5  UNL     1     -33.636  14.838  -5.184  1.00 20.00     0.118 C 
ENDROOT
BRANCH   4   6
HETATM    6  C8  UNL     1     -34.414  17.183  -2.335  1.00 20.00    -0.019 C 
HETATM    7  C6  UNL     1     -35.429  16.973  -1.209  1.00 20.00     0.010 C 
HETATM    8  C7  UNL     1     -33.084  17.682  -1.764  1.00 20.00     0.010 C 
ENDBRANCH   4   6
BRANCH   5   9
HETATM    9  O9  UNL     1     -32.862  13.751  -4.687  1.00 20.00    -0.396 OA
HETATM   10  H25 UNL     1     -33.125  13.624  -3.762  1.00 20.00     0.210 HD
ENDBRANCH   5   9
TORSDOF 2
ENDMDL
MODEL 9
REMARK VINA RESULT:      -4.0     11.833     12.539
REMARK  2 active torsions:
REMARK  status: ('A' for Active; 'I' for Inactive)
REMARK    1  A    between atoms: C4_4  and  C8_8 
REMARK    2  A    between atoms: C5_5  and  O9_9 
ROOT
HETATM    1  C1  UNL     1     -35.485  15.679  -3.776  1.00 20.00     0.007 C 
HETATM    2  C2  UNL     1     -35.491  15.133  -5.208  1.00 20.00     0.032 C 
HETATM    3  C3  UNL     1     -33.315  16.071  -4.709  1.00 20.00     0.036 C 
HETATM    4  C4  UNL     1     -34.012  15.786  -3.379  1.00 20.00    -0.009 C 
HETATM    5  C5  UNL     1     -34.037  15.141  -5.676  1.00 20.00     0.118 C 
ENDROOT
BRANCH   4   6
HETATM    6  C8  UNL     1     -33.751  16.851  -2.326  1.00 20.00    -0.019 C 
HETATM    7  C6  UNL     1     -33.403  18.189  -2.981  1.00 20.00     0.010 C 
HETATM    8  C7  UNL     1     -34.960  17.010  -1.402  1.00 20.00     0.010 C 
ENDBRANCH   4   6
BRANCH   5   9
HETATM    9  O9  UNL     1     -33.510  13.822  -5.565  1.00 20.00    -0.396 OA
HETATM   10  H25 UNL     1     -33.887  13.440  -4.758  1.00 20.00     0.210 HD
ENDBRANCH   5   9
TORSDOF 2
ENDMDL
