MODEL 1
REMARK VINA RESULT:      -5.7      0.000      0.000
REMARK  1 active torsions:
REMARK  status: ('A' for Active; 'I' for Inactive)
REMARK    1  A    between atoms: C1_1  and  C8_8 
ROOT
HETATM    1  C2  UNL     1     -34.624   4.528   4.665  1.00 20.00     0.000 C 
HETATM    2  C3  UNL     1     -33.523   4.394   3.619  1.00 20.00     0.001 C 
HETATM    3  C4  UNL     1     -34.307   5.650   5.648  1.00 20.00     0.006 C 
HETATM    4  C5  UNL     1     -33.440   5.645   2.748  1.00 20.00     0.019 C 
HETATM    5  C6  UNL     1     -34.658   7.591   3.928  1.00 20.00     0.025 A 
HETATM    6  C7  UNL     1     -33.852   6.918   4.996  1.00 20.00     0.004 A 
HETATM    7  C8  UNL     1     -33.340   6.921   3.562  1.00 20.00     0.040 A 
ENDROOT
BRANCH   7   8
HETATM    8  C1  UNL     1     -32.198   7.818   3.272  1.00 20.00     0.228 C 
HETATM    9  O9  UNL     1     -31.461   8.233   4.162  1.00 20.00    -0.279 OA
HETATM   10 CL10 UNL     1     -32.061   8.177   1.578  1.00 20.00    -0.043 Cl
ENDBRANCH   7   8
TORSDOF 1
ENDMDL
MODEL 2
REMARK VINA RESULT:      -5.4      1.549      2.319
REMARK  1 active torsions:
REMARK  status: ('A' for Active; 'I' for Inactive)
REMARK    1  A    between atoms: C1_1  and  C8_8 
ROOT
HETATM    1  C2  UNL     1     -34.696   5.768   5.459  1.00 20.00     0.000 C 
HETATM    2  C3  UNL     1     -34.046   7.130   5.671  1.00 20.00     0.001 C 
HETATM    3  C4  UNL     1     -35.214   5.629   4.031  1.00 20.00     0.006 C 
HETATM    4  C5  UNL     1     -32.800   7.284   4.803  1.00 20.00     0.019 C 
HETATM    5  C6  UNL     1     -32.848   5.520   2.919  1.00 20.00     0.025 A 
HETATM    6  C7  UNL     1     -34.238   6.071   2.985  1.00 20.00     0.004 A 
HETATM    7  C8  UNL     1     -33.061   6.968   3.342  1.00 20.00     0.040 A 
ENDROOT
BRANCH   7   8
HETATM    8  C1  UNL     1     -32.700   8.008   2.351  1.00 20.00     0.228 C 
HETATM    9  O9  UNL     1     -33.390   8.219   1.358  1.00 20.00    -0.279 OA
HETATM   10 CL10 UNL     1     -31.239   8.842   2.780  1.00 20.00    -0.043 Cl
ENDBRANCH   7   8
TORSDOF 1
ENDMDL
MODEL 3
REMARK VINA RESULT:      -5.3      1.210      1.210
REMARK  1 active torsions:
REMARK  status: ('A' for Active; 'I' for Inactive)
REMARK    1  A    between atoms: C1_1  and  C8_8 
ROOT
HETATM    1  C2  UNL     1     -34.662   4.650   5.022  1.00 20.00     0.000 C 
HETATM    2  C3  UNL     1     -33.740   4.366   3.842  1.00 20.00     0.001 C 
HETATM    3  C4  UNL     1     -34.162   5.845   5.827  1.00 20.00     0.006 C 
HETATM    4  C5  UNL     1     -33.754   5.521   2.845  1.00 20.00     0.019 C 
HETATM    5  C6  UNL     1     -34.714   7.626   3.991  1.00 20.00     0.025 A 
HETATM    6  C7  UNL     1     -33.774   7.022   4.988  1.00 20.00     0.004 A 
HETATM    7  C8  UNL     1     -33.489   6.864   3.500  1.00 20.00     0.040 A 
ENDROOT
BRANCH   7   8
HETATM    8  C1  UNL     1     -32.378   7.675   2.952  1.00 20.00     0.228 C 
HETATM    9  O9  UNL     1     -32.211   7.805   1.743  1.00 20.00    -0.279 OA
HETATM   10 CL10 UNL     1     -31.402   8.379   4.203  1.00 20.00    -0.043 Cl
ENDBRANCH   7   8
TORSDOF 1
ENDMDL
MODEL 4
REMARK VINA RESULT:      -5.0      2.629      3.812
REMARK  1 active torsions:
REMARK  status: ('A' for Active; 'I' for Inactive)
REMARK    1  A    between atoms: C1_1  and  C8_8 
ROOT
HETATM    1  C2  UNL     1     -32.568   8.131   2.968  1.00 20.00     0.000 C 
HETATM    2  C3  UNL     1     -32.428   7.928   4.473  1.00 20.00     0.001 C 
HETATM    3  C4  UNL     1     -32.755   6.796   2.255  1.00 20.00     0.006 C 
HETATM    4  C5  UNL     1     -33.712   7.359   5.071  1.00 20.00     0.019 C 
HETATM    5  C6  UNL     1     -35.160   6.353   3.185  1.00 20.00     0.025 A 
HETATM    6  C7  UNL     1     -33.762   5.898   2.902  1.00 20.00     0.004 A 
HETATM    7  C8  UNL     1     -34.199   6.120   4.343  1.00 20.00     0.040 A 
ENDROOT
BRANCH   7   8
HETATM    8  C1  UNL     1     -34.424   4.904   5.158  1.00 20.00     0.228 C 
HETATM    9  O9  UNL     1     -34.900   4.964   6.288  1.00 20.00    -0.279 OA
HETATM   10 CL10 UNL     1     -33.944   3.459   4.324  1.00 20.00    -0.043 Cl
ENDBRANCH   7   8
TORSDOF 1
ENDMDL
MODEL 5
REMARK VINA RESULT:      -4.5      2.406      3.504
REMARK  1 active torsions:
REMARK  status: ('A' for Active; 'I' for Inactive)
REMARK    1  A    between atoms: C1_1  and  C8_8 
ROOT
HETATM    1  C2  UNL     1     -33.078   8.364   5.039  1.00 20.00     0.000 C 
HETATM    2  C3  UNL     1     -33.490   7.196   5.927  1.00 20.00     0.001 C 
HETATM    3  C4  UNL     1     -32.282   7.875   3.834  1.00 20.00     0.006 C 
HETATM    4  C5  UNL     1     -34.451   6.263   5.195  1.00 20.00     0.019 C 
HETATM    5  C6  UNL     1     -34.306   6.707   2.657  1.00 20.00     0.025 A 
HETATM    6  C7  UNL     1     -32.889   6.695   3.142  1.00 20.00     0.004 A 
HETATM    7  C8  UNL     1     -33.926   5.827   3.840  1.00 20.00     0.040 A 
ENDROOT
BRANCH   7   8
HETATM    8  C1  UNL     1     -33.846   4.370   3.585  1.00 20.00     0.228 C 
HETATM    9  O9  UNL     1     -34.472   3.561   4.264  1.00 20.00    -0.279 OA
HETATM   10 CL10 UNL     1     -32.795   3.996   2.254  1.00 20.00    -0.043 Cl
ENDBRANCH   7   8
TORSDOF 1
ENDMDL
MODEL 6
REMARK VINA RESULT:      -4.4     11.978     12.569
REMARK  1 active torsions:
REMARK  status: ('A' for Active; 'I' for Inactive)
REMARK    1  A    between atoms: C1_1  and  C8_8 
ROOT
HETATM    1  C2  UNL     1     -33.716  16.593  -3.209  1.00 20.00     0.000 C 
HETATM    2  C3  UNL     1     -35.076  16.208  -2.638  1.00 20.00     0.001 C 
HETATM    3  C4  UNL     1     -33.132  15.452  -4.036  1.00 20.00     0.006 C 
HETATM    4  C5  UNL     1     -36.097  15.990  -3.752  1.00 20.00     0.019 C 
HETATM    5  C6  UNL     1     -34.859  15.654  -5.991  1.00 20.00     0.025 A 
HETATM    6  C7  UNL     1     -34.104  14.834  -4.991  1.00 20.00     0.004 A 
HETATM    7  C8  UNL     1     -35.604  15.031  -4.819  1.00 20.00     0.040 A 
ENDROOT
BRANCH   7   8
HETATM    8  C1  UNL     1     -36.462  13.862  -5.123  1.00 20.00     0.228 C 
HETATM    9  O9  UNL     1     -35.995  12.732  -5.236  1.00 20.00    -0.279 OA
HETATM   10 CL10 UNL     1     -38.133  14.302  -5.286  1.00 20.00    -0.043 Cl
ENDBRANCH   7   8
TORSDOF 1
ENDMDL
MODEL 7
REMARK VINA RESULT:      -4.2      1.689      2.097
REMARK  1 active torsions:
REMARK  status: ('A' for Active; 'I' for Inactive)
REMARK    1  A    between atoms: C1_1  and  C8_8 
ROOT
HETATM    1  C2  UNL     1     -34.862   6.083   6.401  1.00 20.00     0.000 C 
HETATM    2  C3  UNL     1     -34.499   4.770   5.717  1.00 20.00     0.001 C 
HETATM    3  C4  UNL     1     -33.865   7.179   6.038  1.00 20.00     0.006 C 
HETATM    4  C5  UNL     1     -34.612   4.893   4.200  1.00 20.00     0.019 C 
HETATM    5  C6  UNL     1     -34.628   7.389   3.544  1.00 20.00     0.025 A 
HETATM    6  C7  UNL     1     -33.552   7.255   4.576  1.00 20.00     0.004 A 
HETATM    7  C8  UNL     1     -33.851   6.084   3.650  1.00 20.00     0.040 A 
ENDROOT
BRANCH   7   8
HETATM    8  C1  UNL     1     -32.856   5.816   2.585  1.00 20.00     0.228 C 
HETATM    9  O9  UNL     1     -32.752   4.709   2.064  1.00 20.00    -0.279 OA
HETATM   10 CL10 UNL     1     -31.911   7.222   2.203  1.00 20.00    -0.043 Cl
ENDBRANCH   7   8
TORSDOF 1
ENDMDL
MODEL 8
REMARK VINA RESULT:      -4.2     11.645     12.749
REMARK  1 active torsions:
REMARK  status: ('A' for Active; 'I' for Inactive)
REMARK    1  A    between atoms: C1_1  and  C8_8 
ROOT
HETATM    1  C2  UNL     1     -34.329  17.317  -3.931  1.00 20.00     0.000 C 
HETATM    2  C3  UNL     1     -35.041  17.194  -5.273  1.00 20.00     0.001 C 
HETATM    3  C4  UNL     1     -34.621  16.108  -3.048  1.00 20.00     0.006 C 
HETATM    4  C5  UNL     1     -34.506  16.007  -6.070  1.00 20.00     0.019 C 
HETATM    5  C6  UNL     1     -33.240  14.412  -4.484  1.00 20.00     0.025 A 
HETATM    6  C7  UNL     1     -34.490  14.795  -3.752  1.00 20.00     0.004 A 
HETATM    7  C8  UNL     1     -34.507  14.716  -5.273  1.00 20.00     0.040 A 
ENDROOT
BRANCH   7   8
HETATM    8  C1  UNL     1     -35.214  13.558  -5.865  1.00 20.00     0.228 C 
HETATM    9  O9  UNL     1     -35.962  12.849  -5.198  1.00 20.00    -0.279 OA
HETATM   10 CL10 UNL     1     -34.851  13.362  -7.552  1.00 20.00    -0.043 Cl
ENDBRANCH   7   8
TORSDOF 1
ENDMDL
MODEL 9
REMARK VINA RESULT:      -4.2     11.623     12.320
REMARK  1 active torsions:
REMARK  status: ('A' for Active; 'I' for Inactive)
REMARK    1  A    between atoms: C1_1  and  C8_8 
ROOT
HETATM    1  C2  UNL     1     -34.430  17.922  -1.349  1.00 20.00     0.000 C 
HETATM    2  C3  UNL     1     -35.578  16.921  -1.284  1.00 20.00     0.001 C 
HETATM    3  C4  UNL     1     -33.183  17.280  -1.947  1.00 20.00     0.006 C 
HETATM    4  C5  UNL     1     -36.010  16.491  -2.683  1.00 20.00     0.019 C 
HETATM    5  C6  UNL     1     -34.146  17.075  -4.371  1.00 20.00     0.025 A 
HETATM    6  C7  UNL     1     -33.443  16.485  -3.188  1.00 20.00     0.004 A 
HETATM    7  C8  UNL     1     -34.849  16.013  -3.535  1.00 20.00     0.040 A 
ENDROOT
BRANCH   7   8
HETATM    8  C1  UNL     1     -34.961  14.664  -4.135  1.00 20.00     0.228 C 
HETATM    9  O9  UNL     1     -34.042  13.853  -4.076  1.00 20.00    -0.279 OA
HETATM   10 CL10 UNL     1     -36.504  14.411  -4.891  1.00 20.00    -0.043 Cl
ENDBRANCH   7   8
TORSDOF 1
ENDMDL
