MODEL 1
REMARK VINA RESULT:      -4.6      0.000      0.000
REMARK  2 active torsions:
REMARK  status: ('A' for Active; 'I' for Inactive)
REMARK    1  A    between atoms: C2_2  and  C5_5 
REMARK    2  A    between atoms: C9_9  and  N10_10 
ROOT
HETATM    1  C3  UNL     1     -33.451   7.981   5.636  1.00 20.00     0.070 C 
HETATM    2  C4  UNL     1     -34.035   6.566   5.824  1.00 20.00     0.277 C 
HETATM    3  C5  UNL     1     -33.281   7.561   4.156  1.00 20.00     0.247 C 
HETATM    4  N10 UNL     1     -33.243   6.151   4.637  1.00 20.00     0.105 N 
ENDROOT
BRANCH   4   5
HETATM    5  C9  UNL     1     -34.041   5.286   3.772  1.00 20.00     0.150 C 
HETATM    6  C6  UNL     1     -35.280   6.052   3.294  1.00 20.00     0.048 C 
HETATM    7  C7  UNL     1     -33.194   4.866   2.567  1.00 20.00     0.048 C 
HETATM    8  C8  UNL     1     -34.476   4.045   4.559  1.00 20.00     0.048 C 
ENDBRANCH   4   5
BRANCH   3   9
HETATM    9  C2  UNL     1     -32.010   7.952   3.519  1.00 20.00    -0.002 C 
HETATM   10  C1  UNL     1     -31.909   8.396   2.262  1.00 20.00     0.009 C 
ENDBRANCH   3   9
TORSDOF 2
ENDMDL
MODEL 2
REMARK VINA RESULT:      -4.6      0.008      1.370
REMARK  2 active torsions:
REMARK  status: ('A' for Active; 'I' for Inactive)
REMARK    1  A    between atoms: C2_2  and  C5_5 
REMARK    2  A    between atoms: C9_9  and  N10_10 
ROOT
HETATM    1  C3  UNL     1     -33.452   7.978   5.635  1.00 20.00     0.070 C 
HETATM    2  C4  UNL     1     -34.034   6.563   5.824  1.00 20.00     0.277 C 
HETATM    3  C5  UNL     1     -33.284   7.559   4.155  1.00 20.00     0.247 C 
HETATM    4  N10 UNL     1     -33.243   6.150   4.635  1.00 20.00     0.105 N 
ENDROOT
BRANCH   4   5
HETATM    5  C9  UNL     1     -34.041   5.283   3.771  1.00 20.00     0.150 C 
HETATM    6  C6  UNL     1     -33.202   4.866   2.558  1.00 20.00     0.048 C 
HETATM    7  C7  UNL     1     -34.462   4.040   4.562  1.00 20.00     0.048 C 
HETATM    8  C8  UNL     1     -35.284   6.045   3.300  1.00 20.00     0.048 C 
ENDBRANCH   4   5
BRANCH   3   9
HETATM    9  C2  UNL     1     -32.015   7.953   3.516  1.00 20.00    -0.002 C 
HETATM   10  C1  UNL     1     -31.915   8.387   2.255  1.00 20.00     0.009 C 
ENDBRANCH   3   9
TORSDOF 2
ENDMDL
MODEL 3
REMARK VINA RESULT:      -3.6     11.655     12.566
REMARK  2 active torsions:
REMARK  status: ('A' for Active; 'I' for Inactive)
REMARK    1  A    between atoms: C2_2  and  C5_5 
REMARK    2  A    between atoms: C9_9  and  N10_10 
ROOT
HETATM    1  C3  UNL     1     -36.602  16.438  -3.568  1.00 20.00     0.070 C 
HETATM    2  C4  UNL     1     -36.310  15.357  -4.628  1.00 20.00     0.277 C 
HETATM    3  C5  UNL     1     -35.063  16.546  -3.456  1.00 20.00     0.247 C 
HETATM    4  N10 UNL     1     -35.002  15.143  -3.954  1.00 20.00     0.105 N 
ENDROOT
BRANCH   4   5
HETATM    5  C9  UNL     1     -33.941  14.990  -4.946  1.00 20.00     0.150 C 
HETATM    6  C6  UNL     1     -33.532  16.371  -5.469  1.00 20.00     0.048 C 
HETATM    7  C7  UNL     1     -32.736  14.308  -4.288  1.00 20.00     0.048 C 
HETATM    8  C8  UNL     1     -34.452  14.131  -6.107  1.00 20.00     0.048 C 
ENDBRANCH   4   5
BRANCH   3   9
HETATM    9  C2  UNL     1     -34.524  16.661  -2.089  1.00 20.00    -0.002 C 
HETATM   10  C1  UNL     1     -33.455  17.396  -1.766  1.00 20.00     0.009 C 
ENDBRANCH   3   9
TORSDOF 2
ENDMDL
MODEL 4
REMARK VINA RESULT:      -3.5     11.804     13.023
REMARK  2 active torsions:
REMARK  status: ('A' for Active; 'I' for Inactive)
REMARK    1  A    between atoms: C2_2  and  C5_5 
REMARK    2  A    between atoms: C9_9  and  N10_10 
ROOT
HETATM    1  C3  UNL     1     -33.712  17.913  -4.625  1.00 20.00     0.070 C 
HETATM    2  C4  UNL     1     -33.698  16.957  -5.835  1.00 20.00     0.277 C 
HETATM    3  C5  UNL     1     -34.163  16.668  -3.824  1.00 20.00     0.247 C 
HETATM    4  N10 UNL     1     -34.694  16.127  -5.107  1.00 20.00     0.105 N 
ENDROOT
BRANCH   4   5
HETATM    5  C9  UNL     1     -34.369  14.710  -5.245  1.00 20.00     0.150 C 
HETATM    6  C6  UNL     1     -33.113  14.395  -4.427  1.00 20.00     0.048 C 
HETATM    7  C7  UNL     1     -35.546  13.875  -4.729  1.00 20.00     0.048 C 
HETATM    8  C8  UNL     1     -34.114  14.390  -6.722  1.00 20.00     0.048 C 
ENDBRANCH   4   5
BRANCH   3   9
HETATM    9  C2  UNL     1     -35.240  16.892  -2.842  1.00 20.00    -0.002 C 
HETATM   10  C1  UNL     1     -35.079  16.784  -1.519  1.00 20.00     0.009 C 
ENDBRANCH   3   9
TORSDOF 2
ENDMDL
MODEL 5
REMARK VINA RESULT:      -3.5     11.793     13.072
REMARK  2 active torsions:
REMARK  status: ('A' for Active; 'I' for Inactive)
REMARK    1  A    between atoms: C2_2  and  C5_5 
REMARK    2  A    between atoms: C9_9  and  N10_10 
ROOT
HETATM    1  C3  UNL     1     -36.970  14.077  -5.466  1.00 20.00     0.070 C 
HETATM    2  C4  UNL     1     -36.620  15.011  -4.291  1.00 20.00     0.277 C 
HETATM    3  C5  UNL     1     -35.485  14.253  -5.864  1.00 20.00     0.247 C 
HETATM    4  N10 UNL     1     -35.518  15.549  -5.131  1.00 20.00     0.105 N 
ENDROOT
BRANCH   4   5
HETATM    5  C9  UNL     1     -34.309  15.724  -4.330  1.00 20.00     0.150 C 
HETATM    6  C6  UNL     1     -33.565  14.387  -4.238  1.00 20.00     0.048 C 
HETATM    7  C7  UNL     1     -33.413  16.770  -5.000  1.00 20.00     0.048 C 
HETATM    8  C8  UNL     1     -34.697  16.195  -2.924  1.00 20.00     0.048 C 
ENDBRANCH   4   5
BRANCH   3   9
HETATM    9  C2  UNL     1     -35.224  14.448  -7.302  1.00 20.00    -0.002 C 
HETATM   10  C1  UNL     1     -34.100  14.067  -7.917  1.00 20.00     0.009 C 
ENDBRANCH   3   9
TORSDOF 2
ENDMDL
MODEL 6
REMARK VINA RESULT:      -3.5     11.859     12.971
REMARK  2 active torsions:
REMARK  status: ('A' for Active; 'I' for Inactive)
REMARK    1  A    between atoms: C2_2  and  C5_5 
REMARK    2  A    between atoms: C9_9  and  N10_10 
ROOT
HETATM    1  C3  UNL     1     -33.362  14.462  -4.327  1.00 20.00     0.070 C 
HETATM    2  C4  UNL     1     -34.086  14.531  -5.686  1.00 20.00     0.277 C 
HETATM    3  C5  UNL     1     -34.577  15.261  -3.797  1.00 20.00     0.247 C 
HETATM    4  N10 UNL     1     -34.764  15.757  -5.190  1.00 20.00     0.105 N 
ENDROOT
BRANCH   4   5
HETATM    5  C9  UNL     1     -36.177  15.740  -5.561  1.00 20.00     0.150 C 
HETATM    6  C6  UNL     1     -36.802  17.102  -5.238  1.00 20.00     0.048 C 
HETATM    7  C7  UNL     1     -36.296  15.460  -7.063  1.00 20.00     0.048 C 
HETATM    8  C8  UNL     1     -36.896  14.643  -4.769  1.00 20.00     0.048 C 
ENDBRANCH   4   5
BRANCH   3   9
HETATM    9  C2  UNL     1     -34.267  16.360  -2.865  1.00 20.00    -0.002 C 
HETATM   10  C1  UNL     1     -35.036  16.698  -1.825  1.00 20.00     0.009 C 
ENDBRANCH   3   9
TORSDOF 2
ENDMDL
MODEL 7
REMARK VINA RESULT:      -3.4     11.800     13.733
REMARK  2 active torsions:
REMARK  status: ('A' for Active; 'I' for Inactive)
REMARK    1  A    between atoms: C2_2  and  C5_5 
REMARK    2  A    between atoms: C9_9  and  N10_10 
ROOT
HETATM    1  C3  UNL     1     -34.184  17.685  -6.874  1.00 20.00     0.070 C 
HETATM    2  C4  UNL     1     -33.827  17.778  -5.377  1.00 20.00     0.277 C 
HETATM    3  C5  UNL     1     -34.317  16.167  -6.603  1.00 20.00     0.247 C 
HETATM    4  N10 UNL     1     -33.381  16.363  -5.462  1.00 20.00     0.105 N 
ENDROOT
BRANCH   4   5
HETATM    5  C9  UNL     1     -33.830  15.619  -4.288  1.00 20.00     0.150 C 
HETATM    6  C6  UNL     1     -35.320  15.290  -4.436  1.00 20.00     0.048 C 
HETATM    7  C7  UNL     1     -33.022  14.322  -4.178  1.00 20.00     0.048 C 
HETATM    8  C8  UNL     1     -33.614  16.473  -3.034  1.00 20.00     0.048 C 
ENDBRANCH   4   5
BRANCH   3   9
HETATM    9  C2  UNL     1     -33.744  15.278  -7.630  1.00 20.00    -0.002 C 
HETATM   10  C1  UNL     1     -34.207  14.054  -7.903  1.00 20.00     0.009 C 
ENDBRANCH   3   9
TORSDOF 2
ENDMDL
MODEL 8
REMARK VINA RESULT:      -3.4     11.673     13.620
REMARK  2 active torsions:
REMARK  status: ('A' for Active; 'I' for Inactive)
REMARK    1  A    between atoms: C2_2  and  C5_5 
REMARK    2  A    between atoms: C9_9  and  N10_10 
ROOT
HETATM    1  C3  UNL     1     -34.425  14.249  -4.114  1.00 20.00     0.070 C 
HETATM    2  C4  UNL     1     -34.052  14.680  -5.546  1.00 20.00     0.277 C 
HETATM    3  C5  UNL     1     -34.755  15.746  -3.900  1.00 20.00     0.247 C 
HETATM    4  N10 UNL     1     -33.795  16.039  -5.001  1.00 20.00     0.105 N 
ENDROOT
BRANCH   4   5
HETATM    5  C9  UNL     1     -34.333  17.056  -5.901  1.00 20.00     0.150 C 
HETATM    6  C6  UNL     1     -35.864  17.010  -5.861  1.00 20.00     0.048 C 
HETATM    7  C7  UNL     1     -33.845  18.436  -5.445  1.00 20.00     0.048 C 
HETATM    8  C8  UNL     1     -33.847  16.779  -7.327  1.00 20.00     0.048 C 
ENDBRANCH   4   5
BRANCH   3   9
HETATM    9  C2  UNL     1     -34.308  16.326  -2.620  1.00 20.00    -0.002 C 
HETATM   10  C1  UNL     1     -35.133  16.844  -1.705  1.00 20.00     0.009 C 
ENDBRANCH   3   9
TORSDOF 2
ENDMDL
MODEL 9
REMARK VINA RESULT:      -3.3      1.044      2.651
REMARK  2 active torsions:
REMARK  status: ('A' for Active; 'I' for Inactive)
REMARK    1  A    between atoms: C2_2  and  C5_5 
REMARK    2  A    between atoms: C9_9  and  N10_10 
ROOT
HETATM    1  C3  UNL     1     -34.856   4.735   5.767  1.00 20.00     0.070 C 
HETATM    2  C4  UNL     1     -34.312   4.127   4.458  1.00 20.00     0.277 C 
HETATM    3  C5  UNL     1     -34.442   6.090   5.145  1.00 20.00     0.247 C 
HETATM    4  N10 UNL     1     -33.448   5.331   4.335  1.00 20.00     0.105 N 
ENDROOT
BRANCH   4   5
HETATM    5  C9  UNL     1     -33.434   5.805   2.954  1.00 20.00     0.150 C 
HETATM    6  C6  UNL     1     -32.435   6.960   2.824  1.00 20.00     0.048 C 
HETATM    7  C7  UNL     1     -33.016   4.653   2.034  1.00 20.00     0.048 C 
HETATM    8  C8  UNL     1     -34.836   6.292   2.571  1.00 20.00     0.048 C 
ENDBRANCH   4   5
BRANCH   3   9
HETATM    9  C2  UNL     1     -33.785   7.042   6.059  1.00 20.00    -0.002 C 
HETATM   10  C1  UNL     1     -33.423   8.282   5.714  1.00 20.00     0.009 C 
ENDBRANCH   3   9
TORSDOF 2
ENDMDL
