MODEL 1
REMARK VINA RESULT:      -4.2      0.000      0.000
REMARK  4 active torsions:
REMARK  status: ('A' for Active; 'I' for Inactive)
REMARK    1  A    between atoms: C1_1  and  C7_7 
REMARK    2  A    between atoms: C1_1  and  C8_8 
REMARK    3  A    between atoms: C7_7  and  O10_10 
REMARK    4  A    between atoms: C7_7  and  O11_11 
ROOT
HETATM    1  C1  UNL     1     -35.104  14.367  -4.469  1.00 20.00     0.188 C 
HETATM    2  O9  UNL     1     -34.414  13.511  -3.911  1.00 20.00    -0.292 OA
ENDROOT
BRANCH   1   3
HETATM    3  C7  UNL     1     -36.155  13.954  -5.496  1.00 20.00     0.330 C 
BRANCH   3   4
HETATM    4  O10 UNL     1     -35.611  12.777  -6.094  1.00 20.00    -0.359 OA
HETATM    5  C5  UNL     1     -35.049  13.037  -7.373  1.00 20.00     0.205 C 
ENDBRANCH   3   4
BRANCH   3   6
HETATM    6  O11 UNL     1     -37.381  13.675  -4.828  1.00 20.00    -0.359 OA
HETATM    7  C6  UNL     1     -38.418  14.575  -5.194  1.00 20.00     0.205 C 
ENDBRANCH   3   6
ENDBRANCH   1   3
BRANCH   1   8
HETATM    8  C8  UNL     1     -34.966  15.865  -4.116  1.00 20.00     0.015 C 
HETATM    9  C2  UNL     1     -33.516  16.135  -3.690  1.00 20.00     0.023 C 
HETATM   10  C3  UNL     1     -35.285  16.713  -5.360  1.00 20.00     0.023 C 
HETATM   11  C4  UNL     1     -35.930  16.271  -2.995  1.00 20.00     0.023 C 
ENDBRANCH   1   8
TORSDOF 4
ENDMDL
MODEL 2
REMARK VINA RESULT:      -3.8     10.962     12.113
REMARK  4 active torsions:
REMARK  status: ('A' for Active; 'I' for Inactive)
REMARK    1  A    between atoms: C1_1  and  C7_7 
REMARK    2  A    between atoms: C1_1  and  C8_8 
REMARK    3  A    between atoms: C7_7  and  O10_10 
REMARK    4  A    between atoms: C7_7  and  O11_11 
ROOT
HETATM    1  C1  UNL     1     -33.270   6.126   3.177  1.00 20.00     0.188 C 
HETATM    2  O9  UNL     1     -32.703   5.230   2.545  1.00 20.00    -0.292 OA
ENDROOT
BRANCH   1   3
HETATM    3  C7  UNL     1     -32.945   7.589   2.890  1.00 20.00     0.330 C 
BRANCH   3   4
HETATM    4  O10 UNL     1     -31.589   7.733   3.316  1.00 20.00    -0.359 OA
HETATM    5  C5  UNL     1     -31.448   8.716   4.332  1.00 20.00     0.205 C 
ENDBRANCH   3   4
BRANCH   3   6
HETATM    6  O11 UNL     1     -33.077   7.836   1.495  1.00 20.00    -0.359 OA
HETATM    7  C6  UNL     1     -32.458   9.052   1.096  1.00 20.00     0.205 C 
ENDBRANCH   3   6
ENDBRANCH   1   3
BRANCH   1   8
HETATM    8  C8  UNL     1     -34.352   5.803   4.231  1.00 20.00     0.015 C 
HETATM    9  C2  UNL     1     -35.727   6.145   3.641  1.00 20.00     0.023 C 
HETATM   10  C3  UNL     1     -34.312   4.298   4.557  1.00 20.00     0.023 C 
HETATM   11  C4  UNL     1     -34.125   6.583   5.531  1.00 20.00     0.023 C 
ENDBRANCH   1   8
TORSDOF 4
ENDMDL
MODEL 3
REMARK VINA RESULT:      -3.8      1.417      3.070
REMARK  4 active torsions:
REMARK  status: ('A' for Active; 'I' for Inactive)
REMARK    1  A    between atoms: C1_1  and  C7_7 
REMARK    2  A    between atoms: C1_1  and  C8_8 
REMARK    3  A    between atoms: C7_7  and  O10_10 
REMARK    4  A    between atoms: C7_7  and  O11_11 
ROOT
HETATM    1  C1  UNL     1     -35.931  13.976  -5.474  1.00 20.00     0.188 C 
HETATM    2  O9  UNL     1     -35.964  12.775  -5.193  1.00 20.00    -0.292 OA
ENDROOT
BRANCH   1   3
HETATM    3  C7  UNL     1     -37.004  14.918  -4.935  1.00 20.00     0.330 C 
BRANCH   3   4
HETATM    4  O10 UNL     1     -38.177  14.107  -4.873  1.00 20.00    -0.359 OA
HETATM    5  C5  UNL     1     -39.341  14.817  -5.276  1.00 20.00     0.205 C 
ENDBRANCH   3   4
BRANCH   3   6
HETATM    6  O11 UNL     1     -36.622  15.375  -3.642  1.00 20.00    -0.359 OA
HETATM    7  C6  UNL     1     -36.410  16.780  -3.601  1.00 20.00     0.205 C 
ENDBRANCH   3   6
ENDBRANCH   1   3
BRANCH   1   8
HETATM    8  C8  UNL     1     -34.788  14.569  -6.327  1.00 20.00     0.015 C 
HETATM    9  C2  UNL     1     -33.579  14.822  -5.416  1.00 20.00     0.023 C 
HETATM   10  C3  UNL     1     -34.387  13.556  -7.416  1.00 20.00     0.023 C 
HETATM   11  C4  UNL     1     -35.215  15.872  -7.015  1.00 20.00     0.023 C 
ENDBRANCH   1   8
TORSDOF 4
ENDMDL
MODEL 4
REMARK VINA RESULT:      -3.8      1.461      1.532
REMARK  4 active torsions:
REMARK  status: ('A' for Active; 'I' for Inactive)
REMARK    1  A    between atoms: C1_1  and  C7_7 
REMARK    2  A    between atoms: C1_1  and  C8_8 
REMARK    3  A    between atoms: C7_7  and  O10_10 
REMARK    4  A    between atoms: C7_7  and  O11_11 
ROOT
HETATM    1  C1  UNL     1     -35.538  14.098  -5.049  1.00 20.00     0.188 C 
HETATM    2  O9  UNL     1     -35.365  12.880  -4.957  1.00 20.00    -0.292 OA
ENDROOT
BRANCH   1   3
HETATM    3  C7  UNL     1     -36.845  14.645  -5.617  1.00 20.00     0.330 C 
BRANCH   3   4
HETATM    4  O10 UNL     1     -36.885  14.131  -6.948  1.00 20.00    -0.359 OA
HETATM    5  C5  UNL     1     -37.017  15.163  -7.917  1.00 20.00     0.205 C 
ENDBRANCH   3   4
BRANCH   3   6
HETATM    6  O11 UNL     1     -37.935  14.159  -4.842  1.00 20.00    -0.359 OA
HETATM    7  C6  UNL     1     -38.941  15.142  -4.639  1.00 20.00     0.205 C 
ENDBRANCH   3   6
ENDBRANCH   1   3
BRANCH   1   8
HETATM    8  C8  UNL     1     -34.473  15.099  -4.549  1.00 20.00     0.015 C 
HETATM    9  C2  UNL     1     -33.154  14.344  -4.335  1.00 20.00     0.023 C 
HETATM   10  C3  UNL     1     -34.256  16.186  -5.618  1.00 20.00     0.023 C 
HETATM   11  C4  UNL     1     -34.908  15.784  -3.248  1.00 20.00     0.023 C 
ENDBRANCH   1   8
TORSDOF 4
ENDMDL
MODEL 5
REMARK VINA RESULT:      -3.4      1.355      2.773
REMARK  4 active torsions:
REMARK  status: ('A' for Active; 'I' for Inactive)
REMARK    1  A    between atoms: C1_1  and  C7_7 
REMARK    2  A    between atoms: C1_1  and  C8_8 
REMARK    3  A    between atoms: C7_7  and  O10_10 
REMARK    4  A    between atoms: C7_7  and  O11_11 
ROOT
HETATM    1  C1  UNL     1     -35.232  15.174  -5.524  1.00 20.00     0.188 C 
HETATM    2  O9  UNL     1     -35.384  15.774  -6.591  1.00 20.00    -0.292 OA
ENDROOT
BRANCH   1   3
HETATM    3  C7  UNL     1     -36.068  13.936  -5.215  1.00 20.00     0.330 C 
BRANCH   3   4
HETATM    4  O10 UNL     1     -37.299  14.170  -5.900  1.00 20.00    -0.359 OA
HETATM    5  C5  UNL     1     -38.323  14.621  -5.023  1.00 20.00     0.205 C 
ENDBRANCH   3   4
BRANCH   3   6
HETATM    6  O11 UNL     1     -35.407  12.782  -5.721  1.00 20.00    -0.359 OA
HETATM    7  C6  UNL     1     -35.318  12.783  -7.139  1.00 20.00     0.205 C 
ENDBRANCH   3   6
ENDBRANCH   1   3
BRANCH   1   8
HETATM    8  C8  UNL     1     -34.165  15.619  -4.499  1.00 20.00     0.015 C 
HETATM    9  C2  UNL     1     -34.844  15.805  -3.135  1.00 20.00     0.023 C 
HETATM   10  C3  UNL     1     -33.090  14.523  -4.375  1.00 20.00     0.023 C 
HETATM   11  C4  UNL     1     -33.478  16.921  -4.929  1.00 20.00     0.023 C 
ENDBRANCH   1   8
TORSDOF 4
ENDMDL
MODEL 6
REMARK VINA RESULT:      -3.3      9.770     10.692
REMARK  4 active torsions:
REMARK  status: ('A' for Active; 'I' for Inactive)
REMARK    1  A    between atoms: C1_1  and  C7_7 
REMARK    2  A    between atoms: C1_1  and  C8_8 
REMARK    3  A    between atoms: C7_7  and  O10_10 
REMARK    4  A    between atoms: C7_7  and  O11_11 
ROOT
HETATM    1  C1  UNL     1     -32.230   8.189   2.538  1.00 20.00     0.188 C 
HETATM    2  O9  UNL     1     -31.311   8.387   3.337  1.00 20.00    -0.292 OA
ENDROOT
BRANCH   1   3
HETATM    3  C7  UNL     1     -33.336   7.193   2.874  1.00 20.00     0.330 C 
BRANCH   3   4
HETATM    4  O10 UNL     1     -32.633   6.005   3.237  1.00 20.00    -0.359 OA
HETATM    5  C5  UNL     1     -33.091   4.869   2.516  1.00 20.00     0.205 C 
ENDBRANCH   3   4
BRANCH   3   6
HETATM    6  O11 UNL     1     -34.104   7.693   3.964  1.00 20.00    -0.359 OA
HETATM    7  C6  UNL     1     -33.774   7.065   5.196  1.00 20.00     0.205 C 
ENDBRANCH   3   6
ENDBRANCH   1   3
BRANCH   1   8
HETATM    8  C8  UNL     1     -32.320   8.971   1.209  1.00 20.00     0.015 C 
HETATM    9  C2  UNL     1     -31.000   8.792   0.445  1.00 20.00     0.023 C 
HETATM   10  C3  UNL     1     -33.468   8.398   0.357  1.00 20.00     0.023 C 
HETATM   11  C4  UNL     1     -32.594  10.461   1.448  1.00 20.00     0.023 C 
ENDBRANCH   1   8
TORSDOF 4
ENDMDL
MODEL 7
REMARK VINA RESULT:      -3.3      1.623      2.713
REMARK  4 active torsions:
REMARK  status: ('A' for Active; 'I' for Inactive)
REMARK    1  A    between atoms: C1_1  and  C7_7 
REMARK    2  A    between atoms: C1_1  and  C8_8 
REMARK    3  A    between atoms: C7_7  and  O10_10 
REMARK    4  A    between atoms: C7_7  and  O11_11 
ROOT
HETATM    1  C1  UNL     1     -35.852  15.721  -4.883  1.00 20.00     0.188 C 
HETATM    2  O9  UNL     1     -36.264  16.830  -5.233  1.00 20.00    -0.292 OA
ENDROOT
BRANCH   1   3
HETATM    3  C7  UNL     1     -36.683  14.472  -5.164  1.00 20.00     0.330 C 
BRANCH   3   4
HETATM    4  O10 UNL     1     -37.855  14.650  -4.368  1.00 20.00    -0.359 OA
HETATM    5  C5  UNL     1     -39.031  14.750  -5.161  1.00 20.00     0.205 C 
ENDBRANCH   3   4
BRANCH   3   6
HETATM    6  O11 UNL     1     -37.002  14.420  -6.550  1.00 20.00    -0.359 OA
HETATM    7  C6  UNL     1     -35.939  13.897  -7.334  1.00 20.00     0.205 C 
ENDBRANCH   3   6
ENDBRANCH   1   3
BRANCH   1   8
HETATM    8  C8  UNL     1     -34.475  15.555  -4.203  1.00 20.00     0.015 C 
HETATM    9  C2  UNL     1     -34.190  14.056  -4.035  1.00 20.00     0.023 C 
HETATM   10  C3  UNL     1     -33.387  16.171  -5.101  1.00 20.00     0.023 C 
HETATM   11  C4  UNL     1     -34.430  16.257  -2.840  1.00 20.00     0.023 C 
ENDBRANCH   1   8
TORSDOF 4
ENDMDL
MODEL 8
REMARK VINA RESULT:      -3.3      1.268      3.085
REMARK  4 active torsions:
REMARK  status: ('A' for Active; 'I' for Inactive)
REMARK    1  A    between atoms: C1_1  and  C7_7 
REMARK    2  A    between atoms: C1_1  and  C8_8 
REMARK    3  A    between atoms: C7_7  and  O10_10 
REMARK    4  A    between atoms: C7_7  and  O11_11 
ROOT
HETATM    1  C1  UNL     1     -37.077  14.598  -5.172  1.00 20.00     0.188 C 
HETATM    2  O9  UNL     1     -37.908  13.727  -4.904  1.00 20.00    -0.292 OA
ENDROOT
BRANCH   1   3
HETATM    3  C7  UNL     1     -35.613  14.221  -5.383  1.00 20.00     0.330 C 
BRANCH   3   4
HETATM    4  O10 UNL     1     -35.051  14.272  -4.071  1.00 20.00    -0.359 OA
HETATM    5  C5  UNL     1     -33.798  14.943  -4.050  1.00 20.00     0.205 C 
ENDBRANCH   3   4
BRANCH   3   6
HETATM    6  O11 UNL     1     -35.538  12.908  -5.927  1.00 20.00    -0.359 OA
HETATM    7  C6  UNL     1     -35.136  12.905  -7.290  1.00 20.00     0.205 C 
ENDBRANCH   3   6
ENDBRANCH   1   3
BRANCH   1   8
HETATM    8  C8  UNL     1     -37.493  16.075  -5.354  1.00 20.00     0.015 C 
HETATM    9  C2  UNL     1     -36.400  16.796  -6.156  1.00 20.00     0.023 C 
HETATM   10  C3  UNL     1     -38.813  16.138  -6.144  1.00 20.00     0.023 C 
HETATM   11  C4  UNL     1     -37.705  16.772  -4.004  1.00 20.00     0.023 C 
ENDBRANCH   1   8
TORSDOF 4
ENDMDL
MODEL 9
REMARK VINA RESULT:      -3.2      1.989      4.153
REMARK  4 active torsions:
REMARK  status: ('A' for Active; 'I' for Inactive)
REMARK    1  A    between atoms: C1_1  and  C7_7 
REMARK    2  A    between atoms: C1_1  and  C8_8 
REMARK    3  A    between atoms: C7_7  and  O10_10 
REMARK    4  A    between atoms: C7_7  and  O11_11 
ROOT
HETATM    1  C1  UNL     1     -34.159  14.797  -4.886  1.00 20.00     0.188 C 
HETATM    2  O9  UNL     1     -33.241  14.054  -4.525  1.00 20.00    -0.292 OA
ENDROOT
BRANCH   1   3
HETATM    3  C7  UNL     1     -34.296  16.192  -4.284  1.00 20.00     0.330 C 
BRANCH   3   4
HETATM    4  O10 UNL     1     -34.183  15.975  -2.877  1.00 20.00    -0.359 OA
HETATM    5  C5  UNL     1     -35.215  16.627  -2.150  1.00 20.00     0.205 C 
ENDBRANCH   3   4
BRANCH   3   6
HETATM    6  O11 UNL     1     -33.241  17.018  -4.766  1.00 20.00    -0.359 OA
HETATM    7  C6  UNL     1     -33.702  18.289  -5.206  1.00 20.00     0.205 C 
ENDBRANCH   3   6
ENDBRANCH   1   3
BRANCH   1   8
HETATM    8  C8  UNL     1     -35.156  14.364  -5.983  1.00 20.00     0.015 C 
HETATM    9  C2  UNL     1     -34.376  13.665  -7.106  1.00 20.00     0.023 C 
HETATM   10  C3  UNL     1     -36.169  13.369  -5.387  1.00 20.00     0.023 C 
HETATM   11  C4  UNL     1     -35.931  15.562  -6.545  1.00 20.00     0.023 C 
ENDBRANCH   1   8
TORSDOF 4
ENDMDL
