MODEL 1
REMARK VINA RESULT:      -5.3      0.000      0.000
REMARK  0 active torsions:
REMARK  status: ('A' for Active; 'I' for Inactive)
ROOT
HETATM    1  C1  UNL     1     -33.115   6.533   2.478  1.00 20.00     0.047 A 
HETATM    2  C2  UNL     1     -33.615   6.330   3.779  1.00 20.00     0.025 A 
HETATM    3  C3  UNL     1     -33.237   7.312   4.649  1.00 20.00    -0.002 A 
HETATM    4  C4  UNL     1     -32.362   7.695   2.427  1.00 20.00     0.075 A 
HETATM    5  C5  UNL     1     -34.423   5.367   4.475  1.00 20.00     0.161 A 
HETATM    6  C6  UNL     1     -33.737   7.146   6.034  1.00 20.00     0.055 A 
HETATM    7  C7  UNL     1     -34.552   5.817   5.938  1.00 20.00     0.089 A 
HETATM    8  O8  UNL     1     -34.922   4.365   3.987  1.00 20.00    -0.292 OA
HETATM    9  S9  UNL     1     -32.283   8.501   3.958  1.00 20.00    -0.082 SA
HETATM   10 CL10 UNL     1     -31.552   8.362   1.071  1.00 20.00    -0.076 Cl
ENDROOT
TORSDOF 0
ENDMDL
MODEL 2
REMARK VINA RESULT:      -5.2      1.783      2.231
REMARK  0 active torsions:
REMARK  status: ('A' for Active; 'I' for Inactive)
ROOT
HETATM    1  C1  UNL     1     -32.968   7.850   3.802  1.00 20.00     0.047 A 
HETATM    2  C2  UNL     1     -33.622   6.789   4.456  1.00 20.00     0.025 A 
HETATM    3  C3  UNL     1     -33.796   5.700   3.650  1.00 20.00    -0.002 A 
HETATM    4  C4  UNL     1     -32.670   7.501   2.495  1.00 20.00     0.075 A 
HETATM    5  C5  UNL     1     -34.174   6.510   5.753  1.00 20.00     0.161 A 
HETATM    6  C6  UNL     1     -34.481   4.552   4.291  1.00 20.00     0.055 A 
HETATM    7  C7  UNL     1     -34.751   5.086   5.733  1.00 20.00     0.089 A 
HETATM    8  O8  UNL     1     -34.183   7.273   6.706  1.00 20.00    -0.292 OA
HETATM    9  S9  UNL     1     -33.194   5.899   2.101  1.00 20.00    -0.082 SA
HETATM   10 CL10 UNL     1     -31.880   8.454   1.308  1.00 20.00    -0.076 Cl
ENDROOT
TORSDOF 0
ENDMDL
MODEL 3
REMARK VINA RESULT:      -4.5     11.822     12.978
REMARK  0 active torsions:
REMARK  status: ('A' for Active; 'I' for Inactive)
ROOT
HETATM    1  C1  UNL     1     -34.691  14.698  -4.172  1.00 20.00     0.047 A 
HETATM    2  C2  UNL     1     -34.492  14.558  -5.558  1.00 20.00     0.025 A 
HETATM    3  C3  UNL     1     -33.926  15.663  -6.126  1.00 20.00    -0.002 A 
HETATM    4  C4  UNL     1     -34.251  15.940  -3.745  1.00 20.00     0.075 A 
HETATM    5  C5  UNL     1     -34.719  13.568  -6.575  1.00 20.00     0.161 A 
HETATM    6  C6  UNL     1     -33.694  15.567  -7.586  1.00 20.00     0.055 A 
HETATM    7  C7  UNL     1     -34.232  14.139  -7.917  1.00 20.00     0.089 A 
HETATM    8  O8  UNL     1     -35.212  12.464  -6.403  1.00 20.00    -0.292 OA
HETATM    9  S9  UNL     1     -33.612  16.898  -5.039  1.00 20.00    -0.082 SA
HETATM   10 CL10 UNL     1     -34.281  16.575  -2.153  1.00 20.00    -0.076 Cl
ENDROOT
TORSDOF 0
ENDMDL
MODEL 4
REMARK VINA RESULT:      -4.5     11.879     12.361
REMARK  0 active torsions:
REMARK  status: ('A' for Active; 'I' for Inactive)
ROOT
HETATM    1  C1  UNL     1     -35.356  15.423  -3.596  1.00 20.00     0.047 A 
HETATM    2  C2  UNL     1     -35.490  14.662  -4.773  1.00 20.00     0.025 A 
HETATM    3  C3  UNL     1     -34.352  14.653  -5.528  1.00 20.00    -0.002 A 
HETATM    4  C4  UNL     1     -34.085  15.967  -3.516  1.00 20.00     0.075 A 
HETATM    5  C5  UNL     1     -36.499  13.876  -5.429  1.00 20.00     0.161 A 
HETATM    6  C6  UNL     1     -34.439  13.865  -6.780  1.00 20.00     0.055 A 
HETATM    7  C7  UNL     1     -35.904  13.324  -6.734  1.00 20.00     0.089 A 
HETATM    8  O8  UNL     1     -37.632  13.680  -5.019  1.00 20.00    -0.292 OA
HETATM    9  S9  UNL     1     -33.094  15.540  -4.870  1.00 20.00    -0.082 SA
HETATM   10 CL10 UNL     1     -33.445  16.963  -2.275  1.00 20.00    -0.076 Cl
ENDROOT
TORSDOF 0
ENDMDL
MODEL 5
REMARK VINA RESULT:      -4.4     11.689     12.172
REMARK  0 active torsions:
REMARK  status: ('A' for Active; 'I' for Inactive)
ROOT
HETATM    1  C1  UNL     1     -34.446  15.166  -3.659  1.00 20.00     0.047 A 
HETATM    2  C2  UNL     1     -35.679  14.845  -4.258  1.00 20.00     0.025 A 
HETATM    3  C3  UNL     1     -36.660  15.749  -3.964  1.00 20.00    -0.002 A 
HETATM    4  C4  UNL     1     -34.558  16.333  -2.921  1.00 20.00     0.075 A 
HETATM    5  C5  UNL     1     -36.221  13.819  -5.106  1.00 20.00     0.161 A 
HETATM    6  C6  UNL     1     -37.980  15.458  -4.571  1.00 20.00     0.055 A 
HETATM    7  C7  UNL     1     -37.703  14.137  -5.357  1.00 20.00     0.089 A 
HETATM    8  O8  UNL     1     -35.609  12.860  -5.550  1.00 20.00    -0.292 OA
HETATM    9  S9  UNL     1     -36.154  17.002  -2.975  1.00 20.00    -0.082 SA
HETATM   10 CL10 UNL     1     -33.335  17.124  -2.015  1.00 20.00    -0.076 Cl
ENDROOT
TORSDOF 0
ENDMDL
MODEL 6
REMARK VINA RESULT:      -4.1     12.017     12.681
REMARK  0 active torsions:
REMARK  status: ('A' for Active; 'I' for Inactive)
ROOT
HETATM    1  C1  UNL     1     -38.250  14.649  -4.988  1.00 20.00     0.047 A 
HETATM    2  C2  UNL     1     -36.876  14.604  -4.682  1.00 20.00     0.025 A 
HETATM    3  C3  UNL     1     -36.439  15.731  -4.047  1.00 20.00    -0.002 A 
HETATM    4  C4  UNL     1     -38.801  15.844  -4.554  1.00 20.00     0.075 A 
HETATM    5  C5  UNL     1     -35.773  13.698  -4.849  1.00 20.00     0.161 A 
HETATM    6  C6  UNL     1     -34.998  15.735  -3.701  1.00 20.00     0.055 A 
HETATM    7  C7  UNL     1     -34.520  14.350  -4.244  1.00 20.00     0.089 A 
HETATM    8  O8  UNL     1     -35.823  12.599  -5.379  1.00 20.00    -0.292 OA
HETATM    9  S9  UNL     1     -37.636  16.874  -3.793  1.00 20.00    -0.082 SA
HETATM   10 CL10 UNL     1     -40.429  16.361  -4.697  1.00 20.00    -0.076 Cl
ENDROOT
TORSDOF 0
ENDMDL
MODEL 7
REMARK VINA RESULT:      -4.1     12.314     12.693
REMARK  0 active torsions:
REMARK  status: ('A' for Active; 'I' for Inactive)
ROOT
HETATM    1  C1  UNL     1     -33.718  18.893   1.533  1.00 20.00     0.047 A 
HETATM    2  C2  UNL     1     -33.631  18.320   0.250  1.00 20.00     0.025 A 
HETATM    3  C3  UNL     1     -34.808  17.761  -0.160  1.00 20.00    -0.002 A 
HETATM    4  C4  UNL     1     -34.995  18.736   2.046  1.00 20.00     0.075 A 
HETATM    5  C5  UNL     1     -32.642  18.145  -0.778  1.00 20.00     0.161 A 
HETATM    6  C6  UNL     1     -34.772  17.143  -1.506  1.00 20.00     0.055 A 
HETATM    7  C7  UNL     1     -33.295  17.392  -1.948  1.00 20.00     0.089 A 
HETATM    8  O8  UNL     1     -31.484  18.528  -0.729  1.00 20.00    -0.292 OA
HETATM    9  S9  UNL     1     -36.048  17.897   0.957  1.00 20.00    -0.082 SA
HETATM   10 CL10 UNL     1     -35.589  19.263   3.566  1.00 20.00    -0.076 Cl
ENDROOT
TORSDOF 0
ENDMDL
MODEL 8
REMARK VINA RESULT:      -4.1     12.073     12.325
REMARK  0 active torsions:
REMARK  status: ('A' for Active; 'I' for Inactive)
ROOT
HETATM    1  C1  UNL     1     -33.381  16.521  -3.744  1.00 20.00     0.047 A 
HETATM    2  C2  UNL     1     -33.782  16.990  -2.479  1.00 20.00     0.025 A 
HETATM    3  C3  UNL     1     -35.080  16.679  -2.187  1.00 20.00    -0.002 A 
HETATM    4  C4  UNL     1     -34.426  15.857  -4.365  1.00 20.00     0.075 A 
HETATM    5  C5  UNL     1     -33.213  17.720  -1.379  1.00 20.00     0.161 A 
HETATM    6  C6  UNL     1     -35.553  17.150  -0.864  1.00 20.00     0.055 A 
HETATM    7  C7  UNL     1     -34.289  17.869  -0.293  1.00 20.00     0.089 A 
HETATM    8  O8  UNL     1     -32.070  18.147  -1.319  1.00 20.00    -0.292 OA
HETATM    9  S9  UNL     1     -35.861  15.824  -3.396  1.00 20.00    -0.082 SA
HETATM   10 CL10 UNL     1     -34.427  15.112  -5.910  1.00 20.00    -0.076 Cl
ENDROOT
TORSDOF 0
ENDMDL
MODEL 9
REMARK VINA RESULT:      -4.0     11.968     12.297
REMARK  0 active torsions:
REMARK  status: ('A' for Active; 'I' for Inactive)
ROOT
HETATM    1  C1  UNL     1     -35.560  16.993  -1.179  1.00 20.00     0.047 A 
HETATM    2  C2  UNL     1     -34.480  17.658  -0.568  1.00 20.00     0.025 A 
HETATM    3  C3  UNL     1     -33.382  17.736  -1.376  1.00 20.00    -0.002 A 
HETATM    4  C4  UNL     1     -35.215  16.590  -2.459  1.00 20.00     0.075 A 
HETATM    5  C5  UNL     1     -34.188  18.292   0.689  1.00 20.00     0.161 A 
HETATM    6  C6  UNL     1     -32.215  18.429  -0.780  1.00 20.00     0.055 A 
HETATM    7  C7  UNL     1     -32.744  18.816   0.638  1.00 20.00     0.089 A 
HETATM    8  O8  UNL     1     -34.955  18.396   1.633  1.00 20.00    -0.292 OA
HETATM    9  S9  UNL     1     -33.594  17.028  -2.878  1.00 20.00    -0.082 SA
HETATM   10 CL10 UNL     1     -36.188  15.748  -3.592  1.00 20.00    -0.076 Cl
ENDROOT
TORSDOF 0
ENDMDL
