MODEL 1
REMARK VINA RESULT:      -5.2      0.000      0.000
REMARK  2 active torsions:
REMARK  status: ('A' for Active; 'I' for Inactive)
REMARK    1  A    between atoms: C1_1  and  C4_4 
REMARK    2  A    between atoms: C1_1  and  C5_5 
ROOT
HETATM    1  C2  UNL     1     -34.394   6.020   5.509  1.00 20.00     0.055 A 
HETATM    2  C3  UNL     1     -34.580   4.602   5.055  1.00 20.00     0.055 A 
HETATM    3  C4  UNL     1     -34.624   5.722   4.052  1.00 20.00     0.164 A 
HETATM    4  F7  UNL     1     -35.889   6.043   3.569  1.00 20.00    -0.235 F 
ENDROOT
BRANCH   3   5
HETATM    5  C1  UNL     1     -33.527   5.885   3.093  1.00 20.00     0.179 C 
HETATM    6  O6  UNL     1     -32.904   4.907   2.682  1.00 20.00    -0.293 OA
BRANCH   5   7
HETATM    7  C5  UNL     1     -33.234   7.304   2.668  1.00 20.00     0.196 C 
HETATM    8 CL8  UNL     1     -31.789   7.918   3.486  1.00 20.00    -0.122 Cl
ENDBRANCH   5   7
ENDBRANCH   3   5
TORSDOF 2
ENDMDL
MODEL 2
REMARK VINA RESULT:      -5.1      1.477      1.524
REMARK  2 active torsions:
REMARK  status: ('A' for Active; 'I' for Inactive)
REMARK    1  A    between atoms: C1_1  and  C4_4 
REMARK    2  A    between atoms: C1_1  and  C5_5 
ROOT
HETATM    1  C2  UNL     1     -34.717   4.860   5.579  1.00 20.00     0.055 A 
HETATM    2  C3  UNL     1     -34.229   4.266   4.292  1.00 20.00     0.055 A 
HETATM    3  C4  UNL     1     -34.660   5.706   4.336  1.00 20.00     0.164 A 
HETATM    4  F7  UNL     1     -35.889   5.980   3.743  1.00 20.00    -0.235 F 
ENDROOT
BRANCH   3   5
HETATM    5  C1  UNL     1     -33.659   6.770   4.223  1.00 20.00     0.179 C 
HETATM    6  O6  UNL     1     -33.442   7.529   5.167  1.00 20.00    -0.293 OA
BRANCH   5   7
HETATM    7  C5  UNL     1     -32.942   6.858   2.896  1.00 20.00     0.196 C 
HETATM    8 CL8  UNL     1     -31.790   8.202   2.894  1.00 20.00    -0.122 Cl
ENDBRANCH   5   7
ENDBRANCH   3   5
TORSDOF 2
ENDMDL
MODEL 3
REMARK VINA RESULT:      -4.6      2.670      3.587
REMARK  2 active torsions:
REMARK  status: ('A' for Active; 'I' for Inactive)
REMARK    1  A    between atoms: C1_1  and  C4_4 
REMARK    2  A    between atoms: C1_1  and  C5_5 
ROOT
HETATM    1  C2  UNL     1     -31.742   7.986   3.316  1.00 20.00     0.055 A 
HETATM    2  C3  UNL     1     -32.830   8.144   2.296  1.00 20.00     0.055 A 
HETATM    3  C4  UNL     1     -32.824   6.946   3.204  1.00 20.00     0.164 A 
HETATM    4  F7  UNL     1     -32.440   5.747   2.610  1.00 20.00    -0.235 F 
ENDROOT
BRANCH   3   5
HETATM    5  C1  UNL     1     -33.833   6.827   4.261  1.00 20.00     0.179 C 
HETATM    6  O6  UNL     1     -33.744   7.495   5.290  1.00 20.00    -0.293 OA
BRANCH   5   7
HETATM    7  C5  UNL     1     -34.951   5.847   3.992  1.00 20.00     0.196 C 
HETATM    8 CL8  UNL     1     -34.524   4.232   4.579  1.00 20.00    -0.122 Cl
ENDBRANCH   5   7
ENDBRANCH   3   5
TORSDOF 2
ENDMDL
MODEL 4
REMARK VINA RESULT:      -4.5      2.369      3.312
REMARK  2 active torsions:
REMARK  status: ('A' for Active; 'I' for Inactive)
REMARK    1  A    between atoms: C1_1  and  C4_4 
REMARK    2  A    between atoms: C1_1  and  C5_5 
ROOT
HETATM    1  C2  UNL     1     -32.840   6.234   2.898  1.00 20.00     0.055 A 
HETATM    2  C3  UNL     1     -33.244   7.675   2.992  1.00 20.00     0.055 A 
HETATM    3  C4  UNL     1     -34.057   6.622   3.694  1.00 20.00     0.164 A 
HETATM    4  F7  UNL     1     -35.279   6.317   3.102  1.00 20.00    -0.235 F 
ENDROOT
BRANCH   3   5
HETATM    5  C1  UNL     1     -34.029   6.535   5.157  1.00 20.00     0.179 C 
HETATM    6  O6  UNL     1     -33.583   7.462   5.831  1.00 20.00    -0.293 OA
BRANCH   5   7
HETATM    7  C5  UNL     1     -34.573   5.255   5.748  1.00 20.00     0.196 C 
HETATM    8 CL8  UNL     1     -34.250   3.883   4.676  1.00 20.00    -0.122 Cl
ENDBRANCH   5   7
ENDBRANCH   3   5
TORSDOF 2
ENDMDL
MODEL 5
REMARK VINA RESULT:      -4.4      2.083      2.227
REMARK  2 active torsions:
REMARK  status: ('A' for Active; 'I' for Inactive)
REMARK    1  A    between atoms: C1_1  and  C4_4 
REMARK    2  A    between atoms: C1_1  and  C5_5 
ROOT
HETATM    1  C2  UNL     1     -35.251   6.025   3.498  1.00 20.00     0.055 A 
HETATM    2  C3  UNL     1     -34.688   5.169   4.593  1.00 20.00     0.055 A 
HETATM    3  C4  UNL     1     -33.766   5.995   3.738  1.00 20.00     0.164 A 
HETATM    4  F7  UNL     1     -33.024   5.283   2.799  1.00 20.00    -0.235 F 
ENDROOT
BRANCH   3   5
HETATM    5  C1  UNL     1     -33.095   7.166   4.310  1.00 20.00     0.179 C 
HETATM    6  O6  UNL     1     -33.398   7.576   5.429  1.00 20.00    -0.293 OA
BRANCH   5   7
HETATM    7  C5  UNL     1     -32.040   7.806   3.440  1.00 20.00     0.196 C 
HETATM    8 CL8  UNL     1     -32.740   8.362   1.911  1.00 20.00    -0.122 Cl
ENDBRANCH   5   7
ENDBRANCH   3   5
TORSDOF 2
ENDMDL
MODEL 6
REMARK VINA RESULT:      -4.4      1.453      1.597
REMARK  2 active torsions:
REMARK  status: ('A' for Active; 'I' for Inactive)
REMARK    1  A    between atoms: C1_1  and  C4_4 
REMARK    2  A    between atoms: C1_1  and  C5_5 
ROOT
HETATM    1  C2  UNL     1     -34.498   5.230   4.938  1.00 20.00     0.055 A 
HETATM    2  C3  UNL     1     -35.394   5.909   3.944  1.00 20.00     0.055 A 
HETATM    3  C4  UNL     1     -34.065   6.519   4.293  1.00 20.00     0.164 A 
HETATM    4  F7  UNL     1     -34.120   7.644   5.112  1.00 20.00    -0.235 F 
ENDROOT
BRANCH   3   5
HETATM    5  C1  UNL     1     -32.979   6.514   3.309  1.00 20.00     0.179 C 
HETATM    6  O6  UNL     1     -32.810   5.546   2.568  1.00 20.00    -0.293 OA
BRANCH   5   7
HETATM    7  C5  UNL     1     -32.113   7.751   3.281  1.00 20.00     0.196 C 
HETATM    8 CL8  UNL     1     -32.172   8.521   1.688  1.00 20.00    -0.122 Cl
ENDBRANCH   5   7
ENDBRANCH   3   5
TORSDOF 2
ENDMDL
MODEL 7
REMARK VINA RESULT:      -4.4      2.236      3.244
REMARK  2 active torsions:
REMARK  status: ('A' for Active; 'I' for Inactive)
REMARK    1  A    between atoms: C1_1  and  C4_4 
REMARK    2  A    between atoms: C1_1  and  C5_5 
ROOT
HETATM    1  C2  UNL     1     -33.038   8.296   2.532  1.00 20.00     0.055 A 
HETATM    2  C3  UNL     1     -31.746   7.649   2.933  1.00 20.00     0.055 A 
HETATM    3  C4  UNL     1     -33.027   7.248   3.611  1.00 20.00     0.164 A 
HETATM    4  F7  UNL     1     -33.192   7.725   4.908  1.00 20.00    -0.235 F 
ENDROOT
BRANCH   3   5
HETATM    5  C1  UNL     1     -33.606   5.927   3.351  1.00 20.00     0.179 C 
HETATM    6  O6  UNL     1     -33.023   5.118   2.630  1.00 20.00    -0.293 OA
BRANCH   5   7
HETATM    7  C5  UNL     1     -34.934   5.651   4.017  1.00 20.00     0.196 C 
HETATM    8 CL8  UNL     1     -34.696   4.922   5.612  1.00 20.00    -0.122 Cl
ENDBRANCH   5   7
ENDBRANCH   3   5
TORSDOF 2
ENDMDL
MODEL 8
REMARK VINA RESULT:      -4.4      3.458      4.747
REMARK  2 active torsions:
REMARK  status: ('A' for Active; 'I' for Inactive)
REMARK    1  A    between atoms: C1_1  and  C4_4 
REMARK    2  A    between atoms: C1_1  and  C5_5 
ROOT
HETATM    1  C2  UNL     1     -32.460  10.284   1.092  1.00 20.00     0.055 A 
HETATM    2  C3  UNL     1     -33.196   9.158   0.429  1.00 20.00     0.055 A 
HETATM    3  C4  UNL     1     -31.965   8.871   1.245  1.00 20.00     0.164 A 
HETATM    4  F7  UNL     1     -30.823   8.556   0.514  1.00 20.00    -0.235 F 
ENDROOT
BRANCH   3   5
HETATM    5  C1  UNL     1     -32.089   8.191   2.537  1.00 20.00     0.179 C 
HETATM    6  O6  UNL     1     -31.295   8.424   3.447  1.00 20.00    -0.293 OA
BRANCH   5   7
HETATM    7  C5  UNL     1     -33.233   7.210   2.654  1.00 20.00     0.196 C 
HETATM    8 CL8  UNL     1     -33.777   7.079   4.334  1.00 20.00    -0.122 Cl
ENDBRANCH   5   7
ENDBRANCH   3   5
TORSDOF 2
ENDMDL
MODEL 9
REMARK VINA RESULT:      -4.4      1.858      1.858
REMARK  2 active torsions:
REMARK  status: ('A' for Active; 'I' for Inactive)
REMARK    1  A    between atoms: C1_1  and  C4_4 
REMARK    2  A    between atoms: C1_1  and  C5_5 
ROOT
HETATM    1  C2  UNL     1     -34.797   5.268   5.927  1.00 20.00     0.055 A 
HETATM    2  C3  UNL     1     -34.374   4.316   4.847  1.00 20.00     0.055 A 
HETATM    3  C4  UNL     1     -34.696   5.745   4.503  1.00 20.00     0.164 A 
HETATM    4  F7  UNL     1     -35.911   5.944   3.853  1.00 20.00    -0.235 F 
ENDROOT
BRANCH   3   5
HETATM    5  C1  UNL     1     -33.620   6.661   4.114  1.00 20.00     0.179 C 
HETATM    6  O6  UNL     1     -33.188   7.493   4.911  1.00 20.00    -0.293 OA
BRANCH   5   7
HETATM    7  C5  UNL     1     -33.104   6.505   2.703  1.00 20.00     0.196 C 
HETATM    8 CL8  UNL     1     -32.839   4.798   2.317  1.00 20.00    -0.122 Cl
ENDBRANCH   5   7
ENDBRANCH   3   5
TORSDOF 2
ENDMDL
