MODEL 1
REMARK VINA RESULT:      -4.0      0.000      0.000
REMARK  0 active torsions:
REMARK  status: ('A' for Active; 'I' for Inactive)
ROOT
HETATM    1  C1  UNL     1     -34.460   6.144   5.848  1.00 20.00     0.136 A 
HETATM    2  C2  UNL     1     -34.876   5.413   4.734  1.00 20.00     0.136 A 
HETATM    3  C3  UNL     1     -32.161   8.324   4.244  1.00 20.00     0.083 A 
HETATM    4  C4  UNL     1     -32.899   7.023   2.260  1.00 20.00     0.083 A 
HETATM    5  C5  UNL     1     -33.090   7.364   4.561  1.00 20.00     0.092 A 
HETATM    6  C6  UNL     1     -33.516   6.613   3.416  1.00 20.00     0.092 A 
HETATM    7  N7  UNL     1     -33.552   7.151   5.820  1.00 20.00    -0.257 NA
HETATM    8  N8  UNL     1     -34.427   5.608   3.468  1.00 20.00    -0.257 NA
HETATM    9  S9  UNL     1     -31.805   8.314   2.561  1.00 20.00    -0.109 SA
ENDROOT
TORSDOF 0
ENDMDL
MODEL 2
REMARK VINA RESULT:      -4.0      0.033      2.047
REMARK  0 active torsions:
REMARK  status: ('A' for Active; 'I' for Inactive)
ROOT
HETATM    1  C1  UNL     1     -34.888   5.381   4.715  1.00 20.00     0.136 A 
HETATM    2  C2  UNL     1     -34.479   6.101   5.838  1.00 20.00     0.136 A 
HETATM    3  C3  UNL     1     -32.906   7.018   2.265  1.00 20.00     0.083 A 
HETATM    4  C4  UNL     1     -32.179   8.303   4.263  1.00 20.00     0.083 A 
HETATM    5  C5  UNL     1     -33.526   6.596   3.415  1.00 20.00     0.092 A 
HETATM    6  C6  UNL     1     -33.107   7.338   4.568  1.00 20.00     0.092 A 
HETATM    7  N7  UNL     1     -34.435   5.588   3.454  1.00 20.00    -0.257 NA
HETATM    8  N8  UNL     1     -33.574   7.112   5.823  1.00 20.00    -0.257 NA
HETATM    9  S9  UNL     1     -31.818   8.312   2.583  1.00 20.00    -0.109 SA
ENDROOT
TORSDOF 0
ENDMDL
MODEL 3
REMARK VINA RESULT:      -3.7     11.658     12.882
REMARK  0 active torsions:
REMARK  status: ('A' for Active; 'I' for Inactive)
ROOT
HETATM    1  C1  UNL     1     -34.374  13.956  -7.918  1.00 20.00     0.136 A 
HETATM    2  C2  UNL     1     -35.101  13.037  -7.160  1.00 20.00     0.136 A 
HETATM    3  C3  UNL     1     -33.388  16.156  -5.310  1.00 20.00     0.083 A 
HETATM    4  C4  UNL     1     -34.682  14.521  -3.960  1.00 20.00     0.083 A 
HETATM    5  C5  UNL     1     -33.916  15.144  -6.074  1.00 20.00     0.092 A 
HETATM    6  C6  UNL     1     -34.662  14.201  -5.295  1.00 20.00     0.092 A 
HETATM    7  N7  UNL     1     -33.747  15.050  -7.419  1.00 20.00    -0.257 NA
HETATM    8  N8  UNL     1     -35.282  13.111  -5.817  1.00 20.00    -0.257 NA
HETATM    9  S9  UNL     1     -33.798  15.962  -3.652  1.00 20.00    -0.109 SA
ENDROOT
TORSDOF 0
ENDMDL
MODEL 4
REMARK VINA RESULT:      -3.7     11.711     12.940
REMARK  0 active torsions:
REMARK  status: ('A' for Active; 'I' for Inactive)
ROOT
HETATM    1  C1  UNL     1     -35.083  13.124  -7.159  1.00 20.00     0.136 A 
HETATM    2  C2  UNL     1     -34.339  14.028  -7.918  1.00 20.00     0.136 A 
HETATM    3  C3  UNL     1     -34.664  14.616  -3.964  1.00 20.00     0.083 A 
HETATM    4  C4  UNL     1     -33.338  16.227  -5.314  1.00 20.00     0.083 A 
HETATM    5  C5  UNL     1     -34.640  14.290  -5.298  1.00 20.00     0.092 A 
HETATM    6  C6  UNL     1     -33.875  15.219  -6.077  1.00 20.00     0.092 A 
HETATM    7  N7  UNL     1     -35.272  13.206  -5.819  1.00 20.00    -0.257 NA
HETATM    8  N8  UNL     1     -33.700  15.116  -7.419  1.00 20.00    -0.257 NA
HETATM    9  S9  UNL     1     -33.760  16.046  -3.657  1.00 20.00    -0.109 SA
ENDROOT
TORSDOF 0
ENDMDL
MODEL 5
REMARK VINA RESULT:      -3.5      2.084      3.719
REMARK  0 active torsions:
REMARK  status: ('A' for Active; 'I' for Inactive)
ROOT
HETATM    1  C1  UNL     1     -32.270   7.704   2.102  1.00 20.00     0.136 A 
HETATM    2  C2  UNL     1     -31.734   8.461   3.144  1.00 20.00     0.136 A 
HETATM    3  C3  UNL     1     -34.522   5.704   3.984  1.00 20.00     0.083 A 
HETATM    4  C4  UNL     1     -33.567   7.051   5.840  1.00 20.00     0.083 A 
HETATM    5  C5  UNL     1     -33.582   6.605   3.549  1.00 20.00     0.092 A 
HETATM    6  C6  UNL     1     -33.031   7.383   4.620  1.00 20.00     0.092 A 
HETATM    7  N7  UNL     1     -33.216   6.743   2.248  1.00 20.00    -0.257 NA
HETATM    8  N8  UNL     1     -32.083   8.340   4.449  1.00 20.00    -0.257 NA
HETATM    9  S9  UNL     1     -34.736   5.800   5.687  1.00 20.00    -0.109 SA
ENDROOT
TORSDOF 0
ENDMDL
MODEL 6
REMARK VINA RESULT:      -3.5      2.081      3.108
REMARK  0 active torsions:
REMARK  status: ('A' for Active; 'I' for Inactive)
ROOT
HETATM    1  C1  UNL     1     -31.761   8.468   3.151  1.00 20.00     0.136 A 
HETATM    2  C2  UNL     1     -32.283   7.718   2.097  1.00 20.00     0.136 A 
HETATM    3  C3  UNL     1     -33.591   7.009   5.822  1.00 20.00     0.083 A 
HETATM    4  C4  UNL     1     -34.523   5.673   3.946  1.00 20.00     0.083 A 
HETATM    5  C5  UNL     1     -33.053   7.360   4.608  1.00 20.00     0.092 A 
HETATM    6  C6  UNL     1     -33.591   6.588   3.526  1.00 20.00     0.092 A 
HETATM    7  N7  UNL     1     -32.115   8.330   4.453  1.00 20.00    -0.257 NA
HETATM    8  N8  UNL     1     -33.220   6.745   2.229  1.00 20.00    -0.257 NA
HETATM    9  S9  UNL     1     -34.747   5.748   5.649  1.00 20.00    -0.109 SA
ENDROOT
TORSDOF 0
ENDMDL
MODEL 7
REMARK VINA RESULT:      -3.4     11.745     12.031
REMARK  0 active torsions:
REMARK  status: ('A' for Active; 'I' for Inactive)
ROOT
HETATM    1  C1  UNL     1     -37.151  14.134  -5.086  1.00 20.00     0.136 A 
HETATM    2  C2  UNL     1     -36.008  13.427  -5.459  1.00 20.00     0.136 A 
HETATM    3  C3  UNL     1     -35.615  16.648  -3.103  1.00 20.00     0.083 A 
HETATM    4  C4  UNL     1     -33.579  15.389  -3.766  1.00 20.00     0.083 A 
HETATM    5  C5  UNL     1     -35.901  15.573  -3.908  1.00 20.00     0.092 A 
HETATM    6  C6  UNL     1     -34.726  14.846  -4.290  1.00 20.00     0.092 A 
HETATM    7  N7  UNL     1     -37.158  15.237  -4.296  1.00 20.00    -0.257 NA
HETATM    8  N8  UNL     1     -34.743  13.743  -5.082  1.00 20.00    -0.257 NA
HETATM    9  S9  UNL     1     -33.925  16.776  -2.812  1.00 20.00    -0.109 SA
ENDROOT
TORSDOF 0
ENDMDL
MODEL 8
REMARK VINA RESULT:      -3.4     11.973     12.405
REMARK  0 active torsions:
REMARK  status: ('A' for Active; 'I' for Inactive)
ROOT
HETATM    1  C1  UNL     1     -33.178  14.810  -4.420  1.00 20.00     0.136 A 
HETATM    2  C2  UNL     1     -33.600  15.872  -3.620  1.00 20.00     0.136 A 
HETATM    3  C3  UNL     1     -36.348  13.708  -5.582  1.00 20.00     0.083 A 
HETATM    4  C4  UNL     1     -37.101  15.598  -4.156  1.00 20.00     0.083 A 
HETATM    5  C5  UNL     1     -35.302  14.356  -4.973  1.00 20.00     0.092 A 
HETATM    6  C6  UNL     1     -35.736  15.447  -4.151  1.00 20.00     0.092 A 
HETATM    7  N7  UNL     1     -34.001  14.002  -5.135  1.00 20.00    -0.257 NA
HETATM    8  N8  UNL     1     -34.893  16.243  -3.444  1.00 20.00    -0.257 NA
HETATM    9  S9  UNL     1     -37.854  14.420  -5.156  1.00 20.00    -0.109 SA
ENDROOT
TORSDOF 0
ENDMDL
MODEL 9
REMARK VINA RESULT:      -3.4     11.874     12.122
REMARK  0 active torsions:
REMARK  status: ('A' for Active; 'I' for Inactive)
ROOT
HETATM    1  C1  UNL     1     -35.911  13.413  -5.726  1.00 20.00     0.136 A 
HETATM    2  C2  UNL     1     -37.077  14.023  -5.264  1.00 20.00     0.136 A 
HETATM    3  C3  UNL     1     -33.531  15.368  -3.957  1.00 20.00     0.083 A 
HETATM    4  C4  UNL     1     -35.607  16.458  -3.134  1.00 20.00     0.083 A 
HETATM    5  C5  UNL     1     -34.666  14.805  -4.488  1.00 20.00     0.092 A 
HETATM    6  C6  UNL     1     -35.864  15.434  -4.013  1.00 20.00     0.092 A 
HETATM    7  N7  UNL     1     -34.653  13.769  -5.365  1.00 20.00    -0.257 NA
HETATM    8  N8  UNL     1     -37.114  15.060  -4.389  1.00 20.00    -0.257 NA
HETATM    9  S9  UNL     1     -33.918  16.657  -2.886  1.00 20.00    -0.109 SA
ENDROOT
TORSDOF 0
ENDMDL
