MODEL 1
REMARK VINA RESULT:      -4.9      0.000      0.000
REMARK  2 active torsions:
REMARK  status: ('A' for Active; 'I' for Inactive)
REMARK    1  A    between atoms: C7_7  and  C9_9 
REMARK    2  A    between atoms: C8_8  and  C10_10 
ROOT
HETATM    1  C1  UNL     1     -35.081   6.084   4.243  1.00 20.00     0.131 C 
HETATM    2  C2  UNL     1     -34.630   5.037   5.235  1.00 20.00     0.083 C 
HETATM    3  C6  UNL     1     -33.970   7.223   5.911  1.00 20.00     0.018 C 
HETATM    4  C7  UNL     1     -34.229   7.329   4.402  1.00 20.00     0.060 C 
HETATM    5  C8  UNL     1     -33.420   5.789   5.825  1.00 20.00    -0.002 C 
HETATM    6  O11 UNL     1     -35.977   5.941   3.426  1.00 20.00    -0.298 OA
ENDROOT
BRANCH   4   7
HETATM    7  C9  UNL     1     -32.824   7.060   3.838  1.00 20.00     0.001 C 
HETATM    8  C4  UNL     1     -31.776   8.161   3.964  1.00 20.00     0.006 C 
HETATM    9  C3  UNL     1     -31.795   8.914   2.639  1.00 20.00     0.001 C 
HETATM   10  C5  UNL     1     -32.191   7.870   1.601  1.00 20.00     0.005 C 
HETATM   11  C10 UNL     1     -33.092   6.874   2.323  1.00 20.00    -0.005 C 
ENDBRANCH   4   7
TORSDOF 2
ENDMDL
MODEL 2
REMARK VINA RESULT:      -4.8     11.149     12.046
REMARK  2 active torsions:
REMARK  status: ('A' for Active; 'I' for Inactive)
REMARK    1  A    between atoms: C7_7  and  C9_9 
REMARK    2  A    between atoms: C8_8  and  C10_10 
ROOT
HETATM    1  C1  UNL     1     -35.228  14.029  -5.082  1.00 20.00     0.131 C 
HETATM    2  C2  UNL     1     -34.517  14.432  -6.354  1.00 20.00     0.083 C 
HETATM    3  C6  UNL     1     -33.035  14.421  -4.491  1.00 20.00     0.018 C 
HETATM    4  C7  UNL     1     -34.440  14.529  -3.886  1.00 20.00     0.060 C 
HETATM    5  C8  UNL     1     -33.384  15.268  -5.726  1.00 20.00    -0.002 C 
HETATM    6  O11 UNL     1     -36.283  13.416  -5.028  1.00 20.00    -0.298 OA
ENDROOT
BRANCH   4   7
HETATM    7  C9  UNL     1     -34.600  16.054  -3.771  1.00 20.00     0.001 C 
HETATM    8  C4  UNL     1     -33.642  16.810  -2.857  1.00 20.00     0.006 C 
HETATM    9  C3  UNL     1     -34.370  16.974  -1.528  1.00 20.00     0.001 C 
HETATM   10  C5  UNL     1     -35.848  17.050  -1.897  1.00 20.00     0.005 C 
HETATM   11  C10 UNL     1     -36.014  16.206  -3.156  1.00 20.00    -0.005 C 
ENDBRANCH   4   7
TORSDOF 2
ENDMDL
MODEL 3
REMARK VINA RESULT:      -4.4     11.506     12.402
REMARK  2 active torsions:
REMARK  status: ('A' for Active; 'I' for Inactive)
REMARK    1  A    between atoms: C7_7  and  C9_9 
REMARK    2  A    between atoms: C8_8  and  C10_10 
ROOT
HETATM    1  C1  UNL     1     -36.583  14.093  -5.368  1.00 20.00     0.131 C 
HETATM    2  C2  UNL     1     -36.346  14.490  -6.807  1.00 20.00     0.083 C 
HETATM    3  C6  UNL     1     -34.297  14.089  -5.663  1.00 20.00     0.018 C 
HETATM    4  C7  UNL     1     -35.328  14.359  -4.559  1.00 20.00     0.060 C 
HETATM    5  C8  UNL     1     -34.932  15.084  -6.649  1.00 20.00    -0.002 C 
HETATM    6  O11 UNL     1     -37.630  13.647  -4.924  1.00 20.00    -0.298 OA
ENDROOT
BRANCH   4   7
HETATM    7  C9  UNL     1     -35.163  15.875  -4.360  1.00 20.00     0.001 C 
HETATM    8  C4  UNL     1     -33.867  16.380  -3.735  1.00 20.00     0.006 C 
HETATM    9  C3  UNL     1     -34.157  16.559  -2.250  1.00 20.00     0.001 C 
HETATM   10  C5  UNL     1     -35.638  16.916  -2.181  1.00 20.00     0.005 C 
HETATM   11  C10 UNL     1     -36.299  16.217  -3.364  1.00 20.00    -0.005 C 
ENDBRANCH   4   7
TORSDOF 2
ENDMDL
MODEL 4
REMARK VINA RESULT:      -4.4     11.662     12.672
REMARK  2 active torsions:
REMARK  status: ('A' for Active; 'I' for Inactive)
REMARK    1  A    between atoms: C7_7  and  C9_9 
REMARK    2  A    between atoms: C8_8  and  C10_10 
ROOT
HETATM    1  C1  UNL     1     -33.659  18.453  -2.226  1.00 20.00     0.131 C 
HETATM    2  C2  UNL     1     -35.004  19.133  -2.115  1.00 20.00     0.083 C 
HETATM    3  C6  UNL     1     -35.082  16.904  -1.283  1.00 20.00     0.018 C 
HETATM    4  C7  UNL     1     -33.853  16.949  -2.200  1.00 20.00     0.060 C 
HETATM    5  C8  UNL     1     -35.898  17.878  -2.150  1.00 20.00    -0.002 C 
HETATM    6  O11 UNL     1     -32.587  19.026  -2.341  1.00 20.00    -0.298 OA
ENDROOT
BRANCH   4   7
HETATM    7  C9  UNL     1     -34.459  16.489  -3.536  1.00 20.00     0.001 C 
HETATM    8  C4  UNL     1     -34.717  15.000  -3.734  1.00 20.00     0.006 C 
HETATM    9  C3  UNL     1     -33.506  14.459  -4.486  1.00 20.00     0.001 C 
HETATM   10  C5  UNL     1     -33.022  15.627  -5.339  1.00 20.00     0.005 C 
HETATM   11  C10 UNL     1     -33.371  16.892  -4.563  1.00 20.00    -0.005 C 
ENDBRANCH   4   7
TORSDOF 2
ENDMDL
MODEL 5
REMARK VINA RESULT:      -4.3     11.717     12.701
REMARK  2 active torsions:
REMARK  status: ('A' for Active; 'I' for Inactive)
REMARK    1  A    between atoms: C7_7  and  C9_9 
REMARK    2  A    between atoms: C8_8  and  C10_10 
ROOT
HETATM    1  C1  UNL     1     -33.684  17.469  -4.193  1.00 20.00     0.131 C 
HETATM    2  C2  UNL     1     -33.458  16.032  -4.605  1.00 20.00     0.083 C 
HETATM    3  C6  UNL     1     -35.634  16.346  -3.693  1.00 20.00     0.018 C 
HETATM    4  C7  UNL     1     -34.805  17.528  -3.173  1.00 20.00     0.060 C 
HETATM    5  C8  UNL     1     -34.456  15.358  -3.643  1.00 20.00    -0.002 C 
HETATM    6  O11 UNL     1     -33.047  18.427  -4.601  1.00 20.00    -0.298 OA
ENDROOT
BRANCH   4   7
HETATM    7  C9  UNL     1     -34.303  16.974  -1.829  1.00 20.00     0.001 C 
HETATM    8  C4  UNL     1     -35.234  17.058  -0.625  1.00 20.00     0.006 C 
HETATM    9  C3  UNL     1     -34.831  18.319   0.131  1.00 20.00     0.001 C 
HETATM   10  C5  UNL     1     -33.336  18.473  -0.133  1.00 20.00     0.005 C 
HETATM   11  C10 UNL     1     -33.087  17.882  -1.516  1.00 20.00    -0.005 C 
ENDBRANCH   4   7
TORSDOF 2
ENDMDL
MODEL 6
REMARK VINA RESULT:      -4.2     11.602     12.493
REMARK  2 active torsions:
REMARK  status: ('A' for Active; 'I' for Inactive)
REMARK    1  A    between atoms: C7_7  and  C9_9 
REMARK    2  A    between atoms: C8_8  and  C10_10 
ROOT
HETATM    1  C1  UNL     1     -34.135  16.333  -5.073  1.00 20.00     0.131 C 
HETATM    2  C2  UNL     1     -34.044  14.831  -5.225  1.00 20.00     0.083 C 
HETATM    3  C6  UNL     1     -36.108  15.485  -4.235  1.00 20.00     0.018 C 
HETATM    4  C7  UNL     1     -35.159  16.668  -4.005  1.00 20.00     0.060 C 
HETATM    5  C8  UNL     1     -35.001  14.428  -4.086  1.00 20.00    -0.002 C 
HETATM    6  O11 UNL     1     -33.471  17.145  -5.696  1.00 20.00    -0.298 OA
ENDROOT
BRANCH   4   7
HETATM    7  C9  UNL     1     -34.583  16.326  -2.621  1.00 20.00     0.001 C 
HETATM    8  C4  UNL     1     -35.383  16.736  -1.389  1.00 20.00     0.006 C 
HETATM    9  C3  UNL     1     -34.795  18.065  -0.930  1.00 20.00     0.001 C 
HETATM   10  C5  UNL     1     -33.325  18.003  -1.332  1.00 20.00     0.005 C 
HETATM   11  C10 UNL     1     -33.265  17.138  -2.586  1.00 20.00    -0.005 C 
ENDBRANCH   4   7
TORSDOF 2
ENDMDL
MODEL 7
REMARK VINA RESULT:      -4.1      1.697      2.032
REMARK  2 active torsions:
REMARK  status: ('A' for Active; 'I' for Inactive)
REMARK    1  A    between atoms: C7_7  and  C9_9 
REMARK    2  A    between atoms: C8_8  and  C10_10 
ROOT
HETATM    1  C1  UNL     1     -33.578   4.734   3.195  1.00 20.00     0.131 C 
HETATM    2  C2  UNL     1     -33.931   4.478   4.643  1.00 20.00     0.083 C 
HETATM    3  C6  UNL     1     -35.426   6.037   3.642  1.00 20.00     0.018 C 
HETATM    4  C7  UNL     1     -34.171   6.060   2.760  1.00 20.00     0.060 C 
HETATM    5  C8  UNL     1     -34.640   5.814   4.944  1.00 20.00    -0.002 C 
HETATM    6  O11 UNL     1     -32.902   3.997   2.494  1.00 20.00    -0.298 OA
ENDROOT
BRANCH   4   7
HETATM    7  C9  UNL     1     -33.376   7.209   3.403  1.00 20.00     0.001 C 
HETATM    8  C4  UNL     1     -33.786   8.640   3.072  1.00 20.00     0.006 C 
HETATM    9  C3  UNL     1     -32.869   9.090   1.940  1.00 20.00     0.001 C 
HETATM   10  C5  UNL     1     -31.565   8.331   2.168  1.00 20.00     0.005 C 
HETATM   11  C10 UNL     1     -31.953   7.009   2.823  1.00 20.00    -0.005 C 
ENDBRANCH   4   7
TORSDOF 2
ENDMDL
MODEL 8
REMARK VINA RESULT:      -4.0      1.745      2.780
REMARK  2 active torsions:
REMARK  status: ('A' for Active; 'I' for Inactive)
REMARK    1  A    between atoms: C7_7  and  C9_9 
REMARK    2  A    between atoms: C8_8  and  C10_10 
ROOT
HETATM    1  C1  UNL     1     -33.283   7.205   4.452  1.00 20.00     0.131 C 
HETATM    2  C2  UNL     1     -34.487   6.311   4.260  1.00 20.00     0.083 C 
HETATM    3  C6  UNL     1     -32.751   5.780   2.720  1.00 20.00     0.018 C 
HETATM    4  C7  UNL     1     -32.455   7.213   3.180  1.00 20.00     0.060 C 
HETATM    5  C8  UNL     1     -34.277   5.962   2.773  1.00 20.00    -0.002 C 
HETATM    6  O11 UNL     1     -33.030   7.838   5.464  1.00 20.00    -0.298 OA
ENDROOT
BRANCH   4   7
HETATM    7  C9  UNL     1     -33.186   8.031   2.102  1.00 20.00     0.001 C 
HETATM    8  C4  UNL     1     -32.655   7.973   0.674  1.00 20.00     0.006 C 
HETATM    9  C3  UNL     1     -31.757   9.194   0.510  1.00 20.00     0.001 C 
HETATM   10  C5  UNL     1     -32.360  10.250   1.430  1.00 20.00     0.005 C 
HETATM   11  C10 UNL     1     -32.996   9.489   2.589  1.00 20.00    -0.005 C 
ENDBRANCH   4   7
TORSDOF 2
ENDMDL
MODEL 9
REMARK VINA RESULT:      -4.0     11.733     12.650
REMARK  2 active torsions:
REMARK  status: ('A' for Active; 'I' for Inactive)
REMARK    1  A    between atoms: C7_7  and  C9_9 
REMARK    2  A    between atoms: C8_8  and  C10_10 
ROOT
HETATM    1  C1  UNL     1     -33.483  18.394  -2.116  1.00 20.00     0.131 C 
HETATM    2  C2  UNL     1     -33.590  17.027  -2.752  1.00 20.00     0.083 C 
HETATM    3  C6  UNL     1     -35.716  17.826  -2.037  1.00 20.00     0.018 C 
HETATM    4  C7  UNL     1     -34.691  18.632  -1.229  1.00 20.00     0.060 C 
HETATM    5  C8  UNL     1     -34.869  16.543  -2.038  1.00 20.00    -0.002 C 
HETATM    6  O11 UNL     1     -32.558  19.175  -2.276  1.00 20.00    -0.298 OA
ENDROOT
BRANCH   4   7
HETATM    7  C9  UNL     1     -34.568  17.773   0.040  1.00 20.00     0.001 C 
HETATM    8  C4  UNL     1     -35.795  17.635   0.935  1.00 20.00     0.006 C 
HETATM    9  C3  UNL     1     -35.632  18.678   2.035  1.00 20.00     0.001 C 
HETATM   10  C5  UNL     1     -34.125  18.815   2.226  1.00 20.00     0.005 C 
HETATM   11  C10 UNL     1     -33.498  18.530   0.866  1.00 20.00    -0.005 C 
ENDBRANCH   4   7
TORSDOF 2
ENDMDL
