MODEL 1
REMARK VINA RESULT:      -4.3      0.000      0.000
REMARK  0 active torsions:
REMARK  status: ('A' for Active; 'I' for Inactive)
ROOT
HETATM    1  C1  UNL     1     -34.047   6.956   5.686  1.00 20.00     0.064 C 
HETATM    2  C2  UNL     1     -32.992   7.545   4.755  1.00 20.00     0.170 C 
HETATM    3  C3  UNL     1     -33.412   6.089   2.932  1.00 20.00     0.205 C 
HETATM    4  C4  UNL     1     -34.431   5.576   5.253  1.00 20.00     0.258 A 
HETATM    5  C5  UNL     1     -34.133   5.148   3.841  1.00 20.00     0.277 A 
HETATM    6  N6  UNL     1     -35.496   5.439   4.255  1.00 20.00     0.099 N 
HETATM    7  O7  UNL     1     -33.442   7.444   3.402  1.00 20.00    -0.389 OA
HETATM    8  H16 UNL     1     -36.007   4.572   4.413  1.00 20.00     0.317 HD
ENDROOT
TORSDOF 0
ENDMDL
MODEL 2
REMARK VINA RESULT:      -4.1      1.153      2.086
REMARK  0 active torsions:
REMARK  status: ('A' for Active; 'I' for Inactive)
ROOT
HETATM    1  C1  UNL     1     -33.981   5.907   3.159  1.00 20.00     0.064 C 
HETATM    2  C2  UNL     1     -33.500   7.310   3.515  1.00 20.00     0.170 C 
HETATM    3  C3  UNL     1     -33.870   7.130   5.849  1.00 20.00     0.205 C 
HETATM    4  C4  UNL     1     -34.843   5.347   4.248  1.00 20.00     0.258 A 
HETATM    5  C5  UNL     1     -34.762   5.953   5.623  1.00 20.00     0.277 A 
HETATM    6  N6  UNL     1     -34.185   4.646   5.354  1.00 20.00     0.099 N 
HETATM    7  O7  UNL     1     -32.896   7.293   4.809  1.00 20.00    -0.389 OA
HETATM    8  H16 UNL     1     -34.796   3.913   5.710  1.00 20.00     0.317 HD
ENDROOT
TORSDOF 0
ENDMDL
MODEL 3
REMARK VINA RESULT:      -4.0      1.687      2.335
REMARK  0 active torsions:
REMARK  status: ('A' for Active; 'I' for Inactive)
ROOT
HETATM    1  C1  UNL     1     -34.425   5.137   5.726  1.00 20.00     0.064 C 
HETATM    2  C2  UNL     1     -34.536   4.451   4.369  1.00 20.00     0.170 C 
HETATM    3  C3  UNL     1     -33.705   6.265   3.090  1.00 20.00     0.205 C 
HETATM    4  C4  UNL     1     -34.352   6.624   5.568  1.00 20.00     0.258 A 
HETATM    5  C5  UNL     1     -33.957   7.194   4.233  1.00 20.00     0.277 A 
HETATM    6  N6  UNL     1     -33.034   7.229   5.356  1.00 20.00     0.099 N 
HETATM    7  O7  UNL     1     -33.488   4.912   3.514  1.00 20.00    -0.389 OA
HETATM    8  H16 UNL     1     -33.014   8.163   5.764  1.00 20.00     0.317 HD
ENDROOT
TORSDOF 0
ENDMDL
MODEL 4
REMARK VINA RESULT:      -4.0      1.729      2.242
REMARK  0 active torsions:
REMARK  status: ('A' for Active; 'I' for Inactive)
ROOT
HETATM    1  C1  UNL     1     -33.073   7.492   4.883  1.00 20.00     0.064 C 
HETATM    2  C2  UNL     1     -34.057   6.935   5.906  1.00 20.00     0.170 C 
HETATM    3  C3  UNL     1     -35.012   5.295   4.485  1.00 20.00     0.205 C 
HETATM    4  C4  UNL     1     -33.494   7.138   3.491  1.00 20.00     0.258 A 
HETATM    5  C5  UNL     1     -34.458   6.000   3.290  1.00 20.00     0.277 A 
HETATM    6  N6  UNL     1     -33.053   5.850   2.945  1.00 20.00     0.099 N 
HETATM    7  O7  UNL     1     -34.247   5.537   5.674  1.00 20.00    -0.389 OA
HETATM    8  H16 UNL     1     -32.929   5.927   1.937  1.00 20.00     0.317 HD
ENDROOT
TORSDOF 0
ENDMDL
MODEL 5
REMARK VINA RESULT:      -3.7      1.113      1.822
REMARK  0 active torsions:
REMARK  status: ('A' for Active; 'I' for Inactive)
ROOT
HETATM    1  C1  UNL     1     -34.761   5.299   4.941  1.00 20.00     0.064 C 
HETATM    2  C2  UNL     1     -34.101   6.395   5.772  1.00 20.00     0.170 C 
HETATM    3  C3  UNL     1     -32.918   7.403   3.982  1.00 20.00     0.205 C 
HETATM    4  C4  UNL     1     -34.026   5.088   3.655  1.00 20.00     0.258 A 
HETATM    5  C5  UNL     1     -33.111   6.174   3.154  1.00 20.00     0.277 A 
HETATM    6  N6  UNL     1     -34.391   5.927   2.509  1.00 20.00     0.099 N 
HETATM    7  O7  UNL     1     -33.942   7.568   4.972  1.00 20.00    -0.389 OA
HETATM    8  H16 UNL     1     -34.252   5.407   1.643  1.00 20.00     0.317 HD
ENDROOT
TORSDOF 0
ENDMDL
MODEL 6
REMARK VINA RESULT:      -3.7      1.716      2.914
REMARK  0 active torsions:
REMARK  status: ('A' for Active; 'I' for Inactive)
ROOT
HETATM    1  C1  UNL     1     -33.603   5.232   2.851  1.00 20.00     0.064 C 
HETATM    2  C2  UNL     1     -34.244   4.745   4.145  1.00 20.00     0.170 C 
HETATM    3  C3  UNL     1     -34.076   6.802   5.311  1.00 20.00     0.205 C 
HETATM    4  C4  UNL     1     -32.796   6.470   3.088  1.00 20.00     0.258 A 
HETATM    5  C5  UNL     1     -33.060   7.283   4.326  1.00 20.00     0.277 A 
HETATM    6  N6  UNL     1     -33.485   7.763   3.021  1.00 20.00     0.099 N 
HETATM    7  O7  UNL     1     -34.961   5.820   4.756  1.00 20.00    -0.389 OA
HETATM    8  H16 UNL     1     -32.842   8.479   2.684  1.00 20.00     0.317 HD
ENDROOT
TORSDOF 0
ENDMDL
MODEL 7
REMARK VINA RESULT:      -3.5     12.301     13.016
REMARK  0 active torsions:
REMARK  status: ('A' for Active; 'I' for Inactive)
ROOT
HETATM    1  C1  UNL     1     -35.209  14.335  -4.443  1.00 20.00     0.064 C 
HETATM    2  C2  UNL     1     -36.042  13.365  -5.274  1.00 20.00     0.170 C 
HETATM    3  C3  UNL     1     -34.730  13.514  -7.243  1.00 20.00     0.205 C 
HETATM    4  C4  UNL     1     -34.373  15.211  -5.324  1.00 20.00     0.258 A 
HETATM    5  C5  UNL     1     -34.107  14.775  -6.739  1.00 20.00     0.277 A 
HETATM    6  N6  UNL     1     -33.056  14.716  -5.736  1.00 20.00     0.099 N 
HETATM    7  O7  UNL     1     -35.191  12.664  -6.183  1.00 20.00    -0.389 OA
HETATM    8  H16 UNL     1     -32.415  15.499  -5.853  1.00 20.00     0.317 HD
ENDROOT
TORSDOF 0
ENDMDL
MODEL 8
REMARK VINA RESULT:      -3.5     12.108     12.776
REMARK  0 active torsions:
REMARK  status: ('A' for Active; 'I' for Inactive)
ROOT
HETATM    1  C1  UNL     1     -33.394  15.096  -5.231  1.00 20.00     0.064 C 
HETATM    2  C2  UNL     1     -34.293  14.786  -4.039  1.00 20.00     0.170 C 
HETATM    3  C3  UNL     1     -35.805  13.385  -5.208  1.00 20.00     0.205 C 
HETATM    4  C4  UNL     1     -34.106  14.827  -6.520  1.00 20.00     0.258 A 
HETATM    5  C5  UNL     1     -35.315  13.932  -6.509  1.00 20.00     0.277 A 
HETATM    6  N6  UNL     1     -34.054  13.467  -7.064  1.00 20.00     0.099 N 
HETATM    7  O7  UNL     1     -34.820  13.464  -4.169  1.00 20.00    -0.389 OA
HETATM    8  H16 UNL     1     -34.085  13.502  -8.082  1.00 20.00     0.317 HD
ENDROOT
TORSDOF 0
ENDMDL
MODEL 9
REMARK VINA RESULT:      -3.3      1.615      2.493
REMARK  0 active torsions:
REMARK  status: ('A' for Active; 'I' for Inactive)
ROOT
HETATM    1  C1  UNL     1     -33.340   7.299   3.423  1.00 20.00     0.064 C 
HETATM    2  C2  UNL     1     -34.055   6.061   2.893  1.00 20.00     0.170 C 
HETATM    3  C3  UNL     1     -34.835   5.291   4.995  1.00 20.00     0.205 C 
HETATM    4  C4  UNL     1     -33.059   7.168   4.887  1.00 20.00     0.258 A 
HETATM    5  C5  UNL     1     -33.843   6.165   5.690  1.00 20.00     0.277 A 
HETATM    6  N6  UNL     1     -34.102   7.590   5.828  1.00 20.00     0.099 N 
HETATM    7  O7  UNL     1     -35.202   5.791   3.702  1.00 20.00    -0.389 OA
HETATM    8  H16 UNL     1     -33.674   7.943   6.682  1.00 20.00     0.317 HD
ENDROOT
TORSDOF 0
ENDMDL
