MODEL 1
REMARK VINA RESULT:      -5.0      0.000      0.000
REMARK  1 active torsions:
REMARK  status: ('A' for Active; 'I' for Inactive)
REMARK    1  A    between atoms: C2_2  and  C6_6 
ROOT
HETATM    1  C1  UNL     1     -32.998   7.752   5.057  1.00 20.00    -0.021 C 
HETATM    2  C2  UNL     1     -32.752   7.420   3.777  1.00 20.00    -0.061 C 
HETATM    3  C3  UNL     1     -33.971   7.064   5.969  1.00 20.00     0.037 C 
HETATM    4  C4  UNL     1     -33.445   6.311   3.029  1.00 20.00     0.108 C 
HETATM    5  C5  UNL     1     -34.440   5.692   5.499  1.00 20.00     0.078 C 
HETATM    6  S7  UNL     1     -35.003   5.766   3.780  1.00 20.00    -0.165 SA
ENDROOT
BRANCH   2   7
HETATM    7  C6  UNL     1     -31.722   8.171   2.977  1.00 20.00     0.149 C 
HETATM    8 CL8  UNL     1     -32.520   8.708   1.501  1.00 20.00    -0.126 Cl
ENDBRANCH   2   7
TORSDOF 1
ENDMDL
MODEL 2
REMARK VINA RESULT:      -4.8      1.074      1.980
REMARK  1 active torsions:
REMARK  status: ('A' for Active; 'I' for Inactive)
REMARK    1  A    between atoms: C2_2  and  C6_6 
ROOT
HETATM    1  C1  UNL     1     -33.005   6.342   2.807  1.00 20.00    -0.021 C 
HETATM    2  C2  UNL     1     -32.695   7.348   3.644  1.00 20.00    -0.061 C 
HETATM    3  C3  UNL     1     -34.075   5.313   3.033  1.00 20.00     0.037 C 
HETATM    4  C4  UNL     1     -33.353   7.591   4.977  1.00 20.00     0.108 C 
HETATM    5  C5  UNL     1     -35.087   5.659   4.119  1.00 20.00     0.078 C 
HETATM    6  S7  UNL     1     -34.242   6.157   5.641  1.00 20.00    -0.165 SA
ENDROOT
BRANCH   2   7
HETATM    7  C6  UNL     1     -31.620   8.338   3.283  1.00 20.00     0.149 C 
HETATM    8 CL8  UNL     1     -31.818   8.698   1.571  1.00 20.00    -0.126 Cl
ENDBRANCH   2   7
TORSDOF 1
ENDMDL
MODEL 3
REMARK VINA RESULT:      -3.6      2.456      3.509
REMARK  1 active torsions:
REMARK  status: ('A' for Active; 'I' for Inactive)
REMARK    1  A    between atoms: C2_2  and  C6_6 
ROOT
HETATM    1  C1  UNL     1     -32.380   7.981   4.563  1.00 20.00    -0.021 C 
HETATM    2  C2  UNL     1     -33.444   7.165   4.675  1.00 20.00    -0.061 C 
HETATM    3  C3  UNL     1     -31.694   8.353   3.281  1.00 20.00     0.037 C 
HETATM    4  C4  UNL     1     -34.108   6.456   3.525  1.00 20.00     0.108 C 
HETATM    5  C5  UNL     1     -32.484   8.052   2.012  1.00 20.00     0.078 C 
HETATM    6  S7  UNL     1     -33.089   6.345   2.029  1.00 20.00    -0.165 SA
ENDROOT
BRANCH   2   7
HETATM    7  C6  UNL     1     -34.063   6.899   6.021  1.00 20.00     0.149 C 
HETATM    8 CL8  UNL     1     -34.669   5.246   5.982  1.00 20.00    -0.126 Cl
ENDBRANCH   2   7
TORSDOF 1
ENDMDL
MODEL 4
REMARK VINA RESULT:      -3.5     11.494     11.846
REMARK  1 active torsions:
REMARK  status: ('A' for Active; 'I' for Inactive)
REMARK    1  A    between atoms: C2_2  and  C6_6 
ROOT
HETATM    1  C1  UNL     1     -33.887  15.563  -3.562  1.00 20.00    -0.021 C 
HETATM    2  C2  UNL     1     -35.196  15.837  -3.418  1.00 20.00    -0.061 C 
HETATM    3  C3  UNL     1     -33.290  14.668  -4.609  1.00 20.00     0.037 C 
HETATM    4  C4  UNL     1     -36.294  15.260  -4.273  1.00 20.00     0.108 C 
HETATM    5  C5  UNL     1     -34.208  14.342  -5.782  1.00 20.00     0.078 C 
HETATM    6  S7  UNL     1     -35.819  13.769  -5.188  1.00 20.00    -0.165 SA
ENDROOT
BRANCH   2   7
HETATM    7  C6  UNL     1     -35.665  16.781  -2.344  1.00 20.00     0.149 C 
HETATM    8 CL8  UNL     1     -34.284  17.076  -1.291  1.00 20.00    -0.126 Cl
ENDBRANCH   2   7
TORSDOF 1
ENDMDL
MODEL 5
REMARK VINA RESULT:      -3.5      2.755      3.921
REMARK  1 active torsions:
REMARK  status: ('A' for Active; 'I' for Inactive)
REMARK    1  A    between atoms: C2_2  and  C6_6 
ROOT
HETATM    1  C1  UNL     1     -33.530   6.870   2.673  1.00 20.00    -0.021 C 
HETATM    2  C2  UNL     1     -33.924   6.574   3.925  1.00 20.00    -0.061 C 
HETATM    3  C3  UNL     1     -32.402   7.790   2.305  1.00 20.00     0.037 C 
HETATM    4  C4  UNL     1     -33.315   7.150   5.176  1.00 20.00     0.108 C 
HETATM    5  C5  UNL     1     -31.441   8.123   3.440  1.00 20.00     0.078 C 
HETATM    6  S7  UNL     1     -32.353   8.663   4.908  1.00 20.00    -0.165 SA
ENDROOT
BRANCH   2   7
HETATM    7  C6  UNL     1     -35.052   5.605   4.161  1.00 20.00     0.149 C 
HETATM    8 CL8  UNL     1     -34.634   4.684   5.603  1.00 20.00    -0.126 Cl
ENDBRANCH   2   7
TORSDOF 1
ENDMDL
MODEL 6
REMARK VINA RESULT:      -3.4     11.745     12.322
REMARK  1 active torsions:
REMARK  status: ('A' for Active; 'I' for Inactive)
REMARK    1  A    between atoms: C2_2  and  C6_6 
ROOT
HETATM    1  C1  UNL     1     -34.892  15.015  -3.772  1.00 20.00    -0.021 C 
HETATM    2  C2  UNL     1     -34.008  16.028  -3.816  1.00 20.00    -0.061 C 
HETATM    3  C3  UNL     1     -35.270  14.131  -4.926  1.00 20.00     0.037 C 
HETATM    4  C4  UNL     1     -33.269  16.470  -5.052  1.00 20.00     0.108 C 
HETATM    5  C5  UNL     1     -34.322  14.185  -6.119  1.00 20.00     0.078 C 
HETATM    6  S7  UNL     1     -34.008  15.900  -6.606  1.00 20.00    -0.165 SA
ENDROOT
BRANCH   2   7
HETATM    7  C6  UNL     1     -33.691  16.819  -2.575  1.00 20.00     0.149 C 
HETATM    8 CL8  UNL     1     -35.106  16.715  -1.532  1.00 20.00    -0.126 Cl
ENDBRANCH   2   7
TORSDOF 1
ENDMDL
MODEL 7
REMARK VINA RESULT:      -3.4     11.631     11.812
REMARK  1 active torsions:
REMARK  status: ('A' for Active; 'I' for Inactive)
REMARK    1  A    between atoms: C2_2  and  C6_6 
ROOT
HETATM    1  C1  UNL     1     -35.975  15.670  -3.645  1.00 20.00    -0.021 C 
HETATM    2  C2  UNL     1     -34.641  15.755  -3.494  1.00 20.00    -0.061 C 
HETATM    3  C3  UNL     1     -36.692  14.777  -4.616  1.00 20.00     0.037 C 
HETATM    4  C4  UNL     1     -33.634  14.983  -4.307  1.00 20.00     0.108 C 
HETATM    5  C5  UNL     1     -35.846  13.656  -5.210  1.00 20.00     0.078 C 
HETATM    6  S7  UNL     1     -34.287  14.309  -5.858  1.00 20.00    -0.165 SA
ENDROOT
BRANCH   2   7
HETATM    7  C6  UNL     1     -34.046  16.668  -2.456  1.00 20.00     0.149 C 
HETATM    8 CL8  UNL     1     -35.264  16.868  -1.200  1.00 20.00    -0.126 Cl
ENDBRANCH   2   7
TORSDOF 1
ENDMDL
MODEL 8
REMARK VINA RESULT:      -3.3     11.619     11.967
REMARK  1 active torsions:
REMARK  status: ('A' for Active; 'I' for Inactive)
REMARK    1  A    between atoms: C2_2  and  C6_6 
ROOT
HETATM    1  C1  UNL     1     -33.176  17.653  -1.666  1.00 20.00    -0.021 C 
HETATM    2  C2  UNL     1     -34.420  17.146  -1.591  1.00 20.00    -0.061 C 
HETATM    3  C3  UNL     1     -32.534  18.551  -0.649  1.00 20.00     0.037 C 
HETATM    4  C4  UNL     1     -35.396  17.426  -0.479  1.00 20.00     0.108 C 
HETATM    5  C5  UNL     1     -33.229  18.593   0.708  1.00 20.00     0.078 C 
HETATM    6  S7  UNL     1     -35.002  18.896   0.506  1.00 20.00    -0.165 SA
ENDROOT
BRANCH   2   7
HETATM    7  C6  UNL     1     -34.935  16.225  -2.665  1.00 20.00     0.149 C 
HETATM    8 CL8  UNL     1     -33.552  15.787  -3.662  1.00 20.00    -0.126 Cl
ENDBRANCH   2   7
TORSDOF 1
ENDMDL
MODEL 9
REMARK VINA RESULT:      -3.3     11.848     12.146
REMARK  1 active torsions:
REMARK  status: ('A' for Active; 'I' for Inactive)
REMARK    1  A    between atoms: C2_2  and  C6_6 
ROOT
HETATM    1  C1  UNL     1     -34.819  17.748  -0.124  1.00 20.00    -0.021 C 
HETATM    2  C2  UNL     1     -33.581  18.275  -0.160  1.00 20.00    -0.061 C 
HETATM    3  C3  UNL     1     -35.495  17.023  -1.252  1.00 20.00     0.037 C 
HETATM    4  C4  UNL     1     -32.673  18.254  -1.361  1.00 20.00     0.108 C 
HETATM    5  C5  UNL     1     -34.571  16.567  -2.375  1.00 20.00     0.078 C 
HETATM    6  S7  UNL     1     -33.522  17.934  -2.931  1.00 20.00    -0.165 SA
ENDROOT
BRANCH   2   7
HETATM    7  C6  UNL     1     -33.003  18.949   1.055  1.00 20.00     0.149 C 
HETATM    8 CL8  UNL     1     -31.256  18.753   0.960  1.00 20.00    -0.126 Cl
ENDBRANCH   2   7
TORSDOF 1
ENDMDL
