MODEL 1
REMARK VINA RESULT:      -4.9      0.000      0.000
REMARK  3 active torsions:
REMARK  status: ('A' for Active; 'I' for Inactive)
REMARK    1  A    between atoms: C1_1  and  O7_7 
REMARK    2  A    between atoms: C4_4  and  C5_5 
REMARK    3  A    between atoms: C5_5  and  O7_7 
ROOT
HETATM    1  C5  UNL     1     -33.258   6.223   2.744  1.00 20.00     0.184 C 
ENDROOT
BRANCH   1   2
HETATM    2  C4  UNL     1     -32.967   7.677   2.896  1.00 20.00     0.010 A 
HETATM    3  C2  UNL     1     -31.616   8.133   3.376  1.00 20.00     0.007 A 
HETATM    4  C3  UNL     1     -32.023   8.362   1.947  1.00 20.00     0.007 A 
ENDBRANCH   1   2
BRANCH   1   5
HETATM    5  O7  UNL     1     -34.533   5.921   3.309  1.00 20.00    -0.308 OA
BRANCH   5   6
HETATM    6  C1  UNL     1     -34.525   5.160   4.452  1.00 20.00     0.357 C 
HETATM    7  O6  UNL     1     -34.606   3.936   4.443  1.00 20.00    -0.246 OA
HETATM    8 CL8  UNL     1     -34.388   6.126   5.898  1.00 20.00    -0.012 Cl
ENDBRANCH   5   6
ENDBRANCH   1   5
TORSDOF 3
ENDMDL
MODEL 2
REMARK VINA RESULT:      -4.9      2.901      4.164
REMARK  3 active torsions:
REMARK  status: ('A' for Active; 'I' for Inactive)
REMARK    1  A    between atoms: C1_1  and  O7_7 
REMARK    2  A    between atoms: C4_4  and  C5_5 
REMARK    3  A    between atoms: C5_5  and  O7_7 
ROOT
HETATM    1  C5  UNL     1     -33.372   6.302   3.305  1.00 20.00     0.184 C 
ENDROOT
BRANCH   1   2
HETATM    2  C4  UNL     1     -34.408   6.469   4.363  1.00 20.00     0.010 A 
HETATM    3  C2  UNL     1     -34.525   5.461   5.473  1.00 20.00     0.007 A 
HETATM    4  C3  UNL     1     -34.006   6.841   5.763  1.00 20.00     0.007 A 
ENDBRANCH   1   2
BRANCH   1   5
HETATM    5  O7  UNL     1     -33.277   7.494   2.525  1.00 20.00    -0.308 OA
BRANCH   5   6
HETATM    6  C1  UNL     1     -32.067   8.143   2.552  1.00 20.00     0.357 C 
HETATM    7  O6  UNL     1     -31.403   8.278   3.575  1.00 20.00    -0.246 OA
HETATM    8 CL8  UNL     1     -31.593   8.743   0.985  1.00 20.00    -0.012 Cl
ENDBRANCH   5   6
ENDBRANCH   1   5
TORSDOF 3
ENDMDL
MODEL 3
REMARK VINA RESULT:      -4.6      1.526      2.135
REMARK  3 active torsions:
REMARK  status: ('A' for Active; 'I' for Inactive)
REMARK    1  A    between atoms: C1_1  and  O7_7 
REMARK    2  A    between atoms: C4_4  and  C5_5 
REMARK    3  A    between atoms: C5_5  and  O7_7 
ROOT
HETATM    1  C5  UNL     1     -32.781   7.674   2.332  1.00 20.00     0.184 C 
ENDROOT
BRANCH   1   2
HETATM    2  C4  UNL     1     -32.021   8.883   1.905  1.00 20.00     0.010 A 
HETATM    3  C2  UNL     1     -31.808   9.167   0.443  1.00 20.00     0.007 A 
HETATM    4  C3  UNL     1     -32.735  10.033   1.249  1.00 20.00     0.007 A 
ENDBRANCH   1   2
BRANCH   1   5
HETATM    5  O7  UNL     1     -32.724   7.540   3.752  1.00 20.00    -0.308 OA
BRANCH   5   6
HETATM    6  C1  UNL     1     -33.800   6.931   4.348  1.00 20.00     0.357 C 
HETATM    7  O6  UNL     1     -34.614   6.252   3.728  1.00 20.00    -0.246 OA
HETATM    8 CL8  UNL     1     -33.874   7.231   6.064  1.00 20.00    -0.012 Cl
ENDBRANCH   5   6
ENDBRANCH   1   5
TORSDOF 3
ENDMDL
MODEL 4
REMARK VINA RESULT:      -4.6      3.307      4.480
REMARK  3 active torsions:
REMARK  status: ('A' for Active; 'I' for Inactive)
REMARK    1  A    between atoms: C1_1  and  O7_7 
REMARK    2  A    between atoms: C4_4  and  C5_5 
REMARK    3  A    between atoms: C5_5  and  O7_7 
ROOT
HETATM    1  C5  UNL     1     -32.735   7.147   2.920  1.00 20.00     0.184 C 
ENDROOT
BRANCH   1   2
HETATM    2  C4  UNL     1     -33.909   7.245   3.832  1.00 20.00     0.010 A 
HETATM    3  C2  UNL     1     -34.387   6.033   4.584  1.00 20.00     0.007 A 
HETATM    4  C3  UNL     1     -33.719   7.160   5.321  1.00 20.00     0.007 A 
ENDBRANCH   1   2
BRANCH   1   5
HETATM    5  O7  UNL     1     -32.100   8.421   2.806  1.00 20.00    -0.308 OA
BRANCH   5   6
HETATM    6  C1  UNL     1     -31.988   8.931   1.536  1.00 20.00     0.357 C 
HETATM    7  O6  UNL     1     -31.241   8.457   0.686  1.00 20.00    -0.246 OA
HETATM    8 CL8  UNL     1     -33.020  10.314   1.277  1.00 20.00    -0.012 Cl
ENDBRANCH   5   6
ENDBRANCH   1   5
TORSDOF 3
ENDMDL
MODEL 5
REMARK VINA RESULT:      -4.5      3.861      4.901
REMARK  3 active torsions:
REMARK  status: ('A' for Active; 'I' for Inactive)
REMARK    1  A    between atoms: C1_1  and  O7_7 
REMARK    2  A    between atoms: C4_4  and  C5_5 
REMARK    3  A    between atoms: C5_5  and  O7_7 
ROOT
HETATM    1  C5  UNL     1     -31.895   8.175   2.674  1.00 20.00     0.184 C 
ENDROOT
BRANCH   1   2
HETATM    2  C4  UNL     1     -33.199   7.456   2.714  1.00 20.00     0.010 A 
HETATM    3  C2  UNL     1     -33.237   5.965   2.910  1.00 20.00     0.007 A 
HETATM    4  C3  UNL     1     -33.706   6.879   4.007  1.00 20.00     0.007 A 
ENDBRANCH   1   2
BRANCH   1   5
HETATM    5  O7  UNL     1     -31.618   8.608   1.343  1.00 20.00    -0.308 OA
BRANCH   5   6
HETATM    6  C1  UNL     1     -32.417   9.612   0.853  1.00 20.00     0.357 C 
HETATM    7  O6  UNL     1     -32.581  10.680   1.433  1.00 20.00    -0.246 OA
HETATM    8 CL8  UNL     1     -33.158   9.195  -0.670  1.00 20.00    -0.012 Cl
ENDBRANCH   5   6
ENDBRANCH   1   5
TORSDOF 3
ENDMDL
MODEL 6
REMARK VINA RESULT:      -3.7      1.908      2.698
REMARK  3 active torsions:
REMARK  status: ('A' for Active; 'I' for Inactive)
REMARK    1  A    between atoms: C1_1  and  O7_7 
REMARK    2  A    between atoms: C4_4  and  C5_5 
REMARK    3  A    between atoms: C5_5  and  O7_7 
ROOT
HETATM    1  C5  UNL     1     -32.767   7.354   3.603  1.00 20.00     0.184 C 
ENDROOT
BRANCH   1   2
HETATM    2  C4  UNL     1     -32.932   6.416   2.457  1.00 20.00     0.010 A 
HETATM    3  C2  UNL     1     -32.951   4.930   2.690  1.00 20.00     0.007 A 
HETATM    4  C3  UNL     1     -34.211   5.644   2.289  1.00 20.00     0.007 A 
ENDBRANCH   1   2
BRANCH   1   5
HETATM    5  O7  UNL     1     -33.988   7.447   4.335  1.00 20.00    -0.308 OA
BRANCH   5   6
HETATM    6  C1  UNL     1     -33.946   7.027   5.642  1.00 20.00     0.357 C 
HETATM    7  O6  UNL     1     -33.487   7.711   6.551  1.00 20.00    -0.246 OA
HETATM    8 CL8  UNL     1     -34.614   5.429   5.853  1.00 20.00    -0.012 Cl
ENDBRANCH   5   6
ENDBRANCH   1   5
TORSDOF 3
ENDMDL
MODEL 7
REMARK VINA RESULT:      -3.6     11.536     11.887
REMARK  3 active torsions:
REMARK  status: ('A' for Active; 'I' for Inactive)
REMARK    1  A    between atoms: C1_1  and  O7_7 
REMARK    2  A    between atoms: C4_4  and  C5_5 
REMARK    3  A    between atoms: C5_5  and  O7_7 
ROOT
HETATM    1  C5  UNL     1     -34.247  15.002  -3.867  1.00 20.00     0.184 C 
ENDROOT
BRANCH   1   2
HETATM    2  C4  UNL     1     -34.547  16.376  -3.372  1.00 20.00     0.010 A 
HETATM    3  C2  UNL     1     -35.233  16.571  -2.048  1.00 20.00     0.007 A 
HETATM    4  C3  UNL     1     -33.786  16.944  -2.207  1.00 20.00     0.007 A 
ENDBRANCH   1   2
BRANCH   1   5
HETATM    5  O7  UNL     1     -34.937  14.765  -5.094  1.00 20.00    -0.308 OA
BRANCH   5   6
HETATM    6  C1  UNL     1     -35.990  13.886  -5.038  1.00 20.00     0.357 C 
HETATM    7  O6  UNL     1     -35.866  12.680  -5.225  1.00 20.00    -0.246 OA
HETATM    8 CL8  UNL     1     -37.502  14.675  -4.674  1.00 20.00    -0.012 Cl
ENDBRANCH   5   6
ENDBRANCH   1   5
TORSDOF 3
ENDMDL
MODEL 8
REMARK VINA RESULT:      -3.6     11.841     12.218
REMARK  3 active torsions:
REMARK  status: ('A' for Active; 'I' for Inactive)
REMARK    1  A    between atoms: C1_1  and  O7_7 
REMARK    2  A    between atoms: C4_4  and  C5_5 
REMARK    3  A    between atoms: C5_5  and  O7_7 
ROOT
HETATM    1  C5  UNL     1     -33.849  15.272  -5.203  1.00 20.00     0.184 C 
ENDROOT
BRANCH   1   2
HETATM    2  C4  UNL     1     -34.021  15.307  -3.723  1.00 20.00     0.010 A 
HETATM    3  C2  UNL     1     -33.698  16.558  -2.953  1.00 20.00     0.007 A 
HETATM    4  C3  UNL     1     -35.127  16.119  -3.110  1.00 20.00     0.007 A 
ENDBRANCH   1   2
BRANCH   1   5
HETATM    5  O7  UNL     1     -34.116  13.958  -5.693  1.00 20.00    -0.308 OA
BRANCH   5   6
HETATM    6  C1  UNL     1     -35.440  13.612  -5.811  1.00 20.00     0.357 C 
HETATM    7  O6  UNL     1     -35.941  12.665  -5.214  1.00 20.00    -0.246 OA
HETATM    8 CL8  UNL     1     -36.312  14.664  -6.895  1.00 20.00    -0.012 Cl
ENDBRANCH   5   6
ENDBRANCH   1   5
TORSDOF 3
ENDMDL
MODEL 9
REMARK VINA RESULT:      -3.5      2.204      2.825
REMARK  3 active torsions:
REMARK  status: ('A' for Active; 'I' for Inactive)
REMARK    1  A    between atoms: C1_1  and  O7_7 
REMARK    2  A    between atoms: C4_4  and  C5_5 
REMARK    3  A    between atoms: C5_5  and  O7_7 
ROOT
HETATM    1  C5  UNL     1     -33.230   6.984   3.583  1.00 20.00     0.184 C 
ENDROOT
BRANCH   1   2
HETATM    2  C4  UNL     1     -34.059   7.393   4.752  1.00 20.00     0.010 A 
HETATM    3  C2  UNL     1     -34.247   6.454   5.912  1.00 20.00     0.007 A 
HETATM    4  C3  UNL     1     -33.407   7.690   6.074  1.00 20.00     0.007 A 
ENDBRANCH   1   2
BRANCH   1   5
HETATM    5  O7  UNL     1     -33.936   6.023   2.798  1.00 20.00    -0.308 OA
BRANCH   5   6
HETATM    6  C1  UNL     1     -33.474   4.732   2.860  1.00 20.00     0.357 C 
HETATM    7  O6  UNL     1     -32.657   4.274   2.067  1.00 20.00    -0.246 OA
HETATM    8 CL8  UNL     1     -34.173   3.833   4.181  1.00 20.00    -0.012 Cl
ENDBRANCH   5   6
ENDBRANCH   1   5
TORSDOF 3
ENDMDL
