MODEL 1
REMARK VINA RESULT:      -5.9      0.000      0.000
REMARK  4 active torsions:
REMARK  status: ('A' for Active; 'I' for Inactive)
REMARK    1  A    between atoms: C1_1  and  C8_8 
REMARK    2  A    between atoms: C1_1  and  C9_9 
REMARK    3  A    between atoms: C6_6  and  C8_8 
REMARK    4  A    between atoms: C7_7  and  C9_9 
ROOT
HETATM    1  C1  UNL     1     -32.240   7.867   3.306  1.00 20.00     0.127 C 
HETATM    2  O10 UNL     1     -31.210   8.382   3.737  1.00 20.00    -0.298 OA
ENDROOT
BRANCH   1   3
HETATM    3  C8  UNL     1     -32.550   7.796   1.819  1.00 20.00     0.082 C 
BRANCH   3   4
HETATM    4  C6  UNL     1     -32.079   9.025   1.064  1.00 20.00    -0.008 A 
HETATM    5  C2  UNL     1     -32.877   9.553  -0.098  1.00 20.00     0.005 A 
HETATM    6  C3  UNL     1     -32.826  10.324   1.192  1.00 20.00     0.005 A 
ENDBRANCH   3   4
ENDBRANCH   1   3
BRANCH   1   7
HETATM    7  C9  UNL     1     -33.290   7.260   4.222  1.00 20.00     0.082 C 
BRANCH   7   8
HETATM    8  C7  UNL     1     -33.973   6.050   3.611  1.00 20.00    -0.008 A 
HETATM    9  C4  UNL     1     -34.457   4.930   4.491  1.00 20.00     0.005 A 
HETATM   10  C5  UNL     1     -35.448   5.833   3.811  1.00 20.00     0.005 A 
ENDBRANCH   7   8
ENDBRANCH   1   7
TORSDOF 4
ENDMDL
MODEL 2
REMARK VINA RESULT:      -5.9      0.821      4.662
REMARK  4 active torsions:
REMARK  status: ('A' for Active; 'I' for Inactive)
REMARK    1  A    between atoms: C1_1  and  C8_8 
REMARK    2  A    between atoms: C1_1  and  C9_9 
REMARK    3  A    between atoms: C6_6  and  C8_8 
REMARK    4  A    between atoms: C7_7  and  C9_9 
ROOT
HETATM    1  C1  UNL     1     -32.343   7.541   3.203  1.00 20.00     0.127 C 
HETATM    2  O10 UNL     1     -32.103   8.011   4.314  1.00 20.00    -0.298 OA
ENDROOT
BRANCH   1   3
HETATM    3  C8  UNL     1     -33.129   6.253   3.021  1.00 20.00     0.082 C 
BRANCH   3   4
HETATM    4  C6  UNL     1     -34.416   6.233   3.824  1.00 20.00    -0.008 A 
HETATM    5  C2  UNL     1     -34.867   4.968   4.501  1.00 20.00     0.005 A 
HETATM    6  C3  UNL     1     -34.371   6.124   5.323  1.00 20.00     0.005 A 
ENDBRANCH   3   4
ENDBRANCH   1   3
BRANCH   1   7
HETATM    7  C9  UNL     1     -31.872   8.208   1.921  1.00 20.00     0.082 C 
BRANCH   7   8
HETATM    8  C7  UNL     1     -32.906   9.153   1.338  1.00 20.00    -0.008 A 
HETATM    9  C4  UNL     1     -32.500  10.526   0.874  1.00 20.00     0.005 A 
HETATM   10  C5  UNL     1     -32.891   9.478  -0.131  1.00 20.00     0.005 A 
ENDBRANCH   7   8
ENDBRANCH   1   7
TORSDOF 4
ENDMDL
MODEL 3
REMARK VINA RESULT:      -5.9      0.827      1.178
REMARK  4 active torsions:
REMARK  status: ('A' for Active; 'I' for Inactive)
REMARK    1  A    between atoms: C1_1  and  C8_8 
REMARK    2  A    between atoms: C1_1  and  C9_9 
REMARK    3  A    between atoms: C6_6  and  C8_8 
REMARK    4  A    between atoms: C7_7  and  C9_9 
ROOT
HETATM    1  C1  UNL     1     -32.354   7.539   3.221  1.00 20.00     0.127 C 
HETATM    2  O10 UNL     1     -32.124   7.978   4.347  1.00 20.00    -0.298 OA
ENDROOT
BRANCH   1   3
HETATM    3  C8  UNL     1     -31.855   8.234   1.964  1.00 20.00     0.082 C 
BRANCH   3   4
HETATM    4  C6  UNL     1     -32.890   9.163   1.358  1.00 20.00    -0.008 A 
HETATM    5  C2  UNL     1     -32.484  10.517   0.841  1.00 20.00     0.005 A 
HETATM    6  C3  UNL     1     -32.890   9.435  -0.121  1.00 20.00     0.005 A 
ENDBRANCH   3   4
ENDBRANCH   1   3
BRANCH   1   7
HETATM    7  C9  UNL     1     -33.155   6.269   2.992  1.00 20.00     0.082 C 
BRANCH   7   8
HETATM    8  C7  UNL     1     -34.434   6.227   3.808  1.00 20.00    -0.008 A 
HETATM    9  C4  UNL     1     -34.865   4.949   4.474  1.00 20.00     0.005 A 
HETATM   10  C5  UNL     1     -34.371   6.100   5.306  1.00 20.00     0.005 A 
ENDBRANCH   7   8
ENDBRANCH   1   7
TORSDOF 4
ENDMDL
MODEL 4
REMARK VINA RESULT:      -5.4      1.449      1.736
REMARK  4 active torsions:
REMARK  status: ('A' for Active; 'I' for Inactive)
REMARK    1  A    between atoms: C1_1  and  C8_8 
REMARK    2  A    between atoms: C1_1  and  C9_9 
REMARK    3  A    between atoms: C6_6  and  C8_8 
REMARK    4  A    between atoms: C7_7  and  C9_9 
ROOT
HETATM    1  C1  UNL     1     -33.254   6.979   2.975  1.00 20.00     0.127 C 
HETATM    2  O10 UNL     1     -33.655   6.172   2.138  1.00 20.00    -0.298 OA
ENDROOT
BRANCH   1   3
HETATM    3  C8  UNL     1     -32.363   8.154   2.606  1.00 20.00     0.082 C 
BRANCH   3   4
HETATM    4  C6  UNL     1     -32.827   8.869   1.351  1.00 20.00    -0.008 A 
HETATM    5  C2  UNL     1     -32.581  10.344   1.184  1.00 20.00     0.005 A 
HETATM    6  C3  UNL     1     -31.822   9.356   0.342  1.00 20.00     0.005 A 
ENDBRANCH   3   4
ENDBRANCH   1   3
BRANCH   1   7
HETATM    7  C9  UNL     1     -33.614   6.868   4.447  1.00 20.00     0.082 C 
BRANCH   7   8
HETATM    8  C7  UNL     1     -34.707   5.848   4.708  1.00 20.00    -0.008 A 
HETATM    9  C4  UNL     1     -34.392   4.377   4.681  1.00 20.00     0.005 A 
HETATM   10  C5  UNL     1     -34.711   5.053   5.985  1.00 20.00     0.005 A 
ENDBRANCH   7   8
ENDBRANCH   1   7
TORSDOF 4
ENDMDL
MODEL 5
REMARK VINA RESULT:      -5.4      1.451      5.111
REMARK  4 active torsions:
REMARK  status: ('A' for Active; 'I' for Inactive)
REMARK    1  A    between atoms: C1_1  and  C8_8 
REMARK    2  A    between atoms: C1_1  and  C9_9 
REMARK    3  A    between atoms: C6_6  and  C8_8 
REMARK    4  A    between atoms: C7_7  and  C9_9 
ROOT
HETATM    1  C1  UNL     1     -33.259   6.989   2.974  1.00 20.00     0.127 C 
HETATM    2  O10 UNL     1     -33.680   6.194   2.135  1.00 20.00    -0.298 OA
ENDROOT
BRANCH   1   3
HETATM    3  C8  UNL     1     -33.594   6.860   4.452  1.00 20.00     0.082 C 
BRANCH   3   4
HETATM    4  C6  UNL     1     -34.693   5.848   4.717  1.00 20.00    -0.008 A 
HETATM    5  C2  UNL     1     -34.388   4.375   4.697  1.00 20.00     0.005 A 
HETATM    6  C3  UNL     1     -34.703   5.060   5.998  1.00 20.00     0.005 A 
ENDBRANCH   3   4
ENDBRANCH   1   3
BRANCH   1   7
HETATM    7  C9  UNL     1     -32.371   8.165   2.605  1.00 20.00     0.082 C 
BRANCH   7   8
HETATM    8  C7  UNL     1     -32.824   8.867   1.338  1.00 20.00    -0.008 A 
HETATM    9  C4  UNL     1     -32.581  10.341   1.161  1.00 20.00     0.005 A 
HETATM   10  C5  UNL     1     -31.810   9.349   0.336  1.00 20.00     0.005 A 
ENDBRANCH   7   8
ENDBRANCH   1   7
TORSDOF 4
ENDMDL
MODEL 6
REMARK VINA RESULT:      -4.9      1.964      2.693
REMARK  4 active torsions:
REMARK  status: ('A' for Active; 'I' for Inactive)
REMARK    1  A    between atoms: C1_1  and  C8_8 
REMARK    2  A    between atoms: C1_1  and  C9_9 
REMARK    3  A    between atoms: C6_6  and  C8_8 
REMARK    4  A    between atoms: C7_7  and  C9_9 
ROOT
HETATM    1  C1  UNL     1     -33.364   5.147   2.814  1.00 20.00     0.127 C 
HETATM    2  O10 UNL     1     -32.709   4.410   2.078  1.00 20.00    -0.298 OA
ENDROOT
BRANCH   1   3
HETATM    3  C8  UNL     1     -33.483   6.642   2.565  1.00 20.00     0.082 C 
BRANCH   3   4
HETATM    4  C6  UNL     1     -32.135   7.315   2.380  1.00 20.00    -0.008 A 
HETATM    5  C2  UNL     1     -32.059   8.753   1.946  1.00 20.00     0.005 A 
HETATM    6  C3  UNL     1     -31.677   8.371   3.349  1.00 20.00     0.005 A 
ENDBRANCH   3   4
ENDBRANCH   1   3
BRANCH   1   7
HETATM    7  C9  UNL     1     -34.105   4.626   4.034  1.00 20.00     0.082 C 
BRANCH   7   8
HETATM    8  C7  UNL     1     -34.801   5.728   4.812  1.00 20.00    -0.008 A 
HETATM    9  C4  UNL     1     -34.913   5.641   6.310  1.00 20.00     0.005 A 
HETATM   10  C5  UNL     1     -34.002   6.659   5.683  1.00 20.00     0.005 A 
ENDBRANCH   7   8
ENDBRANCH   1   7
TORSDOF 4
ENDMDL
MODEL 7
REMARK VINA RESULT:      -4.2      1.578      2.392
REMARK  4 active torsions:
REMARK  status: ('A' for Active; 'I' for Inactive)
REMARK    1  A    between atoms: C1_1  and  C8_8 
REMARK    2  A    between atoms: C1_1  and  C9_9 
REMARK    3  A    between atoms: C6_6  and  C8_8 
REMARK    4  A    between atoms: C7_7  and  C9_9 
ROOT
HETATM    1  C1  UNL     1     -33.701   7.189   5.188  1.00 20.00     0.127 C 
HETATM    2  O10 UNL     1     -33.040   7.807   6.022  1.00 20.00    -0.298 OA
ENDROOT
BRANCH   1   3
HETATM    3  C8  UNL     1     -33.833   7.659   3.749  1.00 20.00     0.082 C 
BRANCH   3   4
HETATM    4  C6  UNL     1     -32.544   7.510   2.962  1.00 20.00    -0.008 A 
HETATM    5  C2  UNL     1     -32.186   8.511   1.898  1.00 20.00     0.005 A 
HETATM    6  C3  UNL     1     -31.407   8.470   3.184  1.00 20.00     0.005 A 
ENDBRANCH   3   4
ENDBRANCH   1   3
BRANCH   1   7
HETATM    7  C9  UNL     1     -34.440   5.906   5.528  1.00 20.00     0.082 C 
BRANCH   7   8
HETATM    8  C7  UNL     1     -34.674   5.025   4.314  1.00 20.00    -0.008 A 
HETATM    9  C4  UNL     1     -33.512   4.565   3.477  1.00 20.00     0.005 A 
HETATM   10  C5  UNL     1     -34.255   3.580   4.336  1.00 20.00     0.005 A 
ENDBRANCH   7   8
ENDBRANCH   1   7
TORSDOF 4
ENDMDL
MODEL 8
REMARK VINA RESULT:      -4.1      9.982     11.676
REMARK  4 active torsions:
REMARK  status: ('A' for Active; 'I' for Inactive)
REMARK    1  A    between atoms: C1_1  and  C8_8 
REMARK    2  A    between atoms: C1_1  and  C9_9 
REMARK    3  A    between atoms: C6_6  and  C8_8 
REMARK    4  A    between atoms: C7_7  and  C9_9 
ROOT
HETATM    1  C1  UNL     1     -35.567  13.850  -5.139  1.00 20.00     0.127 C 
HETATM    2  O10 UNL     1     -35.900  12.671  -5.244  1.00 20.00    -0.298 OA
ENDROOT
BRANCH   1   3
HETATM    3  C8  UNL     1     -34.628  14.332  -4.043  1.00 20.00     0.082 C 
BRANCH   3   4
HETATM    4  C6  UNL     1     -34.714  15.830  -3.816  1.00 20.00    -0.008 A 
HETATM    5  C2  UNL     1     -35.031  16.371  -2.449  1.00 20.00     0.005 A 
HETATM    6  C3  UNL     1     -33.650  16.536  -3.021  1.00 20.00     0.005 A 
ENDBRANCH   3   4
ENDBRANCH   1   3
BRANCH   1   7
HETATM    7  C9  UNL     1     -36.065  14.923  -6.092  1.00 20.00     0.082 C 
BRANCH   7   8
HETATM    8  C7  UNL     1     -35.454  14.808  -7.476  1.00 20.00    -0.008 A 
HETATM    9  C4  UNL     1     -34.391  15.777  -7.918  1.00 20.00     0.005 A 
HETATM   10  C5  UNL     1     -34.032  14.344  -7.639  1.00 20.00     0.005 A 
ENDBRANCH   7   8
ENDBRANCH   1   7
TORSDOF 4
ENDMDL
MODEL 9
REMARK VINA RESULT:      -4.1     10.000     11.506
REMARK  4 active torsions:
REMARK  status: ('A' for Active; 'I' for Inactive)
REMARK    1  A    between atoms: C1_1  and  C8_8 
REMARK    2  A    between atoms: C1_1  and  C9_9 
REMARK    3  A    between atoms: C6_6  and  C8_8 
REMARK    4  A    between atoms: C7_7  and  C9_9 
ROOT
HETATM    1  C1  UNL     1     -35.560  13.802  -5.156  1.00 20.00     0.127 C 
HETATM    2  O10 UNL     1     -35.886  12.617  -5.232  1.00 20.00    -0.298 OA
ENDROOT
BRANCH   1   3
HETATM    3  C8  UNL     1     -36.112  14.855  -6.103  1.00 20.00     0.082 C 
BRANCH   3   4
HETATM    4  C6  UNL     1     -35.498  14.777  -7.489  1.00 20.00    -0.008 A 
HETATM    5  C2  UNL     1     -34.463  15.782  -7.917  1.00 20.00     0.005 A 
HETATM    6  C3  UNL     1     -34.064  14.355  -7.658  1.00 20.00     0.005 A 
ENDBRANCH   3   4
ENDBRANCH   1   3
BRANCH   1   7
HETATM    7  C9  UNL     1     -34.580  14.309  -4.112  1.00 20.00     0.082 C 
BRANCH   7   8
HETATM    8  C7  UNL     1     -34.700  15.803  -3.872  1.00 20.00    -0.008 A 
HETATM    9  C4  UNL     1     -33.931  16.454  -2.755  1.00 20.00     0.005 A 
HETATM   10  C5  UNL     1     -33.544  16.714  -4.184  1.00 20.00     0.005 A 
ENDBRANCH   7   8
ENDBRANCH   1   7
TORSDOF 4
ENDMDL
