MODEL 1
REMARK VINA RESULT:      -5.6      0.000      0.000
REMARK  3 active torsions:
REMARK  status: ('A' for Active; 'I' for Inactive)
REMARK    1  A    between atoms: C2_2  and  C6_6 
REMARK    2  A    between atoms: C3_3  and  C6_6 
REMARK    3  A    between atoms: C3_3  and  C7_7 
ROOT
HETATM    1  C3  UNL     1     -33.020   6.721   3.037  1.00 20.00     0.240 C 
HETATM    2  O8  UNL     1     -32.585   5.605   2.750  1.00 20.00    -0.287 OA
ENDROOT
BRANCH   1   3
HETATM    3  C6  UNL     1     -34.321   6.915   3.812  1.00 20.00     0.088 C 
HETATM    4  C5  UNL     1     -35.398   6.068   3.131  1.00 20.00     0.023 C 
BRANCH   3   5
HETATM    5  C2  UNL     1     -34.052   6.635   5.280  1.00 20.00    -0.082 C 
HETATM    6  C1  UNL     1     -33.477   7.504   6.127  1.00 20.00     0.014 C 
HETATM    7  C4  UNL     1     -34.502   5.284   5.775  1.00 20.00     0.043 C 
ENDBRANCH   3   5
ENDBRANCH   1   3
BRANCH   1   8
HETATM    8  C7  UNL     1     -32.270   7.966   2.655  1.00 20.00     0.451 C 
HETATM    9  F9  UNL     1     -33.109   8.996   2.385  1.00 20.00    -0.163 F 
HETATM   10  F10 UNL     1     -31.504   7.782   1.550  1.00 20.00    -0.163 F 
HETATM   11  F11 UNL     1     -31.439   8.379   3.645  1.00 20.00    -0.163 F 
ENDBRANCH   1   8
TORSDOF 3
ENDMDL
MODEL 2
REMARK VINA RESULT:      -5.4      2.850      3.953
REMARK  3 active torsions:
REMARK  status: ('A' for Active; 'I' for Inactive)
REMARK    1  A    between atoms: C2_2  and  C6_6 
REMARK    2  A    between atoms: C3_3  and  C6_6 
REMARK    3  A    between atoms: C3_3  and  C7_7 
ROOT
HETATM    1  C3  UNL     1     -33.578   5.793   3.596  1.00 20.00     0.240 C 
HETATM    2  O8  UNL     1     -32.835   5.298   2.748  1.00 20.00    -0.287 OA
ENDROOT
BRANCH   1   3
HETATM    3  C6  UNL     1     -33.620   7.294   3.868  1.00 20.00     0.088 C 
HETATM    4  C5  UNL     1     -33.535   7.495   5.382  1.00 20.00     0.023 C 
BRANCH   3   5
HETATM    5  C2  UNL     1     -32.550   7.965   3.024  1.00 20.00    -0.082 C 
HETATM    6  C1  UNL     1     -32.717   8.348   1.748  1.00 20.00     0.014 C 
HETATM    7  C4  UNL     1     -31.238   8.216   3.722  1.00 20.00     0.043 C 
ENDBRANCH   3   5
ENDBRANCH   1   3
BRANCH   1   8
HETATM    8  C7  UNL     1     -34.513   4.935   4.401  1.00 20.00     0.451 C 
HETATM    9  F9  UNL     1     -35.806   5.308   4.235  1.00 20.00    -0.163 F 
HETATM   10  F10 UNL     1     -34.251   5.002   5.731  1.00 20.00    -0.163 F 
HETATM   11  F11 UNL     1     -34.428   3.627   4.049  1.00 20.00    -0.163 F 
ENDBRANCH   1   8
TORSDOF 3
ENDMDL
MODEL 3
REMARK VINA RESULT:      -5.4      2.847      3.966
REMARK  3 active torsions:
REMARK  status: ('A' for Active; 'I' for Inactive)
REMARK    1  A    between atoms: C2_2  and  C6_6 
REMARK    2  A    between atoms: C3_3  and  C6_6 
REMARK    3  A    between atoms: C3_3  and  C7_7 
ROOT
HETATM    1  C3  UNL     1     -33.574   5.788   3.601  1.00 20.00     0.240 C 
HETATM    2  O8  UNL     1     -32.818   5.283   2.771  1.00 20.00    -0.287 OA
ENDROOT
BRANCH   1   3
HETATM    3  C6  UNL     1     -33.611   7.292   3.862  1.00 20.00     0.088 C 
HETATM    4  C5  UNL     1     -33.516   7.505   5.374  1.00 20.00     0.023 C 
BRANCH   3   5
HETATM    5  C2  UNL     1     -32.545   7.954   3.006  1.00 20.00    -0.082 C 
HETATM    6  C1  UNL     1     -32.714   8.312   1.723  1.00 20.00     0.014 C 
HETATM    7  C4  UNL     1     -31.235   8.227   3.699  1.00 20.00     0.043 C 
ENDBRANCH   3   5
ENDBRANCH   1   3
BRANCH   1   8
HETATM    8  C7  UNL     1     -34.528   4.942   4.395  1.00 20.00     0.451 C 
HETATM    9  F9  UNL     1     -34.280   5.017   5.726  1.00 20.00    -0.163 F 
HETATM   10  F10 UNL     1     -34.454   3.631   4.054  1.00 20.00    -0.163 F 
HETATM   11  F11 UNL     1     -35.817   5.324   4.209  1.00 20.00    -0.163 F 
ENDBRANCH   1   8
TORSDOF 3
ENDMDL
MODEL 4
REMARK VINA RESULT:      -5.3      1.459      1.740
REMARK  3 active torsions:
REMARK  status: ('A' for Active; 'I' for Inactive)
REMARK    1  A    between atoms: C2_2  and  C6_6 
REMARK    2  A    between atoms: C3_3  and  C6_6 
REMARK    3  A    between atoms: C3_3  and  C7_7 
ROOT
HETATM    1  C3  UNL     1     -32.320   7.805   3.051  1.00 20.00     0.240 C 
HETATM    2  O8  UNL     1     -31.511   7.984   3.963  1.00 20.00    -0.287 OA
ENDROOT
BRANCH   1   3
HETATM    3  C6  UNL     1     -33.456   6.791   3.157  1.00 20.00     0.088 C 
HETATM    4  C5  UNL     1     -32.985   5.494   2.497  1.00 20.00     0.023 C 
BRANCH   3   5
HETATM    5  C2  UNL     1     -33.889   6.705   4.610  1.00 20.00    -0.082 C 
HETATM    6  C1  UNL     1     -33.613   7.633   5.542  1.00 20.00     0.014 C 
HETATM    7  C4  UNL     1     -34.700   5.488   4.973  1.00 20.00     0.043 C 
ENDBRANCH   3   5
ENDBRANCH   1   3
BRANCH   1   8
HETATM    8  C7  UNL     1     -32.243   8.603   1.781  1.00 20.00     0.451 C 
HETATM    9  F9  UNL     1     -32.155   9.934   2.029  1.00 20.00    -0.163 F 
HETATM   10  F10 UNL     1     -33.334   8.420   0.995  1.00 20.00    -0.163 F 
HETATM   11  F11 UNL     1     -31.160   8.266   1.036  1.00 20.00    -0.163 F 
ENDBRANCH   1   8
TORSDOF 3
ENDMDL
MODEL 5
REMARK VINA RESULT:      -5.0      2.946      3.974
REMARK  3 active torsions:
REMARK  status: ('A' for Active; 'I' for Inactive)
REMARK    1  A    between atoms: C2_2  and  C6_6 
REMARK    2  A    between atoms: C3_3  and  C6_6 
REMARK    3  A    between atoms: C3_3  and  C7_7 
ROOT
HETATM    1  C3  UNL     1     -33.812   6.598   4.369  1.00 20.00     0.240 C 
HETATM    2  O8  UNL     1     -33.753   7.564   5.130  1.00 20.00    -0.287 OA
ENDROOT
BRANCH   1   3
HETATM    3  C6  UNL     1     -32.975   6.511   3.095  1.00 20.00     0.088 C 
HETATM    4  C5  UNL     1     -33.904   6.085   1.957  1.00 20.00     0.023 C 
BRANCH   3   5
HETATM    5  C2  UNL     1     -32.230   7.822   2.920  1.00 20.00    -0.082 C 
HETATM    6  C1  UNL     1     -31.257   8.259   3.737  1.00 20.00     0.014 C 
HETATM    7  C4  UNL     1     -32.630   8.639   1.719  1.00 20.00     0.043 C 
ENDBRANCH   3   5
ENDBRANCH   1   3
BRANCH   1   8
HETATM    8  C7  UNL     1     -34.706   5.429   4.671  1.00 20.00     0.451 C 
HETATM    9  F9  UNL     1     -34.958   5.320   6.000  1.00 20.00    -0.163 F 
HETATM   10  F10 UNL     1     -34.158   4.251   4.278  1.00 20.00    -0.163 F 
HETATM   11  F11 UNL     1     -35.905   5.533   4.046  1.00 20.00    -0.163 F 
ENDBRANCH   1   8
TORSDOF 3
ENDMDL
MODEL 6
REMARK VINA RESULT:      -4.8      2.463      3.703
REMARK  3 active torsions:
REMARK  status: ('A' for Active; 'I' for Inactive)
REMARK    1  A    between atoms: C2_2  and  C6_6 
REMARK    2  A    between atoms: C3_3  and  C6_6 
REMARK    3  A    between atoms: C3_3  and  C7_7 
ROOT
HETATM    1  C3  UNL     1     -34.207   6.264   4.162  1.00 20.00     0.240 C 
HETATM    2  O8  UNL     1     -35.297   6.032   3.638  1.00 20.00    -0.287 OA
ENDROOT
BRANCH   1   3
HETATM    3  C6  UNL     1     -32.891   6.138   3.399  1.00 20.00     0.088 C 
HETATM    4  C5  UNL     1     -33.059   5.025   2.363  1.00 20.00     0.023 C 
BRANCH   3   5
HETATM    5  C2  UNL     1     -32.505   7.511   2.877  1.00 20.00    -0.082 C 
HETATM    6  C1  UNL     1     -33.054   8.096   1.800  1.00 20.00     0.014 C 
HETATM    7  C4  UNL     1     -31.447   8.232   3.670  1.00 20.00     0.043 C 
ENDBRANCH   3   5
ENDBRANCH   1   3
BRANCH   1   8
HETATM    8  C7  UNL     1     -34.117   6.712   5.594  1.00 20.00     0.451 C 
HETATM    9  F9  UNL     1     -35.065   6.122   6.365  1.00 20.00    -0.163 F 
HETATM   10  F10 UNL     1     -34.284   8.052   5.722  1.00 20.00    -0.163 F 
HETATM   11  F11 UNL     1     -32.914   6.411   6.144  1.00 20.00    -0.163 F 
ENDBRANCH   1   8
TORSDOF 3
ENDMDL
MODEL 7
REMARK VINA RESULT:      -4.7      2.123      3.159
REMARK  3 active torsions:
REMARK  status: ('A' for Active; 'I' for Inactive)
REMARK    1  A    between atoms: C2_2  and  C6_6 
REMARK    2  A    between atoms: C3_3  and  C6_6 
REMARK    3  A    between atoms: C3_3  and  C7_7 
ROOT
HETATM    1  C3  UNL     1     -32.806   8.856   1.852  1.00 20.00     0.240 C 
HETATM    2  O8  UNL     1     -33.825   9.449   2.209  1.00 20.00    -0.287 OA
ENDROOT
BRANCH   1   3
HETATM    3  C6  UNL     1     -32.182   7.736   2.679  1.00 20.00     0.088 C 
HETATM    4  C5  UNL     1     -31.237   8.380   3.696  1.00 20.00     0.023 C 
BRANCH   3   5
HETATM    5  C2  UNL     1     -33.299   6.869   3.233  1.00 20.00    -0.082 C 
HETATM    6  C1  UNL     1     -33.911   5.889   2.548  1.00 20.00     0.014 C 
HETATM    7  C4  UNL     1     -33.693   7.152   4.660  1.00 20.00     0.043 C 
ENDBRANCH   3   5
ENDBRANCH   1   3
BRANCH   1   8
HETATM    8  C7  UNL     1     -32.130   9.194   0.553  1.00 20.00     0.451 C 
HETATM    9  F9  UNL     1     -31.835  10.515   0.469  1.00 20.00    -0.163 F 
HETATM   10  F10 UNL     1     -32.904   8.894  -0.520  1.00 20.00    -0.163 F 
HETATM   11  F11 UNL     1     -30.965   8.516   0.399  1.00 20.00    -0.163 F 
ENDBRANCH   1   8
TORSDOF 3
ENDMDL
MODEL 8
REMARK VINA RESULT:      -4.6      1.509      2.041
REMARK  3 active torsions:
REMARK  status: ('A' for Active; 'I' for Inactive)
REMARK    1  A    between atoms: C2_2  and  C6_6 
REMARK    2  A    between atoms: C3_3  and  C6_6 
REMARK    3  A    between atoms: C3_3  and  C7_7 
ROOT
HETATM    1  C3  UNL     1     -33.354   7.258   4.355  1.00 20.00     0.240 C 
HETATM    2  O8  UNL     1     -33.191   7.685   5.499  1.00 20.00    -0.287 OA
ENDROOT
BRANCH   1   3
HETATM    3  C6  UNL     1     -34.525   6.354   3.981  1.00 20.00     0.088 C 
HETATM    4  C5  UNL     1     -34.498   6.161   2.464  1.00 20.00     0.023 C 
BRANCH   3   5
HETATM    5  C2  UNL     1     -34.457   5.100   4.835  1.00 20.00    -0.082 C 
HETATM    6  C1  UNL     1     -34.763   5.053   6.142  1.00 20.00     0.014 C 
HETATM    7  C4  UNL     1     -34.033   3.847   4.113  1.00 20.00     0.043 C 
ENDBRANCH   3   5
ENDBRANCH   1   3
BRANCH   1   8
HETATM    8  C7  UNL     1     -32.407   7.629   3.249  1.00 20.00     0.451 C 
HETATM    9  F9  UNL     1     -31.291   8.235   3.725  1.00 20.00    -0.163 F 
HETATM   10  F10 UNL     1     -32.971   8.485   2.360  1.00 20.00    -0.163 F 
HETATM   11  F11 UNL     1     -32.000   6.543   2.545  1.00 20.00    -0.163 F 
ENDBRANCH   1   8
TORSDOF 3
ENDMDL
MODEL 9
REMARK VINA RESULT:      -4.6      1.519      2.106
REMARK  3 active torsions:
REMARK  status: ('A' for Active; 'I' for Inactive)
REMARK    1  A    between atoms: C2_2  and  C6_6 
REMARK    2  A    between atoms: C3_3  and  C6_6 
REMARK    3  A    between atoms: C3_3  and  C7_7 
ROOT
HETATM    1  C3  UNL     1     -33.360   7.250   4.373  1.00 20.00     0.240 C 
HETATM    2  O8  UNL     1     -33.207   7.682   5.517  1.00 20.00    -0.287 OA
ENDROOT
BRANCH   1   3
HETATM    3  C6  UNL     1     -34.527   6.343   3.993  1.00 20.00     0.088 C 
HETATM    4  C5  UNL     1     -34.499   6.161   2.475  1.00 20.00     0.023 C 
BRANCH   3   5
HETATM    5  C2  UNL     1     -34.452   5.083   4.838  1.00 20.00    -0.082 C 
HETATM    6  C1  UNL     1     -34.772   5.021   6.141  1.00 20.00     0.014 C 
HETATM    7  C4  UNL     1     -34.004   3.841   4.111  1.00 20.00     0.043 C 
ENDBRANCH   3   5
ENDBRANCH   1   3
BRANCH   1   8
HETATM    8  C7  UNL     1     -32.405   7.618   3.274  1.00 20.00     0.451 C 
HETATM    9  F9  UNL     1     -31.999   6.528   2.575  1.00 20.00    -0.163 F 
HETATM   10  F10 UNL     1     -31.285   8.220   3.749  1.00 20.00    -0.163 F 
HETATM   11  F11 UNL     1     -32.965   8.475   2.383  1.00 20.00    -0.163 F 
ENDBRANCH   1   8
TORSDOF 3
ENDMDL
