MODEL 1
REMARK VINA RESULT:      -4.1      0.000      0.000
REMARK  1 active torsions:
REMARK  status: ('A' for Active; 'I' for Inactive)
REMARK    1  A    between atoms: C6_6  and  O8_8 
ROOT
HETATM    1  C1  UNL     1     -33.641   7.390   6.148  1.00 20.00     0.015 C 
HETATM    2  C2  UNL     1     -34.032   6.484   5.464  1.00 20.00    -0.077 C 
HETATM    3  C3  UNL     1     -33.372   4.682   3.906  1.00 20.00     0.080 C 
HETATM    4  C4  UNL     1     -33.181   5.545   2.674  1.00 20.00     0.171 C 
HETATM    5  C5  UNL     1     -35.356   5.864   3.461  1.00 20.00     0.219 C 
HETATM    6  C6  UNL     1     -34.510   5.373   4.626  1.00 20.00     0.143 C 
HETATM    7  O7  UNL     1     -34.461   6.112   2.363  1.00 20.00    -0.387 OA
ENDROOT
BRANCH   6   8
HETATM    8  O8  UNL     1     -35.228   4.446   5.424  1.00 20.00    -0.375 OA
HETATM    9  H16 UNL     1     -34.841   3.570   5.259  1.00 20.00     0.211 HD
ENDBRANCH   6   8
TORSDOF 1
ENDMDL
MODEL 2
REMARK VINA RESULT:      -3.8      1.486      3.036
REMARK  1 active torsions:
REMARK  status: ('A' for Active; 'I' for Inactive)
REMARK    1  A    between atoms: C6_6  and  O8_8 
ROOT
HETATM    1  C1  UNL     1     -32.937   4.622   2.598  1.00 20.00     0.015 C 
HETATM    2  C2  UNL     1     -33.712   5.235   3.279  1.00 20.00    -0.077 C 
HETATM    3  C3  UNL     1     -34.297   7.453   4.201  1.00 20.00     0.080 C 
HETATM    4  C4  UNL     1     -33.274   7.478   5.319  1.00 20.00     0.171 C 
HETATM    5  C5  UNL     1     -34.589   5.567   5.575  1.00 20.00     0.219 C 
HETATM    6  C6  UNL     1     -34.662   5.985   4.114  1.00 20.00     0.143 C 
HETATM    7  O7  UNL     1     -33.604   6.400   6.206  1.00 20.00    -0.387 OA
ENDROOT
BRANCH   6   8
HETATM    8  O8  UNL     1     -35.976   5.831   3.602  1.00 20.00    -0.375 OA
HETATM    9  H16 UNL     1     -36.494   5.369   4.282  1.00 20.00     0.211 HD
ENDBRANCH   6   8
TORSDOF 1
ENDMDL
MODEL 3
REMARK VINA RESULT:      -3.8      1.629      2.554
REMARK  1 active torsions:
REMARK  status: ('A' for Active; 'I' for Inactive)
REMARK    1  A    between atoms: C6_6  and  O8_8 
ROOT
HETATM    1  C1  UNL     1     -33.766   3.525   4.418  1.00 20.00     0.015 C 
HETATM    2  C2  UNL     1     -34.126   4.640   4.160  1.00 20.00    -0.077 C 
HETATM    3  C3  UNL     1     -33.922   6.526   2.576  1.00 20.00     0.080 C 
HETATM    4  C4  UNL     1     -32.592   7.057   3.069  1.00 20.00     0.171 C 
HETATM    5  C5  UNL     1     -34.075   7.016   4.871  1.00 20.00     0.219 C 
HETATM    6  C6  UNL     1     -34.568   6.007   3.844  1.00 20.00     0.143 C 
HETATM    7  O7  UNL     1     -32.792   7.484   4.423  1.00 20.00    -0.387 OA
ENDROOT
BRANCH   6   8
HETATM    8  O8  UNL     1     -35.981   6.040   3.730  1.00 20.00    -0.375 OA
HETATM    9  H16 UNL     1     -36.339   6.007   4.633  1.00 20.00     0.211 HD
ENDBRANCH   6   8
TORSDOF 1
ENDMDL
MODEL 4
REMARK VINA RESULT:      -3.8     11.876     12.938
REMARK  1 active torsions:
REMARK  status: ('A' for Active; 'I' for Inactive)
REMARK    1  A    between atoms: C6_6  and  O8_8 
ROOT
HETATM    1  C1  UNL     1     -37.378  15.648  -4.213  1.00 20.00     0.015 C 
HETATM    2  C2  UNL     1     -36.505  14.903  -4.563  1.00 20.00    -0.077 C 
HETATM    3  C3  UNL     1     -34.215  14.094  -4.099  1.00 20.00     0.080 C 
HETATM    4  C4  UNL     1     -33.466  15.271  -4.691  1.00 20.00     0.171 C 
HETATM    5  C5  UNL     1     -34.857  14.387  -6.343  1.00 20.00     0.219 C 
HETATM    6  C6  UNL     1     -35.434  13.990  -4.993  1.00 20.00     0.143 C 
HETATM    7  O7  UNL     1     -33.776  15.299  -6.091  1.00 20.00    -0.387 OA
ENDROOT
BRANCH   6   8
HETATM    8  O8  UNL     1     -35.921  12.658  -5.014  1.00 20.00    -0.375 OA
HETATM    9  H16 UNL     1     -35.488  12.210  -5.760  1.00 20.00     0.211 HD
ENDBRANCH   6   8
TORSDOF 1
ENDMDL
MODEL 5
REMARK VINA RESULT:      -3.8     12.033     13.285
REMARK  1 active torsions:
REMARK  status: ('A' for Active; 'I' for Inactive)
REMARK    1  A    between atoms: C6_6  and  O8_8 
ROOT
HETATM    1  C1  UNL     1     -34.321  13.930  -7.696  1.00 20.00     0.015 C 
HETATM    2  C2  UNL     1     -34.798  13.910  -6.595  1.00 20.00    -0.077 C 
HETATM    3  C3  UNL     1     -36.399  14.993  -5.054  1.00 20.00     0.080 C 
HETATM    4  C4  UNL     1     -35.536  16.178  -4.672  1.00 20.00     0.171 C 
HETATM    5  C5  UNL     1     -34.357  14.226  -4.175  1.00 20.00     0.219 C 
HETATM    6  C6  UNL     1     -35.383  13.886  -5.246  1.00 20.00     0.143 C 
HETATM    7  O7  UNL     1     -34.383  15.652  -4.001  1.00 20.00    -0.387 OA
ENDROOT
BRANCH   6   8
HETATM    8  O8  UNL     1     -35.976  12.621  -5.004  1.00 20.00    -0.375 OA
HETATM    9  H16 UNL     1     -35.647  12.017  -5.690  1.00 20.00     0.211 HD
ENDBRANCH   6   8
TORSDOF 1
ENDMDL
MODEL 6
REMARK VINA RESULT:      -3.7      1.362      2.820
REMARK  1 active torsions:
REMARK  status: ('A' for Active; 'I' for Inactive)
REMARK    1  A    between atoms: C6_6  and  O8_8 
ROOT
HETATM    1  C1  UNL     1     -32.133   7.711   3.539  1.00 20.00     0.015 C 
HETATM    2  C2  UNL     1     -32.990   6.907   3.294  1.00 20.00    -0.077 C 
HETATM    3  C3  UNL     1     -35.190   6.010   3.976  1.00 20.00     0.080 C 
HETATM    4  C4  UNL     1     -34.708   5.160   5.134  1.00 20.00     0.171 C 
HETATM    5  C5  UNL     1     -33.561   4.495   3.213  1.00 20.00     0.219 C 
HETATM    6  C6  UNL     1     -34.040   5.922   2.994  1.00 20.00     0.143 C 
HETATM    7  O7  UNL     1     -33.842   4.158   4.582  1.00 20.00    -0.387 OA
ENDROOT
BRANCH   6   8
HETATM    8  O8  UNL     1     -34.506   6.108   1.668  1.00 20.00    -0.375 OA
HETATM    9  H16 UNL     1     -35.337   6.608   1.725  1.00 20.00     0.211 HD
ENDBRANCH   6   8
TORSDOF 1
ENDMDL
MODEL 7
REMARK VINA RESULT:      -3.7     12.194     13.132
REMARK  1 active torsions:
REMARK  status: ('A' for Active; 'I' for Inactive)
REMARK    1  A    between atoms: C6_6  and  O8_8 
ROOT
HETATM    1  C1  UNL     1     -34.056  16.960  -1.942  1.00 20.00     0.015 C 
HETATM    2  C2  UNL     1     -33.918  16.528  -3.053  1.00 20.00    -0.077 C 
HETATM    3  C3  UNL     1     -35.074  15.603  -5.032  1.00 20.00     0.080 C 
HETATM    4  C4  UNL     1     -35.288  14.200  -4.500  1.00 20.00     0.171 C 
HETATM    5  C5  UNL     1     -33.003  14.672  -4.420  1.00 20.00     0.219 C 
HETATM    6  C6  UNL     1     -33.749  15.998  -4.415  1.00 20.00     0.143 C 
HETATM    7  O7  UNL     1     -33.986  13.632  -4.296  1.00 20.00    -0.387 OA
ENDROOT
BRANCH   6   8
HETATM    8  O8  UNL     1     -33.092  16.959  -5.224  1.00 20.00    -0.375 OA
HETATM    9  H16 UNL     1     -33.489  16.906  -6.109  1.00 20.00     0.211 HD
ENDBRANCH   6   8
TORSDOF 1
ENDMDL
MODEL 8
REMARK VINA RESULT:      -3.7     12.419     13.389
REMARK  1 active torsions:
REMARK  status: ('A' for Active; 'I' for Inactive)
REMARK    1  A    between atoms: C6_6  and  O8_8 
ROOT
HETATM    1  C1  UNL     1     -35.936  13.631  -5.152  1.00 20.00     0.015 C 
HETATM    2  C2  UNL     1     -34.871  14.144  -4.942  1.00 20.00    -0.077 C 
HETATM    3  C3  UNL     1     -33.638  15.766  -3.543  1.00 20.00     0.080 C 
HETATM    4  C4  UNL     1     -34.125  17.028  -4.226  1.00 20.00     0.171 C 
HETATM    5  C5  UNL     1     -33.128  15.664  -5.836  1.00 20.00     0.219 C 
HETATM    6  C6  UNL     1     -33.567  14.773  -4.684  1.00 20.00     0.143 C 
HETATM    7  O7  UNL     1     -33.648  16.979  -5.577  1.00 20.00    -0.387 OA
ENDROOT
BRANCH   6   8
HETATM    8  O8  UNL     1     -32.599  13.774  -4.412  1.00 20.00    -0.375 OA
HETATM    9  H16 UNL     1     -31.797  14.012  -4.907  1.00 20.00     0.211 HD
ENDBRANCH   6   8
TORSDOF 1
ENDMDL
MODEL 9
REMARK VINA RESULT:      -3.7     12.360     13.358
REMARK  1 active torsions:
REMARK  status: ('A' for Active; 'I' for Inactive)
REMARK    1  A    between atoms: C6_6  and  O8_8 
ROOT
HETATM    1  C1  UNL     1     -34.148  15.233  -3.806  1.00 20.00     0.015 C 
HETATM    2  C2  UNL     1     -34.768  14.599  -4.614  1.00 20.00    -0.077 C 
HETATM    3  C3  UNL     1     -34.726  13.580  -6.865  1.00 20.00     0.080 C 
HETATM    4  C4  UNL     1     -34.963  14.847  -7.661  1.00 20.00     0.171 C 
HETATM    5  C5  UNL     1     -36.719  14.599  -6.145  1.00 20.00     0.219 C 
HETATM    6  C6  UNL     1     -35.529  13.821  -5.604  1.00 20.00     0.143 C 
HETATM    7  O7  UNL     1     -36.261  15.333  -7.292  1.00 20.00    -0.387 OA
ENDROOT
BRANCH   6   8
HETATM    8  O8  UNL     1     -35.938  12.589  -5.033  1.00 20.00    -0.375 OA
HETATM    9  H16 UNL     1     -36.517  12.802  -4.282  1.00 20.00     0.211 HD
ENDBRANCH   6   8
TORSDOF 1
ENDMDL
