MODEL 1
REMARK VINA RESULT:      -4.8      0.000      0.000
REMARK  2 active torsions:
REMARK  status: ('A' for Active; 'I' for Inactive)
REMARK    1  A    between atoms: C1_1  and  C9_9 
REMARK    2  A    between atoms: C9_9  and  N10_10 
ROOT
HETATM    1  C2  UNL     1     -34.706   5.159   5.997  1.00 20.00     0.003 C 
HETATM    2  C3  UNL     1     -33.711   6.305   6.146  1.00 20.00     0.030 C 
HETATM    3  C4  UNL     1     -34.786   4.693   4.548  1.00 20.00     0.030 C 
HETATM    4  C5  UNL     1     -33.997   7.425   5.143  1.00 20.00     0.273 C 
HETATM    5  C6  UNL     1     -35.036   5.869   3.599  1.00 20.00     0.273 C 
HETATM    6  N10 UNL     1     -34.080   6.974   3.747  1.00 20.00     0.099 N 
ENDROOT
BRANCH   6   7
HETATM    7  C9  UNL     1     -32.769   6.651   3.190  1.00 20.00     0.287 C 
HETATM    8  C8  UNL     1     -32.879   5.762   1.965  1.00 20.00     0.051 C 
BRANCH   7   9
HETATM    9  C1  UNL     1     -32.088   7.963   2.843  1.00 20.00     0.155 C 
HETATM   10  C7  UNL     1     -32.544   8.646   1.579  1.00 20.00     0.093 C 
HETATM   11  O11 UNL     1     -31.235   8.478   3.567  1.00 20.00    -0.296 OA
ENDBRANCH   7   9
ENDBRANCH   6   7
TORSDOF 2
ENDMDL
MODEL 2
REMARK VINA RESULT:      -4.2     11.472     12.806
REMARK  2 active torsions:
REMARK  status: ('A' for Active; 'I' for Inactive)
REMARK    1  A    between atoms: C1_1  and  C9_9 
REMARK    2  A    between atoms: C9_9  and  N10_10 
ROOT
HETATM    1  C2  UNL     1     -33.709  17.073  -3.522  1.00 20.00     0.003 C 
HETATM    2  C3  UNL     1     -34.690  15.951  -3.197  1.00 20.00     0.030 C 
HETATM    3  C4  UNL     1     -33.477  17.174  -5.025  1.00 20.00     0.030 C 
HETATM    4  C5  UNL     1     -34.269  14.636  -3.856  1.00 20.00     0.273 C 
HETATM    5  C6  UNL     1     -33.098  15.816  -5.622  1.00 20.00     0.273 C 
HETATM    6  N10 UNL     1     -34.040  14.736  -5.304  1.00 20.00     0.099 N 
ENDROOT
BRANCH   6   7
HETATM    7  C9  UNL     1     -35.287  14.850  -6.056  1.00 20.00     0.287 C 
HETATM    8  C8  UNL     1     -35.069  14.662  -7.546  1.00 20.00     0.051 C 
BRANCH   7   9
HETATM    9  C1  UNL     1     -36.240  13.797  -5.515  1.00 20.00     0.155 C 
HETATM   10  C7  UNL     1     -37.618  14.270  -5.130  1.00 20.00     0.093 C 
HETATM   11  O11 UNL     1     -35.933  12.608  -5.429  1.00 20.00    -0.296 OA
ENDBRANCH   7   9
ENDBRANCH   6   7
TORSDOF 2
ENDMDL
MODEL 3
REMARK VINA RESULT:      -4.2     12.077     12.735
REMARK  2 active torsions:
REMARK  status: ('A' for Active; 'I' for Inactive)
REMARK    1  A    between atoms: C1_1  and  C9_9 
REMARK    2  A    between atoms: C9_9  and  N10_10 
ROOT
HETATM    1  C2  UNL     1     -33.755  16.253  -3.070  1.00 20.00     0.003 C 
HETATM    2  C3  UNL     1     -33.346  15.265  -4.157  1.00 20.00     0.030 C 
HETATM    3  C4  UNL     1     -35.273  16.339  -2.957  1.00 20.00     0.030 C 
HETATM    4  C5  UNL     1     -34.057  15.566  -5.479  1.00 20.00     0.273 C 
HETATM    5  C6  UNL     1     -35.918  16.603  -4.320  1.00 20.00     0.273 C 
HETATM    6  N10 UNL     1     -35.519  15.655  -5.367  1.00 20.00     0.099 N 
ENDROOT
BRANCH   6   7
HETATM    7  C9  UNL     1     -36.143  14.345  -5.195  1.00 20.00     0.287 C 
HETATM    8  C8  UNL     1     -37.641  14.455  -4.979  1.00 20.00     0.051 C 
BRANCH   7   9
HETATM    9  C1  UNL     1     -35.837  13.530  -6.441  1.00 20.00     0.155 C 
HETATM   10  C7  UNL     1     -36.340  14.085  -7.749  1.00 20.00     0.093 C 
HETATM   11  O11 UNL     1     -35.178  12.491  -6.406  1.00 20.00    -0.296 OA
ENDBRANCH   7   9
ENDBRANCH   6   7
TORSDOF 2
ENDMDL
MODEL 4
REMARK VINA RESULT:      -4.0     11.939     13.138
REMARK  2 active torsions:
REMARK  status: ('A' for Active; 'I' for Inactive)
REMARK    1  A    between atoms: C1_1  and  C9_9 
REMARK    2  A    between atoms: C9_9  and  N10_10 
ROOT
HETATM    1  C2  UNL     1     -33.762  17.378  -3.415  1.00 20.00     0.003 C 
HETATM    2  C3  UNL     1     -33.911  15.876  -3.200  1.00 20.00     0.030 C 
HETATM    3  C4  UNL     1     -34.470  17.817  -4.692  1.00 20.00     0.030 C 
HETATM    4  C5  UNL     1     -33.498  15.091  -4.447  1.00 20.00     0.273 C 
HETATM    5  C6  UNL     1     -34.037  16.966  -5.889  1.00 20.00     0.273 C 
HETATM    6  N10 UNL     1     -34.175  15.519  -5.678  1.00 20.00     0.099 N 
ENDROOT
BRANCH   6   7
HETATM    7  C9  UNL     1     -35.569  15.084  -5.724  1.00 20.00     0.287 C 
HETATM    8  C8  UNL     1     -36.367  15.851  -6.763  1.00 20.00     0.051 C 
BRANCH   7   9
HETATM    9  C1  UNL     1     -35.570  13.597  -6.034  1.00 20.00     0.155 C 
HETATM   10  C7  UNL     1     -35.054  13.192  -7.391  1.00 20.00     0.093 C 
HETATM   11  O11 UNL     1     -35.930  12.751  -5.216  1.00 20.00    -0.296 OA
ENDBRANCH   7   9
ENDBRANCH   6   7
TORSDOF 2
ENDMDL
MODEL 5
REMARK VINA RESULT:      -3.9     11.719     13.133
REMARK  2 active torsions:
REMARK  status: ('A' for Active; 'I' for Inactive)
REMARK    1  A    between atoms: C1_1  and  C9_9 
REMARK    2  A    between atoms: C9_9  and  N10_10 
ROOT
HETATM    1  C2  UNL     1     -32.920  15.468  -5.100  1.00 20.00     0.003 C 
HETATM    2  C3  UNL     1     -34.076  15.380  -4.109  1.00 20.00     0.030 C 
HETATM    3  C4  UNL     1     -33.430  15.427  -6.536  1.00 20.00     0.030 C 
HETATM    4  C5  UNL     1     -34.983  14.187  -4.418  1.00 20.00     0.273 C 
HETATM    5  C6  UNL     1     -34.360  14.231  -6.762  1.00 20.00     0.273 C 
HETATM    6  N10 UNL     1     -35.469  14.144  -5.804  1.00 20.00     0.099 N 
ENDROOT
BRANCH   6   7
HETATM    7  C9  UNL     1     -36.502  15.145  -6.060  1.00 20.00     0.287 C 
HETATM    8  C8  UNL     1     -36.993  15.096  -7.496  1.00 20.00     0.051 C 
BRANCH   7   9
HETATM    9  C1  UNL     1     -37.642  14.878  -5.092  1.00 20.00     0.155 C 
HETATM   10  C7  UNL     1     -38.093  16.040  -4.245  1.00 20.00     0.093 C 
HETATM   11  O11 UNL     1     -38.207  13.787  -5.021  1.00 20.00    -0.296 OA
ENDBRANCH   7   9
ENDBRANCH   6   7
TORSDOF 2
ENDMDL
MODEL 6
REMARK VINA RESULT:      -3.9     11.960     12.647
REMARK  2 active torsions:
REMARK  status: ('A' for Active; 'I' for Inactive)
REMARK    1  A    between atoms: C1_1  and  C9_9 
REMARK    2  A    between atoms: C9_9  and  N10_10 
ROOT
HETATM    1  C2  UNL     1     -34.151  17.710  -0.741  1.00 20.00     0.003 C 
HETATM    2  C3  UNL     1     -33.040  17.621  -1.782  1.00 20.00     0.030 C 
HETATM    3  C4  UNL     1     -35.390  16.951  -1.202  1.00 20.00     0.030 C 
HETATM    4  C5  UNL     1     -33.543  18.026  -3.169  1.00 20.00     0.273 C 
HETATM    5  C6  UNL     1     -35.813  17.379  -2.610  1.00 20.00     0.273 C 
HETATM    6  N10 UNL     1     -34.741  17.298  -3.610  1.00 20.00     0.099 N 
ENDROOT
BRANCH   6   7
HETATM    7  C9  UNL     1     -34.443  15.920  -3.991  1.00 20.00     0.287 C 
HETATM    8  C8  UNL     1     -35.706  15.116  -4.241  1.00 20.00     0.051 C 
BRANCH   7   9
HETATM    9  C1  UNL     1     -33.583  15.972  -5.243  1.00 20.00     0.155 C 
HETATM   10  C7  UNL     1     -34.169  16.685  -6.434  1.00 20.00     0.093 C 
HETATM   11  O11 UNL     1     -32.447  15.499  -5.285  1.00 20.00    -0.296 OA
ENDBRANCH   7   9
ENDBRANCH   6   7
TORSDOF 2
ENDMDL
MODEL 7
REMARK VINA RESULT:      -3.9     11.515     12.765
REMARK  2 active torsions:
REMARK  status: ('A' for Active; 'I' for Inactive)
REMARK    1  A    between atoms: C1_1  and  C9_9 
REMARK    2  A    between atoms: C9_9  and  N10_10 
ROOT
HETATM    1  C2  UNL     1     -34.475  14.134  -6.646  1.00 20.00     0.003 C 
HETATM    2  C3  UNL     1     -33.643  15.410  -6.581  1.00 20.00     0.030 C 
HETATM    3  C4  UNL     1     -35.376  14.009  -5.423  1.00 20.00     0.030 C 
HETATM    4  C5  UNL     1     -32.905  15.526  -5.245  1.00 20.00     0.273 C 
HETATM    5  C6  UNL     1     -34.579  14.173  -4.126  1.00 20.00     0.273 C 
HETATM    6  N10 UNL     1     -33.774  15.399  -4.067  1.00 20.00     0.099 N 
ENDROOT
BRANCH   6   7
HETATM    7  C9  UNL     1     -34.593  16.589  -3.851  1.00 20.00     0.287 C 
HETATM    8  C8  UNL     1     -35.743  16.320  -2.898  1.00 20.00     0.051 C 
BRANCH   7   9
HETATM    9  C1  UNL     1     -33.682  17.673  -3.301  1.00 20.00     0.155 C 
HETATM   10  C7  UNL     1     -33.242  17.521  -1.868  1.00 20.00     0.093 C 
HETATM   11  O11 UNL     1     -33.279  18.611  -3.990  1.00 20.00    -0.296 OA
ENDBRANCH   7   9
ENDBRANCH   6   7
TORSDOF 2
ENDMDL
MODEL 8
REMARK VINA RESULT:      -3.8     11.420     12.740
REMARK  2 active torsions:
REMARK  status: ('A' for Active; 'I' for Inactive)
REMARK    1  A    between atoms: C1_1  and  C9_9 
REMARK    2  A    between atoms: C9_9  and  N10_10 
ROOT
HETATM    1  C2  UNL     1     -33.627  16.635  -3.677  1.00 20.00     0.003 C 
HETATM    2  C3  UNL     1     -35.088  17.025  -3.874  1.00 20.00     0.030 C 
HETATM    3  C4  UNL     1     -33.306  15.339  -4.413  1.00 20.00     0.030 C 
HETATM    4  C5  UNL     1     -36.025  15.864  -3.535  1.00 20.00     0.273 C 
HETATM    5  C6  UNL     1     -34.305  14.234  -4.055  1.00 20.00     0.273 C 
HETATM    6  N10 UNL     1     -35.712  14.614  -4.240  1.00 20.00     0.099 N 
ENDROOT
BRANCH   6   7
HETATM    7  C9  UNL     1     -36.091  14.663  -5.650  1.00 20.00     0.287 C 
HETATM    8  C8  UNL     1     -35.508  13.501  -6.434  1.00 20.00     0.051 C 
BRANCH   7   9
HETATM    9  C1  UNL     1     -37.609  14.644  -5.711  1.00 20.00     0.155 C 
HETATM   10  C7  UNL     1     -38.259  15.642  -6.635  1.00 20.00     0.093 C 
HETATM   11  O11 UNL     1     -38.287  13.834  -5.078  1.00 20.00    -0.296 OA
ENDBRANCH   7   9
ENDBRANCH   6   7
TORSDOF 2
ENDMDL
MODEL 9
REMARK VINA RESULT:      -3.8     11.618     12.902
REMARK  2 active torsions:
REMARK  status: ('A' for Active; 'I' for Inactive)
REMARK    1  A    between atoms: C1_1  and  C9_9 
REMARK    2  A    between atoms: C9_9  and  N10_10 
ROOT
HETATM    1  C2  UNL     1     -36.256  18.179  -4.257  1.00 20.00     0.003 C 
HETATM    2  C3  UNL     1     -36.866  17.187  -5.242  1.00 20.00     0.030 C 
HETATM    3  C4  UNL     1     -34.971  17.624  -3.653  1.00 20.00     0.030 C 
HETATM    4  C5  UNL     1     -37.017  15.800  -4.615  1.00 20.00     0.273 C 
HETATM    5  C6  UNL     1     -35.187  16.220  -3.079  1.00 20.00     0.273 C 
HETATM    6  N10 UNL     1     -35.780  15.269  -4.027  1.00 20.00     0.099 N 
ENDROOT
BRANCH   6   7
HETATM    7  C9  UNL     1     -34.825  14.833  -5.044  1.00 20.00     0.287 C 
HETATM    8  C8  UNL     1     -33.493  14.433  -4.436  1.00 20.00     0.051 C 
BRANCH   7   9
HETATM    9  C1  UNL     1     -35.453  13.663  -5.782  1.00 20.00     0.155 C 
HETATM   10  C7  UNL     1     -35.457  13.740  -7.287  1.00 20.00     0.093 C 
HETATM   11  O11 UNL     1     -35.900  12.676  -5.198  1.00 20.00    -0.296 OA
ENDBRANCH   7   9
ENDBRANCH   6   7
TORSDOF 2
ENDMDL
