MODEL 1
REMARK VINA RESULT:      -4.3      0.000      0.000
REMARK  2 active torsions:
REMARK  status: ('A' for Active; 'I' for Inactive)
REMARK    1  A    between atoms: C1_1  and  C7_7 
REMARK    2  A    between atoms: C7_7  and  N8_8 
ROOT
HETATM    1  C1  UNL     1     -33.351   7.295   3.036  1.00 20.00    -0.053 C 
HETATM    2  C2  UNL     1     -32.815   8.029   2.252  1.00 20.00    -0.021 C 
HETATM    3 BR9  UNL     1     -31.966   9.190   1.010  1.00 20.00     0.010 Br
ENDROOT
BRANCH   1   4
HETATM    4  C7  UNL     1     -34.012   6.393   4.002  1.00 20.00     0.214 C 
HETATM    5  C3  UNL     1     -35.495   6.246   3.646  1.00 20.00     0.063 C 
HETATM    6  C4  UNL     1     -33.866   6.956   5.421  1.00 20.00     0.063 C 
BRANCH   4   7
HETATM    7  N8  UNL     1     -33.391   5.066   3.964  1.00 20.00     0.100 N 
HETATM    8  C5  UNL     1     -33.044   4.707   2.591  1.00 20.00     0.311 C 
HETATM    9  C6  UNL     1     -34.287   4.069   4.546  1.00 20.00     0.311 C 
ENDBRANCH   4   7
ENDBRANCH   1   4
TORSDOF 2
ENDMDL
MODEL 2
REMARK VINA RESULT:      -4.3      0.885      2.178
REMARK  2 active torsions:
REMARK  status: ('A' for Active; 'I' for Inactive)
REMARK    1  A    between atoms: C1_1  and  C7_7 
REMARK    2  A    between atoms: C7_7  and  N8_8 
ROOT
HETATM    1  C1  UNL     1     -33.356   6.948   2.982  1.00 20.00    -0.053 C 
HETATM    2  C2  UNL     1     -32.811   7.818   2.360  1.00 20.00    -0.021 C 
HETATM    3 BR9  UNL     1     -31.948   9.196   1.377  1.00 20.00     0.010 Br
ENDROOT
BRANCH   1   4
HETATM    4  C7  UNL     1     -34.028   5.875   3.746  1.00 20.00     0.214 C 
HETATM    5  C3  UNL     1     -33.583   4.506   3.220  1.00 20.00     0.063 C 
HETATM    6  C4  UNL     1     -35.549   6.020   3.615  1.00 20.00     0.063 C 
BRANCH   4   7
HETATM    7  N8  UNL     1     -33.674   5.966   5.165  1.00 20.00     0.100 N 
HETATM    8  C5  UNL     1     -34.529   5.086   5.959  1.00 20.00     0.311 C 
HETATM    9  C6  UNL     1     -33.784   7.347   5.629  1.00 20.00     0.311 C 
ENDBRANCH   4   7
ENDBRANCH   1   4
TORSDOF 2
ENDMDL
MODEL 3
REMARK VINA RESULT:      -3.6     11.705     12.533
REMARK  2 active torsions:
REMARK  status: ('A' for Active; 'I' for Inactive)
REMARK    1  A    between atoms: C1_1  and  C7_7 
REMARK    2  A    between atoms: C7_7  and  N8_8 
ROOT
HETATM    1  C1  UNL     1     -34.692  15.918  -3.180  1.00 20.00    -0.053 C 
HETATM    2  C2  UNL     1     -34.942  16.508  -2.165  1.00 20.00    -0.021 C 
HETATM    3 BR9  UNL     1     -35.335  17.441  -0.557  1.00 20.00     0.010 Br
ENDROOT
BRANCH   1   4
HETATM    4  C7  UNL     1     -34.388  15.192  -4.431  1.00 20.00     0.214 C 
HETATM    5  C3  UNL     1     -35.368  14.028  -4.609  1.00 20.00     0.063 C 
HETATM    6  C4  UNL     1     -32.948  14.665  -4.388  1.00 20.00     0.063 C 
BRANCH   4   7
HETATM    7  N8  UNL     1     -34.518  16.090  -5.582  1.00 20.00     0.100 N 
HETATM    8  C5  UNL     1     -35.826  15.922  -6.212  1.00 20.00     0.311 C 
HETATM    9  C6  UNL     1     -33.447  15.840  -6.545  1.00 20.00     0.311 C 
ENDBRANCH   4   7
ENDBRANCH   1   4
TORSDOF 2
ENDMDL
MODEL 4
REMARK VINA RESULT:      -3.5     11.523     12.184
REMARK  2 active torsions:
REMARK  status: ('A' for Active; 'I' for Inactive)
REMARK    1  A    between atoms: C1_1  and  C7_7 
REMARK    2  A    between atoms: C7_7  and  N8_8 
ROOT
HETATM    1  C1  UNL     1     -33.804  16.415  -3.123  1.00 20.00    -0.053 C 
HETATM    2  C2  UNL     1     -33.545  17.146  -2.207  1.00 20.00    -0.021 C 
HETATM    3 BR9  UNL     1     -33.136  18.304  -0.757  1.00 20.00     0.010 Br
ENDROOT
BRANCH   1   4
HETATM    4  C7  UNL     1     -34.121  15.515  -4.252  1.00 20.00     0.214 C 
HETATM    5  C3  UNL     1     -33.023  14.454  -4.395  1.00 20.00     0.063 C 
HETATM    6  C4  UNL     1     -34.238  16.327  -5.547  1.00 20.00     0.063 C 
BRANCH   4   7
HETATM    7  N8  UNL     1     -35.397  14.834  -4.015  1.00 20.00     0.100 N 
HETATM    8  C5  UNL     1     -35.600  13.776  -5.002  1.00 20.00     0.311 C 
HETATM    9  C6  UNL     1     -36.499  15.793  -4.053  1.00 20.00     0.311 C 
ENDBRANCH   4   7
ENDBRANCH   1   4
TORSDOF 2
ENDMDL
MODEL 5
REMARK VINA RESULT:      -3.4     11.799     12.666
REMARK  2 active torsions:
REMARK  status: ('A' for Active; 'I' for Inactive)
REMARK    1  A    between atoms: C1_1  and  C7_7 
REMARK    2  A    between atoms: C7_7  and  N8_8 
ROOT
HETATM    1  C1  UNL     1     -35.261  15.570  -4.162  1.00 20.00    -0.053 C 
HETATM    2  C2  UNL     1     -35.117  16.137  -3.114  1.00 20.00    -0.021 C 
HETATM    3 BR9  UNL     1     -34.888  17.034  -1.455  1.00 20.00     0.010 Br
ENDROOT
BRANCH   1   4
HETATM    4  C7  UNL     1     -35.441  14.872  -5.452  1.00 20.00     0.214 C 
HETATM    5  C3  UNL     1     -36.205  15.772  -6.429  1.00 20.00     0.063 C 
HETATM    6  C4  UNL     1     -36.210  13.564  -5.232  1.00 20.00     0.063 C 
BRANCH   4   7
HETATM    7  N8  UNL     1     -34.137  14.549  -6.040  1.00 20.00     0.100 N 
HETATM    8  C5  UNL     1     -33.408  15.774  -6.361  1.00 20.00     0.311 C 
HETATM    9  C6  UNL     1     -34.308  13.724  -7.234  1.00 20.00     0.311 C 
ENDBRANCH   4   7
ENDBRANCH   1   4
TORSDOF 2
ENDMDL
MODEL 6
REMARK VINA RESULT:      -3.4     11.427     12.084
REMARK  2 active torsions:
REMARK  status: ('A' for Active; 'I' for Inactive)
REMARK    1  A    between atoms: C1_1  and  C7_7 
REMARK    2  A    between atoms: C7_7  and  N8_8 
ROOT
HETATM    1  C1  UNL     1     -34.256  16.689  -2.999  1.00 20.00    -0.053 C 
HETATM    2  C2  UNL     1     -33.631  17.315  -2.186  1.00 20.00    -0.021 C 
HETATM    3 BR9  UNL     1     -32.644  18.304  -0.900  1.00 20.00     0.010 Br
ENDROOT
BRANCH   1   4
HETATM    4  C7  UNL     1     -35.023  15.920  -4.000  1.00 20.00     0.214 C 
HETATM    5  C3  UNL     1     -34.785  16.503  -5.397  1.00 20.00     0.063 C 
HETATM    6  C4  UNL     1     -36.517  15.967  -3.659  1.00 20.00     0.063 C 
BRANCH   4   7
HETATM    7  N8  UNL     1     -34.592  14.519  -4.002  1.00 20.00     0.100 N 
HETATM    8  C5  UNL     1     -33.205  14.414  -4.448  1.00 20.00     0.311 C 
HETATM    9  C6  UNL     1     -35.469  13.719  -4.854  1.00 20.00     0.311 C 
ENDBRANCH   4   7
ENDBRANCH   1   4
TORSDOF 2
ENDMDL
MODEL 7
REMARK VINA RESULT:      -3.4     11.741     12.735
REMARK  2 active torsions:
REMARK  status: ('A' for Active; 'I' for Inactive)
REMARK    1  A    between atoms: C1_1  and  C7_7 
REMARK    2  A    between atoms: C7_7  and  N8_8 
ROOT
HETATM    1  C1  UNL     1     -34.893  15.940  -4.362  1.00 20.00    -0.053 C 
HETATM    2  C2  UNL     1     -35.008  16.327  -3.231  1.00 20.00    -0.021 C 
HETATM    3 BR9  UNL     1     -35.190  16.936  -1.441  1.00 20.00     0.010 Br
ENDROOT
BRANCH   1   4
HETATM    4  C7  UNL     1     -34.752  15.467  -5.755  1.00 20.00     0.214 C 
HETATM    5  C3  UNL     1     -33.422  15.957  -6.338  1.00 20.00     0.063 C 
HETATM    6  C4  UNL     1     -35.920  15.988  -6.601  1.00 20.00     0.063 C 
BRANCH   4   7
HETATM    7  N8  UNL     1     -34.766  14.002  -5.797  1.00 20.00     0.100 N 
HETATM    8  C5  UNL     1     -34.509  13.530  -7.155  1.00 20.00     0.311 C 
HETATM    9  C6  UNL     1     -36.046  13.493  -5.308  1.00 20.00     0.311 C 
ENDBRANCH   4   7
ENDBRANCH   1   4
TORSDOF 2
ENDMDL
MODEL 8
REMARK VINA RESULT:      -3.1      9.227     10.438
REMARK  2 active torsions:
REMARK  status: ('A' for Active; 'I' for Inactive)
REMARK    1  A    between atoms: C1_1  and  C7_7 
REMARK    2  A    between atoms: C7_7  and  N8_8 
ROOT
HETATM    1  C1  UNL     1     -42.494   4.846  -1.355  1.00 20.00    -0.053 C 
HETATM    2  C2  UNL     1     -42.852   4.025  -2.156  1.00 20.00    -0.021 C 
HETATM    3 BR9  UNL     1     -43.416   2.726  -3.422  1.00 20.00     0.010 Br
ENDROOT
BRANCH   1   4
HETATM    4  C7  UNL     1     -42.057   5.857  -0.371  1.00 20.00     0.214 C 
HETATM    5  C3  UNL     1     -40.527   5.865  -0.278  1.00 20.00     0.063 C 
HETATM    6  C4  UNL     1     -42.664   5.543   1.002  1.00 20.00     0.063 C 
BRANCH   4   7
HETATM    7  N8  UNL     1     -42.505   7.191  -0.781  1.00 20.00     0.100 N 
HETATM    8  C5  UNL     1     -41.357   8.073  -0.981  1.00 20.00     0.311 C 
HETATM    9  C6  UNL     1     -43.417   7.750   0.215  1.00 20.00     0.311 C 
ENDBRANCH   4   7
ENDBRANCH   1   4
TORSDOF 2
ENDMDL
MODEL 9
REMARK VINA RESULT:      -3.1     11.693     12.673
REMARK  2 active torsions:
REMARK  status: ('A' for Active; 'I' for Inactive)
REMARK    1  A    between atoms: C1_1  and  C7_7 
REMARK    2  A    between atoms: C7_7  and  N8_8 
ROOT
HETATM    1  C1  UNL     1     -35.740  15.720  -4.319  1.00 20.00    -0.053 C 
HETATM    2  C2  UNL     1     -36.323  16.606  -3.756  1.00 20.00    -0.021 C 
HETATM    3 BR9  UNL     1     -37.247  18.007  -2.867  1.00 20.00     0.010 Br
ENDROOT
BRANCH   1   4
HETATM    4  C7  UNL     1     -35.019  14.631  -5.011  1.00 20.00     0.214 C 
HETATM    5  C3  UNL     1     -35.945  13.422  -5.182  1.00 20.00     0.063 C 
HETATM    6  C4  UNL     1     -33.779  14.233  -4.202  1.00 20.00     0.063 C 
BRANCH   4   7
HETATM    7  N8  UNL     1     -34.584  15.074  -6.339  1.00 20.00     0.100 N 
HETATM    8  C5  UNL     1     -34.407  13.926  -7.225  1.00 20.00     0.311 C 
HETATM    9  C6  UNL     1     -33.345  15.843  -6.237  1.00 20.00     0.311 C 
ENDBRANCH   4   7
ENDBRANCH   1   4
TORSDOF 2
ENDMDL
