MODEL 1
REMARK VINA RESULT:      -6.7      0.000      0.000
REMARK  1 active torsions:
REMARK  status: ('A' for Active; 'I' for Inactive)
REMARK    1  A    between atoms: C11_11  and  N13_13 
ROOT
HETATM    1  C1  UNL     1     -32.674   9.204   0.028  1.00 20.00     0.089 C 
HETATM    2  C11 UNL     1     -31.720   8.822   1.068  1.00 20.00     0.395 C 
HETATM    3  N12 UNL     1     -33.429   9.508  -0.799  1.00 20.00    -0.195 NA
ENDROOT
BRANCH   2   4
HETATM    4  N13 UNL     1     -32.413   8.393   2.277  1.00 20.00     0.101 N 
HETATM    5  C7  UNL     1     -31.561   8.492   3.459  1.00 20.00     0.274 C 
HETATM    6  C6  UNL     1     -32.388   8.296   4.737  1.00 20.00     0.035 C 
HETATM    7  C9  UNL     1     -33.509   7.251   4.583  1.00 20.00    -0.007 C 
HETATM    8  C4  UNL     1     -33.768   6.510   5.900  1.00 20.00     0.005 C 
HETATM    9  C10 UNL     1     -33.176   6.280   3.439  1.00 20.00     0.018 C 
HETATM   10  C2  UNL     1     -34.834   5.431   5.739  1.00 20.00     0.000 C 
HETATM   11  C3  UNL     1     -34.482   4.458   4.617  1.00 20.00     0.000 C 
HETATM   12  C5  UNL     1     -34.242   5.185   3.297  1.00 20.00     0.007 C 
HETATM   13  C8  UNL     1     -32.989   7.049   2.112  1.00 20.00     0.278 C 
ENDBRANCH   2   4
TORSDOF 1
ENDMDL
MODEL 2
REMARK VINA RESULT:      -5.4      0.801      2.095
REMARK  1 active torsions:
REMARK  status: ('A' for Active; 'I' for Inactive)
REMARK    1  A    between atoms: C11_11  and  N13_13 
ROOT
HETATM    1  C1  UNL     1     -32.338   9.426   0.633  1.00 20.00     0.089 C 
HETATM    2  C11 UNL     1     -31.417   8.797   1.579  1.00 20.00     0.395 C 
HETATM    3  N12 UNL     1     -33.067   9.928  -0.117  1.00 20.00    -0.195 NA
ENDROOT
BRANCH   2   4
HETATM    4  N13 UNL     1     -32.062   7.687   2.272  1.00 20.00     0.101 N 
HETATM    5  C7  UNL     1     -33.223   7.189   1.542  1.00 20.00     0.274 C 
HETATM    6  C6  UNL     1     -33.713   5.866   2.148  1.00 20.00     0.035 C 
HETATM    7  C9  UNL     1     -33.588   5.815   3.681  1.00 20.00    -0.007 C 
HETATM    8  C4  UNL     1     -34.704   4.969   4.307  1.00 20.00     0.005 C 
HETATM    9  C10 UNL     1     -33.560   7.239   4.260  1.00 20.00     0.018 C 
HETATM   10  C2  UNL     1     -34.621   4.967   5.831  1.00 20.00     0.000 C 
HETATM   11  C3  UNL     1     -34.620   6.384   6.394  1.00 20.00     0.000 C 
HETATM   12  C5  UNL     1     -33.499   7.227   5.793  1.00 20.00     0.007 C 
HETATM   13  C8  UNL     1     -32.384   8.044   3.663  1.00 20.00     0.278 C 
ENDBRANCH   2   4
TORSDOF 1
ENDMDL
MODEL 3
REMARK VINA RESULT:      -5.2     10.995     11.675
REMARK  1 active torsions:
REMARK  status: ('A' for Active; 'I' for Inactive)
REMARK    1  A    between atoms: C11_11  and  N13_13 
ROOT
HETATM    1  C1  UNL     1     -36.210  13.932  -5.312  1.00 20.00     0.089 C 
HETATM    2  C11 UNL     1     -36.540  15.353  -5.411  1.00 20.00     0.395 C 
HETATM    3  N12 UNL     1     -35.951  12.804  -5.235  1.00 20.00    -0.195 NA
ENDROOT
BRANCH   2   4
HETATM    4  N13 UNL     1     -35.662  16.151  -4.562  1.00 20.00     0.101 N 
HETATM    5  C7  UNL     1     -34.325  15.573  -4.464  1.00 20.00     0.274 C 
HETATM    6  C6  UNL     1     -33.358  16.561  -3.796  1.00 20.00     0.035 C 
HETATM    7  C9  UNL     1     -34.012  17.387  -2.673  1.00 20.00    -0.007 C 
HETATM    8  C4  UNL     1     -33.004  17.722  -1.566  1.00 20.00     0.005 C 
HETATM    9  C10 UNL     1     -35.242  16.651  -2.118  1.00 20.00     0.018 C 
HETATM   10  C2  UNL     1     -33.660  18.487  -0.420  1.00 20.00     0.000 C 
HETATM   11  C3  UNL     1     -34.864  17.735   0.138  1.00 20.00     0.000 C 
HETATM   12  C5  UNL     1     -35.883  17.415  -0.952  1.00 20.00     0.007 C 
HETATM   13  C8  UNL     1     -36.269  16.389  -3.242  1.00 20.00     0.278 C 
ENDBRANCH   2   4
TORSDOF 1
ENDMDL
MODEL 4
REMARK VINA RESULT:      -5.2     10.904     11.577
REMARK  1 active torsions:
REMARK  status: ('A' for Active; 'I' for Inactive)
REMARK    1  A    between atoms: C11_11  and  N13_13 
ROOT
HETATM    1  C1  UNL     1     -35.350  13.901  -5.108  1.00 20.00     0.089 C 
HETATM    2  C11 UNL     1     -34.652  15.180  -4.992  1.00 20.00     0.395 C 
HETATM    3  N12 UNL     1     -35.904  12.886  -5.203  1.00 20.00    -0.195 NA
ENDROOT
BRANCH   2   4
HETATM    4  N13 UNL     1     -34.800  15.734  -3.651  1.00 20.00     0.101 N 
HETATM    5  C7  UNL     1     -35.990  16.572  -3.536  1.00 20.00     0.274 C 
HETATM    6  C6  UNL     1     -36.265  16.917  -2.065  1.00 20.00     0.035 C 
HETATM    7  C9  UNL     1     -34.983  17.143  -1.243  1.00 20.00    -0.007 C 
HETATM    8  C4  UNL     1     -35.204  18.183  -0.138  1.00 20.00     0.005 C 
HETATM    9  C10 UNL     1     -33.820  17.534  -2.168  1.00 20.00     0.018 C 
HETATM   10  C2  UNL     1     -33.921  18.459   0.641  1.00 20.00     0.000 C 
HETATM   11  C3  UNL     1     -32.780  18.869  -0.285  1.00 20.00     0.000 C 
HETATM   12  C5  UNL     1     -32.539  17.829  -1.376  1.00 20.00     0.007 C 
HETATM   13  C8  UNL     1     -33.577  16.435  -3.227  1.00 20.00     0.278 C 
ENDBRANCH   2   4
TORSDOF 1
ENDMDL
MODEL 5
REMARK VINA RESULT:      -4.9     11.063     12.061
REMARK  1 active torsions:
REMARK  status: ('A' for Active; 'I' for Inactive)
REMARK    1  A    between atoms: C11_11  and  N13_13 
ROOT
HETATM    1  C1  UNL     1     -37.013  14.152  -5.184  1.00 20.00     0.089 C 
HETATM    2  C11 UNL     1     -35.580  14.345  -5.401  1.00 20.00     0.395 C 
HETATM    3  N12 UNL     1     -38.150  13.996  -5.013  1.00 20.00    -0.195 NA
ENDROOT
BRANCH   2   4
HETATM    4  N13 UNL     1     -35.128  15.599  -4.808  1.00 20.00     0.101 N 
HETATM    5  C7  UNL     1     -33.740  15.895  -5.149  1.00 20.00     0.274 C 
HETATM    6  C6  UNL     1     -33.380  17.331  -4.743  1.00 20.00     0.035 C 
HETATM    7  C9  UNL     1     -34.046  17.777  -3.428  1.00 20.00    -0.007 C 
HETATM    8  C4  UNL     1     -33.157  18.759  -2.656  1.00 20.00     0.005 C 
HETATM    9  C10 UNL     1     -34.414  16.552  -2.576  1.00 20.00     0.018 C 
HETATM   10  C2  UNL     1     -33.783  19.156  -1.322  1.00 20.00     0.000 C 
HETATM   11  C3  UNL     1     -34.121  17.933  -0.475  1.00 20.00     0.000 C 
HETATM   12  C5  UNL     1     -35.023  16.960  -1.228  1.00 20.00     0.007 C 
HETATM   13  C8  UNL     1     -35.365  15.616  -3.355  1.00 20.00     0.278 C 
ENDBRANCH   2   4
TORSDOF 1
ENDMDL
MODEL 6
REMARK VINA RESULT:      -4.9     10.880     12.145
REMARK  1 active torsions:
REMARK  status: ('A' for Active; 'I' for Inactive)
REMARK    1  A    between atoms: C11_11  and  N13_13 
ROOT
HETATM    1  C1  UNL     1     -33.027  17.871  -1.416  1.00 20.00     0.089 C 
HETATM    2  C11 UNL     1     -34.146  17.019  -1.817  1.00 20.00     0.395 C 
HETATM    3  N12 UNL     1     -32.142  18.548  -1.096  1.00 20.00    -0.195 NA
ENDROOT
BRANCH   2   4
HETATM    4  N13 UNL     1     -33.898  16.414  -3.121  1.00 20.00     0.101 N 
HETATM    5  C7  UNL     1     -33.860  17.410  -4.187  1.00 20.00     0.274 C 
HETATM    6  C6  UNL     1     -33.335  16.787  -5.488  1.00 20.00     0.035 C 
HETATM    7  C9  UNL     1     -33.800  15.335  -5.699  1.00 20.00    -0.007 C 
HETATM    8  C4  UNL     1     -33.977  15.014  -7.188  1.00 20.00     0.005 C 
HETATM    9  C10 UNL     1     -35.087  15.067  -4.902  1.00 20.00     0.018 C 
HETATM   10  C2  UNL     1     -34.498  13.595  -7.401  1.00 20.00     0.000 C 
HETATM   11  C3  UNL     1     -35.788  13.350  -6.625  1.00 20.00     0.000 C 
HETATM   12  C5  UNL     1     -35.615  13.646  -5.138  1.00 20.00     0.007 C 
HETATM   13  C8  UNL     1     -34.857  15.332  -3.397  1.00 20.00     0.278 C 
ENDBRANCH   2   4
TORSDOF 1
ENDMDL
MODEL 7
REMARK VINA RESULT:      -4.8     10.767     11.462
REMARK  1 active torsions:
REMARK  status: ('A' for Active; 'I' for Inactive)
REMARK    1  A    between atoms: C11_11  and  N13_13 
ROOT
HETATM    1  C1  UNL     1     -35.274  14.687  -4.537  1.00 20.00     0.089 C 
HETATM    2  C11 UNL     1     -35.659  16.092  -4.659  1.00 20.00     0.395 C 
HETATM    3  N12 UNL     1     -34.971  13.571  -4.442  1.00 20.00    -0.195 NA
ENDROOT
BRANCH   2   4
HETATM    4  N13 UNL     1     -35.092  16.883  -3.573  1.00 20.00     0.101 N 
HETATM    5  C7  UNL     1     -33.709  16.511  -3.291  1.00 20.00     0.274 C 
HETATM    6  C6  UNL     1     -33.059  17.528  -2.342  1.00 20.00     0.035 C 
HETATM    7  C9  UNL     1     -34.028  18.068  -1.274  1.00 20.00    -0.007 C 
HETATM    8  C4  UNL     1     -33.296  18.390   0.035  1.00 20.00     0.005 C 
HETATM    9  C10 UNL     1     -35.182  17.077  -1.052  1.00 20.00     0.018 C 
HETATM   10  C2  UNL     1     -34.260  18.867   1.117  1.00 20.00     0.000 C 
HETATM   11  C3  UNL     1     -35.386  17.864   1.346  1.00 20.00     0.000 C 
HETATM   12  C5  UNL     1     -36.135  17.554   0.052  1.00 20.00     0.007 C 
HETATM   13  C8  UNL     1     -35.943  16.827  -2.373  1.00 20.00     0.278 C 
ENDBRANCH   2   4
TORSDOF 1
ENDMDL
MODEL 8
REMARK VINA RESULT:      -4.7     10.964     11.657
REMARK  1 active torsions:
REMARK  status: ('A' for Active; 'I' for Inactive)
REMARK    1  A    between atoms: C11_11  and  N13_13 
ROOT
HETATM    1  C1  UNL     1     -32.880  18.212  -0.883  1.00 20.00     0.089 C 
HETATM    2  C11 UNL     1     -34.285  17.945  -1.186  1.00 20.00     0.395 C 
HETATM    3  N12 UNL     1     -31.766  18.427  -0.640  1.00 20.00    -0.195 NA
ENDROOT
BRANCH   2   4
HETATM    4  N13 UNL     1     -34.415  16.799  -2.079  1.00 20.00     0.101 N 
HETATM    5  C7  UNL     1     -33.441  16.840  -3.165  1.00 20.00     0.274 C 
HETATM    6  C6  UNL     1     -33.421  15.504  -3.921  1.00 20.00     0.035 C 
HETATM    7  C9  UNL     1     -34.813  14.858  -4.052  1.00 20.00    -0.007 C 
HETATM    8  C4  UNL     1     -34.942  14.066  -5.359  1.00 20.00     0.005 C 
HETATM    9  C10 UNL     1     -35.909  15.928  -3.924  1.00 20.00     0.018 C 
HETATM   10  C2  UNL     1     -36.339  13.475  -5.524  1.00 20.00     0.000 C 
HETATM   11  C3  UNL     1     -37.417  14.550  -5.420  1.00 20.00     0.000 C 
HETATM   12  C5  UNL     1     -37.310  15.330  -4.113  1.00 20.00     0.007 C 
HETATM   13  C8  UNL     1     -35.796  16.661  -2.569  1.00 20.00     0.278 C 
ENDBRANCH   2   4
TORSDOF 1
ENDMDL
MODEL 9
REMARK VINA RESULT:      -4.5     10.889     11.618
REMARK  1 active torsions:
REMARK  status: ('A' for Active; 'I' for Inactive)
REMARK    1  A    between atoms: C11_11  and  N13_13 
ROOT
HETATM    1  C1  UNL     1     -35.327  17.690   0.126  1.00 20.00     0.089 C 
HETATM    2  C11 UNL     1     -34.593  17.988  -1.102  1.00 20.00     0.395 C 
HETATM    3  N12 UNL     1     -35.909  17.457   1.103  1.00 20.00    -0.195 NA
ENDROOT
BRANCH   2   4
HETATM    4  N13 UNL     1     -34.603  16.842  -2.005  1.00 20.00     0.101 N 
HETATM    5  C7  UNL     1     -33.566  16.944  -3.027  1.00 20.00     0.274 C 
HETATM    6  C6  UNL     1     -33.424  15.617  -3.785  1.00 20.00     0.035 C 
HETATM    7  C9  UNL     1     -34.766  14.895  -4.005  1.00 20.00    -0.007 C 
HETATM    8  C4  UNL     1     -34.768  14.105  -5.320  1.00 20.00     0.005 C 
HETATM    9  C10 UNL     1     -35.927  15.901  -3.943  1.00 20.00     0.018 C 
HETATM   10  C2  UNL     1     -36.117  13.439  -5.574  1.00 20.00     0.000 C 
HETATM   11  C3  UNL     1     -37.258  14.450  -5.535  1.00 20.00     0.000 C 
HETATM   12  C5  UNL     1     -37.277  15.226  -4.221  1.00 20.00     0.007 C 
HETATM   13  C8  UNL     1     -35.941  16.630  -2.581  1.00 20.00     0.278 C 
ENDBRANCH   2   4
TORSDOF 1
ENDMDL
