MODEL 1
REMARK VINA RESULT:      -4.7      0.000      0.000
REMARK  2 active torsions:
REMARK  status: ('A' for Active; 'I' for Inactive)
REMARK    1  A    between atoms: C2_2  and  C4_4 
REMARK       I    between atoms: C2_2  and  N6_6 
REMARK    2  A    between atoms: C4_4  and  C5_5 
ROOT
HETATM    1  C1  UNL     1     -33.881   6.190   3.414  1.00 20.00     0.166 C 
HETATM    2  C2  UNL     1     -32.396   7.729   2.923  1.00 20.00     0.244 C 
HETATM    3  N6  UNL     1     -33.336   6.782   2.559  1.00 20.00    -0.199 NA
HETATM    4  O7  UNL     1     -32.038   8.000   4.068  1.00 20.00    -0.271 OA
HETATM    5  S8  UNL     1     -34.642   5.368   4.547  1.00 20.00    -0.055 SA
ENDROOT
BRANCH   2   6
HETATM    6  C4  UNL     1     -31.779   8.408   1.709  1.00 20.00     0.105 C 
BRANCH   6   7
HETATM    7  C5  UNL     1     -32.558   9.632   1.230  1.00 20.00     0.005 C 
HETATM    8  C3  UNL     1     -33.006   9.507  -0.219  1.00 20.00     0.005 C 
ENDBRANCH   6   7
ENDBRANCH   2   6
TORSDOF 2
ENDMDL
MODEL 2
REMARK VINA RESULT:      -4.5      1.452      1.481
REMARK  2 active torsions:
REMARK  status: ('A' for Active; 'I' for Inactive)
REMARK    1  A    between atoms: C2_2  and  C4_4 
REMARK       I    between atoms: C2_2  and  N6_6 
REMARK    2  A    between atoms: C4_4  and  C5_5 
ROOT
HETATM    1  C1  UNL     1     -33.866   6.568   4.871  1.00 20.00     0.166 C 
HETATM    2  C2  UNL     1     -32.630   7.227   3.183  1.00 20.00     0.244 C 
HETATM    3  N6  UNL     1     -33.274   7.457   4.384  1.00 20.00    -0.199 NA
HETATM    4  O7  UNL     1     -32.638   6.179   2.539  1.00 20.00    -0.271 OA
HETATM    5  S8  UNL     1     -34.679   5.385   5.562  1.00 20.00    -0.055 SA
ENDROOT
BRANCH   2   6
HETATM    6  C4  UNL     1     -31.909   8.470   2.681  1.00 20.00     0.105 C 
BRANCH   6   7
HETATM    7  C5  UNL     1     -32.229   8.820   1.229  1.00 20.00     0.005 C 
HETATM    8  C3  UNL     1     -32.661  10.270   1.061  1.00 20.00     0.005 C 
ENDBRANCH   6   7
ENDBRANCH   2   6
TORSDOF 2
ENDMDL
MODEL 3
REMARK VINA RESULT:      -4.4      2.549      4.376
REMARK  2 active torsions:
REMARK  status: ('A' for Active; 'I' for Inactive)
REMARK    1  A    between atoms: C2_2  and  C4_4 
REMARK       I    between atoms: C2_2  and  N6_6 
REMARK    2  A    between atoms: C4_4  and  C5_5 
ROOT
HETATM    1  C1  UNL     1     -32.884   7.799   2.704  1.00 20.00     0.166 C 
HETATM    2  C2  UNL     1     -33.408   7.219   4.754  1.00 20.00     0.244 C 
HETATM    3  N6  UNL     1     -33.557   7.118   3.383  1.00 20.00    -0.199 NA
HETATM    4  O7  UNL     1     -32.654   7.985   5.352  1.00 20.00    -0.271 OA
HETATM    5  S8  UNL     1     -31.986   8.707   1.751  1.00 20.00    -0.055 SA
ENDROOT
BRANCH   2   6
HETATM    6  C4  UNL     1     -34.346   6.277   5.495  1.00 20.00     0.105 C 
BRANCH   6   7
HETATM    7  C5  UNL     1     -35.024   5.250   4.590  1.00 20.00     0.005 C 
HETATM    8  C3  UNL     1     -34.197   3.982   4.427  1.00 20.00     0.005 C 
ENDBRANCH   6   7
ENDBRANCH   2   6
TORSDOF 2
ENDMDL
MODEL 4
REMARK VINA RESULT:      -4.4      2.650      4.467
REMARK  2 active torsions:
REMARK  status: ('A' for Active; 'I' for Inactive)
REMARK    1  A    between atoms: C2_2  and  C4_4 
REMARK       I    between atoms: C2_2  and  N6_6 
REMARK    2  A    between atoms: C4_4  and  C5_5 
ROOT
HETATM    1  C1  UNL     1     -32.847   7.866   2.478  1.00 20.00     0.166 C 
HETATM    2  C2  UNL     1     -33.739   6.005   3.224  1.00 20.00     0.244 C 
HETATM    3  N6  UNL     1     -33.681   7.385   3.149  1.00 20.00    -0.199 NA
HETATM    4  O7  UNL     1     -32.974   5.212   2.678  1.00 20.00    -0.271 OA
HETATM    5  S8  UNL     1     -31.728   8.555   1.576  1.00 20.00    -0.055 SA
ENDROOT
BRANCH   2   6
HETATM    6  C4  UNL     1     -34.869   5.535   4.128  1.00 20.00     0.105 C 
BRANCH   6   7
HETATM    7  C5  UNL     1     -34.506   5.534   5.612  1.00 20.00     0.005 C 
HETATM    8  C3  UNL     1     -34.008   6.890   6.091  1.00 20.00     0.005 C 
ENDBRANCH   6   7
ENDBRANCH   2   6
TORSDOF 2
ENDMDL
MODEL 5
REMARK VINA RESULT:      -4.2      2.759      4.544
REMARK  2 active torsions:
REMARK  status: ('A' for Active; 'I' for Inactive)
REMARK    1  A    between atoms: C2_2  and  C4_4 
REMARK       I    between atoms: C2_2  and  N6_6 
REMARK    2  A    between atoms: C4_4  and  C5_5 
ROOT
HETATM    1  C1  UNL     1     -32.156   8.429   2.156  1.00 20.00     0.166 C 
HETATM    2  C2  UNL     1     -33.355   7.027   3.343  1.00 20.00     0.244 C 
HETATM    3  N6  UNL     1     -32.484   8.095   3.232  1.00 20.00    -0.199 NA
HETATM    4  O7  UNL     1     -33.806   6.354   2.418  1.00 20.00    -0.271 OA
HETATM    5  S8  UNL     1     -31.690   8.911   0.710  1.00 20.00    -0.055 SA
ENDROOT
BRANCH   2   6
HETATM    6  C4  UNL     1     -33.685   6.716   4.796  1.00 20.00     0.105 C 
BRANCH   6   7
HETATM    7  C5  UNL     1     -34.847   5.739   4.965  1.00 20.00     0.005 C 
HETATM    8  C3  UNL     1     -34.390   4.288   4.981  1.00 20.00     0.005 C 
ENDBRANCH   6   7
ENDBRANCH   2   6
TORSDOF 2
ENDMDL
MODEL 6
REMARK VINA RESULT:      -3.5     10.180     10.759
REMARK  2 active torsions:
REMARK  status: ('A' for Active; 'I' for Inactive)
REMARK    1  A    between atoms: C2_2  and  C4_4 
REMARK       I    between atoms: C2_2  and  N6_6 
REMARK    2  A    between atoms: C4_4  and  C5_5 
ROOT
HETATM    1  C1  UNL     1     -37.472  14.934  -4.792  1.00 20.00     0.166 C 
HETATM    2  C2  UNL     1     -35.562  13.862  -4.666  1.00 20.00     0.244 C 
HETATM    3  N6  UNL     1     -36.355  14.970  -4.431  1.00 20.00    -0.199 NA
HETATM    4  O7  UNL     1     -35.898  12.835  -5.254  1.00 20.00    -0.271 OA
HETATM    5  S8  UNL     1     -38.993  14.922  -5.267  1.00 20.00    -0.055 SA
ENDROOT
BRANCH   2   6
HETATM    6  C4  UNL     1     -34.147  14.060  -4.142  1.00 20.00     0.105 C 
BRANCH   6   7
HETATM    7  C5  UNL     1     -33.611  15.476  -4.342  1.00 20.00     0.005 C 
HETATM    8  C3  UNL     1     -33.124  15.720  -5.763  1.00 20.00     0.005 C 
ENDBRANCH   6   7
ENDBRANCH   2   6
TORSDOF 2
ENDMDL
MODEL 7
REMARK VINA RESULT:      -3.5     10.910     11.314
REMARK  2 active torsions:
REMARK  status: ('A' for Active; 'I' for Inactive)
REMARK    1  A    between atoms: C2_2  and  C4_4 
REMARK       I    between atoms: C2_2  and  N6_6 
REMARK    2  A    between atoms: C4_4  and  C5_5 
ROOT
HETATM    1  C1  UNL     1     -32.309  19.091   1.750  1.00 20.00     0.166 C 
HETATM    2  C2  UNL     1     -32.279  18.555  -0.378  1.00 20.00     0.244 C 
HETATM    3  N6  UNL     1     -32.935  18.981   0.763  1.00 20.00    -0.199 NA
HETATM    4  O7  UNL     1     -31.093  18.241  -0.463  1.00 20.00    -0.271 OA
HETATM    5  S8  UNL     1     -31.492  19.253   3.108  1.00 20.00    -0.055 SA
ENDROOT
BRANCH   2   6
HETATM    6  C4  UNL     1     -33.220  18.463  -1.569  1.00 20.00     0.105 C 
BRANCH   6   7
HETATM    7  C5  UNL     1     -33.750  17.053  -1.825  1.00 20.00     0.005 C 
HETATM    8  C3  UNL     1     -35.225  16.912  -1.475  1.00 20.00     0.005 C 
ENDBRANCH   6   7
ENDBRANCH   2   6
TORSDOF 2
ENDMDL
MODEL 8
REMARK VINA RESULT:      -3.4     10.503     10.786
REMARK  2 active torsions:
REMARK  status: ('A' for Active; 'I' for Inactive)
REMARK    1  A    between atoms: C2_2  and  C4_4 
REMARK       I    between atoms: C2_2  and  N6_6 
REMARK    2  A    between atoms: C4_4  and  C5_5 
ROOT
HETATM    1  C1  UNL     1     -34.843  14.381  -6.270  1.00 20.00     0.166 C 
HETATM    2  C2  UNL     1     -33.810  14.899  -4.405  1.00 20.00     0.244 C 
HETATM    3  N6  UNL     1     -34.643  15.210  -5.463  1.00 20.00    -0.199 NA
HETATM    4  O7  UNL     1     -33.217  13.835  -4.231  1.00 20.00    -0.271 OA
HETATM    5  S8  UNL     1     -35.138  13.280  -7.383  1.00 20.00    -0.055 SA
ENDROOT
BRANCH   2   6
HETATM    6  C4  UNL     1     -33.649  16.071  -3.448  1.00 20.00     0.105 C 
BRANCH   6   7
HETATM    7  C5  UNL     1     -34.887  16.339  -2.594  1.00 20.00     0.005 C 
HETATM    8  C3  UNL     1     -34.561  17.107  -1.321  1.00 20.00     0.005 C 
ENDBRANCH   6   7
ENDBRANCH   2   6
TORSDOF 2
ENDMDL
MODEL 9
REMARK VINA RESULT:      -3.4     10.254     10.689
REMARK  2 active torsions:
REMARK  status: ('A' for Active; 'I' for Inactive)
REMARK    1  A    between atoms: C2_2  and  C4_4 
REMARK       I    between atoms: C2_2  and  N6_6 
REMARK    2  A    between atoms: C4_4  and  C5_5 
ROOT
HETATM    1  C1  UNL     1     -37.362  14.937  -4.837  1.00 20.00     0.166 C 
HETATM    2  C2  UNL     1     -35.387  14.002  -4.643  1.00 20.00     0.244 C 
HETATM    3  N6  UNL     1     -36.241  15.082  -4.519  1.00 20.00    -0.199 NA
HETATM    4  O7  UNL     1     -35.673  12.892  -5.089  1.00 20.00    -0.271 OA
HETATM    5  S8  UNL     1     -38.891  14.777  -5.256  1.00 20.00    -0.055 SA
ENDROOT
BRANCH   2   6
HETATM    6  C4  UNL     1     -33.974  14.345  -4.194  1.00 20.00     0.105 C 
BRANCH   6   7
HETATM    7  C5  UNL     1     -33.659  15.839  -4.248  1.00 20.00     0.005 C 
HETATM    8  C3  UNL     1     -33.639  16.480  -2.867  1.00 20.00     0.005 C 
ENDBRANCH   6   7
ENDBRANCH   2   6
TORSDOF 2
ENDMDL
