MODEL 1
REMARK VINA RESULT:      -5.5      0.000      0.000
REMARK  0 active torsions:
REMARK  status: ('A' for Active; 'I' for Inactive)
ROOT
HETATM    1  C1  UNL     1     -33.781   4.198   3.146  1.00 20.00     0.028 C 
HETATM    2  C2  UNL     1     -33.014   6.366   2.181  1.00 20.00     0.033 C 
HETATM    3  C3  UNL     1     -32.653   7.948   4.013  1.00 20.00     0.046 C 
HETATM    4  C4  UNL     1     -34.262   3.982   4.512  1.00 20.00     0.112 C 
HETATM    5  C5  UNL     1     -33.721   5.527   3.112  1.00 20.00    -0.025 C 
HETATM    6  C6  UNL     1     -32.520   7.539   2.619  1.00 20.00     0.036 C 
HETATM    7  C7  UNL     1     -33.485   7.289   4.843  1.00 20.00     0.042 C 
HETATM    8  C8  UNL     1     -34.330   6.155   4.334  1.00 20.00     0.185 C 
HETATM    9  N9  UNL     1     -34.508   5.015   5.263  1.00 20.00    -0.286 NA
HETATM   10 CL10 UNL     1     -31.610   8.559   1.564  1.00 20.00    -0.084 Cl
HETATM   11 CL11 UNL     1     -33.684   7.773   6.482  1.00 20.00    -0.086 Cl
ENDROOT
TORSDOF 0
ENDMDL
MODEL 2
REMARK VINA RESULT:      -4.4     12.158     12.517
REMARK  0 active torsions:
REMARK  status: ('A' for Active; 'I' for Inactive)
ROOT
HETATM    1  C1  UNL     1     -33.576  16.971  -2.253  1.00 20.00     0.028 C 
HETATM    2  C2  UNL     1     -32.274  18.369  -0.649  1.00 20.00     0.033 C 
HETATM    3  C3  UNL     1     -33.554  18.562   1.429  1.00 20.00     0.046 C 
HETATM    4  C4  UNL     1     -34.989  16.605  -2.131  1.00 20.00     0.112 C 
HETATM    5  C5  UNL     1     -33.470  17.871  -1.278  1.00 20.00    -0.025 C 
HETATM    6  C6  UNL     1     -32.330  18.717   0.650  1.00 20.00     0.036 C 
HETATM    7  C7  UNL     1     -34.725  18.304   0.817  1.00 20.00     0.042 C 
HETATM    8  C8  UNL     1     -34.803  18.224  -0.682  1.00 20.00     0.185 C 
HETATM    9  N9  UNL     1     -35.716  17.194  -1.227  1.00 20.00    -0.286 NA
HETATM   10 CL10 UNL     1     -30.914  19.263   1.475  1.00 20.00    -0.084 Cl
HETATM   11 CL11 UNL     1     -36.188  18.149   1.711  1.00 20.00    -0.086 Cl
ENDROOT
TORSDOF 0
ENDMDL
MODEL 3
REMARK VINA RESULT:      -4.4      2.069      3.035
REMARK  0 active torsions:
REMARK  status: ('A' for Active; 'I' for Inactive)
ROOT
HETATM    1  C1  UNL     1     -34.521   5.678   5.904  1.00 20.00     0.028 C 
HETATM    2  C2  UNL     1     -34.075   4.673   3.665  1.00 20.00     0.033 C 
HETATM    3  C3  UNL     1     -32.397   6.039   2.521  1.00 20.00     0.046 C 
HETATM    4  C4  UNL     1     -34.126   7.017   6.344  1.00 20.00     0.112 C 
HETATM    5  C5  UNL     1     -34.236   5.751   4.606  1.00 20.00    -0.025 C 
HETATM    6  C6  UNL     1     -33.201   4.828   2.653  1.00 20.00     0.036 C 
HETATM    7  C7  UNL     1     -32.681   7.132   3.255  1.00 20.00     0.042 C 
HETATM    8  C8  UNL     1     -33.863   7.143   4.183  1.00 20.00     0.185 C 
HETATM    9  N9  UNL     1     -33.670   7.860   5.464  1.00 20.00    -0.286 NA
HETATM   10 CL10 UNL     1     -32.920   3.548   1.529  1.00 20.00    -0.084 Cl
HETATM   11 CL11 UNL     1     -31.767   8.582   3.092  1.00 20.00    -0.086 Cl
ENDROOT
TORSDOF 0
ENDMDL
MODEL 4
REMARK VINA RESULT:      -4.4     12.363     13.039
REMARK  0 active torsions:
REMARK  status: ('A' for Active; 'I' for Inactive)
ROOT
HETATM    1  C1  UNL     1     -31.858  18.871   2.313  1.00 20.00     0.028 C 
HETATM    2  C2  UNL     1     -34.337  18.857   2.030  1.00 20.00     0.033 C 
HETATM    3  C3  UNL     1     -34.872  17.739  -0.080  1.00 20.00     0.046 C 
HETATM    4  C4  UNL     1     -30.869  18.578   1.274  1.00 20.00     0.112 C 
HETATM    5  C5  UNL     1     -32.971  18.934   1.583  1.00 20.00    -0.025 C 
HETATM    6  C6  UNL     1     -35.249  18.297   1.214  1.00 20.00     0.036 C 
HETATM    7  C7  UNL     1     -33.656  17.987  -0.604  1.00 20.00     0.042 C 
HETATM    8  C8  UNL     1     -32.687  18.887   0.109  1.00 20.00     0.185 C 
HETATM    9  N9  UNL     1     -31.263  18.487   0.037  1.00 20.00    -0.286 NA
HETATM   10 CL10 UNL     1     -36.891  18.123   1.719  1.00 20.00    -0.084 Cl
HETATM   11 CL11 UNL     1     -33.201  17.366  -2.143  1.00 20.00    -0.086 Cl
ENDROOT
TORSDOF 0
ENDMDL
MODEL 5
REMARK VINA RESULT:      -4.3     11.676     12.485
REMARK  0 active torsions:
REMARK  status: ('A' for Active; 'I' for Inactive)
ROOT
HETATM    1  C1  UNL     1     -37.091  14.436  -6.227  1.00 20.00     0.028 C 
HETATM    2  C2  UNL     1     -36.949  15.652  -4.053  1.00 20.00     0.033 C 
HETATM    3  C3  UNL     1     -34.601  15.744  -3.366  1.00 20.00     0.046 C 
HETATM    4  C4  UNL     1     -36.035  13.623  -6.833  1.00 20.00     0.112 C 
HETATM    5  C5  UNL     1     -36.574  14.653  -5.019  1.00 20.00    -0.025 C 
HETATM    6  C6  UNL     1     -35.995  16.158  -3.249  1.00 20.00     0.036 C 
HETATM    7  C7  UNL     1     -34.267  14.669  -4.107  1.00 20.00     0.042 C 
HETATM    8  C8  UNL     1     -35.329  13.846  -4.781  1.00 20.00     0.185 C 
HETATM    9  N9  UNL     1     -34.985  13.324  -6.124  1.00 20.00    -0.286 NA
HETATM   10 CL10 UNL     1     -36.372  17.402  -2.113  1.00 20.00    -0.084 Cl
HETATM   11 CL11 UNL     1     -32.633  14.142  -4.235  1.00 20.00    -0.086 Cl
ENDROOT
TORSDOF 0
ENDMDL
MODEL 6
REMARK VINA RESULT:      -4.2     11.977     13.252
REMARK  0 active torsions:
REMARK  status: ('A' for Active; 'I' for Inactive)
ROOT
HETATM    1  C1  UNL     1     -35.788  13.536  -5.162  1.00 20.00     0.028 C 
HETATM    2  C2  UNL     1     -34.387  14.986  -3.693  1.00 20.00     0.033 C 
HETATM    3  C3  UNL     1     -33.742  16.981  -4.958  1.00 20.00     0.046 C 
HETATM    4  C4  UNL     1     -35.933  13.660  -6.614  1.00 20.00     0.112 C 
HETATM    5  C5  UNL     1     -34.791  14.389  -4.940  1.00 20.00    -0.025 C 
HETATM    6  C6  UNL     1     -33.865  16.227  -3.714  1.00 20.00     0.036 C 
HETATM    7  C7  UNL     1     -33.913  16.371  -6.147  1.00 20.00     0.042 C 
HETATM    8  C8  UNL     1     -34.178  14.894  -6.216  1.00 20.00     0.185 C 
HETATM    9  N9  UNL     1     -35.134  14.458  -7.260  1.00 20.00    -0.286 NA
HETATM   10 CL10 UNL     1     -33.419  17.018  -2.246  1.00 20.00    -0.084 Cl
HETATM   11 CL11 UNL     1     -33.741  17.232  -7.627  1.00 20.00    -0.086 Cl
ENDROOT
TORSDOF 0
ENDMDL
MODEL 7
REMARK VINA RESULT:      -4.2     11.925     12.797
REMARK  0 active torsions:
REMARK  status: ('A' for Active; 'I' for Inactive)
ROOT
HETATM    1  C1  UNL     1     -35.858  13.569  -7.046  1.00 20.00     0.028 C 
HETATM    2  C2  UNL     1     -37.670  14.390  -5.540  1.00 20.00     0.033 C 
HETATM    3  C3  UNL     1     -36.673  15.858  -3.854  1.00 20.00     0.046 C 
HETATM    4  C4  UNL     1     -34.419  13.657  -6.794  1.00 20.00     0.112 C 
HETATM    5  C5  UNL     1     -36.340  13.942  -5.863  1.00 20.00    -0.025 C 
HETATM    6  C6  UNL     1     -37.821  15.298  -4.558  1.00 20.00     0.036 C 
HETATM    7  C7  UNL     1     -35.452  15.305  -3.989  1.00 20.00     0.042 C 
HETATM    8  C8  UNL     1     -35.261  14.070  -4.824  1.00 20.00     0.185 C 
HETATM    9  N9  UNL     1     -34.008  14.010  -5.611  1.00 20.00    -0.286 NA
HETATM   10 CL10 UNL     1     -39.385  15.917  -4.167  1.00 20.00    -0.084 Cl
HETATM   11 CL11 UNL     1     -34.088  15.927  -3.143  1.00 20.00    -0.086 Cl
ENDROOT
TORSDOF 0
ENDMDL
MODEL 8
REMARK VINA RESULT:      -4.2     11.872     12.603
REMARK  0 active torsions:
REMARK  status: ('A' for Active; 'I' for Inactive)
ROOT
HETATM    1  C1  UNL     1     -35.786  17.236  -1.757  1.00 20.00     0.028 C 
HETATM    2  C2  UNL     1     -36.955  16.103  -3.648  1.00 20.00     0.033 C 
HETATM    3  C3  UNL     1     -35.455  14.413  -4.589  1.00 20.00     0.046 C 
HETATM    4  C4  UNL     1     -34.354  17.164  -1.460  1.00 20.00     0.112 C 
HETATM    5  C5  UNL     1     -35.819  16.650  -2.953  1.00 20.00    -0.025 C 
HETATM    6  C6  UNL     1     -36.766  15.037  -4.448  1.00 20.00     0.036 C 
HETATM    7  C7  UNL     1     -34.351  15.028  -4.122  1.00 20.00     0.042 C 
HETATM    8  C8  UNL     1     -34.443  16.393  -3.498  1.00 20.00     0.185 C 
HETATM    9  N9  UNL     1     -33.554  16.633  -2.339  1.00 20.00    -0.286 NA
HETATM   10 CL10 UNL     1     -38.100  14.301  -5.260  1.00 20.00    -0.084 Cl
HETATM   11 CL11 UNL     1     -32.790  14.327  -4.305  1.00 20.00    -0.086 Cl
ENDROOT
TORSDOF 0
ENDMDL
MODEL 9
REMARK VINA RESULT:      -4.2     12.137     12.656
REMARK  0 active torsions:
REMARK  status: ('A' for Active; 'I' for Inactive)
ROOT
HETATM    1  C1  UNL     1     -33.086  14.915  -4.491  1.00 20.00     0.028 C 
HETATM    2  C2  UNL     1     -33.535  16.554  -2.665  1.00 20.00     0.033 C 
HETATM    3  C3  UNL     1     -35.958  16.751  -2.376  1.00 20.00     0.046 C 
HETATM    4  C4  UNL     1     -34.063  14.406  -5.455  1.00 20.00     0.112 C 
HETATM    5  C5  UNL     1     -33.790  15.887  -3.915  1.00 20.00    -0.025 C 
HETATM    6  C6  UNL     1     -34.585  16.983  -1.940  1.00 20.00     0.036 C 
HETATM    7  C7  UNL     1     -36.215  16.325  -3.628  1.00 20.00     0.042 C 
HETATM    8  C8  UNL     1     -35.097  16.133  -4.614  1.00 20.00     0.185 C 
HETATM    9  N9  UNL     1     -35.232  14.974  -5.525  1.00 20.00    -0.286 NA
HETATM   10 CL10 UNL     1     -34.345  17.736  -0.405  1.00 20.00    -0.084 Cl
HETATM   11 CL11 UNL     1     -37.827  16.075  -4.176  1.00 20.00    -0.086 Cl
ENDROOT
TORSDOF 0
ENDMDL
