MODEL 1
REMARK VINA RESULT:      -5.0      0.000      0.000
REMARK  3 active torsions:
REMARK  status: ('A' for Active; 'I' for Inactive)
REMARK    1  A    between atoms: C1_1  and  C6_6 
REMARK    2  A    between atoms: C5_5  and  C7_7 
REMARK    3  A    between atoms: C6_6  and  C7_7 
ROOT
HETATM    1  C2  UNL     1     -33.718   6.972   5.023  1.00 20.00     0.033 C 
HETATM    2  C3  UNL     1     -34.561   6.160   5.984  1.00 20.00     0.168 C 
HETATM    3  C4  UNL     1     -34.248   4.907   4.046  1.00 20.00     0.172 C 
HETATM    4  C5  UNL     1     -34.115   6.377   3.689  1.00 20.00     0.012 C 
HETATM    5  O9  UNL     1     -34.715   4.857   5.403  1.00 20.00    -0.391 OA
ENDROOT
BRANCH   4   6
HETATM    6  C7  UNL     1     -33.129   6.649   2.569  1.00 20.00     0.013 C 
BRANCH   6   7
HETATM    7  C6  UNL     1     -32.240   7.848   2.882  1.00 20.00     0.070 C 
BRANCH   7   8
HETATM    8  C1  UNL     1     -32.223   8.867   1.768  1.00 20.00     0.231 C 
HETATM    9  O8  UNL     1     -31.511   8.802   0.772  1.00 20.00    -0.307 OA
ENDBRANCH   7   8
ENDBRANCH   6   7
ENDBRANCH   4   6
TORSDOF 3
ENDMDL
MODEL 2
REMARK VINA RESULT:      -4.9      1.201      1.464
REMARK  3 active torsions:
REMARK  status: ('A' for Active; 'I' for Inactive)
REMARK    1  A    between atoms: C1_1  and  C6_6 
REMARK    2  A    between atoms: C5_5  and  C7_7 
REMARK    3  A    between atoms: C6_6  and  C7_7 
ROOT
HETATM    1  C2  UNL     1     -33.646   7.088   4.875  1.00 20.00     0.033 C 
HETATM    2  C3  UNL     1     -34.636   5.944   4.815  1.00 20.00     0.168 C 
HETATM    3  C4  UNL     1     -33.293   5.851   2.914  1.00 20.00     0.172 C 
HETATM    4  C5  UNL     1     -33.316   7.286   3.411  1.00 20.00     0.012 C 
HETATM    5  O9  UNL     1     -34.269   5.135   3.688  1.00 20.00    -0.391 OA
ENDROOT
BRANCH   4   6
HETATM    6  C7  UNL     1     -32.025   8.041   3.161  1.00 20.00     0.013 C 
BRANCH   6   7
HETATM    7  C6  UNL     1     -31.854   8.390   1.686  1.00 20.00     0.070 C 
BRANCH   7   8
HETATM    8  C1  UNL     1     -32.557   9.671   1.305  1.00 20.00     0.231 C 
HETATM    9  O8  UNL     1     -32.888   9.973   0.164  1.00 20.00    -0.307 OA
ENDBRANCH   7   8
ENDBRANCH   6   7
ENDBRANCH   4   6
TORSDOF 3
ENDMDL
MODEL 3
REMARK VINA RESULT:      -4.9      0.843      1.380
REMARK  3 active torsions:
REMARK  status: ('A' for Active; 'I' for Inactive)
REMARK    1  A    between atoms: C1_1  and  C6_6 
REMARK    2  A    between atoms: C5_5  and  C7_7 
REMARK    3  A    between atoms: C6_6  and  C7_7 
ROOT
HETATM    1  C2  UNL     1     -34.558   5.457   3.997  1.00 20.00     0.033 C 
HETATM    2  C3  UNL     1     -34.703   5.285   5.494  1.00 20.00     0.168 C 
HETATM    3  C4  UNL     1     -33.593   7.293   5.091  1.00 20.00     0.172 C 
HETATM    4  C5  UNL     1     -33.355   6.371   3.908  1.00 20.00     0.012 C 
HETATM    5  O9  UNL     1     -34.245   6.503   6.099  1.00 20.00    -0.391 OA
ENDROOT
BRANCH   4   6
HETATM    6  C7  UNL     1     -33.223   7.097   2.583  1.00 20.00     0.013 C 
BRANCH   6   7
HETATM    7  C6  UNL     1     -32.090   8.117   2.612  1.00 20.00     0.070 C 
BRANCH   7   8
HETATM    8  C1  UNL     1     -32.247   9.194   1.566  1.00 20.00     0.231 C 
HETATM    9  O8  UNL     1     -31.652   9.220   0.494  1.00 20.00    -0.307 OA
ENDBRANCH   7   8
ENDBRANCH   6   7
ENDBRANCH   4   6
TORSDOF 3
ENDMDL
MODEL 4
REMARK VINA RESULT:      -4.6      1.138      1.165
REMARK  3 active torsions:
REMARK  status: ('A' for Active; 'I' for Inactive)
REMARK    1  A    between atoms: C1_1  and  C6_6 
REMARK    2  A    between atoms: C5_5  and  C7_7 
REMARK    3  A    between atoms: C6_6  and  C7_7 
ROOT
HETATM    1  C2  UNL     1     -33.981   6.681   5.000  1.00 20.00     0.033 C 
HETATM    2  C3  UNL     1     -34.734   5.825   5.997  1.00 20.00     0.168 C 
HETATM    3  C4  UNL     1     -34.164   4.494   4.172  1.00 20.00     0.172 C 
HETATM    4  C5  UNL     1     -34.234   5.938   3.706  1.00 20.00     0.012 C 
HETATM    5  O9  UNL     1     -34.673   4.474   5.515  1.00 20.00    -0.391 OA
ENDROOT
BRANCH   4   6
HETATM    6  C7  UNL     1     -33.254   6.271   2.597  1.00 20.00     0.013 C 
BRANCH   6   7
HETATM    7  C6  UNL     1     -33.149   7.776   2.373  1.00 20.00     0.070 C 
BRANCH   7   8
HETATM    8  C1  UNL     1     -31.754   8.304   2.608  1.00 20.00     0.231 C 
HETATM    9  O8  UNL     1     -31.209   8.378   3.705  1.00 20.00    -0.307 OA
ENDBRANCH   7   8
ENDBRANCH   6   7
ENDBRANCH   4   6
TORSDOF 3
ENDMDL
MODEL 5
REMARK VINA RESULT:      -4.6      1.261      4.352
REMARK  3 active torsions:
REMARK  status: ('A' for Active; 'I' for Inactive)
REMARK    1  A    between atoms: C1_1  and  C6_6 
REMARK    2  A    between atoms: C5_5  and  C7_7 
REMARK    3  A    between atoms: C6_6  and  C7_7 
ROOT
HETATM    1  C2  UNL     1     -32.526   7.593   4.134  1.00 20.00     0.033 C 
HETATM    2  C3  UNL     1     -31.411   8.438   3.554  1.00 20.00     0.168 C 
HETATM    3  C4  UNL     1     -32.818   7.788   1.815  1.00 20.00     0.172 C 
HETATM    4  C5  UNL     1     -32.941   6.769   2.934  1.00 20.00     0.012 C 
HETATM    5  O9  UNL     1     -31.731   8.656   2.172  1.00 20.00    -0.391 OA
ENDROOT
BRANCH   4   6
HETATM    6  C7  UNL     1     -34.323   6.153   3.051  1.00 20.00     0.013 C 
BRANCH   6   7
HETATM    7  C6  UNL     1     -34.745   5.995   4.508  1.00 20.00     0.070 C 
BRANCH   7   8
HETATM    8  C1  UNL     1     -34.612   4.574   5.002  1.00 20.00     0.231 C 
HETATM    9  O8  UNL     1     -34.244   3.627   4.316  1.00 20.00    -0.307 OA
ENDBRANCH   7   8
ENDBRANCH   6   7
ENDBRANCH   4   6
TORSDOF 3
ENDMDL
MODEL 6
REMARK VINA RESULT:      -4.5      1.294      4.494
REMARK  3 active torsions:
REMARK  status: ('A' for Active; 'I' for Inactive)
REMARK    1  A    between atoms: C1_1  and  C6_6 
REMARK    2  A    between atoms: C5_5  and  C7_7 
REMARK    3  A    between atoms: C6_6  and  C7_7 
ROOT
HETATM    1  C2  UNL     1     -33.260   6.879   2.827  1.00 20.00     0.033 C 
HETATM    2  C3  UNL     1     -32.367   7.769   1.988  1.00 20.00     0.168 C 
HETATM    3  C4  UNL     1     -31.942   8.214   4.235  1.00 20.00     0.172 C 
HETATM    4  C5  UNL     1     -33.354   7.667   4.116  1.00 20.00     0.012 C 
HETATM    5  O9  UNL     1     -31.478   8.437   2.894  1.00 20.00    -0.391 OA
ENDROOT
BRANCH   4   6
HETATM    6  C7  UNL     1     -33.796   6.848   5.314  1.00 20.00     0.013 C 
BRANCH   6   7
HETATM    7  C6  UNL     1     -34.895   5.858   4.943  1.00 20.00     0.070 C 
BRANCH   7   8
HETATM    8  C1  UNL     1     -34.468   4.420   5.118  1.00 20.00     0.231 C 
HETATM    9  O8  UNL     1     -34.236   3.643   4.197  1.00 20.00    -0.307 OA
ENDBRANCH   7   8
ENDBRANCH   6   7
ENDBRANCH   4   6
TORSDOF 3
ENDMDL
MODEL 7
REMARK VINA RESULT:      -4.2      1.306      4.463
REMARK  3 active torsions:
REMARK  status: ('A' for Active; 'I' for Inactive)
REMARK    1  A    between atoms: C1_1  and  C6_6 
REMARK    2  A    between atoms: C5_5  and  C7_7 
REMARK    3  A    between atoms: C6_6  and  C7_7 
ROOT
HETATM    1  C2  UNL     1     -32.893   7.886   1.500  1.00 20.00     0.033 C 
HETATM    2  C3  UNL     1     -32.106   9.157   1.744  1.00 20.00     0.168 C 
HETATM    3  C4  UNL     1     -31.910   7.801   3.628  1.00 20.00     0.172 C 
HETATM    4  C5  UNL     1     -33.201   7.441   2.913  1.00 20.00     0.012 C 
HETATM    5  O9  UNL     1     -31.401   8.978   2.981  1.00 20.00    -0.391 OA
ENDROOT
BRANCH   4   6
HETATM    6  C7  UNL     1     -33.580   5.977   3.034  1.00 20.00     0.013 C 
BRANCH   6   7
HETATM    7  C6  UNL     1     -34.846   5.791   3.863  1.00 20.00     0.070 C 
BRANCH   7   8
HETATM    8  C1  UNL     1     -34.562   5.657   5.340  1.00 20.00     0.231 C 
HETATM    9  O8  UNL     1     -34.246   6.583   6.079  1.00 20.00    -0.307 OA
ENDBRANCH   7   8
ENDBRANCH   6   7
ENDBRANCH   4   6
TORSDOF 3
ENDMDL
MODEL 8
REMARK VINA RESULT:      -4.1     11.117     12.270
REMARK  3 active torsions:
REMARK  status: ('A' for Active; 'I' for Inactive)
REMARK    1  A    between atoms: C1_1  and  C6_6 
REMARK    2  A    between atoms: C5_5  and  C7_7 
REMARK    3  A    between atoms: C6_6  and  C7_7 
ROOT
HETATM    1  C2  UNL     1     -34.036  17.047  -1.553  1.00 20.00     0.033 C 
HETATM    2  C3  UNL     1     -32.996  18.146  -1.486  1.00 20.00     0.168 C 
HETATM    3  C4  UNL     1     -33.532  17.780  -3.723  1.00 20.00     0.172 C 
HETATM    4  C5  UNL     1     -33.820  16.505  -2.950  1.00 20.00     0.012 C 
HETATM    5  O9  UNL     1     -32.850  18.661  -2.818  1.00 20.00    -0.391 OA
ENDROOT
BRANCH   4   6
HETATM    6  C7  UNL     1     -34.990  15.709  -3.495  1.00 20.00     0.013 C 
BRANCH   6   7
HETATM    7  C6  UNL     1     -34.533  14.398  -4.125  1.00 20.00     0.070 C 
BRANCH   7   8
HETATM    8  C1  UNL     1     -35.515  13.865  -5.140  1.00 20.00     0.231 C 
HETATM    9  O8  UNL     1     -35.882  12.697  -5.212  1.00 20.00    -0.307 OA
ENDBRANCH   7   8
ENDBRANCH   6   7
ENDBRANCH   4   6
TORSDOF 3
ENDMDL
MODEL 9
REMARK VINA RESULT:      -3.7      1.221      4.900
REMARK  3 active torsions:
REMARK  status: ('A' for Active; 'I' for Inactive)
REMARK    1  A    between atoms: C1_1  and  C6_6 
REMARK    2  A    between atoms: C5_5  and  C7_7 
REMARK    3  A    between atoms: C6_6  and  C7_7 
ROOT
HETATM    1  C2  UNL     1     -33.060   9.648   2.013  1.00 20.00     0.033 C 
HETATM    2  C3  UNL     1     -32.641  10.275   0.700  1.00 20.00     0.168 C 
HETATM    3  C4  UNL     1     -31.510   8.253   0.939  1.00 20.00     0.172 C 
HETATM    4  C5  UNL     1     -31.871   8.763   2.323  1.00 20.00     0.012 C 
HETATM    5  O9  UNL     1     -31.826   9.309   0.019  1.00 20.00    -0.391 OA
ENDROOT
BRANCH   4   6
HETATM    6  C7  UNL     1     -32.161   7.662   3.325  1.00 20.00     0.013 C 
BRANCH   6   7
HETATM    7  C6  UNL     1     -33.284   6.748   2.847  1.00 20.00     0.070 C 
BRANCH   7   8
HETATM    8  C1  UNL     1     -34.168   6.271   3.974  1.00 20.00     0.231 C 
HETATM    9  O8  UNL     1     -35.299   5.820   3.833  1.00 20.00    -0.307 OA
ENDBRANCH   7   8
ENDBRANCH   6   7
ENDBRANCH   4   6
TORSDOF 3
ENDMDL
