MODEL 1
REMARK VINA RESULT:      -5.5      0.000      0.000
REMARK  1 active torsions:
REMARK  status: ('A' for Active; 'I' for Inactive)
REMARK    1  A    between atoms: C2_2  and  C6_6 
REMARK       I    between atoms: C2_2  and  N7_7 
ROOT
HETATM    1  C1  UNL     1     -32.296   8.468   2.019  1.00 20.00     0.167 C 
HETATM    2  C2  UNL     1     -32.996   7.166   3.634  1.00 20.00     0.273 C 
HETATM    3  N7  UNL     1     -32.055   7.540   2.698  1.00 20.00    -0.197 NA
HETATM    4  O8  UNL     1     -33.089   7.549   4.796  1.00 20.00    -0.268 OA
HETATM    5  S10 UNL     1     -32.588   9.721   1.080  1.00 20.00    -0.055 SA
ENDROOT
BRANCH   2   6
HETATM    6  C6  UNL     1     -33.994   6.176   3.120  1.00 20.00     0.215 C 
HETATM    7  C4  UNL     1     -35.188   6.021   4.044  1.00 20.00     0.044 C 
HETATM    8  C3  UNL     1     -34.759   4.887   4.945  1.00 20.00     0.029 C 
HETATM    9  C5  UNL     1     -33.955   4.022   4.001  1.00 20.00     0.168 C 
HETATM   10  O9  UNL     1     -33.323   4.914   3.071  1.00 20.00    -0.376 OA
ENDBRANCH   2   6
TORSDOF 1
ENDMDL
MODEL 2
REMARK VINA RESULT:      -4.3      1.762      2.086
REMARK  1 active torsions:
REMARK  status: ('A' for Active; 'I' for Inactive)
REMARK    1  A    between atoms: C2_2  and  C6_6 
REMARK       I    between atoms: C2_2  and  N7_7 
ROOT
HETATM    1  C1  UNL     1     -32.399   7.523   2.738  1.00 20.00     0.167 C 
HETATM    2  C2  UNL     1     -33.499   5.631   2.785  1.00 20.00     0.273 C 
HETATM    3  N7  UNL     1     -33.140   6.811   2.169  1.00 20.00    -0.197 NA
HETATM    4  O8  UNL     1     -32.940   4.542   2.697  1.00 20.00    -0.268 OA
HETATM    5  S10 UNL     1     -31.395   8.515   3.478  1.00 20.00    -0.055 SA
ENDROOT
BRANCH   2   6
HETATM    6  C6  UNL     1     -34.716   5.748   3.647  1.00 20.00     0.215 C 
HETATM    7  C4  UNL     1     -34.661   6.950   4.572  1.00 20.00     0.044 C 
HETATM    8  C3  UNL     1     -34.025   6.377   5.816  1.00 20.00     0.029 C 
HETATM    9  C5  UNL     1     -34.587   4.973   5.838  1.00 20.00     0.168 C 
HETATM   10  O9  UNL     1     -34.744   4.577   4.467  1.00 20.00    -0.376 OA
ENDBRANCH   2   6
TORSDOF 1
ENDMDL
MODEL 3
REMARK VINA RESULT:      -4.2     11.462     12.207
REMARK  1 active torsions:
REMARK  status: ('A' for Active; 'I' for Inactive)
REMARK    1  A    between atoms: C2_2  and  C6_6 
REMARK       I    between atoms: C2_2  and  N7_7 
ROOT
HETATM    1  C1  UNL     1     -37.932  14.619  -5.659  1.00 20.00     0.167 C 
HETATM    2  C2  UNL     1     -36.075  13.583  -5.139  1.00 20.00     0.273 C 
HETATM    3  N7  UNL     1     -37.430  13.791  -4.994  1.00 20.00    -0.197 NA
HETATM    4  O8  UNL     1     -35.516  12.807  -5.909  1.00 20.00    -0.268 OA
HETATM    5  S10 UNL     1     -38.649  15.733  -6.544  1.00 20.00    -0.055 SA
ENDROOT
BRANCH   2   6
HETATM    6  C6  UNL     1     -35.236  14.425  -4.230  1.00 20.00     0.215 C 
HETATM    7  C4  UNL     1     -34.828  15.740  -4.868  1.00 20.00     0.044 C 
HETATM    8  C3  UNL     1     -33.506  15.395  -5.512  1.00 20.00     0.029 C 
HETATM    9  C5  UNL     1     -32.929  14.399  -4.531  1.00 20.00     0.168 C 
HETATM   10  O9  UNL     1     -34.041  13.681  -3.979  1.00 20.00    -0.376 OA
ENDBRANCH   2   6
TORSDOF 1
ENDMDL
MODEL 4
REMARK VINA RESULT:      -3.9     11.200     12.344
REMARK  1 active torsions:
REMARK  status: ('A' for Active; 'I' for Inactive)
REMARK    1  A    between atoms: C2_2  and  C6_6 
REMARK       I    between atoms: C2_2  and  N7_7 
ROOT
HETATM    1  C1  UNL     1     -34.306  16.234  -2.859  1.00 20.00     0.167 C 
HETATM    2  C2  UNL     1     -34.350  14.624  -4.341  1.00 20.00     0.273 C 
HETATM    3  N7  UNL     1     -33.716  15.667  -3.701  1.00 20.00    -0.197 NA
HETATM    4  O8  UNL     1     -34.343  13.438  -4.026  1.00 20.00    -0.268 OA
HETATM    5  S10 UNL     1     -35.075  17.027  -1.711  1.00 20.00    -0.055 SA
ENDROOT
BRANCH   2   6
HETATM    6  C6  UNL     1     -35.121  15.042  -5.554  1.00 20.00     0.215 C 
HETATM    7  C4  UNL     1     -35.548  13.862  -6.407  1.00 20.00     0.044 C 
HETATM    8  C3  UNL     1     -34.398  13.726  -7.377  1.00 20.00     0.029 C 
HETATM    9  C5  UNL     1     -33.990  15.168  -7.583  1.00 20.00     0.168 C 
HETATM   10  O9  UNL     1     -34.235  15.842  -6.340  1.00 20.00    -0.376 OA
ENDBRANCH   2   6
TORSDOF 1
ENDMDL
MODEL 5
REMARK VINA RESULT:      -3.9     11.379     11.997
REMARK  1 active torsions:
REMARK  status: ('A' for Active; 'I' for Inactive)
REMARK    1  A    between atoms: C2_2  and  C6_6 
REMARK       I    between atoms: C2_2  and  N7_7 
ROOT
HETATM    1  C1  UNL     1     -35.473  13.447  -6.119  1.00 20.00     0.167 C 
HETATM    2  C2  UNL     1     -34.353  14.400  -4.497  1.00 20.00     0.273 C 
HETATM    3  N7  UNL     1     -35.386  13.612  -4.959  1.00 20.00    -0.197 NA
HETATM    4  O8  UNL     1     -33.224  14.041  -4.176  1.00 20.00    -0.268 OA
HETATM    5  S10 UNL     1     -35.624  13.202  -7.685  1.00 20.00    -0.055 SA
ENDROOT
BRANCH   2   6
HETATM    6  C6  UNL     1     -34.704  15.850  -4.392  1.00 20.00     0.215 C 
HETATM    7  C4  UNL     1     -33.619  16.664  -3.711  1.00 20.00     0.044 C 
HETATM    8  C3  UNL     1     -34.036  16.618  -2.261  1.00 20.00     0.029 C 
HETATM    9  C5  UNL     1     -35.545  16.632  -2.368  1.00 20.00     0.168 C 
HETATM   10  O9  UNL     1     -35.873  15.925  -3.572  1.00 20.00    -0.376 OA
ENDBRANCH   2   6
TORSDOF 1
ENDMDL
MODEL 6
REMARK VINA RESULT:      -3.7     11.899     12.585
REMARK  1 active torsions:
REMARK  status: ('A' for Active; 'I' for Inactive)
REMARK    1  A    between atoms: C2_2  and  C6_6 
REMARK       I    between atoms: C2_2  and  N7_7 
ROOT
HETATM    1  C1  UNL     1     -34.069  14.872  -6.088  1.00 20.00     0.167 C 
HETATM    2  C2  UNL     1     -35.832  13.581  -5.952  1.00 20.00     0.273 C 
HETATM    3  N7  UNL     1     -34.710  14.038  -6.611  1.00 20.00    -0.197 NA
HETATM    4  O8  UNL     1     -35.905  12.648  -5.159  1.00 20.00    -0.268 OA
HETATM    5  S10 UNL     1     -33.174  16.003  -5.412  1.00 20.00    -0.055 SA
ENDROOT
BRANCH   2   6
HETATM    6  C6  UNL     1     -37.075  14.347  -6.279  1.00 20.00     0.215 C 
HETATM    7  C4  UNL     1     -36.889  15.846  -6.136  1.00 20.00     0.044 C 
HETATM    8  C3  UNL     1     -37.301  16.092  -4.704  1.00 20.00     0.029 C 
HETATM    9  C5  UNL     1     -38.408  15.078  -4.518  1.00 20.00     0.168 C 
HETATM   10  O9  UNL     1     -38.061  13.944  -5.325  1.00 20.00    -0.376 OA
ENDBRANCH   2   6
TORSDOF 1
ENDMDL
MODEL 7
REMARK VINA RESULT:      -3.7     11.822     12.551
REMARK  1 active torsions:
REMARK  status: ('A' for Active; 'I' for Inactive)
REMARK    1  A    between atoms: C2_2  and  C6_6 
REMARK       I    between atoms: C2_2  and  N7_7 
ROOT
HETATM    1  C1  UNL     1     -36.788  16.606  -4.480  1.00 20.00     0.167 C 
HETATM    2  C2  UNL     1     -36.765  14.425  -4.665  1.00 20.00     0.273 C 
HETATM    3  N7  UNL     1     -36.769  15.579  -3.911  1.00 20.00    -0.197 NA
HETATM    4  O8  UNL     1     -37.736  13.787  -5.061  1.00 20.00    -0.268 OA
HETATM    5  S10 UNL     1     -36.812  18.018  -5.217  1.00 20.00    -0.055 SA
ENDROOT
BRANCH   2   6
HETATM    6  C6  UNL     1     -35.394  13.937  -5.011  1.00 20.00     0.215 C 
HETATM    7  C4  UNL     1     -34.628  14.920  -5.877  1.00 20.00     0.044 C 
HETATM    8  C3  UNL     1     -34.974  14.465  -7.274  1.00 20.00     0.029 C 
HETATM    9  C5  UNL     1     -35.070  12.965  -7.101  1.00 20.00     0.168 C 
HETATM   10  O9  UNL     1     -35.571  12.741  -5.775  1.00 20.00    -0.376 OA
ENDBRANCH   2   6
TORSDOF 1
ENDMDL
MODEL 8
REMARK VINA RESULT:      -3.7     11.422     11.844
REMARK  1 active torsions:
REMARK  status: ('A' for Active; 'I' for Inactive)
REMARK    1  A    between atoms: C2_2  and  C6_6 
REMARK       I    between atoms: C2_2  and  N7_7 
ROOT
HETATM    1  C1  UNL     1     -34.109  16.286  -3.099  1.00 20.00     0.167 C 
HETATM    2  C2  UNL     1     -33.523  14.771  -4.567  1.00 20.00     0.273 C 
HETATM    3  N7  UNL     1     -33.320  15.964  -3.908  1.00 20.00    -0.197 NA
HETATM    4  O8  UNL     1     -33.122  13.658  -4.241  1.00 20.00    -0.268 OA
HETATM    5  S10 UNL     1     -35.158  16.756  -1.997  1.00 20.00    -0.055 SA
ENDROOT
BRANCH   2   6
HETATM    6  C6  UNL     1     -34.333  14.907  -5.819  1.00 20.00     0.215 C 
HETATM    7  C4  UNL     1     -35.812  15.095  -5.538  1.00 20.00     0.044 C 
HETATM    8  C3  UNL     1     -36.329  13.676  -5.542  1.00 20.00     0.029 C 
HETATM    9  C5  UNL     1     -35.464  13.030  -6.601  1.00 20.00     0.168 C 
HETATM   10  O9  UNL     1     -34.185  13.675  -6.531  1.00 20.00    -0.376 OA
ENDBRANCH   2   6
TORSDOF 1
ENDMDL
MODEL 9
REMARK VINA RESULT:      -3.4     11.906     12.584
REMARK  1 active torsions:
REMARK  status: ('A' for Active; 'I' for Inactive)
REMARK    1  A    between atoms: C2_2  and  C6_6 
REMARK       I    between atoms: C2_2  and  N7_7 
ROOT
HETATM    1  C1  UNL     1     -34.082  16.644  -2.707  1.00 20.00     0.167 C 
HETATM    2  C2  UNL     1     -34.894  15.617  -4.460  1.00 20.00     0.273 C 
HETATM    3  N7  UNL     1     -34.675  15.711  -3.103  1.00 20.00    -0.197 NA
HETATM    4  O8  UNL     1     -35.848  16.053  -5.096  1.00 20.00    -0.268 OA
HETATM    5  S10 UNL     1     -33.280  17.895  -2.132  1.00 20.00    -0.055 SA
ENDROOT
BRANCH   2   6
HETATM    6  C6  UNL     1     -33.813  14.887  -5.194  1.00 20.00     0.215 C 
HETATM    7  C4  UNL     1     -33.268  15.681  -6.367  1.00 20.00     0.044 C 
HETATM    8  C3  UNL     1     -34.141  15.220  -7.509  1.00 20.00     0.029 C 
HETATM    9  C5  UNL     1     -34.380  13.769  -7.155  1.00 20.00     0.168 C 
HETATM   10  O9  UNL     1     -34.412  13.701  -5.722  1.00 20.00    -0.376 OA
ENDBRANCH   2   6
TORSDOF 1
ENDMDL
