MODEL 1
REMARK VINA RESULT:      -5.2      0.000      0.000
REMARK  1 active torsions:
REMARK  status: ('A' for Active; 'I' for Inactive)
REMARK    1  A    between atoms: C4_4  and  C5_5 
ROOT
HETATM    1  C1  UNL     1     -31.879   8.196   3.467  1.00 20.00     0.135 A 
HETATM    2  C2  UNL     1     -32.383   7.327   2.525  1.00 20.00     0.136 A 
HETATM    3  C3  UNL     1     -33.262   7.286   5.045  1.00 20.00     0.152 A 
HETATM    4  C4  UNL     1     -33.766   6.418   4.103  1.00 20.00     0.157 A 
HETATM    5  N6  UNL     1     -32.310   8.192   4.745  1.00 20.00    -0.269 NA
HETATM    6  N7  UNL     1     -33.335   6.422   2.826  1.00 20.00    -0.254 NA
ENDROOT
BRANCH   4   7
HETATM    7  C5  UNL     1     -34.818   5.431   4.471  1.00 20.00     0.435 C 
HETATM    8  F8  UNL     1     -34.521   4.148   4.102  1.00 20.00    -0.165 F 
HETATM    9  F9  UNL     1     -35.064   5.365   5.814  1.00 20.00    -0.165 F 
HETATM   10  F10 UNL     1     -36.025   5.705   3.893  1.00 20.00    -0.165 F 
ENDBRANCH   4   7
TORSDOF 1
ENDMDL
MODEL 2
REMARK VINA RESULT:      -5.2      0.038      1.192
REMARK  1 active torsions:
REMARK  status: ('A' for Active; 'I' for Inactive)
REMARK    1  A    between atoms: C4_4  and  C5_5 
ROOT
HETATM    1  C1  UNL     1     -31.861   8.189   3.419  1.00 20.00     0.135 A 
HETATM    2  C2  UNL     1     -32.369   7.311   2.488  1.00 20.00     0.136 A 
HETATM    3  C3  UNL     1     -33.250   7.307   5.008  1.00 20.00     0.152 A 
HETATM    4  C4  UNL     1     -33.759   6.430   4.077  1.00 20.00     0.157 A 
HETATM    5  N6  UNL     1     -32.292   8.204   4.696  1.00 20.00    -0.269 NA
HETATM    6  N7  UNL     1     -33.327   6.416   2.799  1.00 20.00    -0.254 NA
ENDROOT
BRANCH   4   7
HETATM    7  C5  UNL     1     -34.816   5.454   4.457  1.00 20.00     0.435 C 
HETATM    8  F8  UNL     1     -35.059   5.403   5.801  1.00 20.00    -0.165 F 
HETATM    9  F9  UNL     1     -36.031   5.712   3.887  1.00 20.00    -0.165 F 
HETATM   10  F10 UNL     1     -34.508   4.174   4.094  1.00 20.00    -0.165 F 
ENDBRANCH   4   7
TORSDOF 1
ENDMDL
MODEL 3
REMARK VINA RESULT:      -5.1      2.849      3.646
REMARK  1 active torsions:
REMARK  status: ('A' for Active; 'I' for Inactive)
REMARK    1  A    between atoms: C4_4  and  C5_5 
ROOT
HETATM    1  C1  UNL     1     -34.658   5.368   5.393  1.00 20.00     0.135 A 
HETATM    2  C2  UNL     1     -34.413   5.033   4.080  1.00 20.00     0.136 A 
HETATM    3  C3  UNL     1     -33.492   7.315   5.114  1.00 20.00     0.152 A 
HETATM    4  C4  UNL     1     -33.245   6.980   3.801  1.00 20.00     0.157 A 
HETATM    5  N6  UNL     1     -34.202   6.515   5.934  1.00 20.00    -0.269 NA
HETATM    6  N7  UNL     1     -33.702   5.832   3.260  1.00 20.00    -0.254 NA
ENDROOT
BRANCH   4   7
HETATM    7  C5  UNL     1     -32.457   7.888   2.924  1.00 20.00     0.435 C 
HETATM    8  F8  UNL     1     -31.842   7.250   1.883  1.00 20.00    -0.165 F 
HETATM    9  F9  UNL     1     -33.202   8.875   2.343  1.00 20.00    -0.165 F 
HETATM   10  F10 UNL     1     -31.457   8.534   3.595  1.00 20.00    -0.165 F 
ENDBRANCH   4   7
TORSDOF 1
ENDMDL
MODEL 4
REMARK VINA RESULT:      -5.1      2.836      3.648
REMARK  1 active torsions:
REMARK  status: ('A' for Active; 'I' for Inactive)
REMARK    1  A    between atoms: C4_4  and  C5_5 
ROOT
HETATM    1  C1  UNL     1     -34.671   5.333   5.408  1.00 20.00     0.135 A 
HETATM    2  C2  UNL     1     -34.381   4.970   4.111  1.00 20.00     0.136 A 
HETATM    3  C3  UNL     1     -33.536   7.297   5.110  1.00 20.00     0.152 A 
HETATM    4  C4  UNL     1     -33.246   6.932   3.814  1.00 20.00     0.157 A 
HETATM    5  N6  UNL     1     -34.254   6.504   5.931  1.00 20.00    -0.269 NA
HETATM    6  N7  UNL     1     -33.664   5.762   3.291  1.00 20.00    -0.254 NA
ENDROOT
BRANCH   4   7
HETATM    7  C5  UNL     1     -32.450   7.834   2.935  1.00 20.00     0.435 C 
HETATM    8  F8  UNL     1     -33.190   8.822   2.349  1.00 20.00    -0.165 F 
HETATM    9  F9  UNL     1     -31.442   8.486   3.587  1.00 20.00    -0.165 F 
HETATM   10  F10 UNL     1     -31.848   7.170   1.905  1.00 20.00    -0.165 F 
ENDBRANCH   4   7
TORSDOF 1
ENDMDL
MODEL 5
REMARK VINA RESULT:      -5.1      0.849      1.515
REMARK  1 active torsions:
REMARK  status: ('A' for Active; 'I' for Inactive)
REMARK    1  A    between atoms: C4_4  and  C5_5 
ROOT
HETATM    1  C1  UNL     1     -31.877   8.161   3.211  1.00 20.00     0.135 A 
HETATM    2  C2  UNL     1     -32.295   8.135   4.523  1.00 20.00     0.136 A 
HETATM    3  C3  UNL     1     -33.335   6.471   2.714  1.00 20.00     0.152 A 
HETATM    4  C4  UNL     1     -33.752   6.444   4.026  1.00 20.00     0.157 A 
HETATM    5  N6  UNL     1     -32.389   7.329   2.282  1.00 20.00    -0.269 NA
HETATM    6  N7  UNL     1     -33.240   7.277   4.954  1.00 20.00    -0.254 NA
ENDROOT
BRANCH   4   7
HETATM    7  C5  UNL     1     -34.800   5.482   4.467  1.00 20.00     0.435 C 
HETATM    8  F8  UNL     1     -34.515   4.181   4.159  1.00 20.00    -0.165 F 
HETATM    9  F9  UNL     1     -35.017   5.487   5.816  1.00 20.00    -0.165 F 
HETATM   10  F10 UNL     1     -36.018   5.731   3.901  1.00 20.00    -0.165 F 
ENDBRANCH   4   7
TORSDOF 1
ENDMDL
MODEL 6
REMARK VINA RESULT:      -5.1      2.931      3.965
REMARK  1 active torsions:
REMARK  status: ('A' for Active; 'I' for Inactive)
REMARK    1  A    between atoms: C4_4  and  C5_5 
ROOT
HETATM    1  C1  UNL     1     -34.684   5.655   5.337  1.00 20.00     0.135 A 
HETATM    2  C2  UNL     1     -33.977   6.733   5.821  1.00 20.00     0.136 A 
HETATM    3  C3  UNL     1     -33.905   6.091   3.231  1.00 20.00     0.152 A 
HETATM    4  C4  UNL     1     -33.199   7.169   3.715  1.00 20.00     0.157 A 
HETATM    5  N6  UNL     1     -34.662   5.315   4.033  1.00 20.00    -0.269 NA
HETATM    6  N7  UNL     1     -33.221   7.509   5.020  1.00 20.00    -0.254 NA
ENDROOT
BRANCH   4   7
HETATM    7  C5  UNL     1     -32.374   8.005   2.800  1.00 20.00     0.435 C 
HETATM    8  F8  UNL     1     -31.801   7.300   1.779  1.00 20.00    -0.165 F 
HETATM    9  F9  UNL     1     -33.075   9.006   2.189  1.00 20.00    -0.165 F 
HETATM   10  F10 UNL     1     -31.338   8.625   3.440  1.00 20.00    -0.165 F 
ENDBRANCH   4   7
TORSDOF 1
ENDMDL
MODEL 7
REMARK VINA RESULT:      -4.3      2.307      3.245
REMARK  1 active torsions:
REMARK  status: ('A' for Active; 'I' for Inactive)
REMARK    1  A    between atoms: C4_4  and  C5_5 
ROOT
HETATM    1  C1  UNL     1     -34.416   6.486   6.385  1.00 20.00     0.135 A 
HETATM    2  C2  UNL     1     -33.675   7.427   5.704  1.00 20.00     0.136 A 
HETATM    3  C3  UNL     1     -34.466   5.172   4.513  1.00 20.00     0.152 A 
HETATM    4  C4  UNL     1     -33.727   6.113   3.832  1.00 20.00     0.157 A 
HETATM    5  N6  UNL     1     -34.825   5.341   5.802  1.00 20.00    -0.269 NA
HETATM    6  N7  UNL     1     -33.317   7.258   4.416  1.00 20.00    -0.254 NA
ENDROOT
BRANCH   4   7
HETATM    7  C5  UNL     1     -33.349   5.893   2.409  1.00 20.00     0.435 C 
HETATM    8  F8  UNL     1     -32.787   4.669   2.173  1.00 20.00    -0.165 F 
HETATM    9  F9  UNL     1     -34.403   5.971   1.543  1.00 20.00    -0.165 F 
HETATM   10  F10 UNL     1     -32.437   6.804   1.957  1.00 20.00    -0.165 F 
ENDBRANCH   4   7
TORSDOF 1
ENDMDL
MODEL 8
REMARK VINA RESULT:      -4.1     11.976     12.544
REMARK  1 active torsions:
REMARK  status: ('A' for Active; 'I' for Inactive)
REMARK    1  A    between atoms: C4_4  and  C5_5 
ROOT
HETATM    1  C1  UNL     1     -37.138  14.032  -5.277  1.00 20.00     0.135 A 
HETATM    2  C2  UNL     1     -36.082  13.323  -5.807  1.00 20.00     0.136 A 
HETATM    3  C3  UNL     1     -35.669  15.372  -4.147  1.00 20.00     0.152 A 
HETATM    4  C4  UNL     1     -34.614  14.663  -4.676  1.00 20.00     0.157 A 
HETATM    5  N6  UNL     1     -36.950  15.069  -4.437  1.00 20.00    -0.269 NA
HETATM    6  N7  UNL     1     -34.802  13.626  -5.517  1.00 20.00    -0.254 NA
ENDROOT
BRANCH   4   7
HETATM    7  C5  UNL     1     -33.211  15.026  -4.333  1.00 20.00     0.435 C 
HETATM    8  F8  UNL     1     -32.409  13.946  -4.088  1.00 20.00    -0.165 F 
HETATM    9  F9  UNL     1     -32.570  15.728  -5.315  1.00 20.00    -0.165 F 
HETATM   10  F10 UNL     1     -33.126  15.804  -3.214  1.00 20.00    -0.165 F 
ENDBRANCH   4   7
TORSDOF 1
ENDMDL
MODEL 9
REMARK VINA RESULT:      -4.0     11.681     12.470
REMARK  1 active torsions:
REMARK  status: ('A' for Active; 'I' for Inactive)
REMARK    1  A    between atoms: C4_4  and  C5_5 
ROOT
HETATM    1  C1  UNL     1     -36.288  13.621  -5.327  1.00 20.00     0.135 A 
HETATM    2  C2  UNL     1     -37.074  14.656  -4.871  1.00 20.00     0.136 A 
HETATM    3  C3  UNL     1     -34.529  14.418  -4.101  1.00 20.00     0.152 A 
HETATM    4  C4  UNL     1     -35.315  15.454  -3.647  1.00 20.00     0.157 A 
HETATM    5  N6  UNL     1     -35.001  13.483  -4.950  1.00 20.00    -0.269 NA
HETATM    6  N7  UNL     1     -36.603  15.590  -4.023  1.00 20.00    -0.254 NA
ENDROOT
BRANCH   4   7
HETATM    7  C5  UNL     1     -34.760  16.469  -2.710  1.00 20.00     0.435 C 
HETATM    8  F8  UNL     1     -34.997  17.759  -3.095  1.00 20.00    -0.165 F 
HETATM    9  F9  UNL     1     -35.264  16.380  -1.443  1.00 20.00    -0.165 F 
HETATM   10  F10 UNL     1     -33.405  16.373  -2.570  1.00 20.00    -0.165 F 
ENDBRANCH   4   7
TORSDOF 1
ENDMDL
