MODEL 1
REMARK VINA RESULT:      -5.1      0.000      0.000
REMARK  3 active torsions:
REMARK  status: ('A' for Active; 'I' for Inactive)
REMARK    1  A    between atoms: C4_4  and  C7_7 
REMARK    2  A    between atoms: C6_6  and  N9_9 
REMARK    3  A    between atoms: C7_7  and  N9_9 
ROOT
HETATM    1  C1  UNL     1     -32.298   8.998   1.592  1.00 20.00     0.089 C 
HETATM    2  C6  UNL     1     -32.199   8.035   2.687  1.00 20.00     0.393 C 
HETATM    3  N8  UNL     1     -32.371   9.763   0.723  1.00 20.00    -0.195 NA
ENDROOT
BRANCH   2   4
HETATM    4  N9  UNL     1     -33.512   7.570   3.084  1.00 20.00     0.100 N 
HETATM    5  H21 UNL     1     -33.923   7.008   2.352  1.00 20.00     0.317 HD
BRANCH   4   6
HETATM    6  C7  UNL     1     -33.404   6.725   4.298  1.00 20.00     0.221 C 
HETATM    7  C5  UNL     1     -33.417   7.623   5.526  1.00 20.00     0.043 C 
BRANCH   6   8
HETATM    8  C4  UNL     1     -34.555   5.729   4.316  1.00 20.00     0.018 A 
HETATM    9  C2  UNL     1     -34.279   4.252   4.269  1.00 20.00     0.007 A 
HETATM   10  C3  UNL     1     -34.802   4.880   5.532  1.00 20.00     0.007 A 
ENDBRANCH   6   8
ENDBRANCH   4   6
ENDBRANCH   2   4
TORSDOF 3
ENDMDL
MODEL 2
REMARK VINA RESULT:      -4.8      1.003      1.453
REMARK  3 active torsions:
REMARK  status: ('A' for Active; 'I' for Inactive)
REMARK    1  A    between atoms: C4_4  and  C7_7 
REMARK    2  A    between atoms: C6_6  and  N9_9 
REMARK    3  A    between atoms: C7_7  and  N9_9 
ROOT
HETATM    1  C1  UNL     1     -32.374   8.740   1.845  1.00 20.00     0.089 C 
HETATM    2  C6  UNL     1     -32.167   7.626   2.769  1.00 20.00     0.393 C 
HETATM    3  N8  UNL     1     -32.533   9.624   1.112  1.00 20.00    -0.195 NA
ENDROOT
BRANCH   2   4
HETATM    4  N9  UNL     1     -33.335   7.422   3.600  1.00 20.00     0.100 N 
HETATM    5  H21 UNL     1     -33.961   8.214   3.529  1.00 20.00     0.317 HD
BRANCH   4   6
HETATM    6  C7  UNL     1     -34.075   6.219   3.148  1.00 20.00     0.221 C 
HETATM    7  C5  UNL     1     -33.074   5.163   2.705  1.00 20.00     0.043 C 
BRANCH   6   8
HETATM    8  C4  UNL     1     -34.956   5.719   4.284  1.00 20.00     0.018 A 
HETATM    9  C2  UNL     1     -34.560   4.499   5.068  1.00 20.00     0.007 A 
HETATM   10  C3  UNL     1     -34.503   5.857   5.710  1.00 20.00     0.007 A 
ENDBRANCH   6   8
ENDBRANCH   4   6
ENDBRANCH   2   4
TORSDOF 3
ENDMDL
MODEL 3
REMARK VINA RESULT:      -4.7      1.177      1.736
REMARK  3 active torsions:
REMARK  status: ('A' for Active; 'I' for Inactive)
REMARK    1  A    between atoms: C4_4  and  C7_7 
REMARK    2  A    between atoms: C6_6  and  N9_9 
REMARK    3  A    between atoms: C7_7  and  N9_9 
ROOT
HETATM    1  C1  UNL     1     -32.806   9.210   0.379  1.00 20.00     0.089 C 
HETATM    2  C6  UNL     1     -32.319   8.784   1.689  1.00 20.00     0.393 C 
HETATM    3  N8  UNL     1     -33.190   9.553  -0.660  1.00 20.00    -0.195 NA
ENDROOT
BRANCH   2   4
HETATM    4  N9  UNL     1     -32.934   7.535   2.087  1.00 20.00     0.100 N 
HETATM    5  H21 UNL     1     -32.581   6.773   1.524  1.00 20.00     0.317 HD
BRANCH   4   6
HETATM    6  C7  UNL     1     -32.612   7.240   3.504  1.00 20.00     0.221 C 
HETATM    7  C5  UNL     1     -31.590   8.252   3.998  1.00 20.00     0.043 C 
BRANCH   6   8
HETATM    8  C4  UNL     1     -33.892   7.285   4.326  1.00 20.00     0.018 A 
HETATM    9  C2  UNL     1     -34.457   6.023   4.917  1.00 20.00     0.007 A 
HETATM   10  C3  UNL     1     -33.845   7.065   5.813  1.00 20.00     0.007 A 
ENDBRANCH   6   8
ENDBRANCH   4   6
ENDBRANCH   2   4
TORSDOF 3
ENDMDL
MODEL 4
REMARK VINA RESULT:      -4.6      1.709      4.943
REMARK  3 active torsions:
REMARK  status: ('A' for Active; 'I' for Inactive)
REMARK    1  A    between atoms: C4_4  and  C7_7 
REMARK    2  A    between atoms: C6_6  and  N9_9 
REMARK    3  A    between atoms: C7_7  and  N9_9 
ROOT
HETATM    1  C1  UNL     1     -34.340   5.048   4.136  1.00 20.00     0.089 C 
HETATM    2  C6  UNL     1     -34.260   6.451   3.736  1.00 20.00     0.393 C 
HETATM    3  N8  UNL     1     -34.406   3.935   4.457  1.00 20.00    -0.195 NA
ENDROOT
BRANCH   2   4
HETATM    4  N9  UNL     1     -33.212   6.649   2.756  1.00 20.00     0.100 N 
HETATM    5  H21 UNL     1     -33.544   6.409   1.831  1.00 20.00     0.317 HD
BRANCH   4   6
HETATM    6  C7  UNL     1     -32.802   8.074   2.733  1.00 20.00     0.221 C 
HETATM    7  C5  UNL     1     -31.415   8.197   3.347  1.00 20.00     0.043 C 
BRANCH   6   8
HETATM    8  C4  UNL     1     -32.829   8.579   1.298  1.00 20.00     0.018 A 
HETATM    9  C2  UNL     1     -32.759  10.054   1.012  1.00 20.00     0.007 A 
HETATM   10  C3  UNL     1     -31.592   9.166   0.678  1.00 20.00     0.007 A 
ENDBRANCH   6   8
ENDBRANCH   4   6
ENDBRANCH   2   4
TORSDOF 3
ENDMDL
MODEL 5
REMARK VINA RESULT:      -4.4      1.933      4.415
REMARK  3 active torsions:
REMARK  status: ('A' for Active; 'I' for Inactive)
REMARK    1  A    between atoms: C4_4  and  C7_7 
REMARK    2  A    between atoms: C6_6  and  N9_9 
REMARK    3  A    between atoms: C7_7  and  N9_9 
ROOT
HETATM    1  C1  UNL     1     -34.328   4.196   4.489  1.00 20.00     0.089 C 
HETATM    2  C6  UNL     1     -34.862   5.487   4.918  1.00 20.00     0.393 C 
HETATM    3  N8  UNL     1     -33.904   3.171   4.154  1.00 20.00    -0.195 NA
ENDROOT
BRANCH   2   4
HETATM    4  N9  UNL     1     -34.824   6.446   3.833  1.00 20.00     0.100 N 
HETATM    5  H21 UNL     1     -35.726   6.890   3.723  1.00 20.00     0.317 HD
BRANCH   4   6
HETATM    6  C7  UNL     1     -33.831   7.507   4.130  1.00 20.00     0.221 C 
HETATM    7  C5  UNL     1     -33.477   7.451   5.609  1.00 20.00     0.043 C 
BRANCH   6   8
HETATM    8  C4  UNL     1     -32.605   7.303   3.251  1.00 20.00     0.018 A 
HETATM    9  C2  UNL     1     -32.328   8.243   2.110  1.00 20.00     0.007 A 
HETATM   10  C3  UNL     1     -31.449   8.260   3.330  1.00 20.00     0.007 A 
ENDBRANCH   6   8
ENDBRANCH   4   6
ENDBRANCH   2   4
TORSDOF 3
ENDMDL
MODEL 6
REMARK VINA RESULT:      -3.9     11.234     12.056
REMARK  3 active torsions:
REMARK  status: ('A' for Active; 'I' for Inactive)
REMARK    1  A    between atoms: C4_4  and  C7_7 
REMARK    2  A    between atoms: C6_6  and  N9_9 
REMARK    3  A    between atoms: C7_7  and  N9_9 
ROOT
HETATM    1  C1  UNL     1     -36.636  13.937  -5.212  1.00 20.00     0.089 C 
HETATM    2  C6  UNL     1     -35.196  13.979  -5.459  1.00 20.00     0.393 C 
HETATM    3  N8  UNL     1     -37.780  13.904  -5.021  1.00 20.00    -0.195 NA
ENDROOT
BRANCH   2   4
HETATM    4  N9  UNL     1     -34.458  13.897  -4.216  1.00 20.00     0.100 N 
HETATM    5  H21 UNL     1     -33.862  13.080  -4.213  1.00 20.00     0.317 HD
BRANCH   4   6
HETATM    6  C7  UNL     1     -33.590  15.090  -4.063  1.00 20.00     0.221 C 
HETATM    7  C5  UNL     1     -33.120  15.538  -5.439  1.00 20.00     0.043 C 
BRANCH   6   8
HETATM    8  C4  UNL     1     -34.370  16.186  -3.350  1.00 20.00     0.018 A 
HETATM    9  C2  UNL     1     -33.795  16.855  -2.132  1.00 20.00     0.007 A 
HETATM   10  C3  UNL     1     -33.908  17.614  -3.425  1.00 20.00     0.007 A 
ENDBRANCH   6   8
ENDBRANCH   4   6
ENDBRANCH   2   4
TORSDOF 3
ENDMDL
MODEL 7
REMARK VINA RESULT:      -3.9     11.073     11.903
REMARK  3 active torsions:
REMARK  status: ('A' for Active; 'I' for Inactive)
REMARK    1  A    between atoms: C4_4  and  C7_7 
REMARK    2  A    between atoms: C6_6  and  N9_9 
REMARK    3  A    between atoms: C7_7  and  N9_9 
ROOT
HETATM    1  C1  UNL     1     -35.212  13.674  -4.814  1.00 20.00     0.089 C 
HETATM    2  C6  UNL     1     -34.320  14.661  -4.208  1.00 20.00     0.393 C 
HETATM    3  N8  UNL     1     -35.917  12.888  -5.293  1.00 20.00    -0.195 NA
ENDROOT
BRANCH   2   4
HETATM    4  N9  UNL     1     -34.529  15.970  -4.791  1.00 20.00     0.100 N 
HETATM    5  H21 UNL     1     -35.209  15.920  -5.537  1.00 20.00     0.317 HD
BRANCH   4   6
HETATM    6  C7  UNL     1     -35.052  16.904  -3.764  1.00 20.00     0.221 C 
HETATM    7  C5  UNL     1     -36.571  16.924  -3.844  1.00 20.00     0.043 C 
BRANCH   6   8
HETATM    8  C4  UNL     1     -34.566  16.460  -2.392  1.00 20.00     0.018 A 
HETATM    9  C2  UNL     1     -33.742  17.388  -1.543  1.00 20.00     0.007 A 
HETATM   10  C3  UNL     1     -35.156  17.064  -1.148  1.00 20.00     0.007 A 
ENDBRANCH   6   8
ENDBRANCH   4   6
ENDBRANCH   2   4
TORSDOF 3
ENDMDL
MODEL 8
REMARK VINA RESULT:      -3.8      2.205      4.330
REMARK  3 active torsions:
REMARK  status: ('A' for Active; 'I' for Inactive)
REMARK    1  A    between atoms: C4_4  and  C7_7 
REMARK    2  A    between atoms: C6_6  and  N9_9 
REMARK    3  A    between atoms: C7_7  and  N9_9 
ROOT
HETATM    1  C1  UNL     1     -34.124   6.677   5.797  1.00 20.00     0.089 C 
HETATM    2  C6  UNL     1     -34.784   5.597   5.067  1.00 20.00     0.393 C 
HETATM    3  N8  UNL     1     -33.602   7.532   6.381  1.00 20.00    -0.195 NA
ENDROOT
BRANCH   2   4
HETATM    4  N9  UNL     1     -34.711   5.821   3.638  1.00 20.00     0.100 N 
HETATM    5  H21 UNL     1     -35.205   6.668   3.389  1.00 20.00     0.317 HD
BRANCH   4   6
HETATM    6  C7  UNL     1     -33.297   5.983   3.223  1.00 20.00     0.221 C 
HETATM    7  C5  UNL     1     -32.966   4.924   2.181  1.00 20.00     0.043 C 
BRANCH   6   8
HETATM    8  C4  UNL     1     -33.094   7.390   2.679  1.00 20.00     0.018 A 
HETATM    9  C2  UNL     1     -31.954   8.236   3.176  1.00 20.00     0.007 A 
HETATM   10  C3  UNL     1     -31.932   7.692   1.775  1.00 20.00     0.007 A 
ENDBRANCH   6   8
ENDBRANCH   4   6
ENDBRANCH   2   4
TORSDOF 3
ENDMDL
MODEL 9
REMARK VINA RESULT:      -3.8      1.837      3.797
REMARK  3 active torsions:
REMARK  status: ('A' for Active; 'I' for Inactive)
REMARK    1  A    between atoms: C4_4  and  C7_7 
REMARK    2  A    between atoms: C6_6  and  N9_9 
REMARK    3  A    between atoms: C7_7  and  N9_9 
ROOT
HETATM    1  C1  UNL     1     -33.811   4.222   3.595  1.00 20.00     0.089 C 
HETATM    2  C6  UNL     1     -33.117   4.953   2.536  1.00 20.00     0.393 C 
HETATM    3  N8  UNL     1     -34.360   3.637   4.433  1.00 20.00    -0.195 NA
ENDROOT
BRANCH   2   4
HETATM    4  N9  UNL     1     -33.461   6.359   2.571  1.00 20.00     0.100 N 
HETATM    5  H21 UNL     1     -34.452   6.476   2.737  1.00 20.00     0.317 HD
BRANCH   4   6
HETATM    6  C7  UNL     1     -32.735   7.030   3.677  1.00 20.00     0.221 C 
HETATM    7  C5  UNL     1     -31.894   8.159   3.100  1.00 20.00     0.043 C 
BRANCH   6   8
HETATM    8  C4  UNL     1     -33.742   7.542   4.697  1.00 20.00     0.018 A 
HETATM    9  C2  UNL     1     -34.170   6.668   5.843  1.00 20.00     0.007 A 
HETATM   10  C3  UNL     1     -33.303   7.869   6.097  1.00 20.00     0.007 A 
ENDBRANCH   6   8
ENDBRANCH   4   6
ENDBRANCH   2   4
TORSDOF 3
ENDMDL
