MODEL 1
REMARK VINA RESULT:      -5.6      0.000      0.000
REMARK  3 active torsions:
REMARK  status: ('A' for Active; 'I' for Inactive)
REMARK    1  A    between atoms: C4_4  and  C7_7 
REMARK    2  A    between atoms: C6_6  and  N9_9 
REMARK    3  A    between atoms: C7_7  and  N9_9 
ROOT
HETATM    1  C1  UNL     1     -32.072   8.580   1.863  1.00 20.00     0.089 C 
HETATM    2  C6  UNL     1     -32.016   7.877   3.143  1.00 20.00     0.393 C 
HETATM    3  N8  UNL     1     -32.115   9.141   0.848  1.00 20.00    -0.195 NA
ENDROOT
BRANCH   2   4
HETATM    4  N9  UNL     1     -32.930   6.755   3.156  1.00 20.00     0.100 N 
HETATM    5  H21 UNL     1     -33.348   6.630   2.245  1.00 20.00     0.317 HD
BRANCH   4   6
HETATM    6  C7  UNL     1     -34.025   7.006   4.125  1.00 20.00     0.221 C 
HETATM    7  C5  UNL     1     -33.419   7.449   5.448  1.00 20.00     0.043 C 
BRANCH   6   8
HETATM    8  C4  UNL     1     -34.853   5.737   4.282  1.00 20.00     0.018 A 
HETATM    9  C2  UNL     1     -34.193   4.389   4.197  1.00 20.00     0.007 A 
HETATM   10  C3  UNL     1     -34.712   4.891   5.515  1.00 20.00     0.007 A 
ENDBRANCH   6   8
ENDBRANCH   4   6
ENDBRANCH   2   4
TORSDOF 3
ENDMDL
MODEL 2
REMARK VINA RESULT:      -5.4      1.163      1.594
REMARK  3 active torsions:
REMARK  status: ('A' for Active; 'I' for Inactive)
REMARK    1  A    between atoms: C4_4  and  C7_7 
REMARK    2  A    between atoms: C6_6  and  N9_9 
REMARK    3  A    between atoms: C7_7  and  N9_9 
ROOT
HETATM    1  C1  UNL     1     -32.333   9.120   1.478  1.00 20.00     0.089 C 
HETATM    2  C6  UNL     1     -32.125   7.987   2.377  1.00 20.00     0.393 C 
HETATM    3  N8  UNL     1     -32.495  10.019   0.762  1.00 20.00    -0.195 NA
ENDROOT
BRANCH   2   4
HETATM    4  N9  UNL     1     -33.332   7.689   3.119  1.00 20.00     0.100 N 
HETATM    5  H21 UNL     1     -33.393   8.272   3.943  1.00 20.00     0.317 HD
BRANCH   4   6
HETATM    6  C7  UNL     1     -33.316   6.274   3.566  1.00 20.00     0.221 C 
HETATM    7  C5  UNL     1     -33.322   5.373   2.341  1.00 20.00     0.043 C 
BRANCH   6   8
HETATM    8  C4  UNL     1     -34.522   6.020   4.459  1.00 20.00     0.018 A 
HETATM    9  C2  UNL     1     -34.499   4.898   5.460  1.00 20.00     0.007 A 
HETATM   10  C3  UNL     1     -34.451   6.325   5.929  1.00 20.00     0.007 A 
ENDBRANCH   6   8
ENDBRANCH   4   6
ENDBRANCH   2   4
TORSDOF 3
ENDMDL
MODEL 3
REMARK VINA RESULT:      -5.0      0.883      1.112
REMARK  3 active torsions:
REMARK  status: ('A' for Active; 'I' for Inactive)
REMARK    1  A    between atoms: C4_4  and  C7_7 
REMARK    2  A    between atoms: C6_6  and  N9_9 
REMARK    3  A    between atoms: C7_7  and  N9_9 
ROOT
HETATM    1  C1  UNL     1     -32.429   8.997   1.712  1.00 20.00     0.089 C 
HETATM    2  C6  UNL     1     -32.429   7.671   2.326  1.00 20.00     0.393 C 
HETATM    3  N8  UNL     1     -32.429  10.049   1.221  1.00 20.00    -0.195 NA
ENDROOT
BRANCH   2   4
HETATM    4  N9  UNL     1     -32.295   7.769   3.764  1.00 20.00     0.100 N 
HETATM    5  H21 UNL     1     -31.590   7.126   4.097  1.00 20.00     0.317 HD
BRANCH   4   6
HETATM    6  C7  UNL     1     -33.578   7.411   4.417  1.00 20.00     0.221 C 
HETATM    7  C5  UNL     1     -33.398   7.482   5.926  1.00 20.00     0.043 C 
BRANCH   6   8
HETATM    8  C4  UNL     1     -33.997   6.019   3.965  1.00 20.00     0.018 A 
HETATM    9  C2  UNL     1     -34.687   5.088   4.922  1.00 20.00     0.007 A 
HETATM   10  C3  UNL     1     -35.452   5.691   3.778  1.00 20.00     0.007 A 
ENDBRANCH   6   8
ENDBRANCH   4   6
ENDBRANCH   2   4
TORSDOF 3
ENDMDL
MODEL 4
REMARK VINA RESULT:      -4.9      1.526      4.744
REMARK  3 active torsions:
REMARK  status: ('A' for Active; 'I' for Inactive)
REMARK    1  A    between atoms: C4_4  and  C7_7 
REMARK    2  A    between atoms: C6_6  and  N9_9 
REMARK    3  A    between atoms: C7_7  and  N9_9 
ROOT
HETATM    1  C1  UNL     1     -34.290   5.750   4.183  1.00 20.00     0.089 C 
HETATM    2  C6  UNL     1     -33.659   7.001   3.769  1.00 20.00     0.393 C 
HETATM    3  N8  UNL     1     -34.793   4.758   4.515  1.00 20.00    -0.195 NA
ENDROOT
BRANCH   2   4
HETATM    4  N9  UNL     1     -33.064   6.869   2.455  1.00 20.00     0.100 N 
HETATM    5  H21 UNL     1     -32.536   6.010   2.393  1.00 20.00     0.317 HD
BRANCH   4   6
HETATM    6  C7  UNL     1     -32.129   7.994   2.207  1.00 20.00     0.221 C 
HETATM    7  C5  UNL     1     -31.476   8.389   3.523  1.00 20.00     0.043 C 
BRANCH   6   8
HETATM    8  C4  UNL     1     -32.898   9.153   1.588  1.00 20.00     0.018 A 
HETATM    9  C2  UNL     1     -32.167  10.227   0.831  1.00 20.00     0.007 A 
HETATM   10  C3  UNL     1     -33.044   9.252   0.096  1.00 20.00     0.007 A 
ENDBRANCH   6   8
ENDBRANCH   4   6
ENDBRANCH   2   4
TORSDOF 3
ENDMDL
MODEL 5
REMARK VINA RESULT:      -4.7      1.941      3.727
REMARK  3 active torsions:
REMARK  status: ('A' for Active; 'I' for Inactive)
REMARK    1  A    between atoms: C4_4  and  C7_7 
REMARK    2  A    between atoms: C6_6  and  N9_9 
REMARK    3  A    between atoms: C7_7  and  N9_9 
ROOT
HETATM    1  C1  UNL     1     -34.300   5.981   5.857  1.00 20.00     0.089 C 
HETATM    2  C6  UNL     1     -33.737   7.325   5.744  1.00 20.00     0.393 C 
HETATM    3  N8  UNL     1     -34.747   4.914   5.950  1.00 20.00    -0.195 NA
ENDROOT
BRANCH   2   4
HETATM    4  N9  UNL     1     -33.706   7.757   4.363  1.00 20.00     0.100 N 
HETATM    5  H21 UNL     1     -34.511   7.403   3.865  1.00 20.00     0.317 HD
BRANCH   4   6
HETATM    6  C7  UNL     1     -32.492   7.228   3.694  1.00 20.00     0.221 C 
HETATM    7  C5  UNL     1     -31.602   8.397   3.298  1.00 20.00     0.043 C 
BRANCH   6   8
HETATM    8  C4  UNL     1     -32.909   6.402   2.485  1.00 20.00     0.018 A 
HETATM    9  C2  UNL     1     -33.041   4.909   2.599  1.00 20.00     0.007 A 
HETATM   10  C3  UNL     1     -34.268   5.762   2.440  1.00 20.00     0.007 A 
ENDBRANCH   6   8
ENDBRANCH   4   6
ENDBRANCH   2   4
TORSDOF 3
ENDMDL
MODEL 6
REMARK VINA RESULT:      -4.6     11.435     12.969
REMARK  3 active torsions:
REMARK  status: ('A' for Active; 'I' for Inactive)
REMARK    1  A    between atoms: C4_4  and  C7_7 
REMARK    2  A    between atoms: C6_6  and  N9_9 
REMARK    3  A    between atoms: C7_7  and  N9_9 
ROOT
HETATM    1  C1  UNL     1     -35.459  13.218  -6.304  1.00 20.00     0.089 C 
HETATM    2  C6  UNL     1     -34.777  13.648  -7.523  1.00 20.00     0.393 C 
HETATM    3  N8  UNL     1     -36.004  12.875  -5.338  1.00 20.00    -0.195 NA
ENDROOT
BRANCH   2   4
HETATM    4  N9  UNL     1     -33.601  14.431  -7.207  1.00 20.00     0.100 N 
HETATM    5  H21 UNL     1     -32.972  13.901  -6.620  1.00 20.00     0.317 HD
BRANCH   4   6
HETATM    6  C7  UNL     1     -33.992  15.654  -6.464  1.00 20.00     0.221 C 
HETATM    7  C5  UNL     1     -33.878  16.852  -7.395  1.00 20.00     0.043 C 
BRANCH   6   8
HETATM    8  C4  UNL     1     -33.096  15.802  -5.242  1.00 20.00     0.018 A 
HETATM    9  C2  UNL     1     -33.685  15.742  -3.860  1.00 20.00     0.007 A 
HETATM   10  C3  UNL     1     -32.821  14.618  -4.358  1.00 20.00     0.007 A 
ENDBRANCH   6   8
ENDBRANCH   4   6
ENDBRANCH   2   4
TORSDOF 3
ENDMDL
MODEL 7
REMARK VINA RESULT:      -4.6      1.556      4.408
REMARK  3 active torsions:
REMARK  status: ('A' for Active; 'I' for Inactive)
REMARK    1  A    between atoms: C4_4  and  C7_7 
REMARK    2  A    between atoms: C6_6  and  N9_9 
REMARK    3  A    between atoms: C7_7  and  N9_9 
ROOT
HETATM    1  C1  UNL     1     -34.017   4.671   3.775  1.00 20.00     0.089 C 
HETATM    2  C6  UNL     1     -33.222   5.287   2.715  1.00 20.00     0.393 C 
HETATM    3  N8  UNL     1     -34.647   4.179   4.616  1.00 20.00    -0.195 NA
ENDROOT
BRANCH   2   4
HETATM    4  N9  UNL     1     -33.478   6.710   2.638  1.00 20.00     0.100 N 
HETATM    5  H21 UNL     1     -33.529   7.008   1.674  1.00 20.00     0.317 HD
BRANCH   4   6
HETATM    6  C7  UNL     1     -32.374   7.459   3.287  1.00 20.00     0.221 C 
HETATM    7  C5  UNL     1     -32.796   7.832   4.699  1.00 20.00     0.043 C 
BRANCH   6   8
HETATM    8  C4  UNL     1     -32.049   8.689   2.451  1.00 20.00     0.018 A 
HETATM    9  C2  UNL     1     -31.425   8.538   1.092  1.00 20.00     0.007 A 
HETATM   10  C3  UNL     1     -32.850   8.999   1.218  1.00 20.00     0.007 A 
ENDBRANCH   6   8
ENDBRANCH   4   6
ENDBRANCH   2   4
TORSDOF 3
ENDMDL
MODEL 8
REMARK VINA RESULT:      -4.6      1.754      4.575
REMARK  3 active torsions:
REMARK  status: ('A' for Active; 'I' for Inactive)
REMARK    1  A    between atoms: C4_4  and  C7_7 
REMARK    2  A    between atoms: C6_6  and  N9_9 
REMARK    3  A    between atoms: C7_7  and  N9_9 
ROOT
HETATM    1  C1  UNL     1     -34.338   5.958   5.454  1.00 20.00     0.089 C 
HETATM    2  C6  UNL     1     -34.005   7.342   5.123  1.00 20.00     0.393 C 
HETATM    3  N8  UNL     1     -34.605   4.861   5.720  1.00 20.00    -0.195 NA
ENDROOT
BRANCH   2   4
HETATM    4  N9  UNL     1     -32.778   7.409   4.359  1.00 20.00     0.100 N 
HETATM    5  H21 UNL     1     -32.330   8.306   4.488  1.00 20.00     0.317 HD
BRANCH   4   6
HETATM    6  C7  UNL     1     -33.072   7.254   2.913  1.00 20.00     0.221 C 
HETATM    7  C5  UNL     1     -32.986   5.780   2.549  1.00 20.00     0.043 C 
BRANCH   6   8
HETATM    8  C4  UNL     1     -32.086   8.092   2.111  1.00 20.00     0.018 A 
HETATM    9  C2  UNL     1     -32.550   8.855   0.901  1.00 20.00     0.007 A 
HETATM   10  C3  UNL     1     -32.162   9.593   2.151  1.00 20.00     0.007 A 
ENDBRANCH   6   8
ENDBRANCH   4   6
ENDBRANCH   2   4
TORSDOF 3
ENDMDL
MODEL 9
REMARK VINA RESULT:      -4.5     11.409     12.106
REMARK  3 active torsions:
REMARK  status: ('A' for Active; 'I' for Inactive)
REMARK    1  A    between atoms: C4_4  and  C7_7 
REMARK    2  A    between atoms: C6_6  and  N9_9 
REMARK    3  A    between atoms: C7_7  and  N9_9 
ROOT
HETATM    1  C1  UNL     1     -36.373  13.876  -5.002  1.00 20.00     0.089 C 
HETATM    2  C6  UNL     1     -36.924  15.160  -4.574  1.00 20.00     0.393 C 
HETATM    3  N8  UNL     1     -35.939  12.855  -5.342  1.00 20.00    -0.195 NA
ENDROOT
BRANCH   2   4
HETATM    4  N9  UNL     1     -35.876  16.147  -4.424  1.00 20.00     0.100 N 
HETATM    5  H21 UNL     1     -35.338  16.223  -5.276  1.00 20.00     0.317 HD
BRANCH   4   6
HETATM    6  C7  UNL     1     -34.949  15.741  -3.338  1.00 20.00     0.221 C 
HETATM    7  C5  UNL     1     -35.202  16.620  -2.123  1.00 20.00     0.043 C 
BRANCH   6   8
HETATM    8  C4  UNL     1     -33.516  15.863  -3.835  1.00 20.00     0.018 A 
HETATM    9  C2  UNL     1     -32.808  14.666  -4.406  1.00 20.00     0.007 A 
HETATM   10  C3  UNL     1     -33.218  15.797  -5.307  1.00 20.00     0.007 A 
ENDBRANCH   6   8
ENDBRANCH   4   6
ENDBRANCH   2   4
TORSDOF 3
ENDMDL
