MODEL 1
REMARK VINA RESULT:      -6.5      0.000      0.000
REMARK  1 active torsions:
REMARK  status: ('A' for Active; 'I' for Inactive)
REMARK    1  A    between atoms: C7_7  and  O9_9 
ROOT
HETATM    1  C1  UNL     1     -32.425   7.873   2.566  1.00 20.00     0.097 C 
HETATM    2  C2  UNL     1     -33.194   7.572   4.806  1.00 20.00    -0.006 C 
HETATM    3  C3  UNL     1     -33.196   7.154   3.528  1.00 20.00     0.047 C 
HETATM    4  C4  UNL     1     -33.969   6.903   5.903  1.00 20.00     0.028 C 
HETATM    5  C5  UNL     1     -34.531   5.537   5.509  1.00 20.00     0.007 C 
HETATM    6  C6  UNL     1     -35.099   5.566   4.092  1.00 20.00     0.037 C 
HETATM    7  C7  UNL     1     -34.028   5.978   3.074  1.00 20.00     0.161 C 
HETATM    8  N8  UNL     1     -31.798   8.458   1.784  1.00 20.00    -0.192 NA
ENDROOT
BRANCH   7   9
HETATM    9  O9  UNL     1     -33.172   4.857   2.848  1.00 20.00    -0.390 OA
HETATM   10  H18 UNL     1     -33.394   4.201   3.526  1.00 20.00     0.210 HD
ENDBRANCH   7   9
TORSDOF 1
ENDMDL
MODEL 2
REMARK VINA RESULT:      -4.5      1.516      2.192
REMARK  1 active torsions:
REMARK  status: ('A' for Active; 'I' for Inactive)
REMARK    1  A    between atoms: C7_7  and  O9_9 
ROOT
HETATM    1  C1  UNL     1     -32.360   7.599   2.482  1.00 20.00     0.097 C 
HETATM    2  C2  UNL     1     -33.243   5.423   2.915  1.00 20.00    -0.006 C 
HETATM    3  C3  UNL     1     -33.084   6.696   3.318  1.00 20.00     0.047 C 
HETATM    4  C4  UNL     1     -33.976   4.383   3.709  1.00 20.00     0.028 C 
HETATM    5  C5  UNL     1     -34.778   4.958   4.877  1.00 20.00     0.007 C 
HETATM    6  C6  UNL     1     -33.988   6.045   5.602  1.00 20.00     0.037 C 
HETATM    7  C7  UNL     1     -33.607   7.184   4.648  1.00 20.00     0.161 C 
HETATM    8  N8  UNL     1     -31.772   8.332   1.802  1.00 20.00    -0.192 NA
ENDROOT
BRANCH   7   9
HETATM    9  O9  UNL     1     -34.765   7.991   4.430  1.00 20.00    -0.390 OA
HETATM   10  H18 UNL     1     -34.913   8.003   3.472  1.00 20.00     0.210 HD
ENDBRANCH   7   9
TORSDOF 1
ENDMDL
MODEL 3
REMARK VINA RESULT:      -4.2     11.660     12.245
REMARK  1 active torsions:
REMARK  status: ('A' for Active; 'I' for Inactive)
REMARK    1  A    between atoms: C7_7  and  O9_9 
ROOT
HETATM    1  C1  UNL     1     -35.629  13.729  -5.186  1.00 20.00     0.097 C 
HETATM    2  C2  UNL     1     -34.669  15.202  -3.570  1.00 20.00    -0.006 C 
HETATM    3  C3  UNL     1     -35.713  14.889  -4.357  1.00 20.00     0.047 C 
HETATM    4  C4  UNL     1     -34.637  16.397  -2.663  1.00 20.00     0.028 C 
HETATM    5  C5  UNL     1     -35.999  17.068  -2.489  1.00 20.00     0.007 C 
HETATM    6  C6  UNL     1     -36.745  17.148  -3.819  1.00 20.00     0.037 C 
HETATM    7  C7  UNL     1     -36.949  15.754  -4.425  1.00 20.00     0.161 C 
HETATM    8  N8  UNL     1     -35.561  12.787  -5.859  1.00 20.00    -0.192 NA
ENDROOT
BRANCH   7   9
HETATM    9  O9  UNL     1     -38.012  15.111  -3.720  1.00 20.00    -0.390 OA
HETATM   10  H18 UNL     1     -38.446  15.799  -3.194  1.00 20.00     0.210 HD
ENDBRANCH   7   9
TORSDOF 1
ENDMDL
MODEL 4
REMARK VINA RESULT:      -4.2     11.166     11.770
REMARK  1 active torsions:
REMARK  status: ('A' for Active; 'I' for Inactive)
REMARK    1  A    between atoms: C7_7  and  O9_9 
ROOT
HETATM    1  C1  UNL     1     -33.390  14.210  -4.304  1.00 20.00     0.097 C 
HETATM    2  C2  UNL     1     -35.231  15.581  -3.646  1.00 20.00    -0.006 C 
HETATM    3  C3  UNL     1     -34.763  14.584  -4.418  1.00 20.00     0.047 C 
HETATM    4  C4  UNL     1     -36.651  16.067  -3.681  1.00 20.00     0.028 C 
HETATM    5  C5  UNL     1     -37.592  15.145  -4.456  1.00 20.00     0.007 C 
HETATM    6  C6  UNL     1     -36.935  14.639  -5.738  1.00 20.00     0.037 C 
HETATM    7  C7  UNL     1     -35.635  13.884  -5.433  1.00 20.00     0.161 C 
HETATM    8  N8  UNL     1     -32.275  13.907  -4.211  1.00 20.00    -0.192 NA
ENDROOT
BRANCH   7   9
HETATM    9  O9  UNL     1     -35.976  12.586  -4.942  1.00 20.00    -0.390 OA
HETATM   10  H18 UNL     1     -36.470  12.147  -5.651  1.00 20.00     0.210 HD
ENDBRANCH   7   9
TORSDOF 1
ENDMDL
MODEL 5
REMARK VINA RESULT:      -4.0     12.045     12.447
REMARK  1 active torsions:
REMARK  status: ('A' for Active; 'I' for Inactive)
REMARK    1  A    between atoms: C7_7  and  O9_9 
ROOT
HETATM    1  C1  UNL     1     -33.566  16.237  -3.387  1.00 20.00     0.097 C 
HETATM    2  C2  UNL     1     -35.059  16.775  -1.603  1.00 20.00    -0.006 C 
HETATM    3  C3  UNL     1     -33.872  16.973  -2.202  1.00 20.00     0.047 C 
HETATM    4  C4  UNL     1     -35.491  17.483  -0.352  1.00 20.00     0.028 C 
HETATM    5  C5  UNL     1     -34.591  18.660   0.024  1.00 20.00     0.007 C 
HETATM    6  C6  UNL     1     -33.118  18.312  -0.177  1.00 20.00     0.037 C 
HETATM    7  C7  UNL     1     -32.837  17.914  -1.632  1.00 20.00     0.161 C 
HETATM    8  N8  UNL     1     -33.317  15.639  -4.349  1.00 20.00    -0.192 NA
ENDROOT
BRANCH   7   9
HETATM    9  O9  UNL     1     -32.798  19.103  -2.422  1.00 20.00    -0.390 OA
HETATM   10  H18 UNL     1     -33.647  19.550  -2.286  1.00 20.00     0.210 HD
ENDBRANCH   7   9
TORSDOF 1
ENDMDL
MODEL 6
REMARK VINA RESULT:      -4.0     11.558     12.777
REMARK  1 active torsions:
REMARK  status: ('A' for Active; 'I' for Inactive)
REMARK    1  A    between atoms: C7_7  and  O9_9 
ROOT
HETATM    1  C1  UNL     1     -37.126  14.525  -5.017  1.00 20.00     0.097 C 
HETATM    2  C2  UNL     1     -35.452  15.749  -6.202  1.00 20.00    -0.006 C 
HETATM    3  C3  UNL     1     -35.797  15.037  -5.114  1.00 20.00     0.047 C 
HETATM    4  C4  UNL     1     -34.090  16.342  -6.413  1.00 20.00     0.028 C 
HETATM    5  C5  UNL     1     -33.041  15.826  -5.429  1.00 20.00     0.007 C 
HETATM    6  C6  UNL     1     -33.612  15.731  -4.016  1.00 20.00     0.037 C 
HETATM    7  C7  UNL     1     -34.834  14.805  -3.974  1.00 20.00     0.161 C 
HETATM    8  N8  UNL     1     -38.206  14.110  -4.939  1.00 20.00    -0.192 NA
ENDROOT
BRANCH   7   9
HETATM    9  O9  UNL     1     -34.372  13.454  -4.017  1.00 20.00    -0.390 OA
HETATM   10  H18 UNL     1     -33.405  13.496  -4.062  1.00 20.00     0.210 HD
ENDBRANCH   7   9
TORSDOF 1
ENDMDL
MODEL 7
REMARK VINA RESULT:      -4.0     11.755     12.018
REMARK  1 active torsions:
REMARK  status: ('A' for Active; 'I' for Inactive)
REMARK    1  A    between atoms: C7_7  and  O9_9 
ROOT
HETATM    1  C1  UNL     1     -33.988  16.220  -3.104  1.00 20.00     0.097 C 
HETATM    2  C2  UNL     1     -35.872  15.132  -4.088  1.00 20.00    -0.006 C 
HETATM    3  C3  UNL     1     -34.545  15.349  -4.088  1.00 20.00     0.047 C 
HETATM    4  C4  UNL     1     -36.573  14.244  -5.074  1.00 20.00     0.028 C 
HETATM    5  C5  UNL     1     -35.621  13.378  -5.899  1.00 20.00     0.007 C 
HETATM    6  C6  UNL     1     -34.394  14.174  -6.338  1.00 20.00     0.037 C 
HETATM    7  C7  UNL     1     -33.637  14.736  -5.128  1.00 20.00     0.161 C 
HETATM    8  N8  UNL     1     -33.536  16.928  -2.305  1.00 20.00    -0.192 NA
ENDROOT
BRANCH   7   9
HETATM    9  O9  UNL     1     -32.893  13.671  -4.532  1.00 20.00    -0.390 OA
HETATM   10  H18 UNL     1     -31.977  13.779  -4.828  1.00 20.00     0.210 HD
ENDBRANCH   7   9
TORSDOF 1
ENDMDL
MODEL 8
REMARK VINA RESULT:      -4.0     11.928     12.995
REMARK  1 active torsions:
REMARK  status: ('A' for Active; 'I' for Inactive)
REMARK    1  A    between atoms: C7_7  and  O9_9 
ROOT
HETATM    1  C1  UNL     1     -37.028  14.267  -5.125  1.00 20.00     0.097 C 
HETATM    2  C2  UNL     1     -34.774  14.158  -4.344  1.00 20.00    -0.006 C 
HETATM    3  C3  UNL     1     -35.656  14.645  -5.236  1.00 20.00     0.047 C 
HETATM    4  C4  UNL     1     -33.308  14.478  -4.363  1.00 20.00     0.028 C 
HETATM    5  C5  UNL     1     -32.946  15.629  -5.300  1.00 20.00     0.007 C 
HETATM    6  C6  UNL     1     -33.713  15.528  -6.616  1.00 20.00     0.037 C 
HETATM    7  C7  UNL     1     -35.228  15.538  -6.376  1.00 20.00     0.161 C 
HETATM    8  N8  UNL     1     -38.143  13.959  -5.035  1.00 20.00    -0.192 NA
ENDROOT
BRANCH   7   9
HETATM    9  O9  UNL     1     -35.628  16.880  -6.096  1.00 20.00    -0.390 OA
HETATM   10  H18 UNL     1     -36.596  16.875  -6.056  1.00 20.00     0.210 HD
ENDBRANCH   7   9
TORSDOF 1
ENDMDL
MODEL 9
REMARK VINA RESULT:      -3.9     11.747     12.317
REMARK  1 active torsions:
REMARK  status: ('A' for Active; 'I' for Inactive)
REMARK    1  A    between atoms: C7_7  and  O9_9 
ROOT
HETATM    1  C1  UNL     1     -35.564  13.837  -4.794  1.00 20.00     0.097 C 
HETATM    2  C2  UNL     1     -36.304  15.836  -3.718  1.00 20.00    -0.006 C 
HETATM    3  C3  UNL     1     -35.279  15.070  -4.132  1.00 20.00     0.047 C 
HETATM    4  C4  UNL     1     -36.131  17.146  -3.007  1.00 20.00     0.028 C 
HETATM    5  C5  UNL     1     -34.699  17.679  -3.048  1.00 20.00     0.007 C 
HETATM    6  C6  UNL     1     -33.688  16.557  -2.821  1.00 20.00     0.037 C 
HETATM    7  C7  UNL     1     -33.841  15.453  -3.874  1.00 20.00     0.161 C 
HETATM    8  N8  UNL     1     -35.795  12.836  -5.331  1.00 20.00    -0.192 NA
ENDROOT
BRANCH   7   9
HETATM    9  O9  UNL     1     -33.252  15.912  -5.092  1.00 20.00    -0.390 OA
HETATM   10  H18 UNL     1     -33.165  15.134  -5.664  1.00 20.00     0.210 HD
ENDBRANCH   7   9
TORSDOF 1
ENDMDL
