MODEL 1
REMARK VINA RESULT:      -5.3      0.000      0.000
REMARK  1 active torsions:
REMARK  status: ('A' for Active; 'I' for Inactive)
REMARK    1  A    between atoms: C7_7  and  N8_8 
ROOT
HETATM    1  C1  UNL     1     -32.325   9.487   0.693  1.00 20.00     0.013 C 
HETATM    2  C2  UNL     1     -32.146   8.851   1.695  1.00 20.00    -0.087 C 
HETATM    3  C7  UNL     1     -31.922   8.077   2.919  1.00 20.00     0.365 C 
ENDROOT
BRANCH   3   4
HETATM    4  N8  UNL     1     -33.171   7.511   3.404  1.00 20.00     0.106 N 
HETATM    5  C5  UNL     1     -33.191   7.367   4.860  1.00 20.00     0.351 C 
HETATM    6  C3  UNL     1     -34.224   6.284   5.036  1.00 20.00     0.156 C 
HETATM    7  C4  UNL     1     -34.563   5.639   3.724  1.00 20.00     0.110 C 
HETATM    8  O9  UNL     1     -34.724   5.974   6.109  1.00 20.00    -0.296 OA
HETATM    9  C6  UNL     1     -33.434   6.176   2.853  1.00 20.00     0.281 C 
ENDBRANCH   3   4
TORSDOF 1
ENDMDL
MODEL 2
REMARK VINA RESULT:      -4.6      1.042      1.667
REMARK  1 active torsions:
REMARK  status: ('A' for Active; 'I' for Inactive)
REMARK    1  A    between atoms: C7_7  and  N8_8 
ROOT
HETATM    1  C1  UNL     1     -32.494   9.056   0.905  1.00 20.00     0.013 C 
HETATM    2  C2  UNL     1     -32.073   8.734   1.982  1.00 20.00    -0.087 C 
HETATM    3  C7  UNL     1     -31.556   8.346   3.297  1.00 20.00     0.365 C 
ENDROOT
BRANCH   3   4
HETATM    4  N8  UNL     1     -32.399   7.325   3.899  1.00 20.00     0.106 N 
HETATM    5  C5  UNL     1     -33.500   6.921   3.024  1.00 20.00     0.351 C 
HETATM    6  C3  UNL     1     -34.488   6.380   4.025  1.00 20.00     0.156 C 
HETATM    7  C4  UNL     1     -34.086   6.727   5.428  1.00 20.00     0.110 C 
HETATM    8  O9  UNL     1     -35.487   5.737   3.730  1.00 20.00    -0.296 OA
HETATM    9  C6  UNL     1     -33.011   7.772   5.157  1.00 20.00     0.281 C 
ENDBRANCH   3   4
TORSDOF 1
ENDMDL
MODEL 3
REMARK VINA RESULT:      -4.4      1.361      1.952
REMARK  1 active torsions:
REMARK  status: ('A' for Active; 'I' for Inactive)
REMARK    1  A    between atoms: C7_7  and  N8_8 
ROOT
HETATM    1  C1  UNL     1     -31.557   8.332   1.421  1.00 20.00     0.013 C 
HETATM    2  C2  UNL     1     -32.429   8.270   2.244  1.00 20.00    -0.087 C 
HETATM    3  C7  UNL     1     -33.495   8.199   3.245  1.00 20.00     0.365 C 
ENDROOT
BRANCH   3   4
HETATM    4  N8  UNL     1     -33.409   6.959   4.001  1.00 20.00     0.106 N 
HETATM    5  C5  UNL     1     -33.951   5.817   3.263  1.00 20.00     0.351 C 
HETATM    6  C3  UNL     1     -34.294   4.875   4.388  1.00 20.00     0.156 C 
HETATM    7  C4  UNL     1     -34.218   5.566   5.718  1.00 20.00     0.110 C 
HETATM    8  O9  UNL     1     -34.591   3.697   4.237  1.00 20.00    -0.296 OA
HETATM    9  C6  UNL     1     -34.146   7.020   5.269  1.00 20.00     0.281 C 
ENDBRANCH   3   4
TORSDOF 1
ENDMDL
MODEL 4
REMARK VINA RESULT:      -4.3     10.729     11.337
REMARK  1 active torsions:
REMARK  status: ('A' for Active; 'I' for Inactive)
REMARK    1  A    between atoms: C7_7  and  N8_8 
ROOT
HETATM    1  C1  UNL     1     -33.921  17.662  -0.969  1.00 20.00     0.013 C 
HETATM    2  C2  UNL     1     -33.803  17.075  -2.010  1.00 20.00    -0.087 C 
HETATM    3  C7  UNL     1     -33.655  16.362  -3.280  1.00 20.00     0.365 C 
ENDROOT
BRANCH   3   4
HETATM    4  N8  UNL     1     -34.768  15.448  -3.490  1.00 20.00     0.106 N 
HETATM    5  C5  UNL     1     -34.369  14.235  -4.205  1.00 20.00     0.351 C 
HETATM    6  C3  UNL     1     -35.683  13.795  -4.795  1.00 20.00     0.156 C 
HETATM    7  C4  UNL     1     -36.725  14.867  -4.662  1.00 20.00     0.110 C 
HETATM    8  O9  UNL     1     -35.877  12.703  -5.313  1.00 20.00    -0.296 OA
HETATM    9  C6  UNL     1     -35.852  16.053  -4.273  1.00 20.00     0.281 C 
ENDBRANCH   3   4
TORSDOF 1
ENDMDL
MODEL 5
REMARK VINA RESULT:      -4.2      2.331      4.178
REMARK  1 active torsions:
REMARK  status: ('A' for Active; 'I' for Inactive)
REMARK    1  A    between atoms: C7_7  and  N8_8 
ROOT
HETATM    1  C1  UNL     1     -33.834   3.579   4.425  1.00 20.00     0.013 C 
HETATM    2  C2  UNL     1     -34.457   4.587   4.227  1.00 20.00    -0.087 C 
HETATM    3  C7  UNL     1     -35.222   5.813   3.986  1.00 20.00     0.365 C 
ENDROOT
BRANCH   3   4
HETATM    4  N8  UNL     1     -34.355   6.979   4.047  1.00 20.00     0.106 N 
HETATM    5  C5  UNL     1     -33.248   6.904   3.093  1.00 20.00     0.351 C 
HETATM    6  C3  UNL     1     -32.245   7.830   3.730  1.00 20.00     0.156 C 
HETATM    7  C4  UNL     1     -32.649   8.188   5.130  1.00 20.00     0.110 C 
HETATM    8  O9  UNL     1     -31.233   8.239   3.177  1.00 20.00    -0.296 OA
HETATM    9  C6  UNL     1     -33.748   7.161   5.371  1.00 20.00     0.281 C 
ENDBRANCH   3   4
TORSDOF 1
ENDMDL
MODEL 6
REMARK VINA RESULT:      -4.0     10.923     11.551
REMARK  1 active torsions:
REMARK  status: ('A' for Active; 'I' for Inactive)
REMARK    1  A    between atoms: C7_7  and  N8_8 
ROOT
HETATM    1  C1  UNL     1     -35.159  16.948  -1.286  1.00 20.00     0.013 C 
HETATM    2  C2  UNL     1     -34.467  16.711  -2.238  1.00 20.00    -0.087 C 
HETATM    3  C7  UNL     1     -33.617  16.424  -3.396  1.00 20.00     0.365 C 
ENDROOT
BRANCH   3   4
HETATM    4  N8  UNL     1     -34.378  15.751  -4.437  1.00 20.00     0.106 N 
HETATM    5  C5  UNL     1     -35.027  14.531  -3.955  1.00 20.00     0.351 C 
HETATM    6  C3  UNL     1     -35.205  13.763  -5.239  1.00 20.00     0.156 C 
HETATM    7  C4  UNL     1     -34.429  14.392  -6.359  1.00 20.00     0.110 C 
HETATM    8  O9  UNL     1     -35.894  12.759  -5.354  1.00 20.00    -0.296 OA
HETATM    9  C6  UNL     1     -33.543  15.353  -5.576  1.00 20.00     0.281 C 
ENDBRANCH   3   4
TORSDOF 1
ENDMDL
MODEL 7
REMARK VINA RESULT:      -3.9      2.485      4.490
REMARK  1 active torsions:
REMARK  status: ('A' for Active; 'I' for Inactive)
REMARK    1  A    between atoms: C7_7  and  N8_8 
ROOT
HETATM    1  C1  UNL     1     -34.674   5.443   5.632  1.00 20.00     0.013 C 
HETATM    2  C2  UNL     1     -34.399   5.680   4.487  1.00 20.00    -0.087 C 
HETATM    3  C7  UNL     1     -34.067   5.964   3.089  1.00 20.00     0.365 C 
ENDROOT
BRANCH   3   4
HETATM    4  N8  UNL     1     -33.460   7.281   2.963  1.00 20.00     0.106 N 
HETATM    5  C5  UNL     1     -33.184   7.638   1.571  1.00 20.00     0.351 C 
HETATM    6  C3  UNL     1     -32.091   8.661   1.739  1.00 20.00     0.156 C 
HETATM    7  C4  UNL     1     -31.569   8.671   3.146  1.00 20.00     0.110 C 
HETATM    8  O9  UNL     1     -31.685   9.392   0.846  1.00 20.00    -0.296 OA
HETATM    9  C6  UNL     1     -32.181   7.381   3.677  1.00 20.00     0.281 C 
ENDBRANCH   3   4
TORSDOF 1
ENDMDL
MODEL 8
REMARK VINA RESULT:      -3.8     11.093     11.601
REMARK  1 active torsions:
REMARK  status: ('A' for Active; 'I' for Inactive)
REMARK    1  A    between atoms: C7_7  and  N8_8 
ROOT
HETATM    1  C1  UNL     1     -35.117  16.788  -1.475  1.00 20.00     0.013 C 
HETATM    2  C2  UNL     1     -34.743  16.714  -2.614  1.00 20.00    -0.087 C 
HETATM    3  C7  UNL     1     -34.283  16.627  -4.002  1.00 20.00     0.365 C 
ENDROOT
BRANCH   3   4
HETATM    4  N8  UNL     1     -35.065  15.648  -4.742  1.00 20.00     0.106 N 
HETATM    5  C5  UNL     1     -36.498  15.751  -4.462  1.00 20.00     0.351 C 
HETATM    6  C3  UNL     1     -36.968  14.364  -4.820  1.00 20.00     0.156 C 
HETATM    7  C4  UNL     1     -35.809  13.431  -5.017  1.00 20.00     0.110 C 
HETATM    8  O9  UNL     1     -38.143  14.042  -4.939  1.00 20.00    -0.296 OA
HETATM    9  C6  UNL     1     -34.679  14.267  -4.428  1.00 20.00     0.281 C 
ENDBRANCH   3   4
TORSDOF 1
ENDMDL
MODEL 9
REMARK VINA RESULT:      -3.8     10.960     11.504
REMARK  1 active torsions:
REMARK  status: ('A' for Active; 'I' for Inactive)
REMARK    1  A    between atoms: C7_7  and  N8_8 
ROOT
HETATM    1  C1  UNL     1     -34.935  17.160  -1.007  1.00 20.00     0.013 C 
HETATM    2  C2  UNL     1     -35.560  17.052  -2.027  1.00 20.00    -0.087 C 
HETATM    3  C7  UNL     1     -36.325  16.925  -3.270  1.00 20.00     0.365 C 
ENDROOT
BRANCH   3   4
HETATM    4  N8  UNL     1     -35.701  15.961  -4.162  1.00 20.00     0.106 N 
HETATM    5  C5  UNL     1     -36.592  14.848  -4.494  1.00 20.00     0.351 C 
HETATM    6  C3  UNL     1     -35.600  13.779  -4.873  1.00 20.00     0.156 C 
HETATM    7  C4  UNL     1     -34.203  14.175  -4.494  1.00 20.00     0.110 C 
HETATM    8  O9  UNL     1     -35.895  12.726  -5.422  1.00 20.00    -0.296 OA
HETATM    9  C6  UNL     1     -34.490  15.364  -3.585  1.00 20.00     0.281 C 
ENDBRANCH   3   4
TORSDOF 1
ENDMDL
