MODEL 1
REMARK VINA RESULT:      -5.3      0.000      0.000
REMARK  1 active torsions:
REMARK  status: ('A' for Active; 'I' for Inactive)
REMARK    1  A    between atoms: C5_5  and  C10_10 
ROOT
HETATM    1  C1  UNL     1     -33.195   5.524   3.028  1.00 20.00     0.166 C 
HETATM    2  C2  UNL     1     -32.309   6.628   2.486  1.00 20.00     0.086 C 
HETATM    3  C3  UNL     1     -33.487   8.343   3.950  1.00 20.00     0.009 C 
HETATM    4  C4  UNL     1     -33.655   7.137   4.877  1.00 20.00     0.052 C 
HETATM    5  C5  UNL     1     -33.040   7.971   2.525  1.00 20.00    -0.004 C 
HETATM    6  C6  UNL     1     -34.137   5.871   4.171  1.00 20.00     0.159 C 
HETATM    7  C7  UNL     1     -35.570   5.979   3.663  1.00 20.00     0.060 C 
HETATM    8  O11 UNL     1     -33.119   4.376   2.590  1.00 20.00    -0.294 OA
HETATM    9  F12 UNL     1     -34.118   4.864   5.096  1.00 20.00    -0.235 F 
ENDROOT
BRANCH   5  10
HETATM   10  C10 UNL     1     -32.184   9.079   1.914  1.00 20.00    -0.018 C 
HETATM   11  C8  UNL     1     -31.356   8.540   0.751  1.00 20.00     0.010 C 
HETATM   12  C9  UNL     1     -33.061  10.242   1.455  1.00 20.00     0.010 C 
ENDBRANCH   5  10
TORSDOF 1
ENDMDL
MODEL 2
REMARK VINA RESULT:      -4.9     11.001     12.103
REMARK  1 active torsions:
REMARK  status: ('A' for Active; 'I' for Inactive)
REMARK    1  A    between atoms: C5_5  and  C10_10 
ROOT
HETATM    1  C1  UNL     1     -35.353  14.064  -5.138  1.00 20.00     0.166 C 
HETATM    2  C2  UNL     1     -35.113  14.802  -3.836  1.00 20.00     0.086 C 
HETATM    3  C3  UNL     1     -34.636  16.956  -5.102  1.00 20.00     0.009 C 
HETATM    4  C4  UNL     1     -35.626  16.351  -6.099  1.00 20.00     0.052 C 
HETATM    5  C5  UNL     1     -34.132  15.956  -4.046  1.00 20.00    -0.004 C 
HETATM    6  C6  UNL     1     -35.366  14.881  -6.421  1.00 20.00     0.159 C 
HETATM    7  C7  UNL     1     -34.079  14.659  -7.205  1.00 20.00     0.060 C 
HETATM    8  O11 UNL     1     -35.576  12.853  -5.150  1.00 20.00    -0.294 OA
HETATM    9  F12 UNL     1     -36.395  14.457  -7.218  1.00 20.00    -0.235 F 
ENDROOT
BRANCH   5  10
HETATM   10  C10 UNL     1     -33.826  16.663  -2.727  1.00 20.00    -0.018 C 
HETATM   11  C8  UNL     1     -33.303  18.074  -2.981  1.00 20.00     0.010 C 
HETATM   12  C9  UNL     1     -35.068  16.702  -1.839  1.00 20.00     0.010 C 
ENDBRANCH   5  10
TORSDOF 1
ENDMDL
MODEL 3
REMARK VINA RESULT:      -4.8      1.843      2.478
REMARK  1 active torsions:
REMARK  status: ('A' for Active; 'I' for Inactive)
REMARK    1  A    between atoms: C5_5  and  C10_10 
ROOT
HETATM    1  C1  UNL     1     -34.218   6.394   5.110  1.00 20.00     0.166 C 
HETATM    2  C2  UNL     1     -33.338   7.507   4.578  1.00 20.00     0.086 C 
HETATM    3  C3  UNL     1     -33.310   6.435   2.272  1.00 20.00     0.009 C 
HETATM    4  C4  UNL     1     -34.699   5.956   2.700  1.00 20.00     0.052 C 
HETATM    5  C5  UNL     1     -32.467   7.001   3.428  1.00 20.00    -0.004 C 
HETATM    6  C6  UNL     1     -34.750   5.376   4.112  1.00 20.00     0.159 C 
HETATM    7  C7  UNL     1     -33.997   4.059   4.245  1.00 20.00     0.060 C 
HETATM    8  O11 UNL     1     -34.529   6.344   6.301  1.00 20.00    -0.294 OA
HETATM    9  F12 UNL     1     -36.064   5.113   4.391  1.00 20.00    -0.235 F 
ENDROOT
BRANCH   5  10
HETATM   10  C10 UNL     1     -31.523   8.095   2.931  1.00 20.00    -0.018 C 
HETATM   11  C8  UNL     1     -32.058   8.723   1.647  1.00 20.00     0.010 C 
HETATM   12  C9  UNL     1     -31.324   9.160   4.007  1.00 20.00     0.010 C 
ENDBRANCH   5  10
TORSDOF 1
ENDMDL
MODEL 4
REMARK VINA RESULT:      -4.8     10.759     11.602
REMARK  1 active torsions:
REMARK  status: ('A' for Active; 'I' for Inactive)
REMARK    1  A    between atoms: C5_5  and  C10_10 
ROOT
HETATM    1  C1  UNL     1     -34.940  14.486  -4.477  1.00 20.00     0.166 C 
HETATM    2  C2  UNL     1     -35.667  15.400  -3.511  1.00 20.00     0.086 C 
HETATM    3  C3  UNL     1     -33.669  16.972  -3.435  1.00 20.00     0.009 C 
HETATM    4  C4  UNL     1     -33.476  16.470  -4.867  1.00 20.00     0.052 C 
HETATM    5  C5  UNL     1     -34.671  16.139  -2.616  1.00 20.00    -0.004 C 
HETATM    6  C6  UNL     1     -33.598  14.955  -5.018  1.00 20.00     0.159 C 
HETATM    7  C7  UNL     1     -32.461  14.194  -4.347  1.00 20.00     0.060 C 
HETATM    8  O11 UNL     1     -35.441  13.423  -4.846  1.00 20.00    -0.294 OA
HETATM    9  F12 UNL     1     -33.527  14.677  -6.356  1.00 20.00    -0.235 F 
ENDROOT
BRANCH   5  10
HETATM   10  C10 UNL     1     -35.395  17.009  -1.590  1.00 20.00    -0.018 C 
HETATM   11  C8  UNL     1     -34.395  17.682  -0.654  1.00 20.00     0.010 C 
HETATM   12  C9  UNL     1     -36.263  18.053  -2.290  1.00 20.00     0.010 C 
ENDBRANCH   5  10
TORSDOF 1
ENDMDL
MODEL 5
REMARK VINA RESULT:      -4.7     10.657     11.724
REMARK  1 active torsions:
REMARK  status: ('A' for Active; 'I' for Inactive)
REMARK    1  A    between atoms: C5_5  and  C10_10 
ROOT
HETATM    1  C1  UNL     1     -36.294  15.568  -3.881  1.00 20.00     0.166 C 
HETATM    2  C2  UNL     1     -36.180  16.698  -2.878  1.00 20.00     0.086 C 
HETATM    3  C3  UNL     1     -33.665  16.815  -3.235  1.00 20.00     0.009 C 
HETATM    4  C4  UNL     1     -34.047  16.347  -4.641  1.00 20.00     0.052 C 
HETATM    5  C5  UNL     1     -34.805  16.688  -2.209  1.00 20.00    -0.004 C 
HETATM    6  C6  UNL     1     -35.044  15.190  -4.663  1.00 20.00     0.159 C 
HETATM    7  C7  UNL     1     -34.460  13.887  -4.133  1.00 20.00     0.060 C 
HETATM    8  O11 UNL     1     -37.370  15.007  -4.089  1.00 20.00    -0.294 OA
HETATM    9  F12 UNL     1     -35.377  14.972  -5.972  1.00 20.00    -0.235 F 
ENDROOT
BRANCH   5  10
HETATM   10  C10 UNL     1     -34.705  17.778  -1.144  1.00 20.00    -0.018 C 
HETATM   11  C8  UNL     1     -35.501  17.389   0.099  1.00 20.00     0.010 C 
HETATM   12  C9  UNL     1     -33.245  18.045  -0.785  1.00 20.00     0.010 C 
ENDBRANCH   5  10
TORSDOF 1
ENDMDL
MODEL 6
REMARK VINA RESULT:      -4.6     11.408     12.537
REMARK  1 active torsions:
REMARK  status: ('A' for Active; 'I' for Inactive)
REMARK    1  A    between atoms: C5_5  and  C10_10 
ROOT
HETATM    1  C1  UNL     1     -33.853  16.632  -6.141  1.00 20.00     0.166 C 
HETATM    2  C2  UNL     1     -33.493  16.988  -4.712  1.00 20.00     0.086 C 
HETATM    3  C3  UNL     1     -34.318  14.724  -3.900  1.00 20.00     0.009 C 
HETATM    4  C4  UNL     1     -33.863  14.284  -5.293  1.00 20.00     0.052 C 
HETATM    5  C5  UNL     1     -34.403  16.251  -3.729  1.00 20.00    -0.004 C 
HETATM    6  C6  UNL     1     -34.319  15.210  -6.418  1.00 20.00     0.159 C 
HETATM    7  C7  UNL     1     -35.826  15.181  -6.643  1.00 20.00     0.060 C 
HETATM    8  O11 UNL     1     -33.727  17.451  -7.051  1.00 20.00    -0.294 OA
HETATM    9  F12 UNL     1     -33.736  14.759  -7.571  1.00 20.00    -0.235 F 
ENDROOT
BRANCH   5  10
HETATM   10  C10 UNL     1     -34.097  16.657  -2.288  1.00 20.00    -0.018 C 
HETATM   11  C8  UNL     1     -33.220  17.905  -2.256  1.00 20.00     0.010 C 
HETATM   12  C9  UNL     1     -35.391  16.890  -1.511  1.00 20.00     0.010 C 
ENDBRANCH   5  10
TORSDOF 1
ENDMDL
MODEL 7
REMARK VINA RESULT:      -4.5      2.539      4.459
REMARK  1 active torsions:
REMARK  status: ('A' for Active; 'I' for Inactive)
REMARK    1  A    between atoms: C5_5  and  C10_10 
ROOT
HETATM    1  C1  UNL     1     -32.034   8.173   3.552  1.00 20.00     0.166 C 
HETATM    2  C2  UNL     1     -32.737   7.137   4.406  1.00 20.00     0.086 C 
HETATM    3  C3  UNL     1     -33.978   6.246   2.373  1.00 20.00     0.009 C 
HETATM    4  C4  UNL     1     -32.709   6.703   1.650  1.00 20.00     0.052 C 
HETATM    5  C5  UNL     1     -34.100   6.783   3.810  1.00 20.00    -0.004 C 
HETATM    6  C6  UNL     1     -32.236   8.101   2.045  1.00 20.00     0.159 C 
HETATM    7  C7  UNL     1     -33.179   9.204   1.583  1.00 20.00     0.060 C 
HETATM    8  O11 UNL     1     -31.288   9.013   4.056  1.00 20.00    -0.294 OA
HETATM    9  F12 UNL     1     -31.039   8.312   1.417  1.00 20.00    -0.235 F 
ENDROOT
BRANCH   5  10
HETATM   10  C10 UNL     1     -34.849   5.794   4.701  1.00 20.00    -0.018 C 
HETATM   11  C8  UNL     1     -34.446   4.360   4.370  1.00 20.00     0.010 C 
HETATM   12  C9  UNL     1     -34.589   6.098   6.175  1.00 20.00     0.010 C 
ENDBRANCH   5  10
TORSDOF 1
ENDMDL
MODEL 8
REMARK VINA RESULT:      -4.3     11.412     12.208
REMARK  1 active torsions:
REMARK  status: ('A' for Active; 'I' for Inactive)
REMARK    1  A    between atoms: C5_5  and  C10_10 
ROOT
HETATM    1  C1  UNL     1     -34.282  14.546  -6.901  1.00 20.00     0.166 C 
HETATM    2  C2  UNL     1     -33.953  15.373  -5.675  1.00 20.00     0.086 C 
HETATM    3  C3  UNL     1     -36.133  14.673  -4.569  1.00 20.00     0.009 C 
HETATM    4  C4  UNL     1     -35.906  13.402  -5.389  1.00 20.00     0.052 C 
HETATM    5  C5  UNL     1     -35.233  15.849  -4.987  1.00 20.00    -0.004 C 
HETATM    6  C6  UNL     1     -35.518  13.660  -6.844  1.00 20.00     0.159 C 
HETATM    7  C7  UNL     1     -36.647  14.270  -7.665  1.00 20.00     0.060 C 
HETATM    8  O11 UNL     1     -33.549  14.556  -7.891  1.00 20.00    -0.294 OA
HETATM    9  F12 UNL     1     -35.230  12.445  -7.404  1.00 20.00    -0.235 F 
ENDROOT
BRANCH   5  10
HETATM   10  C10 UNL     1     -34.913  16.744  -3.791  1.00 20.00    -0.018 C 
HETATM   11  C8  UNL     1     -36.034  16.681  -2.758  1.00 20.00     0.010 C 
HETATM   12  C9  UNL     1     -33.580  16.343  -3.163  1.00 20.00     0.010 C 
ENDBRANCH   5  10
TORSDOF 1
ENDMDL
MODEL 9
REMARK VINA RESULT:      -4.3     11.200     12.197
REMARK  1 active torsions:
REMARK  status: ('A' for Active; 'I' for Inactive)
REMARK    1  A    between atoms: C5_5  and  C10_10 
ROOT
HETATM    1  C1  UNL     1     -35.414  16.107  -3.440  1.00 20.00     0.166 C 
HETATM    2  C2  UNL     1     -36.070  15.062  -4.321  1.00 20.00     0.086 C 
HETATM    3  C3  UNL     1     -33.900  14.727  -5.605  1.00 20.00     0.009 C 
HETATM    4  C4  UNL     1     -33.281  15.099  -4.256  1.00 20.00     0.052 C 
HETATM    5  C5  UNL     1     -35.407  15.027  -5.698  1.00 20.00    -0.004 C 
HETATM    6  C6  UNL     1     -33.916  16.321  -3.595  1.00 20.00     0.159 C 
HETATM    7  C7  UNL     1     -33.640  17.618  -4.346  1.00 20.00     0.060 C 
HETATM    8  O11 UNL     1     -36.063  16.727  -2.597  1.00 20.00    -0.294 OA
HETATM    9  F12 UNL     1     -33.346  16.450  -2.358  1.00 20.00    -0.235 F 
ENDROOT
BRANCH   5  10
HETATM   10  C10 UNL     1     -36.107  14.028  -6.619  1.00 20.00    -0.018 C 
HETATM   11  C8  UNL     1     -36.897  14.757  -7.701  1.00 20.00     0.010 C 
HETATM   12  C9  UNL     1     -35.092  13.075  -7.245  1.00 20.00     0.010 C 
ENDBRANCH   5  10
TORSDOF 1
ENDMDL
