MODEL 1
REMARK VINA RESULT:      -4.7      0.000      0.000
REMARK  2 active torsions:
REMARK  status: ('A' for Active; 'I' for Inactive)
REMARK    1  A    between atoms: C3_3  and  C8_8 
REMARK    2  A    between atoms: C8_8  and  N10_10 
ROOT
HETATM    1  C1  UNL     1     -33.596   7.400   4.964  1.00 20.00     0.100 C 
HETATM    2  C8  UNL     1     -33.845   7.450   3.511  1.00 20.00     0.356 C 
HETATM    3  N9  UNL     1     -33.405   7.363   6.108  1.00 20.00    -0.195 NA
ENDROOT
BRANCH   2   4
HETATM    4  C3  UNL     1     -32.630   8.039   2.803  1.00 20.00    -0.041 C 
HETATM    5  C2  UNL     1     -32.747   8.460   1.526  1.00 20.00    -0.025 C 
HETATM    6  C4  UNL     1     -31.686   9.028   0.639  1.00 20.00     0.036 C 
HETATM    7  C5  UNL     1     -31.349   8.113   3.596  1.00 20.00     0.046 C 
ENDBRANCH   2   4
BRANCH   2   8
HETATM    8  N10 UNL     1     -34.189   6.118   3.010  1.00 20.00     0.102 N 
HETATM    9  C6  UNL     1     -35.184   5.489   3.877  1.00 20.00     0.311 C 
HETATM   10  C7  UNL     1     -32.991   5.284   2.916  1.00 20.00     0.311 C 
ENDBRANCH   2   8
TORSDOF 2
ENDMDL
MODEL 2
REMARK VINA RESULT:      -4.4      1.060      2.300
REMARK  2 active torsions:
REMARK  status: ('A' for Active; 'I' for Inactive)
REMARK    1  A    between atoms: C3_3  and  C8_8 
REMARK    2  A    between atoms: C8_8  and  N10_10 
ROOT
HETATM    1  C1  UNL     1     -33.020   5.427   2.816  1.00 20.00     0.100 C 
HETATM    2  C8  UNL     1     -32.872   6.563   3.744  1.00 20.00     0.356 C 
HETATM    3  N9  UNL     1     -33.133   4.528   2.090  1.00 20.00    -0.195 NA
ENDROOT
BRANCH   2   4
HETATM    4  C3  UNL     1     -32.325   7.771   2.991  1.00 20.00    -0.041 C 
HETATM    5  C2  UNL     1     -32.876   8.121   1.809  1.00 20.00    -0.025 C 
HETATM    6  C4  UNL     1     -32.475   9.234   0.896  1.00 20.00     0.036 C 
HETATM    7  C5  UNL     1     -31.177   8.511   3.631  1.00 20.00     0.046 C 
ENDBRANCH   2   4
BRANCH   2   8
HETATM    8  N10 UNL     1     -34.150   6.850   4.400  1.00 20.00     0.102 N 
HETATM    9  C6  UNL     1     -33.942   7.123   5.821  1.00 20.00     0.311 C 
HETATM   10  C7  UNL     1     -35.076   5.732   4.222  1.00 20.00     0.311 C 
ENDBRANCH   2   8
TORSDOF 2
ENDMDL
MODEL 3
REMARK VINA RESULT:      -4.3     10.896     12.170
REMARK  2 active torsions:
REMARK  status: ('A' for Active; 'I' for Inactive)
REMARK    1  A    between atoms: C3_3  and  C8_8 
REMARK    2  A    between atoms: C8_8  and  N10_10 
ROOT
HETATM    1  C1  UNL     1     -35.889  13.941  -5.032  1.00 20.00     0.100 C 
HETATM    2  C8  UNL     1     -35.991  15.393  -4.791  1.00 20.00     0.356 C 
HETATM    3  N9  UNL     1     -35.814  12.799  -5.221  1.00 20.00    -0.195 NA
ENDROOT
BRANCH   2   4
HETATM    4  C3  UNL     1     -34.992  15.805  -3.715  1.00 20.00    -0.041 C 
HETATM    5  C2  UNL     1     -35.437  16.420  -2.599  1.00 20.00    -0.025 C 
HETATM    6  C4  UNL     1     -34.637  16.938  -1.448  1.00 20.00     0.036 C 
HETATM    7  C5  UNL     1     -33.540  15.491  -3.977  1.00 20.00     0.046 C 
ENDBRANCH   2   4
BRANCH   2   8
HETATM    8  N10 UNL     1     -35.796  16.128  -6.043  1.00 20.00     0.102 N 
HETATM    9  C6  UNL     1     -36.123  17.541  -5.859  1.00 20.00     0.311 C 
HETATM   10  C7  UNL     1     -36.612  15.547  -7.108  1.00 20.00     0.311 C 
ENDBRANCH   2   8
TORSDOF 2
ENDMDL
MODEL 4
REMARK VINA RESULT:      -4.1     11.252     11.894
REMARK  2 active torsions:
REMARK  status: ('A' for Active; 'I' for Inactive)
REMARK    1  A    between atoms: C3_3  and  C8_8 
REMARK    2  A    between atoms: C8_8  and  N10_10 
ROOT
HETATM    1  C1  UNL     1     -33.868  16.105  -4.212  1.00 20.00     0.100 C 
HETATM    2  C8  UNL     1     -34.838  15.993  -3.107  1.00 20.00     0.356 C 
HETATM    3  N9  UNL     1     -33.105  16.187  -5.082  1.00 20.00    -0.195 NA
ENDROOT
BRANCH   2   4
HETATM    4  C3  UNL     1     -34.409  16.897  -1.956  1.00 20.00    -0.041 C 
HETATM    5  C2  UNL     1     -33.181  17.456  -1.974  1.00 20.00    -0.025 C 
HETATM    6  C4  UNL     1     -32.549  18.334  -0.943  1.00 20.00     0.036 C 
HETATM    7  C5  UNL     1     -35.410  17.111  -0.848  1.00 20.00     0.046 C 
ENDBRANCH   2   4
BRANCH   2   8
HETATM    8  N10 UNL     1     -36.188  16.302  -3.584  1.00 20.00     0.102 N 
HETATM    9  C6  UNL     1     -36.717  15.191  -4.371  1.00 20.00     0.311 C 
HETATM   10  C7  UNL     1     -36.178  17.532  -4.375  1.00 20.00     0.311 C 
ENDBRANCH   2   8
TORSDOF 2
ENDMDL
MODEL 5
REMARK VINA RESULT:      -4.1     10.631     11.928
REMARK  2 active torsions:
REMARK  status: ('A' for Active; 'I' for Inactive)
REMARK    1  A    between atoms: C3_3  and  C8_8 
REMARK    2  A    between atoms: C8_8  and  N10_10 
ROOT
HETATM    1  C1  UNL     1     -34.565  14.821  -3.898  1.00 20.00     0.100 C 
HETATM    2  C8  UNL     1     -35.344  16.037  -3.599  1.00 20.00     0.356 C 
HETATM    3  N9  UNL     1     -33.956  13.861  -4.134  1.00 20.00    -0.195 NA
ENDROOT
BRANCH   2   4
HETATM    4  C3  UNL     1     -34.724  16.763  -2.410  1.00 20.00    -0.041 C 
HETATM    5  C2  UNL     1     -33.457  17.219  -2.499  1.00 20.00    -0.025 C 
HETATM    6  C4  UNL     1     -32.650  17.917  -1.452  1.00 20.00     0.036 C 
HETATM    7  C5  UNL     1     -35.589  16.926  -1.185  1.00 20.00     0.046 C 
ENDBRANCH   2   4
BRANCH   2   8
HETATM    8  N10 UNL     1     -35.429  16.888  -4.788  1.00 20.00     0.102 N 
HETATM    9  C6  UNL     1     -36.392  17.966  -4.574  1.00 20.00     0.311 C 
HETATM   10  C7  UNL     1     -35.800  16.093  -5.958  1.00 20.00     0.311 C 
ENDBRANCH   2   8
TORSDOF 2
ENDMDL
MODEL 6
REMARK VINA RESULT:      -4.1     10.903     11.892
REMARK  2 active torsions:
REMARK  status: ('A' for Active; 'I' for Inactive)
REMARK    1  A    between atoms: C3_3  and  C8_8 
REMARK    2  A    between atoms: C8_8  and  N10_10 
ROOT
HETATM    1  C1  UNL     1     -36.648  14.346  -5.257  1.00 20.00     0.100 C 
HETATM    2  C8  UNL     1     -35.399  15.075  -5.546  1.00 20.00     0.356 C 
HETATM    3  N9  UNL     1     -37.633  13.775  -5.033  1.00 20.00    -0.195 NA
ENDROOT
BRANCH   2   4
HETATM    4  C3  UNL     1     -34.678  15.393  -4.240  1.00 20.00    -0.041 C 
HETATM    5  C2  UNL     1     -35.287  16.165  -3.317  1.00 20.00    -0.025 C 
HETATM    6  C4  UNL     1     -34.753  16.627  -1.999  1.00 20.00     0.036 C 
HETATM    7  C5  UNL     1     -33.298  14.808  -4.064  1.00 20.00     0.046 C 
ENDBRANCH   2   4
BRANCH   2   8
HETATM    8  N10 UNL     1     -34.564  14.304  -6.469  1.00 20.00     0.102 N 
HETATM    9  C6  UNL     1     -34.092  15.154  -7.560  1.00 20.00     0.311 C 
HETATM   10  C7  UNL     1     -35.309  13.160  -6.995  1.00 20.00     0.311 C 
ENDBRANCH   2   8
TORSDOF 2
ENDMDL
MODEL 7
REMARK VINA RESULT:      -4.1     10.606     11.939
REMARK  2 active torsions:
REMARK  status: ('A' for Active; 'I' for Inactive)
REMARK    1  A    between atoms: C3_3  and  C8_8 
REMARK    2  A    between atoms: C8_8  and  N10_10 
ROOT
HETATM    1  C1  UNL     1     -34.786  14.733  -3.931  1.00 20.00     0.100 C 
HETATM    2  C8  UNL     1     -35.446  16.023  -3.658  1.00 20.00     0.356 C 
HETATM    3  N9  UNL     1     -34.271  13.716  -4.147  1.00 20.00    -0.195 NA
ENDROOT
BRANCH   2   4
HETATM    4  C3  UNL     1     -34.814  16.673  -2.431  1.00 20.00    -0.041 C 
HETATM    5  C2  UNL     1     -35.574  16.909  -1.341  1.00 20.00    -0.025 C 
HETATM    6  C4  UNL     1     -35.172  17.563  -0.058  1.00 20.00     0.036 C 
HETATM    7  C5  UNL     1     -33.348  17.015  -2.521  1.00 20.00     0.046 C 
ENDBRANCH   2   4
BRANCH   2   8
HETATM    8  N10 UNL     1     -35.380  16.886  -4.840  1.00 20.00     0.102 N 
HETATM    9  C6  UNL     1     -36.222  18.067  -4.656  1.00 20.00     0.311 C 
HETATM   10  C7  UNL     1     -35.788  16.146  -6.033  1.00 20.00     0.311 C 
ENDBRANCH   2   8
TORSDOF 2
ENDMDL
MODEL 8
REMARK VINA RESULT:      -4.0     10.589     11.888
REMARK  2 active torsions:
REMARK  status: ('A' for Active; 'I' for Inactive)
REMARK    1  A    between atoms: C3_3  and  C8_8 
REMARK    2  A    between atoms: C8_8  and  N10_10 
ROOT
HETATM    1  C1  UNL     1     -33.670  17.380  -4.371  1.00 20.00     0.100 C 
HETATM    2  C8  UNL     1     -33.831  16.361  -3.317  1.00 20.00     0.356 C 
HETATM    3  N9  UNL     1     -33.539  18.179  -5.202  1.00 20.00    -0.195 NA
ENDROOT
BRANCH   2   4
HETATM    4  C3  UNL     1     -34.030  17.046  -1.969  1.00 20.00    -0.041 C 
HETATM    5  C2  UNL     1     -35.190  16.871  -1.302  1.00 20.00    -0.025 C 
HETATM    6  C4  UNL     1     -35.607  17.472   0.002  1.00 20.00     0.036 C 
HETATM    7  C5  UNL     1     -32.891  17.893  -1.460  1.00 20.00     0.046 C 
ENDBRANCH   2   4
BRANCH   2   8
HETATM    8  N10 UNL     1     -34.934  15.458  -3.650  1.00 20.00     0.102 N 
HETATM    9  C6  UNL     1     -34.417  14.185  -4.147  1.00 20.00     0.311 C 
HETATM   10  C7  UNL     1     -35.817  16.075  -4.640  1.00 20.00     0.311 C 
ENDBRANCH   2   8
TORSDOF 2
ENDMDL
MODEL 9
REMARK VINA RESULT:      -4.0     10.562     11.558
REMARK  2 active torsions:
REMARK  status: ('A' for Active; 'I' for Inactive)
REMARK    1  A    between atoms: C3_3  and  C8_8 
REMARK    2  A    between atoms: C8_8  and  N10_10 
ROOT
HETATM    1  C1  UNL     1     -36.034  16.026  -3.802  1.00 20.00     0.100 C 
HETATM    2  C8  UNL     1     -34.649  16.502  -3.627  1.00 20.00     0.356 C 
HETATM    3  N9  UNL     1     -37.124  15.654  -3.945  1.00 20.00    -0.195 NA
ENDROOT
BRANCH   2   4
HETATM    4  C3  UNL     1     -34.457  17.003  -2.199  1.00 20.00    -0.041 C 
HETATM    5  C2  UNL     1     -35.485  16.931  -1.327  1.00 20.00    -0.025 C 
HETATM    6  C4  UNL     1     -35.526  17.394   0.094  1.00 20.00     0.036 C 
HETATM    7  C5  UNL     1     -33.099  17.559  -1.849  1.00 20.00     0.046 C 
ENDBRANCH   2   4
BRANCH   2   8
HETATM    8  N10 UNL     1     -33.701  15.442  -3.976  1.00 20.00     0.102 N 
HETATM    9  C6  UNL     1     -33.029  15.755  -5.236  1.00 20.00     0.311 C 
HETATM   10  C7  UNL     1     -34.388  14.154  -4.067  1.00 20.00     0.311 C 
ENDBRANCH   2   8
TORSDOF 2
ENDMDL
