MODEL 1
REMARK VINA RESULT:      -5.4      0.000      0.000
REMARK  1 active torsions:
REMARK  status: ('A' for Active; 'I' for Inactive)
REMARK    1  A    between atoms: C6_6  and  C8_8 
ROOT
HETATM    1  C1  UNL     1     -33.189   5.769   3.114  1.00 20.00     0.144 C 
HETATM    2  C2  UNL     1     -32.642   7.094   2.620  1.00 20.00     0.079 C 
HETATM    3  C3  UNL     1     -32.134   7.940   3.776  1.00 20.00     0.007 C 
HETATM    4  C4  UNL     1     -33.191   8.107   4.860  1.00 20.00     0.002 C 
HETATM    5  C5  UNL     1     -33.658   6.747   5.378  1.00 20.00     0.026 C 
HETATM    6  C6  UNL     1     -34.195   5.815   4.273  1.00 20.00     0.114 C 
HETATM    7  C7  UNL     1     -35.547   6.302   3.731  1.00 20.00     0.033 C 
HETATM    8  O9  UNL     1     -32.893   4.721   2.538  1.00 20.00    -0.297 OA
ENDROOT
BRANCH   6   9
HETATM    9  C8  UNL     1     -34.380   4.407   4.864  1.00 20.00     0.401 C 
HETATM   10  F10 UNL     1     -35.000   4.494   6.047  1.00 20.00    -0.170 F 
HETATM   11  F11 UNL     1     -35.118   3.664   4.032  1.00 20.00    -0.170 F 
HETATM   12  F12 UNL     1     -33.185   3.829   5.032  1.00 20.00    -0.170 F 
ENDBRANCH   6   9
TORSDOF 1
ENDMDL
MODEL 2
REMARK VINA RESULT:      -5.3      2.805      3.925
REMARK  1 active torsions:
REMARK  status: ('A' for Active; 'I' for Inactive)
REMARK    1  A    between atoms: C6_6  and  C8_8 
ROOT
HETATM    1  C1  UNL     1     -34.028   6.701   4.967  1.00 20.00     0.144 C 
HETATM    2  C2  UNL     1     -34.784   5.625   5.721  1.00 20.00     0.079 C 
HETATM    3  C3  UNL     1     -34.176   4.254   5.474  1.00 20.00     0.007 C 
HETATM    4  C4  UNL     1     -34.053   3.953   3.985  1.00 20.00     0.002 C 
HETATM    5  C5  UNL     1     -33.222   5.024   3.280  1.00 20.00     0.026 C 
HETATM    6  C6  UNL     1     -33.764   6.455   3.474  1.00 20.00     0.114 C 
HETATM    7  C7  UNL     1     -35.073   6.671   2.701  1.00 20.00     0.033 C 
HETATM    8  O9  UNL     1     -33.725   7.756   5.525  1.00 20.00    -0.297 OA
ENDROOT
BRANCH   6   9
HETATM    9  C8  UNL     1     -32.716   7.453   2.954  1.00 20.00     0.401 C 
HETATM   10  F10 UNL     1     -33.313   8.608   2.640  1.00 20.00    -0.170 F 
HETATM   11  F11 UNL     1     -31.796   7.673   3.901  1.00 20.00    -0.170 F 
HETATM   12  F12 UNL     1     -32.120   6.953   1.866  1.00 20.00    -0.170 F 
ENDBRANCH   6   9
TORSDOF 1
ENDMDL
MODEL 3
REMARK VINA RESULT:      -4.8     12.661     13.687
REMARK  1 active torsions:
REMARK  status: ('A' for Active; 'I' for Inactive)
REMARK    1  A    between atoms: C6_6  and  C8_8 
ROOT
HETATM    1  C1  UNL     1     -34.942  14.047  -5.498  1.00 20.00     0.144 C 
HETATM    2  C2  UNL     1     -35.369  13.621  -6.889  1.00 20.00     0.079 C 
HETATM    3  C3  UNL     1     -34.307  13.972  -7.918  1.00 20.00     0.007 C 
HETATM    4  C4  UNL     1     -33.918  15.444  -7.846  1.00 20.00     0.002 C 
HETATM    5  C5  UNL     1     -33.425  15.808  -6.447  1.00 20.00     0.026 C 
HETATM    6  C6  UNL     1     -34.439  15.488  -5.330  1.00 20.00     0.114 C 
HETATM    7  C7  UNL     1     -35.645  16.437  -5.376  1.00 20.00     0.033 C 
HETATM    8  O9  UNL     1     -35.083  13.282  -4.543  1.00 20.00    -0.297 OA
ENDROOT
BRANCH   6   9
HETATM    9  C8  UNL     1     -33.740  15.645  -3.969  1.00 20.00     0.401 C 
HETATM   10  F10 UNL     1     -33.203  16.868  -3.880  1.00 20.00    -0.170 F 
HETATM   11  F11 UNL     1     -34.630  15.480  -2.985  1.00 20.00    -0.170 F 
HETATM   12  F12 UNL     1     -32.774  14.728  -3.852  1.00 20.00    -0.170 F 
ENDBRANCH   6   9
TORSDOF 1
ENDMDL
MODEL 4
REMARK VINA RESULT:      -4.7      1.739      2.697
REMARK  1 active torsions:
REMARK  status: ('A' for Active; 'I' for Inactive)
REMARK    1  A    between atoms: C6_6  and  C8_8 
ROOT
HETATM    1  C1  UNL     1     -32.945   7.189   4.287  1.00 20.00     0.144 C 
HETATM    2  C2  UNL     1     -31.878   8.004   3.583  1.00 20.00     0.079 C 
HETATM    3  C3  UNL     1     -32.411   8.597   2.289  1.00 20.00     0.007 C 
HETATM    4  C4  UNL     1     -33.026   7.531   1.391  1.00 20.00     0.002 C 
HETATM    5  C5  UNL     1     -34.145   6.787   2.119  1.00 20.00     0.026 C 
HETATM    6  C6  UNL     1     -33.698   6.146   3.449  1.00 20.00     0.114 C 
HETATM    7  C7  UNL     1     -32.772   4.944   3.213  1.00 20.00     0.033 C 
HETATM    8  O9  UNL     1     -33.121   7.313   5.500  1.00 20.00    -0.297 OA
ENDROOT
BRANCH   6   9
HETATM    9  C8  UNL     1     -34.946   5.664   4.208  1.00 20.00     0.401 C 
HETATM   10  F10 UNL     1     -34.934   4.328   4.288  1.00 20.00    -0.170 F 
HETATM   11  F11 UNL     1     -34.951   6.182   5.441  1.00 20.00    -0.170 F 
HETATM   12  F12 UNL     1     -36.047   6.058   3.557  1.00 20.00    -0.170 F 
ENDBRANCH   6   9
TORSDOF 1
ENDMDL
MODEL 5
REMARK VINA RESULT:      -4.6     12.664     13.652
REMARK  1 active torsions:
REMARK  status: ('A' for Active; 'I' for Inactive)
REMARK    1  A    between atoms: C6_6  and  C8_8 
ROOT
HETATM    1  C1  UNL     1     -36.240  13.951  -5.167  1.00 20.00     0.144 C 
HETATM    2  C2  UNL     1     -37.710  14.322  -5.189  1.00 20.00     0.079 C 
HETATM    3  C3  UNL     1     -37.983  15.408  -6.216  1.00 20.00     0.007 C 
HETATM    4  C4  UNL     1     -37.074  16.615  -6.017  1.00 20.00     0.002 C 
HETATM    5  C5  UNL     1     -35.604  16.203  -6.076  1.00 20.00     0.026 C 
HETATM    6  C6  UNL     1     -35.229  15.101  -5.064  1.00 20.00     0.114 C 
HETATM    7  C7  UNL     1     -35.235  15.633  -3.623  1.00 20.00     0.033 C 
HETATM    8  O9  UNL     1     -35.899  12.768  -5.144  1.00 20.00    -0.297 OA
ENDROOT
BRANCH   6   9
HETATM    9  C8  UNL     1     -33.816  14.590  -5.393  1.00 20.00     0.401 C 
HETATM   10  F10 UNL     1     -33.868  13.785  -6.461  1.00 20.00    -0.170 F 
HETATM   11  F11 UNL     1     -33.014  15.626  -5.659  1.00 20.00    -0.170 F 
HETATM   12  F12 UNL     1     -33.330  13.909  -4.349  1.00 20.00    -0.170 F 
ENDBRANCH   6   9
TORSDOF 1
ENDMDL
MODEL 6
REMARK VINA RESULT:      -4.6     12.298     13.116
REMARK  1 active torsions:
REMARK  status: ('A' for Active; 'I' for Inactive)
REMARK    1  A    between atoms: C6_6  and  C8_8 
ROOT
HETATM    1  C1  UNL     1     -34.102  14.903  -4.329  1.00 20.00     0.144 C 
HETATM    2  C2  UNL     1     -33.723  15.995  -3.349  1.00 20.00     0.079 C 
HETATM    3  C3  UNL     1     -34.896  16.356  -2.453  1.00 20.00     0.007 C 
HETATM    4  C4  UNL     1     -36.140  16.699  -3.264  1.00 20.00     0.002 C 
HETATM    5  C5  UNL     1     -36.525  15.540  -4.184  1.00 20.00     0.026 C 
HETATM    6  C6  UNL     1     -35.393  15.102  -5.135  1.00 20.00     0.114 C 
HETATM    7  C7  UNL     1     -35.136  16.152  -6.226  1.00 20.00     0.033 C 
HETATM    8  O9  UNL     1     -33.346  13.949  -4.519  1.00 20.00    -0.297 OA
ENDROOT
BRANCH   6   9
HETATM    9  C8  UNL     1     -35.801  13.781  -5.809  1.00 20.00     0.401 C 
HETATM   10  F10 UNL     1     -34.859  13.417  -6.688  1.00 20.00    -0.170 F 
HETATM   11  F11 UNL     1     -35.936  12.826  -4.883  1.00 20.00    -0.170 F 
HETATM   12  F12 UNL     1     -36.964  13.945  -6.450  1.00 20.00    -0.170 F 
ENDBRANCH   6   9
TORSDOF 1
ENDMDL
MODEL 7
REMARK VINA RESULT:      -4.6      1.522      2.162
REMARK  1 active torsions:
REMARK  status: ('A' for Active; 'I' for Inactive)
REMARK    1  A    between atoms: C6_6  and  C8_8 
ROOT
HETATM    1  C1  UNL     1     -33.184   6.957   3.720  1.00 20.00     0.144 C 
HETATM    2  C2  UNL     1     -33.383   8.086   4.712  1.00 20.00     0.079 C 
HETATM    3  C3  UNL     1     -33.446   7.557   6.135  1.00 20.00     0.007 C 
HETATM    4  C4  UNL     1     -34.487   6.455   6.282  1.00 20.00     0.002 C 
HETATM    5  C5  UNL     1     -34.203   5.307   5.315  1.00 20.00     0.026 C 
HETATM    6  C6  UNL     1     -34.122   5.747   3.839  1.00 20.00     0.114 C 
HETATM    7  C7  UNL     1     -35.502   6.139   3.291  1.00 20.00     0.033 C 
HETATM    8  O9  UNL     1     -32.358   7.065   2.813  1.00 20.00    -0.297 OA
ENDROOT
BRANCH   6   9
HETATM    9  C8  UNL     1     -33.576   4.575   3.005  1.00 20.00     0.401 C 
HETATM   10  F10 UNL     1     -34.109   3.428   3.440  1.00 20.00    -0.170 F 
HETATM   11  F11 UNL     1     -33.895   4.752   1.718  1.00 20.00    -0.170 F 
HETATM   12  F12 UNL     1     -32.245   4.519   3.127  1.00 20.00    -0.170 F 
ENDBRANCH   6   9
TORSDOF 1
ENDMDL
MODEL 8
REMARK VINA RESULT:      -4.3     12.662     13.731
REMARK  1 active torsions:
REMARK  status: ('A' for Active; 'I' for Inactive)
REMARK    1  A    between atoms: C6_6  and  C8_8 
ROOT
HETATM    1  C1  UNL     1     -35.688  15.611  -5.562  1.00 20.00     0.144 C 
HETATM    2  C2  UNL     1     -36.438  15.843  -6.858  1.00 20.00     0.079 C 
HETATM    3  C3  UNL     1     -36.484  14.576  -7.697  1.00 20.00     0.007 C 
HETATM    4  C4  UNL     1     -35.093  13.996  -7.918  1.00 20.00     0.002 C 
HETATM    5  C5  UNL     1     -34.405  13.710  -6.584  1.00 20.00     0.026 C 
HETATM    6  C6  UNL     1     -34.310  14.942  -5.660  1.00 20.00     0.114 C 
HETATM    7  C7  UNL     1     -33.301  15.970  -6.194  1.00 20.00     0.033 C 
HETATM    8  O9  UNL     1     -36.144  16.029  -4.496  1.00 20.00    -0.297 OA
ENDROOT
BRANCH   6   9
HETATM    9  C8  UNL     1     -33.849  14.479  -4.268  1.00 20.00     0.401 C 
HETATM   10  F10 UNL     1     -33.825  15.524  -3.432  1.00 20.00    -0.170 F 
HETATM   11  F11 UNL     1     -34.695  13.556  -3.798  1.00 20.00    -0.170 F 
HETATM   12  F12 UNL     1     -32.622  13.953  -4.353  1.00 20.00    -0.170 F 
ENDBRANCH   6   9
TORSDOF 1
ENDMDL
MODEL 9
REMARK VINA RESULT:      -4.3     12.818     13.770
REMARK  1 active torsions:
REMARK  status: ('A' for Active; 'I' for Inactive)
REMARK    1  A    between atoms: C6_6  and  C8_8 
ROOT
HETATM    1  C1  UNL     1     -34.453  14.621  -6.526  1.00 20.00     0.144 C 
HETATM    2  C2  UNL     1     -34.686  15.317  -7.852  1.00 20.00     0.079 C 
HETATM    3  C3  UNL     1     -33.931  16.634  -7.918  1.00 20.00     0.007 C 
HETATM    4  C4  UNL     1     -34.246  17.525  -6.722  1.00 20.00     0.002 C 
HETATM    5  C5  UNL     1     -33.926  16.808  -5.411  1.00 20.00     0.026 C 
HETATM    6  C6  UNL     1     -34.650  15.456  -5.253  1.00 20.00     0.114 C 
HETATM    7  C7  UNL     1     -36.156  15.647  -5.018  1.00 20.00     0.033 C 
HETATM    8  O9  UNL     1     -34.204  13.415  -6.493  1.00 20.00    -0.297 OA
ENDROOT
BRANCH   6   9
HETATM    9  C8  UNL     1     -34.055  14.717  -4.042  1.00 20.00     0.401 C 
HETATM   10  F10 UNL     1     -34.769  13.613  -3.794  1.00 20.00    -0.170 F 
HETATM   11  F11 UNL     1     -32.788  14.375  -4.303  1.00 20.00    -0.170 F 
HETATM   12  F12 UNL     1     -34.086  15.515  -2.969  1.00 20.00    -0.170 F 
ENDBRANCH   6   9
TORSDOF 1
ENDMDL
