MODEL 1
REMARK VINA RESULT:      -5.2      0.000      0.000
REMARK  4 active torsions:
REMARK  status: ('A' for Active; 'I' for Inactive)
REMARK    1  A    between atoms: C4_4  and  C5_5 
REMARK    2  A    between atoms: C5_5  and  C6_6 
REMARK    3  A    between atoms: C6_6  and  C7_7 
REMARK    4  A    between atoms: C7_7  and  O8_8 
ROOT
HETATM    1  C1  UNL     1     -32.759  10.316   1.049  1.00 20.00     0.012 C 
HETATM    2  C2  UNL     1     -32.347   9.301   1.540  1.00 20.00    -0.117 C 
HETATM    3  C4  UNL     1     -31.839   8.059   2.138  1.00 20.00     0.093 C 
ENDROOT
BRANCH   3   4
HETATM    4  C5  UNL     1     -32.641   7.679   3.385  1.00 20.00     0.014 C 
BRANCH   4   5
HETATM    5  C6  UNL     1     -33.594   6.517   3.097  1.00 20.00     0.032 C 
BRANCH   5   6
HETATM    6  C7  UNL     1     -34.179   5.876   4.359  1.00 20.00     0.114 C 
HETATM    7  C3  UNL     1     -34.049   6.751   5.599  1.00 20.00     0.039 C 
BRANCH   6   8
HETATM    8  O8  UNL     1     -35.565   5.637   4.113  1.00 20.00    -0.396 OA
HETATM    9  H20 UNL     1     -35.774   4.787   4.529  1.00 20.00     0.210 HD
ENDBRANCH   6   8
ENDBRANCH   5   6
ENDBRANCH   4   5
ENDBRANCH   3   4
TORSDOF 4
ENDMDL
MODEL 2
REMARK VINA RESULT:      -5.2      0.875      1.159
REMARK  4 active torsions:
REMARK  status: ('A' for Active; 'I' for Inactive)
REMARK    1  A    between atoms: C4_4  and  C5_5 
REMARK    2  A    between atoms: C5_5  and  C6_6 
REMARK    3  A    between atoms: C6_6  and  C7_7 
REMARK    4  A    between atoms: C7_7  and  O8_8 
ROOT
HETATM    1  C1  UNL     1     -32.148   9.301   1.036  1.00 20.00     0.012 C 
HETATM    2  C2  UNL     1     -32.304   8.539   1.951  1.00 20.00    -0.117 C 
HETATM    3  C4  UNL     1     -32.494   7.611   3.074  1.00 20.00     0.093 C 
ENDROOT
BRANCH   3   4
HETATM    4  C5  UNL     1     -33.131   6.301   2.604  1.00 20.00     0.014 C 
BRANCH   4   5
HETATM    5  C6  UNL     1     -34.445   6.031   3.339  1.00 20.00     0.032 C 
BRANCH   5   6
HETATM    6  C7  UNL     1     -34.265   5.288   4.666  1.00 20.00     0.114 C 
HETATM    7  C3  UNL     1     -34.414   6.184   5.888  1.00 20.00     0.039 C 
BRANCH   6   8
HETATM    8  O8  UNL     1     -35.265   4.269   4.724  1.00 20.00    -0.396 OA
HETATM    9  H20 UNL     1     -35.381   3.948   3.817  1.00 20.00     0.210 HD
ENDBRANCH   6   8
ENDBRANCH   5   6
ENDBRANCH   4   5
ENDBRANCH   3   4
TORSDOF 4
ENDMDL
MODEL 3
REMARK VINA RESULT:      -5.2      2.044      4.123
REMARK  4 active torsions:
REMARK  status: ('A' for Active; 'I' for Inactive)
REMARK    1  A    between atoms: C4_4  and  C5_5 
REMARK    2  A    between atoms: C5_5  and  C6_6 
REMARK    3  A    between atoms: C6_6  and  C7_7 
REMARK    4  A    between atoms: C7_7  and  O8_8 
ROOT
HETATM    1  C1  UNL     1     -33.642   7.575   6.081  1.00 20.00     0.012 C 
HETATM    2  C2  UNL     1     -34.083   6.463   5.971  1.00 20.00    -0.117 C 
HETATM    3  C4  UNL     1     -34.624   5.104   5.841  1.00 20.00     0.093 C 
ENDROOT
BRANCH   3   4
HETATM    4  C5  UNL     1     -34.689   4.674   4.374  1.00 20.00     0.014 C 
BRANCH   4   5
HETATM    5  C6  UNL     1     -34.758   5.886   3.444  1.00 20.00     0.032 C 
BRANCH   5   6
HETATM    6  C7  UNL     1     -33.603   5.957   2.441  1.00 20.00     0.114 C 
HETATM    7  C3  UNL     1     -32.715   7.180   2.624  1.00 20.00     0.039 C 
BRANCH   6   8
HETATM    8  O8  UNL     1     -32.807   4.785   2.624  1.00 20.00    -0.396 OA
HETATM    9  H20 UNL     1     -33.424   4.040   2.672  1.00 20.00     0.210 HD
ENDBRANCH   6   8
ENDBRANCH   5   6
ENDBRANCH   4   5
ENDBRANCH   3   4
TORSDOF 4
ENDMDL
MODEL 4
REMARK VINA RESULT:      -5.2      2.016      4.614
REMARK  4 active torsions:
REMARK  status: ('A' for Active; 'I' for Inactive)
REMARK    1  A    between atoms: C4_4  and  C5_5 
REMARK    2  A    between atoms: C5_5  and  C6_6 
REMARK    3  A    between atoms: C6_6  and  C7_7 
REMARK    4  A    between atoms: C7_7  and  O8_8 
ROOT
HETATM    1  C1  UNL     1     -34.399   4.072   4.437  1.00 20.00     0.012 C 
HETATM    2  C2  UNL     1     -34.421   5.069   5.106  1.00 20.00    -0.117 C 
HETATM    3  C4  UNL     1     -34.449   6.285   5.929  1.00 20.00     0.093 C 
ENDROOT
BRANCH   3   4
HETATM    4  C5  UNL     1     -33.549   7.372   5.337  1.00 20.00     0.014 C 
BRANCH   4   5
HETATM    5  C6  UNL     1     -33.620   7.379   3.809  1.00 20.00     0.032 C 
BRANCH   5   6
HETATM    6  C7  UNL     1     -32.272   7.649   3.133  1.00 20.00     0.114 C 
HETATM    7  C3  UNL     1     -32.374   8.567   1.923  1.00 20.00     0.039 C 
BRANCH   6   8
HETATM    8  O8  UNL     1     -31.424   8.266   4.103  1.00 20.00    -0.396 OA
HETATM    9  H20 UNL     1     -31.655   9.207   4.108  1.00 20.00     0.210 HD
ENDBRANCH   6   8
ENDBRANCH   5   6
ENDBRANCH   4   5
ENDBRANCH   3   4
TORSDOF 4
ENDMDL
MODEL 5
REMARK VINA RESULT:      -5.0      2.432      4.832
REMARK  4 active torsions:
REMARK  status: ('A' for Active; 'I' for Inactive)
REMARK    1  A    between atoms: C4_4  and  C5_5 
REMARK    2  A    between atoms: C5_5  and  C6_6 
REMARK    3  A    between atoms: C6_6  and  C7_7 
REMARK    4  A    between atoms: C7_7  and  O8_8 
ROOT
HETATM    1  C1  UNL     1     -34.787   4.951   5.119  1.00 20.00     0.012 C 
HETATM    2  C2  UNL     1     -34.278   5.977   4.756  1.00 20.00    -0.117 C 
HETATM    3  C4  UNL     1     -33.657   7.232   4.316  1.00 20.00     0.093 C 
ENDROOT
BRANCH   3   4
HETATM    4  C5  UNL     1     -32.965   7.061   2.962  1.00 20.00     0.014 C 
BRANCH   4   5
HETATM    5  C6  UNL     1     -32.097   8.275   2.626  1.00 20.00     0.032 C 
BRANCH   5   6
HETATM    6  C7  UNL     1     -32.367   8.856   1.235  1.00 20.00     0.114 C 
HETATM    7  C3  UNL     1     -32.742  10.331   1.256  1.00 20.00     0.039 C 
BRANCH   6   8
HETATM    8  O8  UNL     1     -31.172   8.701   0.468  1.00 20.00    -0.396 OA
HETATM    9  H20 UNL     1     -30.450   9.043   1.015  1.00 20.00     0.210 HD
ENDBRANCH   6   8
ENDBRANCH   5   6
ENDBRANCH   4   5
ENDBRANCH   3   4
TORSDOF 4
ENDMDL
MODEL 6
REMARK VINA RESULT:      -4.9      1.934      4.292
REMARK  4 active torsions:
REMARK  status: ('A' for Active; 'I' for Inactive)
REMARK    1  A    between atoms: C4_4  and  C5_5 
REMARK    2  A    between atoms: C5_5  and  C6_6 
REMARK    3  A    between atoms: C6_6  and  C7_7 
REMARK    4  A    between atoms: C7_7  and  O8_8 
ROOT
HETATM    1  C1  UNL     1     -33.850   7.280   6.088  1.00 20.00     0.012 C 
HETATM    2  C2  UNL     1     -34.118   6.536   5.184  1.00 20.00    -0.117 C 
HETATM    3  C4  UNL     1     -34.449   5.625   4.080  1.00 20.00     0.093 C 
ENDROOT
BRANCH   3   4
HETATM    4  C5  UNL     1     -33.558   5.887   2.863  1.00 20.00     0.014 C 
BRANCH   4   5
HETATM    5  C6  UNL     1     -33.430   7.385   2.583  1.00 20.00     0.032 C 
BRANCH   5   6
HETATM    6  C7  UNL     1     -31.994   7.836   2.300  1.00 20.00     0.114 C 
HETATM    7  C3  UNL     1     -31.900   8.940   1.255  1.00 20.00     0.039 C 
BRANCH   6   8
HETATM    8  O8  UNL     1     -31.451   8.324   3.528  1.00 20.00    -0.396 OA
HETATM    9  H20 UNL     1     -32.206   8.511   4.105  1.00 20.00     0.210 HD
ENDBRANCH   6   8
ENDBRANCH   5   6
ENDBRANCH   4   5
ENDBRANCH   3   4
TORSDOF 4
ENDMDL
MODEL 7
REMARK VINA RESULT:      -4.9      2.070      4.383
REMARK  4 active torsions:
REMARK  status: ('A' for Active; 'I' for Inactive)
REMARK    1  A    between atoms: C4_4  and  C5_5 
REMARK    2  A    between atoms: C5_5  and  C6_6 
REMARK    3  A    between atoms: C6_6  and  C7_7 
REMARK    4  A    between atoms: C7_7  and  O8_8 
ROOT
HETATM    1  C1  UNL     1     -34.417   4.001   4.496  1.00 20.00     0.012 C 
HETATM    2  C2  UNL     1     -34.425   5.000   5.162  1.00 20.00    -0.117 C 
HETATM    3  C4  UNL     1     -34.437   6.219   5.981  1.00 20.00     0.093 C 
ENDROOT
BRANCH   3   4
HETATM    4  C5  UNL     1     -33.592   7.322   5.341  1.00 20.00     0.014 C 
BRANCH   4   5
HETATM    5  C6  UNL     1     -33.981   7.539   3.878  1.00 20.00     0.032 C 
BRANCH   5   6
HETATM    6  C7  UNL     1     -32.787   7.538   2.919  1.00 20.00     0.114 C 
HETATM    7  C3  UNL     1     -31.547   8.209   3.494  1.00 20.00     0.039 C 
BRANCH   6   8
HETATM    8  O8  UNL     1     -32.473   6.174   2.629  1.00 20.00    -0.396 OA
HETATM    9  H20 UNL     1     -33.233   5.651   2.925  1.00 20.00     0.210 HD
ENDBRANCH   6   8
ENDBRANCH   5   6
ENDBRANCH   4   5
ENDBRANCH   3   4
TORSDOF 4
ENDMDL
MODEL 8
REMARK VINA RESULT:      -4.7      1.781      4.455
REMARK  4 active torsions:
REMARK  status: ('A' for Active; 'I' for Inactive)
REMARK    1  A    between atoms: C4_4  and  C5_5 
REMARK    2  A    between atoms: C5_5  and  C6_6 
REMARK    3  A    between atoms: C6_6  and  C7_7 
REMARK    4  A    between atoms: C7_7  and  O8_8 
ROOT
HETATM    1  C1  UNL     1     -34.658   5.523   5.983  1.00 20.00     0.012 C 
HETATM    2  C2  UNL     1     -34.407   4.891   4.993  1.00 20.00    -0.117 C 
HETATM    3  C4  UNL     1     -34.104   4.114   3.784  1.00 20.00     0.093 C 
ENDROOT
BRANCH   3   4
HETATM    4  C5  UNL     1     -33.169   4.888   2.852  1.00 20.00     0.014 C 
BRANCH   4   5
HETATM    5  C6  UNL     1     -33.556   6.366   2.781  1.00 20.00     0.032 C 
BRANCH   5   6
HETATM    6  C7  UNL     1     -32.373   7.320   2.974  1.00 20.00     0.114 C 
HETATM    7  C3  UNL     1     -32.399   8.515   2.031  1.00 20.00     0.039 C 
BRANCH   6   8
HETATM    8  O8  UNL     1     -32.426   7.799   4.319  1.00 20.00    -0.396 OA
HETATM    9  H20 UNL     1     -31.570   8.217   4.494  1.00 20.00     0.210 HD
ENDBRANCH   6   8
ENDBRANCH   5   6
ENDBRANCH   4   5
ENDBRANCH   3   4
TORSDOF 4
ENDMDL
MODEL 9
REMARK VINA RESULT:      -4.6      2.086      3.182
REMARK  4 active torsions:
REMARK  status: ('A' for Active; 'I' for Inactive)
REMARK    1  A    between atoms: C4_4  and  C5_5 
REMARK    2  A    between atoms: C5_5  and  C6_6 
REMARK    3  A    between atoms: C6_6  and  C7_7 
REMARK    4  A    between atoms: C7_7  and  O8_8 
ROOT
HETATM    1  C1  UNL     1     -32.158   8.005   3.829  1.00 20.00     0.012 C 
HETATM    2  C2  UNL     1     -32.852   7.722   4.767  1.00 20.00    -0.117 C 
HETATM    3  C4  UNL     1     -33.701   7.381   5.916  1.00 20.00     0.093 C 
ENDROOT
BRANCH   3   4
HETATM    4  C5  UNL     1     -34.387   6.029   5.713  1.00 20.00     0.014 C 
BRANCH   4   5
HETATM    5  C6  UNL     1     -34.869   5.864   4.271  1.00 20.00     0.032 C 
BRANCH   5   6
HETATM    6  C7  UNL     1     -34.376   4.577   3.602  1.00 20.00     0.114 C 
HETATM    7  C3  UNL     1     -33.124   4.775   2.757  1.00 20.00     0.039 C 
BRANCH   6   8
HETATM    8  O8  UNL     1     -34.080   3.642   4.641  1.00 20.00    -0.396 OA
HETATM    9  H20 UNL     1     -33.180   3.840   4.938  1.00 20.00     0.210 HD
ENDBRANCH   6   8
ENDBRANCH   5   6
ENDBRANCH   4   5
ENDBRANCH   3   4
TORSDOF 4
ENDMDL
