MODEL 1
REMARK VINA RESULT:      -5.1      0.000      0.000
REMARK  2 active torsions:
REMARK  status: ('A' for Active; 'I' for Inactive)
REMARK    1  A    between atoms: C4_4  and  C6_6 
REMARK    2  A    between atoms: C5_5  and  C7_7 
ROOT
HETATM    1  C1  UNL     1     -34.161   6.740   5.659  1.00 20.00     0.007 C 
HETATM    2  C2  UNL     1     -34.185   5.191   5.703  1.00 20.00     0.007 C 
HETATM    3  C3  UNL     1     -35.355   5.930   3.779  1.00 20.00     0.014 C 
HETATM    4  C4  UNL     1     -34.362   7.044   4.158  1.00 20.00     0.017 C 
HETATM    5  C5  UNL     1     -34.395   4.810   4.220  1.00 20.00     0.017 C 
ENDROOT
BRANCH   4   6
HETATM    6  C6  UNL     1     -33.084   6.634   3.443  1.00 20.00     0.155 A 
HETATM    7  C7  UNL     1     -32.837   7.741   2.472  1.00 20.00     0.155 A 
HETATM    8  O8  UNL     1     -31.943   7.490   3.560  1.00 20.00    -0.375 OA
ENDBRANCH   4   6
TORSDOF 2
ENDMDL
MODEL 2
REMARK VINA RESULT:      -3.7      1.614      2.038
REMARK  2 active torsions:
REMARK  status: ('A' for Active; 'I' for Inactive)
REMARK    1  A    between atoms: C4_4  and  C6_6 
REMARK    2  A    between atoms: C5_5  and  C7_7 
ROOT
HETATM    1  C1  UNL     1     -35.044   4.989   4.654  1.00 20.00     0.007 C 
HETATM    2  C2  UNL     1     -34.002   4.023   4.033  1.00 20.00     0.007 C 
HETATM    3  C3  UNL     1     -34.278   5.890   2.600  1.00 20.00     0.014 C 
HETATM    4  C4  UNL     1     -34.675   6.347   4.016  1.00 20.00     0.017 C 
HETATM    5  C5  UNL     1     -33.172   4.955   3.121  1.00 20.00     0.017 C 
ENDROOT
BRANCH   4   6
HETATM    6  C6  UNL     1     -33.354   6.785   4.628  1.00 20.00     0.155 A 
HETATM    7  C7  UNL     1     -33.661   8.108   5.249  1.00 20.00     0.155 A 
HETATM    8  O8  UNL     1     -33.300   6.976   6.045  1.00 20.00    -0.375 OA
ENDBRANCH   4   6
TORSDOF 2
ENDMDL
MODEL 3
REMARK VINA RESULT:      -3.7      1.625      2.516
REMARK  2 active torsions:
REMARK  status: ('A' for Active; 'I' for Inactive)
REMARK    1  A    between atoms: C4_4  and  C6_6 
REMARK    2  A    between atoms: C5_5  and  C7_7 
ROOT
HETATM    1  C1  UNL     1     -32.947   5.836   2.766  1.00 20.00     0.007 C 
HETATM    2  C2  UNL     1     -34.377   5.868   3.363  1.00 20.00     0.007 C 
HETATM    3  C3  UNL     1     -32.987   7.335   4.602  1.00 20.00     0.014 C 
HETATM    4  C4  UNL     1     -32.363   7.199   3.200  1.00 20.00     0.017 C 
HETATM    5  C5  UNL     1     -34.426   7.247   4.061  1.00 20.00     0.017 C 
ENDROOT
BRANCH   4   6
HETATM    6  C6  UNL     1     -33.078   8.271   2.392  1.00 20.00     0.155 A 
HETATM    7  C7  UNL     1     -31.979   9.164   1.918  1.00 20.00     0.155 A 
HETATM    8  O8  UNL     1     -32.758   8.389   1.002  1.00 20.00    -0.375 OA
ENDBRANCH   4   6
TORSDOF 2
ENDMDL
MODEL 4
REMARK VINA RESULT:      -3.7      2.337      4.578
REMARK  2 active torsions:
REMARK  status: ('A' for Active; 'I' for Inactive)
REMARK    1  A    between atoms: C4_4  and  C6_6 
REMARK    2  A    between atoms: C5_5  and  C7_7 
ROOT
HETATM    1  C1  UNL     1     -32.121  10.018   2.365  1.00 20.00     0.007 C 
HETATM    2  C2  UNL     1     -32.835  10.430   1.052  1.00 20.00     0.007 C 
HETATM    3  C3  UNL     1     -31.400   8.596   0.611  1.00 20.00     0.014 C 
HETATM    4  C4  UNL     1     -31.758   8.538   2.108  1.00 20.00     0.017 C 
HETATM    5  C5  UNL     1     -32.789   9.131   0.215  1.00 20.00     0.017 C 
ENDROOT
BRANCH   4   6
HETATM    6  C6  UNL     1     -33.057   7.748   2.129  1.00 20.00     0.155 A 
HETATM    7  C7  UNL     1     -32.745   6.557   2.974  1.00 20.00     0.155 A 
HETATM    8  O8  UNL     1     -33.696   7.540   3.392  1.00 20.00    -0.375 OA
ENDBRANCH   4   6
TORSDOF 2
ENDMDL
MODEL 5
REMARK VINA RESULT:      -3.6      1.788      3.293
REMARK  2 active torsions:
REMARK  status: ('A' for Active; 'I' for Inactive)
REMARK    1  A    between atoms: C4_4  and  C6_6 
REMARK    2  A    between atoms: C5_5  and  C7_7 
ROOT
HETATM    1  C1  UNL     1     -34.048   6.301   2.294  1.00 20.00     0.007 C 
HETATM    2  C2  UNL     1     -32.736   7.070   2.594  1.00 20.00     0.007 C 
HETATM    3  C3  UNL     1     -34.301   7.504   4.320  1.00 20.00     0.014 C 
HETATM    4  C4  UNL     1     -34.686   6.151   3.693  1.00 20.00     0.017 C 
HETATM    5  C5  UNL     1     -32.794   7.259   4.128  1.00 20.00     0.017 C 
ENDROOT
BRANCH   4   6
HETATM    6  C6  UNL     1     -33.840   5.152   4.466  1.00 20.00     0.155 A 
HETATM    7  C7  UNL     1     -34.791   4.555   5.451  1.00 20.00     0.155 A 
HETATM    8  O8  UNL     1     -34.209   3.770   4.406  1.00 20.00    -0.375 OA
ENDBRANCH   4   6
TORSDOF 2
ENDMDL
MODEL 6
REMARK VINA RESULT:      -3.5     11.857     12.852
REMARK  2 active torsions:
REMARK  status: ('A' for Active; 'I' for Inactive)
REMARK    1  A    between atoms: C4_4  and  C6_6 
REMARK    2  A    between atoms: C5_5  and  C7_7 
ROOT
HETATM    1  C1  UNL     1     -33.405  14.506  -4.303  1.00 20.00     0.007 C 
HETATM    2  C2  UNL     1     -34.178  15.657  -3.610  1.00 20.00     0.007 C 
HETATM    3  C3  UNL     1     -33.967  16.146  -5.920  1.00 20.00     0.014 C 
HETATM    4  C4  UNL     1     -33.871  14.616  -5.772  1.00 20.00     0.017 C 
HETATM    5  C5  UNL     1     -34.987  16.276  -4.774  1.00 20.00     0.017 C 
ENDROOT
BRANCH   4   6
HETATM    6  C6  UNL     1     -35.323  14.167  -5.817  1.00 20.00     0.155 A 
HETATM    7  C7  UNL     1     -35.356  13.153  -6.914  1.00 20.00     0.155 A 
HETATM    8  O8  UNL     1     -35.608  12.789  -5.553  1.00 20.00    -0.375 OA
ENDBRANCH   4   6
TORSDOF 2
ENDMDL
MODEL 7
REMARK VINA RESULT:      -3.5     11.786     12.618
REMARK  2 active torsions:
REMARK  status: ('A' for Active; 'I' for Inactive)
REMARK    1  A    between atoms: C4_4  and  C6_6 
REMARK    2  A    between atoms: C5_5  and  C7_7 
ROOT
HETATM    1  C1  UNL     1     -34.551  15.780  -3.308  1.00 20.00     0.007 C 
HETATM    2  C2  UNL     1     -33.625  16.708  -4.134  1.00 20.00     0.007 C 
HETATM    3  C3  UNL     1     -32.924  14.461  -4.418  1.00 20.00     0.014 C 
HETATM    4  C4  UNL     1     -34.415  14.423  -4.035  1.00 20.00     0.017 C 
HETATM    5  C5  UNL     1     -33.080  15.761  -5.228  1.00 20.00     0.017 C 
ENDROOT
BRANCH   4   6
HETATM    6  C6  UNL     1     -35.126  14.559  -5.373  1.00 20.00     0.155 A 
HETATM    7  C7  UNL     1     -36.097  13.424  -5.386  1.00 20.00     0.155 A 
HETATM    8  O8  UNL     1     -36.539  14.784  -5.363  1.00 20.00    -0.375 OA
ENDBRANCH   4   6
TORSDOF 2
ENDMDL
MODEL 8
REMARK VINA RESULT:      -3.4     11.991     12.715
REMARK  2 active torsions:
REMARK  status: ('A' for Active; 'I' for Inactive)
REMARK    1  A    between atoms: C4_4  and  C6_6 
REMARK    2  A    between atoms: C5_5  and  C7_7 
ROOT
HETATM    1  C1  UNL     1     -33.719  14.812  -5.906  1.00 20.00     0.007 C 
HETATM    2  C2  UNL     1     -32.994  14.992  -4.547  1.00 20.00     0.007 C 
HETATM    3  C3  UNL     1     -34.877  16.431  -4.618  1.00 20.00     0.014 C 
HETATM    4  C4  UNL     1     -35.160  15.269  -5.589  1.00 20.00     0.017 C 
HETATM    5  C5  UNL     1     -34.117  15.528  -3.629  1.00 20.00     0.017 C 
ENDROOT
BRANCH   4   6
HETATM    6  C6  UNL     1     -35.781  14.207  -4.696  1.00 20.00     0.155 A 
HETATM    7  C7  UNL     1     -37.053  13.845  -5.389  1.00 20.00     0.155 A 
HETATM    8  O8  UNL     1     -35.987  12.902  -5.246  1.00 20.00    -0.375 OA
ENDBRANCH   4   6
TORSDOF 2
ENDMDL
MODEL 9
REMARK VINA RESULT:      -3.4      1.518      1.989
REMARK  2 active torsions:
REMARK  status: ('A' for Active; 'I' for Inactive)
REMARK    1  A    between atoms: C4_4  and  C6_6 
REMARK    2  A    between atoms: C5_5  and  C7_7 
ROOT
HETATM    1  C1  UNL     1     -33.557   7.252   4.135  1.00 20.00     0.007 C 
HETATM    2  C2  UNL     1     -33.899   6.793   5.576  1.00 20.00     0.007 C 
HETATM    3  C3  UNL     1     -35.518   5.921   4.081  1.00 20.00     0.014 C 
HETATM    4  C4  UNL     1     -34.239   6.175   3.262  1.00 20.00     0.017 C 
HETATM    5  C5  UNL     1     -34.731   5.511   5.339  1.00 20.00     0.017 C 
ENDROOT
BRANCH   4   6
HETATM    6  C6  UNL     1     -33.447   4.888   3.438  1.00 20.00     0.155 A 
HETATM    7  C7  UNL     1     -33.252   4.387   2.045  1.00 20.00     0.155 A 
HETATM    8  O8  UNL     1     -32.146   4.814   2.846  1.00 20.00    -0.375 OA
ENDBRANCH   4   6
TORSDOF 2
ENDMDL
