MODEL 1
REMARK VINA RESULT:      -5.7      0.000      0.000
REMARK  0 active torsions:
REMARK  status: ('A' for Active; 'I' for Inactive)
ROOT
HETATM    1  C1  UNL     1     -33.196   7.590   5.171  1.00 20.00     0.047 C 
HETATM    2  C2  UNL     1     -33.994   7.020   6.080  1.00 20.00    -0.023 C 
HETATM    3  C3  UNL     1     -33.005   6.968   3.835  1.00 20.00     0.157 C 
HETATM    4  C4  UNL     1     -34.704   5.718   5.883  1.00 20.00     0.028 C 
HETATM    5  C5  UNL     1     -34.110   4.902   4.736  1.00 20.00     0.021 C 
HETATM    6  C6  UNL     1     -33.849   5.740   3.470  1.00 20.00     0.017 C 
HETATM    7  C7  UNL     1     -35.159   6.224   2.832  1.00 20.00     0.023 C 
HETATM    8  C8  UNL     1     -33.086   4.874   2.453  1.00 20.00     0.023 C 
HETATM    9  O9  UNL     1     -32.222   7.492   3.044  1.00 20.00    -0.292 OA
ENDROOT
TORSDOF 0
ENDMDL
MODEL 2
REMARK VINA RESULT:      -5.4      1.222      1.978
REMARK  0 active torsions:
REMARK  status: ('A' for Active; 'I' for Inactive)
ROOT
HETATM    1  C1  UNL     1     -32.485   7.089   3.305  1.00 20.00     0.047 C 
HETATM    2  C2  UNL     1     -32.713   7.945   4.306  1.00 20.00    -0.023 C 
HETATM    3  C3  UNL     1     -33.197   5.785   3.248  1.00 20.00     0.157 C 
HETATM    4  C4  UNL     1     -33.624   7.673   5.461  1.00 20.00     0.028 C 
HETATM    5  C5  UNL     1     -33.937   6.185   5.613  1.00 20.00     0.021 C 
HETATM    6  C6  UNL     1     -34.299   5.504   4.278  1.00 20.00     0.017 C 
HETATM    7  C7  UNL     1     -35.630   6.026   3.719  1.00 20.00     0.023 C 
HETATM    8  C8  UNL     1     -34.411   3.989   4.512  1.00 20.00     0.023 C 
HETATM    9  O9  UNL     1     -32.923   4.999   2.341  1.00 20.00    -0.292 OA
ENDROOT
TORSDOF 0
ENDMDL
MODEL 3
REMARK VINA RESULT:      -5.2      1.222      1.977
REMARK  0 active torsions:
REMARK  status: ('A' for Active; 'I' for Inactive)
ROOT
HETATM    1  C1  UNL     1     -34.425   5.870   5.861  1.00 20.00     0.047 C 
HETATM    2  C2  UNL     1     -34.607   4.586   5.535  1.00 20.00    -0.023 C 
HETATM    3  C3  UNL     1     -33.880   6.832   4.868  1.00 20.00     0.157 C 
HETATM    4  C4  UNL     1     -34.243   3.990   4.213  1.00 20.00     0.028 C 
HETATM    5  C5  UNL     1     -33.268   4.868   3.430  1.00 20.00     0.021 C 
HETATM    6  C6  UNL     1     -33.666   6.357   3.425  1.00 20.00     0.017 C 
HETATM    7  C7  UNL     1     -34.964   6.593   2.639  1.00 20.00     0.023 C 
HETATM    8  C8  UNL     1     -32.533   7.168   2.777  1.00 20.00     0.023 C 
HETATM    9  O9  UNL     1     -33.674   7.994   5.219  1.00 20.00    -0.292 OA
ENDROOT
TORSDOF 0
ENDMDL
MODEL 4
REMARK VINA RESULT:      -5.0      1.774      3.224
REMARK  0 active torsions:
REMARK  status: ('A' for Active; 'I' for Inactive)
ROOT
HETATM    1  C1  UNL     1     -32.950   4.962   2.683  1.00 20.00     0.047 C 
HETATM    2  C2  UNL     1     -32.614   6.211   2.347  1.00 20.00    -0.023 C 
HETATM    3  C3  UNL     1     -33.860   4.706   3.830  1.00 20.00     0.157 C 
HETATM    4  C4  UNL     1     -33.050   7.433   3.092  1.00 20.00     0.028 C 
HETATM    5  C5  UNL     1     -33.553   7.106   4.497  1.00 20.00     0.021 C 
HETATM    6  C6  UNL     1     -34.516   5.903   4.529  1.00 20.00     0.017 C 
HETATM    7  C7  UNL     1     -35.838   6.217   3.812  1.00 20.00     0.023 C 
HETATM    8  C8  UNL     1     -34.812   5.547   5.995  1.00 20.00     0.023 C 
HETATM    9  O9  UNL     1     -34.104   3.540   4.144  1.00 20.00    -0.292 OA
ENDROOT
TORSDOF 0
ENDMDL
MODEL 5
REMARK VINA RESULT:      -4.4      1.684      2.906
REMARK  0 active torsions:
REMARK  status: ('A' for Active; 'I' for Inactive)
ROOT
HETATM    1  C1  UNL     1     -32.376   7.981   4.673  1.00 20.00     0.047 C 
HETATM    2  C2  UNL     1     -31.848   8.248   3.474  1.00 20.00    -0.023 C 
HETATM    3  C3  UNL     1     -33.528   7.051   4.801  1.00 20.00     0.157 C 
HETATM    4  C4  UNL     1     -32.374   7.712   2.180  1.00 20.00     0.028 C 
HETATM    5  C5  UNL     1     -33.801   7.183   2.310  1.00 20.00     0.021 C 
HETATM    6  C6  UNL     1     -34.007   6.297   3.554  1.00 20.00     0.017 C 
HETATM    7  C7  UNL     1     -33.219   4.983   3.450  1.00 20.00     0.023 C 
HETATM    8  C8  UNL     1     -35.504   5.975   3.689  1.00 20.00     0.023 C 
HETATM    9  O9  UNL     1     -34.023   6.870   5.914  1.00 20.00    -0.292 OA
ENDROOT
TORSDOF 0
ENDMDL
MODEL 6
REMARK VINA RESULT:      -4.3      1.701      2.634
REMARK  0 active torsions:
REMARK  status: ('A' for Active; 'I' for Inactive)
ROOT
HETATM    1  C1  UNL     1     -34.090   6.877   5.305  1.00 20.00     0.047 C 
HETATM    2  C2  UNL     1     -32.981   7.623   5.254  1.00 20.00    -0.023 C 
HETATM    3  C3  UNL     1     -34.580   6.168   4.095  1.00 20.00     0.157 C 
HETATM    4  C4  UNL     1     -32.181   7.864   4.013  1.00 20.00     0.028 C 
HETATM    5  C5  UNL     1     -32.968   7.536   2.745  1.00 20.00     0.021 C 
HETATM    6  C6  UNL     1     -33.716   6.192   2.828  1.00 20.00     0.017 C 
HETATM    7  C7  UNL     1     -32.744   5.005   2.881  1.00 20.00     0.023 C 
HETATM    8  C8  UNL     1     -34.615   6.050   1.588  1.00 20.00     0.023 C 
HETATM    9  O9  UNL     1     -35.634   5.534   4.166  1.00 20.00    -0.292 OA
ENDROOT
TORSDOF 0
ENDMDL
MODEL 7
REMARK VINA RESULT:      -4.3     12.197     13.323
REMARK  0 active torsions:
REMARK  status: ('A' for Active; 'I' for Inactive)
ROOT
HETATM    1  C1  UNL     1     -34.265  14.137  -4.282  1.00 20.00     0.047 C 
HETATM    2  C2  UNL     1     -33.462  15.197  -4.426  1.00 20.00    -0.023 C 
HETATM    3  C3  UNL     1     -35.242  13.778  -5.343  1.00 20.00     0.157 C 
HETATM    4  C4  UNL     1     -33.498  16.131  -5.594  1.00 20.00     0.028 C 
HETATM    5  C5  UNL     1     -34.799  16.017  -6.387  1.00 20.00     0.021 C 
HETATM    6  C6  UNL     1     -35.212  14.558  -6.663  1.00 20.00     0.017 C 
HETATM    7  C7  UNL     1     -34.229  13.862  -7.616  1.00 20.00     0.023 C 
HETATM    8  C8  UNL     1     -36.613  14.554  -7.296  1.00 20.00     0.023 C 
HETATM    9  O9  UNL     1     -36.002  12.829  -5.151  1.00 20.00    -0.292 OA
ENDROOT
TORSDOF 0
ENDMDL
MODEL 8
REMARK VINA RESULT:      -4.2     11.670     12.713
REMARK  0 active torsions:
REMARK  status: ('A' for Active; 'I' for Inactive)
ROOT
HETATM    1  C1  UNL     1     -34.380  14.108  -4.201  1.00 20.00     0.047 C 
HETATM    2  C2  UNL     1     -34.118  15.294  -3.642  1.00 20.00    -0.023 C 
HETATM    3  C3  UNL     1     -35.693  13.851  -4.848  1.00 20.00     0.157 C 
HETATM    4  C4  UNL     1     -35.095  16.424  -3.557  1.00 20.00     0.028 C 
HETATM    5  C5  UNL     1     -36.534  15.962  -3.782  1.00 20.00     0.021 C 
HETATM    6  C6  UNL     1     -36.684  15.015  -4.988  1.00 20.00     0.017 C 
HETATM    7  C7  UNL     1     -36.400  15.736  -6.313  1.00 20.00     0.023 C 
HETATM    8  C8  UNL     1     -38.121  14.468  -5.011  1.00 20.00     0.023 C 
HETATM    9  O9  UNL     1     -35.920  12.731  -5.305  1.00 20.00    -0.292 OA
ENDROOT
TORSDOF 0
ENDMDL
MODEL 9
REMARK VINA RESULT:      -4.2     12.278     13.587
REMARK  0 active torsions:
REMARK  status: ('A' for Active; 'I' for Inactive)
ROOT
HETATM    1  C1  UNL     1     -34.893  13.265  -7.189  1.00 20.00     0.047 C 
HETATM    2  C2  UNL     1     -34.161  14.114  -7.918  1.00 20.00    -0.023 C 
HETATM    3  C3  UNL     1     -35.313  13.622  -5.808  1.00 20.00     0.157 C 
HETATM    4  C4  UNL     1     -33.655  15.432  -7.426  1.00 20.00     0.028 C 
HETATM    5  C5  UNL     1     -33.688  15.532  -5.901  1.00 20.00     0.021 C 
HETATM    6  C6  UNL     1     -35.012  15.035  -5.291  1.00 20.00     0.017 C 
HETATM    7  C7  UNL     1     -36.187  15.949  -5.667  1.00 20.00     0.023 C 
HETATM    8  C8  UNL     1     -34.870  15.004  -3.760  1.00 20.00     0.023 C 
HETATM    9  O9  UNL     1     -35.940  12.795  -5.147  1.00 20.00    -0.292 OA
ENDROOT
TORSDOF 0
ENDMDL
