MODEL 1
REMARK VINA RESULT:      -5.3      0.000      0.000
REMARK  3 active torsions:
REMARK  status: ('A' for Active; 'I' for Inactive)
REMARK    1  A    between atoms: C6_6  and  C7_7 
REMARK    2  A    between atoms: C7_7  and  C8_8 
REMARK    3  A    between atoms: C7_7  and  O9_9 
ROOT
HETATM    1  C1  UNL     1     -32.199   9.025   1.244  1.00 20.00     0.012 C 
HETATM    2  C2  UNL     1     -32.279   8.243   2.151  1.00 20.00    -0.115 C 
HETATM    3  C6  UNL     1     -32.374   7.286   3.267  1.00 20.00     0.125 C 
ENDROOT
BRANCH   3   4
HETATM    4  C7  UNL     1     -33.389   6.171   2.958  1.00 20.00     0.136 C 
BRANCH   4   5
HETATM    5  C8  UNL     1     -34.374   5.827   4.120  1.00 20.00    -0.025 C 
HETATM    6  C3  UNL     1     -35.819   6.133   3.671  1.00 20.00     0.017 C 
HETATM    7  C4  UNL     1     -34.304   4.342   4.522  1.00 20.00     0.017 C 
HETATM    8  C5  UNL     1     -34.070   6.689   5.361  1.00 20.00     0.017 C 
ENDBRANCH   4   5
BRANCH   4   9
HETATM    9  O9  UNL     1     -32.663   4.998   2.571  1.00 20.00    -0.394 OA
HETATM   10  H23 UNL     1     -31.743   5.274   2.463  1.00 20.00     0.210 HD
ENDBRANCH   4   9
ENDBRANCH   3   4
TORSDOF 3
ENDMDL
MODEL 2
REMARK VINA RESULT:      -5.3      0.048      1.450
REMARK  3 active torsions:
REMARK  status: ('A' for Active; 'I' for Inactive)
REMARK    1  A    between atoms: C6_6  and  C7_7 
REMARK    2  A    between atoms: C7_7  and  C8_8 
REMARK    3  A    between atoms: C7_7  and  O9_9 
ROOT
HETATM    1  C1  UNL     1     -32.203   8.991   1.243  1.00 20.00     0.012 C 
HETATM    2  C2  UNL     1     -32.273   8.213   2.155  1.00 20.00    -0.115 C 
HETATM    3  C6  UNL     1     -32.356   7.260   3.276  1.00 20.00     0.125 C 
ENDROOT
BRANCH   3   4
HETATM    4  C7  UNL     1     -33.365   6.138   2.979  1.00 20.00     0.136 C 
BRANCH   4   5
HETATM    5  C8  UNL     1     -34.386   5.840   4.122  1.00 20.00    -0.025 C 
HETATM    6  C3  UNL     1     -34.286   4.352   4.521  1.00 20.00     0.017 C 
HETATM    7  C4  UNL     1     -34.117   6.690   5.378  1.00 20.00     0.017 C 
HETATM    8  C5  UNL     1     -35.827   6.107   3.645  1.00 20.00     0.017 C 
ENDBRANCH   4   5
BRANCH   4   9
HETATM    9  O9  UNL     1     -32.633   4.949   2.657  1.00 20.00    -0.394 OA
HETATM   10  H23 UNL     1     -32.385   5.029   1.726  1.00 20.00     0.210 HD
ENDBRANCH   4   9
ENDBRANCH   3   4
TORSDOF 3
ENDMDL
MODEL 3
REMARK VINA RESULT:      -5.3      0.047      1.449
REMARK  3 active torsions:
REMARK  status: ('A' for Active; 'I' for Inactive)
REMARK    1  A    between atoms: C6_6  and  C7_7 
REMARK    2  A    between atoms: C7_7  and  C8_8 
REMARK    3  A    between atoms: C7_7  and  O9_9 
ROOT
HETATM    1  C1  UNL     1     -32.183   9.042   1.302  1.00 20.00     0.012 C 
HETATM    2  C2  UNL     1     -32.276   8.251   2.200  1.00 20.00    -0.115 C 
HETATM    3  C6  UNL     1     -32.386   7.281   3.304  1.00 20.00     0.125 C 
ENDROOT
BRANCH   3   4
HETATM    4  C7  UNL     1     -33.384   6.161   2.963  1.00 20.00     0.136 C 
BRANCH   4   5
HETATM    5  C8  UNL     1     -34.412   5.820   4.087  1.00 20.00    -0.025 C 
HETATM    6  C3  UNL     1     -34.086   6.653   5.346  1.00 20.00     0.017 C 
HETATM    7  C4  UNL     1     -35.860   6.135   3.667  1.00 20.00     0.017 C 
HETATM    8  C5  UNL     1     -34.322   4.329   4.468  1.00 20.00     0.017 C 
ENDBRANCH   4   5
BRANCH   4   9
HETATM    9  O9  UNL     1     -32.638   4.988   2.611  1.00 20.00    -0.394 OA
HETATM   10  H23 UNL     1     -31.705   5.226   2.698  1.00 20.00     0.210 HD
ENDBRANCH   4   9
ENDBRANCH   3   4
TORSDOF 3
ENDMDL
MODEL 4
REMARK VINA RESULT:      -4.3      1.597      4.598
REMARK  3 active torsions:
REMARK  status: ('A' for Active; 'I' for Inactive)
REMARK    1  A    between atoms: C6_6  and  C7_7 
REMARK    2  A    between atoms: C7_7  and  C8_8 
REMARK    3  A    between atoms: C7_7  and  O9_9 
ROOT
HETATM    1  C1  UNL     1     -34.638   5.877   4.100  1.00 20.00     0.012 C 
HETATM    2  C2  UNL     1     -33.902   6.292   3.247  1.00 20.00    -0.115 C 
HETATM    3  C6  UNL     1     -32.998   6.798   2.198  1.00 20.00     0.125 C 
ENDROOT
BRANCH   3   4
HETATM    4  C7  UNL     1     -32.695   8.293   2.399  1.00 20.00     0.136 C 
BRANCH   4   5
HETATM    5  C8  UNL     1     -32.422   9.099   1.090  1.00 20.00    -0.025 C 
HETATM    6  C3  UNL     1     -30.995   8.788   0.588  1.00 20.00     0.017 C 
HETATM    7  C4  UNL     1     -33.412   8.738  -0.033  1.00 20.00     0.017 C 
HETATM    8  C5  UNL     1     -32.511  10.614   1.359  1.00 20.00     0.017 C 
ENDBRANCH   4   5
BRANCH   4   9
HETATM    9  O9  UNL     1     -31.575   8.409   3.286  1.00 20.00    -0.394 OA
HETATM   10  H23 UNL     1     -31.120   9.225   3.039  1.00 20.00     0.210 HD
ENDBRANCH   4   9
ENDBRANCH   3   4
TORSDOF 3
ENDMDL
MODEL 5
REMARK VINA RESULT:      -4.2      1.648      4.114
REMARK  3 active torsions:
REMARK  status: ('A' for Active; 'I' for Inactive)
REMARK    1  A    between atoms: C6_6  and  C7_7 
REMARK    2  A    between atoms: C7_7  and  C8_8 
REMARK    3  A    between atoms: C7_7  and  O9_9 
ROOT
HETATM    1  C1  UNL     1     -34.634   4.608   5.756  1.00 20.00     0.012 C 
HETATM    2  C2  UNL     1     -34.696   5.387   4.845  1.00 20.00    -0.115 C 
HETATM    3  C6  UNL     1     -34.776   6.341   3.724  1.00 20.00     0.125 C 
ENDROOT
BRANCH   3   4
HETATM    4  C7  UNL     1     -33.850   7.547   3.954  1.00 20.00     0.136 C 
BRANCH   4   5
HETATM    5  C8  UNL     1     -32.636   7.650   2.977  1.00 20.00    -0.025 C 
HETATM    6  C3  UNL     1     -32.322   6.251   2.404  1.00 20.00     0.017 C 
HETATM    7  C4  UNL     1     -32.918   8.597   1.796  1.00 20.00     0.017 C 
HETATM    8  C5  UNL     1     -31.383   8.150   3.722  1.00 20.00     0.017 C 
ENDBRANCH   4   5
BRANCH   4   9
HETATM    9  O9  UNL     1     -33.383   7.503   5.309  1.00 20.00    -0.394 OA
HETATM   10  H23 UNL     1     -32.712   6.808   5.339  1.00 20.00     0.210 HD
ENDBRANCH   4   9
ENDBRANCH   3   4
TORSDOF 3
ENDMDL
MODEL 6
REMARK VINA RESULT:      -4.1      1.662      4.115
REMARK  3 active torsions:
REMARK  status: ('A' for Active; 'I' for Inactive)
REMARK    1  A    between atoms: C6_6  and  C7_7 
REMARK    2  A    between atoms: C7_7  and  C8_8 
REMARK    3  A    between atoms: C7_7  and  O9_9 
ROOT
HETATM    1  C1  UNL     1     -34.578   4.600   5.809  1.00 20.00     0.012 C 
HETATM    2  C2  UNL     1     -34.679   5.366   4.891  1.00 20.00    -0.115 C 
HETATM    3  C6  UNL     1     -34.806   6.304   3.761  1.00 20.00     0.125 C 
ENDROOT
BRANCH   3   4
HETATM    4  C7  UNL     1     -33.895   7.529   3.951  1.00 20.00     0.136 C 
BRANCH   4   5
HETATM    5  C8  UNL     1     -32.656   7.590   3.002  1.00 20.00    -0.025 C 
HETATM    6  C3  UNL     1     -32.968   8.530   1.817  1.00 20.00     0.017 C 
HETATM    7  C4  UNL     1     -31.401   8.124   3.717  1.00 20.00     0.017 C 
HETATM    8  C5  UNL     1     -32.342   6.194   2.430  1.00 20.00     0.017 C 
ENDBRANCH   4   5
BRANCH   4   9
HETATM    9  O9  UNL     1     -33.465   7.560   5.317  1.00 20.00    -0.394 OA
HETATM   10  H23 UNL     1     -33.087   6.690   5.501  1.00 20.00     0.210 HD
ENDBRANCH   4   9
ENDBRANCH   3   4
TORSDOF 3
ENDMDL
MODEL 7
REMARK VINA RESULT:      -4.1      1.625      4.088
REMARK  3 active torsions:
REMARK  status: ('A' for Active; 'I' for Inactive)
REMARK    1  A    between atoms: C6_6  and  C7_7 
REMARK    2  A    between atoms: C7_7  and  C8_8 
REMARK    3  A    between atoms: C7_7  and  O9_9 
ROOT
HETATM    1  C1  UNL     1     -34.508   4.460   5.627  1.00 20.00     0.012 C 
HETATM    2  C2  UNL     1     -34.675   5.320   4.806  1.00 20.00    -0.115 C 
HETATM    3  C6  UNL     1     -34.883   6.372   3.796  1.00 20.00     0.125 C 
ENDROOT
BRANCH   3   4
HETATM    4  C7  UNL     1     -33.895   7.536   3.994  1.00 20.00     0.136 C 
BRANCH   4   5
HETATM    5  C8  UNL     1     -32.700   7.574   2.990  1.00 20.00    -0.025 C 
HETATM    6  C3  UNL     1     -31.440   8.092   3.716  1.00 20.00     0.017 C 
HETATM    7  C4  UNL     1     -32.380   6.182   2.414  1.00 20.00     0.017 C 
HETATM    8  C5  UNL     1     -33.004   8.533   1.823  1.00 20.00     0.017 C 
ENDBRANCH   4   5
BRANCH   4   9
HETATM    9  O9  UNL     1     -33.401   7.481   5.338  1.00 20.00    -0.394 OA
HETATM   10  H23 UNL     1     -32.580   6.971   5.302  1.00 20.00     0.210 HD
ENDBRANCH   4   9
ENDBRANCH   3   4
TORSDOF 3
ENDMDL
MODEL 8
REMARK VINA RESULT:      -4.0     11.445     12.428
REMARK  3 active torsions:
REMARK  status: ('A' for Active; 'I' for Inactive)
REMARK    1  A    between atoms: C6_6  and  C7_7 
REMARK    2  A    between atoms: C7_7  and  C8_8 
REMARK    3  A    between atoms: C7_7  and  O9_9 
ROOT
HETATM    1  C1  UNL     1     -34.083  16.455  -2.740  1.00 20.00     0.012 C 
HETATM    2  C2  UNL     1     -34.888  15.817  -3.360  1.00 20.00    -0.115 C 
HETATM    3  C6  UNL     1     -35.880  15.036  -4.121  1.00 20.00     0.125 C 
ENDROOT
BRANCH   3   4
HETATM    4  C7  UNL     1     -35.194  14.003  -5.032  1.00 20.00     0.136 C 
BRANCH   4   5
HETATM    5  C8  UNL     1     -35.055  14.424  -6.529  1.00 20.00    -0.025 C 
HETATM    6  C3  UNL     1     -36.255  15.313  -6.922  1.00 20.00     0.017 C 
HETATM    7  C4  UNL     1     -33.764  15.221  -6.793  1.00 20.00     0.017 C 
HETATM    8  C5  UNL     1     -35.065  13.183  -7.443  1.00 20.00     0.017 C 
ENDBRANCH   4   5
BRANCH   4   9
HETATM    9  O9  UNL     1     -35.918  12.770  -4.937  1.00 20.00    -0.394 OA
HETATM   10  H23 UNL     1     -36.756  12.982  -4.504  1.00 20.00     0.210 HD
ENDBRANCH   4   9
ENDBRANCH   3   4
TORSDOF 3
ENDMDL
MODEL 9
REMARK VINA RESULT:      -4.0     11.455     12.433
REMARK  3 active torsions:
REMARK  status: ('A' for Active; 'I' for Inactive)
REMARK    1  A    between atoms: C6_6  and  C7_7 
REMARK    2  A    between atoms: C7_7  and  C8_8 
REMARK    3  A    between atoms: C7_7  and  O9_9 
ROOT
HETATM    1  C1  UNL     1     -34.211  16.468  -2.663  1.00 20.00     0.012 C 
HETATM    2  C2  UNL     1     -34.985  15.827  -3.318  1.00 20.00    -0.115 C 
HETATM    3  C6  UNL     1     -35.939  15.041  -4.121  1.00 20.00     0.125 C 
ENDROOT
BRANCH   3   4
HETATM    4  C7  UNL     1     -35.208  14.032  -5.024  1.00 20.00     0.136 C 
BRANCH   4   5
HETATM    5  C8  UNL     1     -35.062  14.460  -6.519  1.00 20.00    -0.025 C 
HETATM    6  C3  UNL     1     -35.001  13.198  -7.406  1.00 20.00     0.017 C 
HETATM    7  C4  UNL     1     -36.247  15.321  -6.995  1.00 20.00     0.017 C 
HETATM    8  C5  UNL     1     -33.758  15.252  -6.730  1.00 20.00     0.017 C 
ENDBRANCH   4   5
BRANCH   4   9
HETATM    9  O9  UNL     1     -35.892  12.776  -4.940  1.00 20.00    -0.394 OA
HETATM   10  H23 UNL     1     -35.656  12.287  -5.739  1.00 20.00     0.210 HD
ENDBRANCH   4   9
ENDBRANCH   3   4
TORSDOF 3
ENDMDL
