MODEL 1
REMARK VINA RESULT:      -5.7      0.000      0.000
REMARK  0 active torsions:
REMARK  status: ('A' for Active; 'I' for Inactive)
ROOT
HETATM    1  C1  UNL     1     -32.228   8.068   2.550  1.00 20.00     0.071 C 
HETATM    2  C2  UNL     1     -33.282   5.966   3.316  1.00 20.00     0.152 C 
HETATM    3  C3  UNL     1     -33.352   7.839   4.753  1.00 20.00     0.028 C 
HETATM    4  C4  UNL     1     -34.031   6.663   5.450  1.00 20.00     0.018 C 
HETATM    5  C5  UNL     1     -32.469   7.186   3.692  1.00 20.00     0.163 C 
HETATM    6  C6  UNL     1     -34.394   5.687   4.319  1.00 20.00     0.015 C 
HETATM    7  C7  UNL     1     -35.744   6.022   3.683  1.00 20.00     0.023 C 
HETATM    8  C8  UNL     1     -34.359   4.238   4.798  1.00 20.00     0.023 C 
HETATM    9  N9  UNL     1     -32.036   8.768   1.645  1.00 20.00    -0.196 NA
HETATM   10  O10 UNL     1     -33.068   5.279   2.323  1.00 20.00    -0.296 OA
ENDROOT
TORSDOF 0
ENDMDL
MODEL 2
REMARK VINA RESULT:      -4.1     11.185     12.279
REMARK  0 active torsions:
REMARK  status: ('A' for Active; 'I' for Inactive)
ROOT
HETATM    1  C1  UNL     1     -33.606  14.270  -4.240  1.00 20.00     0.071 C 
HETATM    2  C2  UNL     1     -35.963  14.003  -4.940  1.00 20.00     0.152 C 
HETATM    3  C3  UNL     1     -35.195  16.172  -4.409  1.00 20.00     0.028 C 
HETATM    4  C4  UNL     1     -36.673  16.255  -4.777  1.00 20.00     0.018 C 
HETATM    5  C5  UNL     1     -34.985  14.708  -4.026  1.00 20.00     0.163 C 
HETATM    6  C6  UNL     1     -36.958  14.969  -5.571  1.00 20.00     0.015 C 
HETATM    7  C7  UNL     1     -36.633  15.129  -7.057  1.00 20.00     0.023 C 
HETATM    8  C8  UNL     1     -38.395  14.495  -5.373  1.00 20.00     0.023 C 
HETATM    9  N9  UNL     1     -32.513  13.922  -4.410  1.00 20.00    -0.196 NA
HETATM   10  O10 UNL     1     -35.960  12.794  -5.145  1.00 20.00    -0.296 OA
ENDROOT
TORSDOF 0
ENDMDL
MODEL 3
REMARK VINA RESULT:      -4.1     11.689     12.531
REMARK  0 active torsions:
REMARK  status: ('A' for Active; 'I' for Inactive)
ROOT
HETATM    1  C1  UNL     1     -34.772  13.360  -6.664  1.00 20.00     0.071 C 
HETATM    2  C2  UNL     1     -34.281  14.596  -4.579  1.00 20.00     0.152 C 
HETATM    3  C3  UNL     1     -34.860  15.837  -6.503  1.00 20.00     0.028 C 
HETATM    4  C4  UNL     1     -34.573  16.810  -5.363  1.00 20.00     0.018 C 
HETATM    5  C5  UNL     1     -34.150  14.551  -6.086  1.00 20.00     0.163 C 
HETATM    6  C6  UNL     1     -34.708  15.971  -4.081  1.00 20.00     0.015 C 
HETATM    7  C7  UNL     1     -36.154  15.903  -3.589  1.00 20.00     0.023 C 
HETATM    8  C8  UNL     1     -33.779  16.476  -2.981  1.00 20.00     0.023 C 
HETATM    9  N9  UNL     1     -35.266  12.415  -7.122  1.00 20.00    -0.196 NA
HETATM   10  O10 UNL     1     -34.064  13.639  -3.843  1.00 20.00    -0.296 OA
ENDROOT
TORSDOF 0
ENDMDL
MODEL 4
REMARK VINA RESULT:      -4.1     11.841     12.768
REMARK  0 active torsions:
REMARK  status: ('A' for Active; 'I' for Inactive)
ROOT
HETATM    1  C1  UNL     1     -37.631  14.486  -5.363  1.00 20.00     0.071 C 
HETATM    2  C2  UNL     1     -35.202  14.498  -4.899  1.00 20.00     0.152 C 
HETATM    3  C3  UNL     1     -36.195  16.484  -5.702  1.00 20.00     0.028 C 
HETATM    4  C4  UNL     1     -34.699  16.724  -5.524  1.00 20.00     0.018 C 
HETATM    5  C5  UNL     1     -36.322  14.966  -5.804  1.00 20.00     0.163 C 
HETATM    6  C6  UNL     1     -34.232  15.621  -4.559  1.00 20.00     0.015 C 
HETATM    7  C7  UNL     1     -34.418  16.023  -3.095  1.00 20.00     0.023 C 
HETATM    8  C8  UNL     1     -32.788  15.212  -4.834  1.00 20.00     0.023 C 
HETATM    9  N9  UNL     1     -38.670  14.106  -5.014  1.00 20.00    -0.196 NA
HETATM   10  O10 UNL     1     -35.086  13.347  -4.492  1.00 20.00    -0.296 OA
ENDROOT
TORSDOF 0
ENDMDL
MODEL 5
REMARK VINA RESULT:      -4.0     11.827     13.265
REMARK  0 active torsions:
REMARK  status: ('A' for Active; 'I' for Inactive)
ROOT
HETATM    1  C1  UNL     1     -37.004  14.540  -4.684  1.00 20.00     0.071 C 
HETATM    2  C2  UNL     1     -35.482  16.461  -5.013  1.00 20.00     0.152 C 
HETATM    3  C3  UNL     1     -34.601  14.489  -4.059  1.00 20.00     0.028 C 
HETATM    4  C4  UNL     1     -33.491  15.534  -4.130  1.00 20.00     0.018 C 
HETATM    5  C5  UNL     1     -35.890  15.305  -4.126  1.00 20.00     0.163 C 
HETATM    6  C6  UNL     1     -33.970  16.551  -5.180  1.00 20.00     0.015 C 
HETATM    7  C7  UNL     1     -33.593  16.129  -6.601  1.00 20.00     0.023 C 
HETATM    8  C8  UNL     1     -33.459  17.955  -4.872  1.00 20.00     0.023 C 
HETATM    9  N9  UNL     1     -37.888  13.933  -5.127  1.00 20.00    -0.196 NA
HETATM   10  O10 UNL     1     -36.275  17.238  -5.534  1.00 20.00    -0.296 OA
ENDROOT
TORSDOF 0
ENDMDL
MODEL 6
REMARK VINA RESULT:      -4.0     11.707     12.536
REMARK  0 active torsions:
REMARK  status: ('A' for Active; 'I' for Inactive)
ROOT
HETATM    1  C1  UNL     1     -36.493  14.142  -5.034  1.00 20.00     0.071 C 
HETATM    2  C2  UNL     1     -35.286  15.769  -3.616  1.00 20.00     0.152 C 
HETATM    3  C3  UNL     1     -34.027  14.426  -5.094  1.00 20.00     0.028 C 
HETATM    4  C4  UNL     1     -33.069  15.319  -4.311  1.00 20.00     0.018 C 
HETATM    5  C5  UNL     1     -35.291  14.390  -4.239  1.00 20.00     0.163 C 
HETATM    6  C6  UNL     1     -33.943  16.468  -3.780  1.00 20.00     0.015 C 
HETATM    7  C7  UNL     1     -34.082  17.600  -4.798  1.00 20.00     0.023 C 
HETATM    8  C8  UNL     1     -33.424  16.994  -2.445  1.00 20.00     0.023 C 
HETATM    9  N9  UNL     1     -37.447  13.944  -5.664  1.00 20.00    -0.196 NA
HETATM   10  O10 UNL     1     -36.250  16.266  -3.043  1.00 20.00    -0.296 OA
ENDROOT
TORSDOF 0
ENDMDL
MODEL 7
REMARK VINA RESULT:      -4.0     11.654     12.643
REMARK  0 active torsions:
REMARK  status: ('A' for Active; 'I' for Inactive)
ROOT
HETATM    1  C1  UNL     1     -35.612  13.961  -5.211  1.00 20.00     0.071 C 
HETATM    2  C2  UNL     1     -34.251  15.736  -4.157  1.00 20.00     0.152 C 
HETATM    3  C3  UNL     1     -36.472  16.250  -4.773  1.00 20.00     0.028 C 
HETATM    4  C4  UNL     1     -35.829  17.500  -4.179  1.00 20.00     0.018 C 
HETATM    5  C5  UNL     1     -35.287  15.387  -5.203  1.00 20.00     0.163 C 
HETATM    6  C6  UNL     1     -34.630  16.982  -3.367  1.00 20.00     0.015 C 
HETATM    7  C7  UNL     1     -35.031  16.577  -1.947  1.00 20.00     0.023 C 
HETATM    8  C8  UNL     1     -33.490  17.995  -3.345  1.00 20.00     0.023 C 
HETATM    9  N9  UNL     1     -35.870  12.830  -5.218  1.00 20.00    -0.196 NA
HETATM   10  O10 UNL     1     -33.223  15.095  -3.970  1.00 20.00    -0.296 OA
ENDROOT
TORSDOF 0
ENDMDL
MODEL 8
REMARK VINA RESULT:      -4.0     11.566     12.288
REMARK  0 active torsions:
REMARK  status: ('A' for Active; 'I' for Inactive)
ROOT
HETATM    1  C1  UNL     1     -34.706  13.788  -5.592  1.00 20.00     0.071 C 
HETATM    2  C2  UNL     1     -35.639  15.341  -3.910  1.00 20.00     0.152 C 
HETATM    3  C3  UNL     1     -33.295  15.268  -4.183  1.00 20.00     0.028 C 
HETATM    4  C4  UNL     1     -33.626  16.266  -3.077  1.00 20.00     0.018 C 
HETATM    5  C5  UNL     1     -34.530  14.374  -4.264  1.00 20.00     0.163 C 
HETATM    6  C6  UNL     1     -35.103  16.631  -3.301  1.00 20.00     0.015 C 
HETATM    7  C7  UNL     1     -35.267  17.771  -4.307  1.00 20.00     0.023 C 
HETATM    8  C8  UNL     1     -35.804  16.957  -1.986  1.00 20.00     0.023 C 
HETATM    9  N9  UNL     1     -34.844  13.322  -6.646  1.00 20.00    -0.196 NA
HETATM   10  O10 UNL     1     -36.831  15.112  -4.088  1.00 20.00    -0.296 OA
ENDROOT
TORSDOF 0
ENDMDL
MODEL 9
REMARK VINA RESULT:      -3.9     11.718     12.802
REMARK  0 active torsions:
REMARK  status: ('A' for Active; 'I' for Inactive)
ROOT
HETATM    1  C1  UNL     1     -34.384  15.661  -3.301  1.00 20.00     0.071 C 
HETATM    2  C2  UNL     1     -33.934  15.108  -5.669  1.00 20.00     0.152 C 
HETATM    3  C3  UNL     1     -35.813  14.125  -4.630  1.00 20.00     0.028 C 
HETATM    4  C4  UNL     1     -35.725  13.612  -6.064  1.00 20.00     0.018 C 
HETATM    5  C5  UNL     1     -34.399  14.610  -4.317  1.00 20.00     0.163 C 
HETATM    6  C6  UNL     1     -34.841  14.634  -6.798  1.00 20.00     0.015 C 
HETATM    7  C7  UNL     1     -35.650  15.819  -7.326  1.00 20.00     0.023 C 
HETATM    8  C8  UNL     1     -34.038  13.978  -7.917  1.00 20.00     0.023 C 
HETATM    9  N9  UNL     1     -34.372  16.495  -2.494  1.00 20.00    -0.196 NA
HETATM   10  O10 UNL     1     -32.941  15.807  -5.837  1.00 20.00    -0.296 OA
ENDROOT
TORSDOF 0
ENDMDL
