MODEL 1
REMARK VINA RESULT:      -4.3      0.000      0.000
REMARK  3 active torsions:
REMARK  status: ('A' for Active; 'I' for Inactive)
REMARK    1  A    between atoms: C6_6  and  N8_8 
REMARK    2  A    between atoms: C6_6  and  O9_9 
REMARK    3  A    between atoms: C7_7  and  O9_9 
ROOT
HETATM    1  O9  UNL     1     -33.231   5.963   3.443  1.00 20.00    -0.352 OA
ENDROOT
BRANCH   1   2
HETATM    2  C6  UNL     1     -33.411   7.190   2.727  1.00 20.00     0.440 C 
BRANCH   2   3
HETATM    3  N8  UNL     1     -32.130   7.814   2.365  1.00 20.00     0.102 N 
HETATM    4  C4  UNL     1     -31.441   8.291   3.565  1.00 20.00     0.312 C 
HETATM    5  C5  UNL     1     -32.332   8.921   1.428  1.00 20.00     0.312 C 
ENDBRANCH   2   3
ENDBRANCH   1   2
BRANCH   1   6
HETATM    6  C7  UNL     1     -34.303   5.714   4.342  1.00 20.00     0.052 C 
HETATM    7  C1  UNL     1     -34.100   6.572   5.590  1.00 20.00     0.045 C 
HETATM    8  C2  UNL     1     -35.599   6.097   3.631  1.00 20.00     0.045 C 
HETATM    9  C3  UNL     1     -34.304   4.227   4.697  1.00 20.00     0.045 C 
ENDBRANCH   1   6
TORSDOF 3
ENDMDL
MODEL 2
REMARK VINA RESULT:      -4.3      0.011      1.451
REMARK  3 active torsions:
REMARK  status: ('A' for Active; 'I' for Inactive)
REMARK    1  A    between atoms: C6_6  and  N8_8 
REMARK    2  A    between atoms: C6_6  and  O9_9 
REMARK    3  A    between atoms: C7_7  and  O9_9 
ROOT
HETATM    1  O9  UNL     1     -33.222   5.963   3.462  1.00 20.00    -0.352 OA
ENDROOT
BRANCH   1   2
HETATM    2  C6  UNL     1     -33.405   7.179   2.727  1.00 20.00     0.440 C 
BRANCH   2   3
HETATM    3  N8  UNL     1     -32.125   7.807   2.368  1.00 20.00     0.102 N 
HETATM    4  C4  UNL     1     -31.442   8.290   3.569  1.00 20.00     0.312 C 
HETATM    5  C5  UNL     1     -32.329   8.911   1.427  1.00 20.00     0.312 C 
ENDBRANCH   2   3
ENDBRANCH   1   2
BRANCH   1   6
HETATM    6  C7  UNL     1     -34.309   5.708   4.340  1.00 20.00     0.052 C 
HETATM    7  C1  UNL     1     -34.306   4.223   4.702  1.00 20.00     0.045 C 
HETATM    8  C2  UNL     1     -34.105   6.566   5.588  1.00 20.00     0.045 C 
HETATM    9  C3  UNL     1     -35.607   6.093   3.631  1.00 20.00     0.045 C 
ENDBRANCH   1   6
TORSDOF 3
ENDMDL
MODEL 3
REMARK VINA RESULT:      -4.3      0.037      1.447
REMARK  3 active torsions:
REMARK  status: ('A' for Active; 'I' for Inactive)
REMARK    1  A    between atoms: C6_6  and  N8_8 
REMARK    2  A    between atoms: C6_6  and  O9_9 
REMARK    3  A    between atoms: C7_7  and  O9_9 
ROOT
HETATM    1  O9  UNL     1     -33.226   5.940   3.460  1.00 20.00    -0.352 OA
ENDROOT
BRANCH   1   2
HETATM    2  C6  UNL     1     -33.399   7.165   2.738  1.00 20.00     0.440 C 
BRANCH   2   3
HETATM    3  N8  UNL     1     -32.113   7.791   2.394  1.00 20.00     0.102 N 
HETATM    4  C4  UNL     1     -31.446   8.278   3.602  1.00 20.00     0.312 C 
HETATM    5  C5  UNL     1     -32.304   8.892   1.447  1.00 20.00     0.312 C 
ENDBRANCH   2   3
ENDBRANCH   1   2
BRANCH   1   6
HETATM    6  C7  UNL     1     -34.310   5.691   4.344  1.00 20.00     0.052 C 
HETATM    7  C1  UNL     1     -35.611   6.079   3.641  1.00 20.00     0.045 C 
HETATM    8  C2  UNL     1     -34.303   4.200   4.675  1.00 20.00     0.045 C 
HETATM    9  C3  UNL     1     -34.106   6.523   5.610  1.00 20.00     0.045 C 
ENDBRANCH   1   6
TORSDOF 3
ENDMDL
MODEL 4
REMARK VINA RESULT:      -3.9      1.884      4.660
REMARK  3 active torsions:
REMARK  status: ('A' for Active; 'I' for Inactive)
REMARK    1  A    between atoms: C6_6  and  N8_8 
REMARK    2  A    between atoms: C6_6  and  O9_9 
REMARK    3  A    between atoms: C7_7  and  O9_9 
ROOT
HETATM    1  O9  UNL     1     -33.189   8.433   1.771  1.00 20.00    -0.352 OA
ENDROOT
BRANCH   1   2
HETATM    2  C6  UNL     1     -32.293   7.940   2.775  1.00 20.00     0.440 C 
BRANCH   2   3
HETATM    3  N8  UNL     1     -32.864   6.809   3.521  1.00 20.00     0.102 N 
HETATM    4  C4  UNL     1     -33.748   6.025   2.657  1.00 20.00     0.312 C 
HETATM    5  C5  UNL     1     -33.597   7.276   4.699  1.00 20.00     0.312 C 
ENDBRANCH   2   3
ENDBRANCH   1   2
BRANCH   1   6
HETATM    6  C7  UNL     1     -32.528   9.287   0.848  1.00 20.00     0.052 C 
HETATM    7  C1  UNL     1     -33.292   9.256  -0.476  1.00 20.00     0.045 C 
HETATM    8  C2  UNL     1     -32.533  10.696   1.438  1.00 20.00     0.045 C 
HETATM    9  C3  UNL     1     -31.096   8.788   0.662  1.00 20.00     0.045 C 
ENDBRANCH   1   6
TORSDOF 3
ENDMDL
MODEL 5
REMARK VINA RESULT:      -3.7      1.451      4.277
REMARK  3 active torsions:
REMARK  status: ('A' for Active; 'I' for Inactive)
REMARK    1  A    between atoms: C6_6  and  N8_8 
REMARK    2  A    between atoms: C6_6  and  O9_9 
REMARK    3  A    between atoms: C7_7  and  O9_9 
ROOT
HETATM    1  O9  UNL     1     -33.236   7.800   2.013  1.00 20.00    -0.352 OA
ENDROOT
BRANCH   1   2
HETATM    2  C6  UNL     1     -33.008   6.961   3.152  1.00 20.00     0.440 C 
BRANCH   2   3
HETATM    3  N8  UNL     1     -34.163   6.937   4.062  1.00 20.00     0.102 N 
HETATM    4  C4  UNL     1     -33.730   7.188   5.438  1.00 20.00     0.312 C 
HETATM    5  C5  UNL     1     -34.866   5.654   3.982  1.00 20.00     0.312 C 
ENDBRANCH   2   3
ENDBRANCH   1   2
BRANCH   1   6
HETATM    6  C7  UNL     1     -32.194   8.750   1.841  1.00 20.00     0.052 C 
HETATM    7  C1  UNL     1     -32.819  10.138   1.699  1.00 20.00     0.045 C 
HETATM    8  C2  UNL     1     -31.303   8.687   3.080  1.00 20.00     0.045 C 
HETATM    9  C3  UNL     1     -31.400   8.380   0.590  1.00 20.00     0.045 C 
ENDBRANCH   1   6
TORSDOF 3
ENDMDL
MODEL 6
REMARK VINA RESULT:      -3.6      1.695      3.944
REMARK  3 active torsions:
REMARK  status: ('A' for Active; 'I' for Inactive)
REMARK    1  A    between atoms: C6_6  and  N8_8 
REMARK    2  A    between atoms: C6_6  and  O9_9 
REMARK    3  A    between atoms: C7_7  and  O9_9 
ROOT
HETATM    1  O9  UNL     1     -33.839   7.678   3.637  1.00 20.00    -0.352 OA
ENDROOT
BRANCH   1   2
HETATM    2  C6  UNL     1     -34.500   6.407   3.636  1.00 20.00     0.440 C 
BRANCH   2   3
HETATM    3  N8  UNL     1     -34.814   5.945   4.996  1.00 20.00     0.102 N 
HETATM    4  C4  UNL     1     -34.090   6.746   5.984  1.00 20.00     0.312 C 
HETATM    5  C5  UNL     1     -34.482   4.528   5.157  1.00 20.00     0.312 C 
ENDBRANCH   2   3
ENDBRANCH   1   2
BRANCH   1   6
HETATM    6  C7  UNL     1     -32.651   7.656   2.857  1.00 20.00     0.052 C 
HETATM    7  C1  UNL     1     -31.490   8.138   3.726  1.00 20.00     0.045 C 
HETATM    8  C2  UNL     1     -32.422   6.214   2.407  1.00 20.00     0.045 C 
HETATM    9  C3  UNL     1     -32.845   8.571   1.649  1.00 20.00     0.045 C 
ENDBRANCH   1   6
TORSDOF 3
ENDMDL
MODEL 7
REMARK VINA RESULT:      -3.5      1.504      1.817
REMARK  3 active torsions:
REMARK  status: ('A' for Active; 'I' for Inactive)
REMARK    1  A    between atoms: C6_6  and  N8_8 
REMARK    2  A    between atoms: C6_6  and  O9_9 
REMARK    3  A    between atoms: C7_7  and  O9_9 
ROOT
HETATM    1  O9  UNL     1     -33.870   7.869   2.964  1.00 20.00    -0.352 OA
ENDROOT
BRANCH   1   2
HETATM    2  C6  UNL     1     -32.558   8.210   2.502  1.00 20.00     0.440 C 
BRANCH   2   3
HETATM    3  N8  UNL     1     -32.587   8.881   1.194  1.00 20.00     0.102 N 
HETATM    4  C4  UNL     1     -31.305   8.711   0.508  1.00 20.00     0.312 C 
HETATM    5  C5  UNL     1     -32.893  10.305   1.342  1.00 20.00     0.312 C 
ENDBRANCH   2   3
ENDBRANCH   1   2
BRANCH   1   6
HETATM    6  C7  UNL     1     -33.865   6.675   3.734  1.00 20.00     0.052 C 
HETATM    7  C1  UNL     1     -33.481   7.025   5.172  1.00 20.00     0.045 C 
HETATM    8  C2  UNL     1     -35.274   6.086   3.683  1.00 20.00     0.045 C 
HETATM    9  C3  UNL     1     -32.855   5.706   3.121  1.00 20.00     0.045 C 
ENDBRANCH   1   6
TORSDOF 3
ENDMDL
MODEL 8
REMARK VINA RESULT:      -3.5      1.495      2.193
REMARK  3 active torsions:
REMARK  status: ('A' for Active; 'I' for Inactive)
REMARK    1  A    between atoms: C6_6  and  N8_8 
REMARK    2  A    between atoms: C6_6  and  O9_9 
REMARK    3  A    between atoms: C7_7  and  O9_9 
ROOT
HETATM    1  O9  UNL     1     -33.857   7.877   3.014  1.00 20.00    -0.352 OA
ENDROOT
BRANCH   1   2
HETATM    2  C6  UNL     1     -32.547   8.195   2.529  1.00 20.00     0.440 C 
BRANCH   2   3
HETATM    3  N8  UNL     1     -32.587   8.859   1.217  1.00 20.00     0.102 N 
HETATM    4  C4  UNL     1     -31.313   8.681   0.519  1.00 20.00     0.312 C 
HETATM    5  C5  UNL     1     -32.886  10.286   1.362  1.00 20.00     0.312 C 
ENDBRANCH   2   3
ENDBRANCH   1   2
BRANCH   1   6
HETATM    6  C7  UNL     1     -33.869   6.653   3.736  1.00 20.00     0.052 C 
HETATM    7  C1  UNL     1     -32.862   5.699   3.095  1.00 20.00     0.045 C 
HETATM    8  C2  UNL     1     -33.471   6.965   5.178  1.00 20.00     0.045 C 
HETATM    9  C3  UNL     1     -35.281   6.072   3.683  1.00 20.00     0.045 C 
ENDBRANCH   1   6
TORSDOF 3
ENDMDL
MODEL 9
REMARK VINA RESULT:      -3.2     11.268     12.319
REMARK  3 active torsions:
REMARK  status: ('A' for Active; 'I' for Inactive)
REMARK    1  A    between atoms: C6_6  and  N8_8 
REMARK    2  A    between atoms: C6_6  and  O9_9 
REMARK    3  A    between atoms: C7_7  and  O9_9 
ROOT
HETATM    1  O9  UNL     1     -35.212  15.184  -4.386  1.00 20.00    -0.352 OA
ENDROOT
BRANCH   1   2
HETATM    2  C6  UNL     1     -35.212  13.772  -4.631  1.00 20.00     0.440 C 
BRANCH   2   3
HETATM    3  N8  UNL     1     -36.062  13.408  -5.775  1.00 20.00     0.102 N 
HETATM    4  C4  UNL     1     -35.253  13.284  -6.988  1.00 20.00     0.312 C 
HETATM    5  C5  UNL     1     -37.122  14.398  -5.976  1.00 20.00     0.312 C 
ENDBRANCH   2   3
ENDBRANCH   1   2
BRANCH   1   6
HETATM    6  C7  UNL     1     -33.893  15.705  -4.301  1.00 20.00     0.052 C 
HETATM    7  C1  UNL     1     -33.665  16.644  -5.485  1.00 20.00     0.045 C 
HETATM    8  C2  UNL     1     -33.782  16.466  -2.982  1.00 20.00     0.045 C 
HETATM    9  C3  UNL     1     -32.907  14.538  -4.333  1.00 20.00     0.045 C 
ENDBRANCH   1   6
TORSDOF 3
ENDMDL
