MODEL 1
REMARK VINA RESULT:      -4.9      0.000      0.000
REMARK  0 active torsions:
REMARK  status: ('A' for Active; 'I' for Inactive)
ROOT
HETATM    1  C1  UNL     1     -33.828   7.121   6.147  1.00 20.00     0.003 C 
HETATM    2  C2  UNL     1     -34.555   5.803   5.901  1.00 20.00     0.001 C 
HETATM    3  C3  UNL     1     -33.792   7.982   4.888  1.00 20.00     0.041 C 
HETATM    4  C4  UNL     1     -33.940   5.035   4.729  1.00 20.00     0.012 C 
HETATM    5  C5  UNL     1     -31.792   7.565   3.291  1.00 20.00     0.207 A 
HETATM    6  C6  UNL     1     -33.202   7.208   3.735  1.00 20.00     0.089 A 
HETATM    7  C7  UNL     1     -33.861   5.861   3.417  1.00 20.00    -0.014 C 
HETATM    8  C8  UNL     1     -33.075   5.024   2.386  1.00 20.00     0.018 C 
HETATM    9  C9  UNL     1     -35.276   6.085   2.838  1.00 20.00     0.018 C 
HETATM   10  O10 UNL     1     -32.947   8.026   2.579  1.00 20.00    -0.374 OA
ENDROOT
TORSDOF 0
ENDMDL
MODEL 2
REMARK VINA RESULT:      -4.4     11.909     13.042
REMARK  0 active torsions:
REMARK  status: ('A' for Active; 'I' for Inactive)
ROOT
HETATM    1  C1  UNL     1     -33.661  15.331  -4.069  1.00 20.00     0.003 C 
HETATM    2  C2  UNL     1     -33.065  15.680  -5.430  1.00 20.00     0.001 C 
HETATM    3  C3  UNL     1     -34.605  14.138  -4.163  1.00 20.00     0.041 C 
HETATM    4  C4  UNL     1     -34.158  15.926  -6.473  1.00 20.00     0.012 C 
HETATM    5  C5  UNL     1     -37.075  14.692  -4.726  1.00 20.00     0.207 A 
HETATM    6  C6  UNL     1     -35.667  14.383  -5.207  1.00 20.00     0.089 A 
HETATM    7  C7  UNL     1     -35.164  14.752  -6.608  1.00 20.00    -0.014 C 
HETATM    8  C8  UNL     1     -36.289  15.209  -7.561  1.00 20.00     0.018 C 
HETATM    9  C9  UNL     1     -34.479  13.532  -7.265  1.00 20.00     0.018 C 
HETATM   10  O10 UNL     1     -36.708  13.390  -5.198  1.00 20.00    -0.374 OA
ENDROOT
TORSDOF 0
ENDMDL
MODEL 3
REMARK VINA RESULT:      -4.3      1.322      2.396
REMARK  0 active torsions:
REMARK  status: ('A' for Active; 'I' for Inactive)
ROOT
HETATM    1  C1  UNL     1     -34.242   4.101   4.927  1.00 20.00     0.003 C 
HETATM    2  C2  UNL     1     -33.807   3.859   3.485  1.00 20.00     0.001 C 
HETATM    3  C3  UNL     1     -34.871   5.480   5.096  1.00 20.00     0.041 C 
HETATM    4  C4  UNL     1     -32.861   4.957   2.994  1.00 20.00     0.012 C 
HETATM    5  C5  UNL     1     -33.227   7.415   5.623  1.00 20.00     0.207 A 
HETATM    6  C6  UNL     1     -33.938   6.553   4.592  1.00 20.00     0.089 A 
HETATM    7  C7  UNL     1     -33.436   6.390   3.152  1.00 20.00    -0.014 C 
HETATM    8  C8  UNL     1     -32.318   7.385   2.778  1.00 20.00     0.018 C 
HETATM    9  C9  UNL     1     -34.597   6.614   2.157  1.00 20.00     0.018 C 
HETATM   10  O10 UNL     1     -34.381   7.883   4.914  1.00 20.00    -0.374 OA
ENDROOT
TORSDOF 0
ENDMDL
MODEL 4
REMARK VINA RESULT:      -4.2      1.309      2.312
REMARK  0 active torsions:
REMARK  status: ('A' for Active; 'I' for Inactive)
ROOT
HETATM    1  C1  UNL     1     -32.376   7.890   4.097  1.00 20.00     0.003 C 
HETATM    2  C2  UNL     1     -33.408   7.857   5.221  1.00 20.00     0.001 C 
HETATM    3  C3  UNL     1     -32.897   7.200   2.841  1.00 20.00     0.041 C 
HETATM    4  C4  UNL     1     -33.857   6.426   5.526  1.00 20.00     0.012 C 
HETATM    5  C5  UNL     1     -32.476   4.646   2.697  1.00 20.00     0.207 A 
HETATM    6  C6  UNL     1     -33.354   5.797   3.158  1.00 20.00     0.089 A 
HETATM    7  C7  UNL     1     -34.386   5.661   4.284  1.00 20.00    -0.014 C 
HETATM    8  C8  UNL     1     -34.637   4.199   4.709  1.00 20.00     0.018 C 
HETATM    9  C9  UNL     1     -35.744   6.245   3.834  1.00 20.00     0.018 C 
HETATM   10  O10 UNL     1     -33.659   5.025   1.983  1.00 20.00    -0.374 OA
ENDROOT
TORSDOF 0
ENDMDL
MODEL 5
REMARK VINA RESULT:      -4.2     11.801     12.907
REMARK  0 active torsions:
REMARK  status: ('A' for Active; 'I' for Inactive)
ROOT
HETATM    1  C1  UNL     1     -37.122  14.569  -4.769  1.00 20.00     0.003 C 
HETATM    2  C2  UNL     1     -36.328  15.651  -4.042  1.00 20.00     0.001 C 
HETATM    3  C3  UNL     1     -36.210  13.460  -5.284  1.00 20.00     0.041 C 
HETATM    4  C4  UNL     1     -35.217  16.220  -4.927  1.00 20.00     0.012 C 
HETATM    5  C5  UNL     1     -35.200  13.831  -7.643  1.00 20.00     0.207 A 
HETATM    6  C6  UNL     1     -35.108  14.035  -6.139  1.00 20.00     0.089 A 
HETATM    7  C7  UNL     1     -34.260  15.139  -5.497  1.00 20.00    -0.014 C 
HETATM    8  C8  UNL     1     -33.310  15.837  -6.492  1.00 20.00     0.018 C 
HETATM    9  C9  UNL     1     -33.386  14.549  -4.369  1.00 20.00     0.018 C 
HETATM   10  O10 UNL     1     -34.342  13.028  -6.824  1.00 20.00    -0.374 OA
ENDROOT
TORSDOF 0
ENDMDL
MODEL 6
REMARK VINA RESULT:      -3.9     12.270     13.417
REMARK  0 active torsions:
REMARK  status: ('A' for Active; 'I' for Inactive)
ROOT
HETATM    1  C1  UNL     1     -33.924  16.883  -6.839  1.00 20.00     0.003 C 
HETATM    2  C2  UNL     1     -35.055  16.379  -7.732  1.00 20.00     0.001 C 
HETATM    3  C3  UNL     1     -33.192  15.728  -6.163  1.00 20.00     0.041 C 
HETATM    4  C4  UNL     1     -36.029  15.491  -6.954  1.00 20.00     0.012 C 
HETATM    5  C5  UNL     1     -34.175  14.938  -3.898  1.00 20.00     0.207 A 
HETATM    6  C6  UNL     1     -34.164  14.850  -5.415  1.00 20.00     0.089 A 
HETATM    7  C7  UNL     1     -35.343  14.303  -6.228  1.00 20.00    -0.014 C 
HETATM    8  C8  UNL     1     -36.413  13.607  -5.361  1.00 20.00     0.018 C 
HETATM    9  C9  UNL     1     -34.844  13.264  -7.256  1.00 20.00     0.018 C 
HETATM   10  O10 UNL     1     -33.515  13.869  -4.587  1.00 20.00    -0.374 OA
ENDROOT
TORSDOF 0
ENDMDL
MODEL 7
REMARK VINA RESULT:      -3.9     12.044     13.150
REMARK  0 active torsions:
REMARK  status: ('A' for Active; 'I' for Inactive)
ROOT
HETATM    1  C1  UNL     1     -34.578  15.812  -3.234  1.00 20.00     0.003 C 
HETATM    2  C2  UNL     1     -34.520  17.084  -4.075  1.00 20.00     0.001 C 
HETATM    3  C3  UNL     1     -34.160  14.588  -4.043  1.00 20.00     0.041 C 
HETATM    4  C4  UNL     1     -35.362  16.952  -5.347  1.00 20.00     0.012 C 
HETATM    5  C5  UNL     1     -36.053  13.401  -5.358  1.00 20.00     0.207 A 
HETATM    6  C6  UNL     1     -34.983  14.479  -5.303  1.00 20.00     0.089 A 
HETATM    7  C7  UNL     1     -34.995  15.715  -6.211  1.00 20.00    -0.014 C 
HETATM    8  C8  UNL     1     -36.027  15.623  -7.354  1.00 20.00     0.018 C 
HETATM    9  C9  UNL     1     -33.608  15.909  -6.863  1.00 20.00     0.018 C 
HETATM   10  O10 UNL     1     -34.783  13.238  -6.001  1.00 20.00    -0.374 OA
ENDROOT
TORSDOF 0
ENDMDL
MODEL 8
REMARK VINA RESULT:      -3.9     11.842     12.821
REMARK  0 active torsions:
REMARK  status: ('A' for Active; 'I' for Inactive)
ROOT
HETATM    1  C1  UNL     1     -36.093  17.039  -2.535  1.00 20.00     0.003 C 
HETATM    2  C2  UNL     1     -34.754  16.497  -2.041  1.00 20.00     0.001 C 
HETATM    3  C3  UNL     1     -36.617  16.235  -3.719  1.00 20.00     0.041 C 
HETATM    4  C4  UNL     1     -33.722  16.445  -3.170  1.00 20.00     0.012 C 
HETATM    5  C5  UNL     1     -35.821  17.020  -6.059  1.00 20.00     0.207 A 
HETATM    6  C6  UNL     1     -35.584  16.175  -4.818  1.00 20.00     0.089 A 
HETATM    7  C7  UNL     1     -34.200  15.652  -4.416  1.00 20.00    -0.014 C 
HETATM    8  C8  UNL     1     -33.136  15.829  -5.518  1.00 20.00     0.018 C 
HETATM    9  C9  UNL     1     -34.276  14.143  -4.093  1.00 20.00     0.018 C 
HETATM   10  O10 UNL     1     -36.093  15.613  -6.040  1.00 20.00    -0.374 OA
ENDROOT
TORSDOF 0
ENDMDL
MODEL 9
REMARK VINA RESULT:      -3.8     12.044     13.166
REMARK  0 active torsions:
REMARK  status: ('A' for Active; 'I' for Inactive)
ROOT
HETATM    1  C1  UNL     1     -32.871  15.553  -5.435  1.00 20.00     0.003 C 
HETATM    2  C2  UNL     1     -33.251  14.552  -4.347  1.00 20.00     0.001 C 
HETATM    3  C3  UNL     1     -33.519  16.912  -5.194  1.00 20.00     0.041 C 
HETATM    4  C4  UNL     1     -34.770  14.421  -4.215  1.00 20.00     0.012 C 
HETATM    5  C5  UNL     1     -35.887  17.229  -6.201  1.00 20.00     0.207 A 
HETATM    6  C6  UNL     1     -35.014  16.767  -5.046  1.00 20.00     0.089 A 
HETATM    7  C7  UNL     1     -35.495  15.774  -3.982  1.00 20.00    -0.014 C 
HETATM    8  C8  UNL     1     -37.013  15.505  -4.038  1.00 20.00     0.018 C 
HETATM    9  C9  UNL     1     -35.179  16.314  -2.570  1.00 20.00     0.018 C 
HETATM   10  O10 UNL     1     -35.703  18.030  -5.027  1.00 20.00    -0.374 OA
ENDROOT
TORSDOF 0
ENDMDL
