MODEL 1
REMARK VINA RESULT:      -5.0      0.000      0.000
REMARK  1 active torsions:
REMARK  status: ('A' for Active; 'I' for Inactive)
REMARK    1  A    between atoms: C1_1  and  C3_3 
ROOT
HETATM    1  C1  UNL     1     -33.657   6.621   3.759  1.00 20.00     0.035 C 
HETATM    2  C2  UNL     1     -33.183   7.393   4.736  1.00 20.00     0.053 C 
HETATM    3  C4  UNL     1     -32.955   6.934   2.496  1.00 20.00     0.073 C 
HETATM    4  C5  UNL     1     -31.812   7.793   3.022  1.00 20.00     0.180 C 
HETATM    5  C6  UNL     1     -33.583   7.475   6.166  1.00 20.00     0.077 C 
HETATM    6  O8  UNL     1     -32.170   8.266   4.335  1.00 20.00    -0.355 OA
ENDROOT
BRANCH   1   7
HETATM    7  C3  UNL     1     -34.707   5.621   3.851  1.00 20.00     0.250 C 
HETATM    8  O7  UNL     1     -35.880   5.943   3.607  1.00 20.00    -0.274 OA
HETATM    9 CL9  UNL     1     -34.232   3.994   4.312  1.00 20.00    -0.039 Cl
ENDBRANCH   1   7
TORSDOF 1
ENDMDL
MODEL 2
REMARK VINA RESULT:      -4.9      2.179      3.837
REMARK  1 active torsions:
REMARK  status: ('A' for Active; 'I' for Inactive)
REMARK    1  A    between atoms: C1_1  and  C3_3 
ROOT
HETATM    1  C1  UNL     1     -33.198   6.935   3.976  1.00 20.00     0.035 C 
HETATM    2  C2  UNL     1     -33.552   5.704   3.609  1.00 20.00     0.053 C 
HETATM    3  C4  UNL     1     -33.894   7.298   5.228  1.00 20.00     0.073 C 
HETATM    4  C5  UNL     1     -34.452   5.941   5.637  1.00 20.00     0.180 C 
HETATM    5  C6  UNL     1     -33.150   4.912   2.417  1.00 20.00     0.077 C 
HETATM    6  O8  UNL     1     -34.454   5.086   4.477  1.00 20.00    -0.355 OA
ENDROOT
BRANCH   1   7
HETATM    7  C3  UNL     1     -32.287   7.836   3.290  1.00 20.00     0.250 C 
HETATM    8  O7  UNL     1     -31.238   8.188   3.851  1.00 20.00    -0.274 OA
HETATM    9 CL9  UNL     1     -32.746   8.375   1.682  1.00 20.00    -0.039 Cl
ENDBRANCH   1   7
TORSDOF 1
ENDMDL
MODEL 3
REMARK VINA RESULT:      -4.8      2.232      3.148
REMARK  1 active torsions:
REMARK  status: ('A' for Active; 'I' for Inactive)
REMARK    1  A    between atoms: C1_1  and  C3_3 
ROOT
HETATM    1  C1  UNL     1     -33.409   6.501   3.749  1.00 20.00     0.035 C 
HETATM    2  C2  UNL     1     -33.829   6.531   5.013  1.00 20.00     0.053 C 
HETATM    3  C4  UNL     1     -33.704   5.178   3.161  1.00 20.00     0.073 C 
HETATM    4  C5  UNL     1     -34.625   4.601   4.227  1.00 20.00     0.180 C 
HETATM    5  C6  UNL     1     -33.734   7.617   6.025  1.00 20.00     0.077 C 
HETATM    6  O8  UNL     1     -34.430   5.347   5.445  1.00 20.00    -0.355 OA
ENDROOT
BRANCH   1   7
HETATM    7  C3  UNL     1     -32.746   7.563   3.012  1.00 20.00     0.250 C 
HETATM    8  O7  UNL     1     -33.222   7.946   1.932  1.00 20.00    -0.274 OA
HETATM    9 CL9  UNL     1     -31.286   8.242   3.714  1.00 20.00    -0.039 Cl
ENDBRANCH   1   7
TORSDOF 1
ENDMDL
MODEL 4
REMARK VINA RESULT:      -4.2      1.366      2.365
REMARK  1 active torsions:
REMARK  status: ('A' for Active; 'I' for Inactive)
REMARK    1  A    between atoms: C1_1  and  C3_3 
ROOT
HETATM    1  C1  UNL     1     -33.628   6.421   3.939  1.00 20.00     0.035 C 
HETATM    2  C2  UNL     1     -32.789   7.435   4.146  1.00 20.00     0.053 C 
HETATM    3  C4  UNL     1     -34.328   6.091   5.198  1.00 20.00     0.073 C 
HETATM    4  C5  UNL     1     -33.946   7.295   6.049  1.00 20.00     0.180 C 
HETATM    5  C6  UNL     1     -31.850   8.103   3.208  1.00 20.00     0.077 C 
HETATM    6  O8  UNL     1     -32.791   7.919   5.456  1.00 20.00    -0.355 OA
ENDROOT
BRANCH   1   7
HETATM    7  C3  UNL     1     -33.855   5.700   2.697  1.00 20.00     0.250 C 
HETATM    8  O7  UNL     1     -34.741   6.086   1.920  1.00 20.00    -0.274 OA
HETATM    9 CL9  UNL     1     -32.838   4.303   2.379  1.00 20.00    -0.039 Cl
ENDBRANCH   1   7
TORSDOF 1
ENDMDL
MODEL 5
REMARK VINA RESULT:      -4.2      1.777      2.486
REMARK  1 active torsions:
REMARK  status: ('A' for Active; 'I' for Inactive)
REMARK    1  A    between atoms: C1_1  and  C3_3 
ROOT
HETATM    1  C1  UNL     1     -33.120   7.228   4.251  1.00 20.00     0.035 C 
HETATM    2  C2  UNL     1     -33.295   6.747   3.021  1.00 20.00     0.053 C 
HETATM    3  C4  UNL     1     -32.013   8.208   4.247  1.00 20.00     0.073 C 
HETATM    4  C5  UNL     1     -31.819   8.398   2.749  1.00 20.00     0.180 C 
HETATM    5  C6  UNL     1     -34.254   5.726   2.524  1.00 20.00     0.077 C 
HETATM    6  O8  UNL     1     -32.423   7.280   2.069  1.00 20.00    -0.355 OA
ENDROOT
BRANCH   1   7
HETATM    7  C3  UNL     1     -33.858   6.876   5.453  1.00 20.00     0.250 C 
HETATM    8  O7  UNL     1     -33.980   7.712   6.361  1.00 20.00    -0.274 OA
HETATM    9 CL9  UNL     1     -34.538   5.259   5.535  1.00 20.00    -0.039 Cl
ENDBRANCH   1   7
TORSDOF 1
ENDMDL
MODEL 6
REMARK VINA RESULT:      -4.1      2.365      3.227
REMARK  1 active torsions:
REMARK  status: ('A' for Active; 'I' for Inactive)
REMARK    1  A    between atoms: C1_1  and  C3_3 
ROOT
HETATM    1  C1  UNL     1     -33.534   6.564   4.138  1.00 20.00     0.035 C 
HETATM    2  C2  UNL     1     -34.209   5.658   4.844  1.00 20.00     0.053 C 
HETATM    3  C4  UNL     1     -33.417   7.814   4.918  1.00 20.00     0.073 C 
HETATM    4  C5  UNL     1     -33.882   7.330   6.285  1.00 20.00     0.180 C 
HETATM    5  C6  UNL     1     -34.608   4.272   4.485  1.00 20.00     0.077 C 
HETATM    6  O8  UNL     1     -34.614   6.102   6.105  1.00 20.00    -0.355 OA
ENDROOT
BRANCH   1   7
HETATM    7  C3  UNL     1     -32.984   6.414   2.801  1.00 20.00     0.250 C 
HETATM    8  O7  UNL     1     -32.845   5.277   2.323  1.00 20.00    -0.274 OA
HETATM    9 CL9  UNL     1     -32.546   7.880   1.940  1.00 20.00    -0.039 Cl
ENDBRANCH   1   7
TORSDOF 1
ENDMDL
MODEL 7
REMARK VINA RESULT:      -4.1     11.845     12.629
REMARK  1 active torsions:
REMARK  status: ('A' for Active; 'I' for Inactive)
REMARK    1  A    between atoms: C1_1  and  C3_3 
ROOT
HETATM    1  C1  UNL     1     -34.899  14.671  -5.041  1.00 20.00     0.035 C 
HETATM    2  C2  UNL     1     -34.082  15.031  -6.029  1.00 20.00     0.053 C 
HETATM    3  C4  UNL     1     -34.473  15.321  -3.784  1.00 20.00     0.073 C 
HETATM    4  C5  UNL     1     -33.469  16.332  -4.323  1.00 20.00     0.180 C 
HETATM    5  C6  UNL     1     -34.076  14.625  -7.459  1.00 20.00     0.077 C 
HETATM    6  O8  UNL     1     -33.069  15.911  -5.642  1.00 20.00    -0.355 OA
ENDROOT
BRANCH   1   7
HETATM    7  C3  UNL     1     -36.038  13.772  -5.118  1.00 20.00     0.250 C 
HETATM    8  O7  UNL     1     -35.847  12.556  -5.278  1.00 20.00    -0.274 OA
HETATM    9 CL9  UNL     1     -37.638  14.483  -4.978  1.00 20.00    -0.039 Cl
ENDBRANCH   1   7
TORSDOF 1
ENDMDL
MODEL 8
REMARK VINA RESULT:      -4.0      1.331      2.197
REMARK  1 active torsions:
REMARK  status: ('A' for Active; 'I' for Inactive)
REMARK    1  A    between atoms: C1_1  and  C3_3 
ROOT
HETATM    1  C1  UNL     1     -33.672   6.448   3.907  1.00 20.00     0.035 C 
HETATM    2  C2  UNL     1     -32.882   6.002   2.932  1.00 20.00     0.053 C 
HETATM    3  C4  UNL     1     -33.158   7.738   4.411  1.00 20.00     0.073 C 
HETATM    4  C5  UNL     1     -32.126   8.061   3.338  1.00 20.00     0.180 C 
HETATM    5  C6  UNL     1     -32.962   4.747   2.137  1.00 20.00     0.077 C 
HETATM    6  O8  UNL     1     -31.808   6.843   2.636  1.00 20.00    -0.355 OA
ENDROOT
BRANCH   1   7
HETATM    7  C3  UNL     1     -34.860   5.807   4.446  1.00 20.00     0.250 C 
HETATM    8  O7  UNL     1     -35.929   5.878   3.820  1.00 20.00    -0.274 OA
HETATM    9 CL9  UNL     1     -34.696   4.962   5.977  1.00 20.00    -0.039 Cl
ENDBRANCH   1   7
TORSDOF 1
ENDMDL
MODEL 9
REMARK VINA RESULT:      -3.9     11.810     12.178
REMARK  1 active torsions:
REMARK  status: ('A' for Active; 'I' for Inactive)
REMARK    1  A    between atoms: C1_1  and  C3_3 
ROOT
HETATM    1  C1  UNL     1     -35.578  14.772  -4.499  1.00 20.00     0.035 C 
HETATM    2  C2  UNL     1     -34.377  15.050  -3.995  1.00 20.00     0.053 C 
HETATM    3  C4  UNL     1     -36.601  15.599  -3.827  1.00 20.00     0.073 C 
HETATM    4  C5  UNL     1     -35.712  16.588  -3.084  1.00 20.00     0.180 C 
HETATM    5  C6  UNL     1     -33.048  14.467  -4.317  1.00 20.00     0.077 C 
HETATM    6  O8  UNL     1     -34.388  16.028  -2.997  1.00 20.00    -0.355 OA
ENDROOT
BRANCH   1   7
HETATM    7  C3  UNL     1     -35.900  13.808  -5.538  1.00 20.00     0.250 C 
HETATM    8  O7  UNL     1     -35.901  12.597  -5.268  1.00 20.00    -0.274 OA
HETATM    9 CL9  UNL     1     -36.269  14.437  -7.136  1.00 20.00    -0.039 Cl
ENDBRANCH   1   7
TORSDOF 1
ENDMDL
