MODEL 1
REMARK VINA RESULT:      -4.6      0.000      0.000
REMARK  0 active torsions:
REMARK  status: ('A' for Active; 'I' for Inactive)
ROOT
HETATM    1  C1  UNL     1     -34.160   6.302   5.158  1.00 20.00    -0.064 C 
HETATM    2  C2  UNL     1     -33.837   7.337   5.939  1.00 20.00     0.016 C 
HETATM    3  C3  UNL     1     -34.077   6.271   3.672  1.00 20.00     0.061 C 
HETATM    4  C4  UNL     1     -34.587   4.956   5.635  1.00 20.00     0.201 C 
HETATM    5  C5  UNL     1     -33.901   4.785   3.439  1.00 20.00     0.172 C 
HETATM    6  O6  UNL     1     -34.688   4.142   4.451  1.00 20.00    -0.387 OA
ENDROOT
TORSDOF 0
ENDMDL
MODEL 2
REMARK VINA RESULT:      -4.4      1.422      2.232
REMARK  0 active torsions:
REMARK  status: ('A' for Active; 'I' for Inactive)
ROOT
HETATM    1  C1  UNL     1     -33.740   6.828   3.997  1.00 20.00    -0.064 C 
HETATM    2  C2  UNL     1     -33.024   7.343   2.992  1.00 20.00     0.016 C 
HETATM    3  C3  UNL     1     -34.713   5.706   3.891  1.00 20.00     0.061 C 
HETATM    4  C4  UNL     1     -33.636   7.229   5.428  1.00 20.00     0.201 C 
HETATM    5  C5  UNL     1     -34.663   5.167   5.305  1.00 20.00     0.172 C 
HETATM    6  O6  UNL     1     -34.485   6.315   6.147  1.00 20.00    -0.387 OA
ENDROOT
TORSDOF 0
ENDMDL
MODEL 3
REMARK VINA RESULT:      -4.2      1.699      2.587
REMARK  0 active torsions:
REMARK  status: ('A' for Active; 'I' for Inactive)
ROOT
HETATM    1  C1  UNL     1     -34.284   5.954   4.871  1.00 20.00    -0.064 C 
HETATM    2  C2  UNL     1     -34.742   4.924   5.590  1.00 20.00     0.016 C 
HETATM    3  C3  UNL     1     -33.716   7.216   5.419  1.00 20.00     0.061 C 
HETATM    4  C4  UNL     1     -34.182   5.996   3.385  1.00 20.00     0.201 C 
HETATM    5  C5  UNL     1     -32.818   7.631   4.272  1.00 20.00     0.172 C 
HETATM    6  O6  UNL     1     -33.509   7.232   3.080  1.00 20.00    -0.387 OA
ENDROOT
TORSDOF 0
ENDMDL
MODEL 4
REMARK VINA RESULT:      -4.2      1.346      1.912
REMARK  0 active torsions:
REMARK  status: ('A' for Active; 'I' for Inactive)
ROOT
HETATM    1  C1  UNL     1     -33.829   6.840   5.113  1.00 20.00    -0.064 C 
HETATM    2  C2  UNL     1     -33.480   7.636   6.128  1.00 20.00     0.016 C 
HETATM    3  C3  UNL     1     -34.665   5.612   5.215  1.00 20.00     0.061 C 
HETATM    4  C4  UNL     1     -33.513   7.078   3.676  1.00 20.00     0.201 C 
HETATM    5  C5  UNL     1     -35.244   5.560   3.816  1.00 20.00     0.172 C 
HETATM    6  O6  UNL     1     -34.206   6.043   2.953  1.00 20.00    -0.387 OA
ENDROOT
TORSDOF 0
ENDMDL
MODEL 5
REMARK VINA RESULT:      -4.1      1.303      2.297
REMARK  0 active torsions:
REMARK  status: ('A' for Active; 'I' for Inactive)
ROOT
HETATM    1  C1  UNL     1     -33.202   6.711   3.303  1.00 20.00    -0.064 C 
HETATM    2  C2  UNL     1     -32.628   7.698   2.608  1.00 20.00     0.016 C 
HETATM    3  C3  UNL     1     -33.924   6.859   4.596  1.00 20.00     0.061 C 
HETATM    4  C4  UNL     1     -33.298   5.288   2.869  1.00 20.00     0.201 C 
HETATM    5  C5  UNL     1     -34.857   5.668   4.527  1.00 20.00     0.172 C 
HETATM    6  O6  UNL     1     -34.113   4.637   3.862  1.00 20.00    -0.387 OA
ENDROOT
TORSDOF 0
ENDMDL
MODEL 6
REMARK VINA RESULT:      -4.0      2.157      2.743
REMARK  0 active torsions:
REMARK  status: ('A' for Active; 'I' for Inactive)
ROOT
HETATM    1  C1  UNL     1     -34.036   6.160   4.095  1.00 20.00    -0.064 C 
HETATM    2  C2  UNL     1     -35.126   5.451   4.404  1.00 20.00     0.016 C 
HETATM    3  C3  UNL     1     -33.257   6.058   2.831  1.00 20.00     0.061 C 
HETATM    4  C4  UNL     1     -33.444   7.246   4.927  1.00 20.00     0.201 C 
HETATM    5  C5  UNL     1     -32.651   7.445   2.770  1.00 20.00     0.172 C 
HETATM    6  O6  UNL     1     -32.382   7.805   4.133  1.00 20.00    -0.387 OA
ENDROOT
TORSDOF 0
ENDMDL
MODEL 7
REMARK VINA RESULT:      -3.9      1.295      2.451
REMARK  0 active torsions:
REMARK  status: ('A' for Active; 'I' for Inactive)
ROOT
HETATM    1  C1  UNL     1     -33.953   6.171   3.769  1.00 20.00    -0.064 C 
HETATM    2  C2  UNL     1     -34.040   6.106   2.437  1.00 20.00     0.016 C 
HETATM    3  C3  UNL     1     -33.200   7.194   4.546  1.00 20.00     0.061 C 
HETATM    4  C4  UNL     1     -34.663   5.279   4.728  1.00 20.00     0.201 C 
HETATM    5  C5  UNL     1     -33.977   7.177   5.845  1.00 20.00     0.172 C 
HETATM    6  O6  UNL     1     -34.378   5.812   6.035  1.00 20.00    -0.387 OA
ENDROOT
TORSDOF 0
ENDMDL
MODEL 8
REMARK VINA RESULT:      -3.5      2.018      2.971
REMARK  0 active torsions:
REMARK  status: ('A' for Active; 'I' for Inactive)
ROOT
HETATM    1  C1  UNL     1     -32.534   7.382   2.989  1.00 20.00    -0.064 C 
HETATM    2  C2  UNL     1     -31.829   8.154   2.158  1.00 20.00     0.016 C 
HETATM    3  C3  UNL     1     -32.882   7.707   4.400  1.00 20.00     0.061 C 
HETATM    4  C4  UNL     1     -33.175   6.084   2.633  1.00 20.00     0.201 C 
HETATM    5  C5  UNL     1     -34.144   6.886   4.566  1.00 20.00     0.172 C 
HETATM    6  O6  UNL     1     -33.931   5.695   3.794  1.00 20.00    -0.387 OA
ENDROOT
TORSDOF 0
ENDMDL
MODEL 9
REMARK VINA RESULT:      -3.1     12.835     13.828
REMARK  0 active torsions:
REMARK  status: ('A' for Active; 'I' for Inactive)
ROOT
HETATM    1  C1  UNL     1     -34.359  14.110  -6.827  1.00 20.00    -0.064 C 
HETATM    2  C2  UNL     1     -33.885  14.719  -7.918  1.00 20.00     0.016 C 
HETATM    3  C3  UNL     1     -34.002  14.438  -5.419  1.00 20.00     0.061 C 
HETATM    4  C4  UNL     1     -35.398  13.041  -6.814  1.00 20.00     0.201 C 
HETATM    5  C5  UNL     1     -35.249  13.961  -4.703  1.00 20.00     0.172 C 
HETATM    6  O6  UNL     1     -35.684  12.799  -5.424  1.00 20.00    -0.387 OA
ENDROOT
TORSDOF 0
ENDMDL
