MODEL 1
REMARK VINA RESULT:      -6.3      0.000      0.000
REMARK  3 active torsions:
REMARK  status: ('A' for Active; 'I' for Inactive)
REMARK    1  A    between atoms: C3_3  and  C6_6 
REMARK    2  A    between atoms: C3_3  and  O11_11 
REMARK    3  A    between atoms: C8_8  and  O11_11 
ROOT
HETATM    1  C1  UNL     1     -34.344   6.191   5.903  1.00 20.00    -0.025 C 
HETATM    2  C2  UNL     1     -34.669   5.058   5.265  1.00 20.00    -0.005 C 
HETATM    3  C4  UNL     1     -33.558   7.269   5.220  1.00 20.00     0.069 C 
HETATM    4  C5  UNL     1     -34.234   4.793   3.855  1.00 20.00     0.196 C 
HETATM    5  C6  UNL     1     -33.535   7.051   3.708  1.00 20.00     0.224 C 
HETATM    6  O10 UNL     1     -33.211   5.694   3.416  1.00 20.00    -0.372 OA
ENDROOT
BRANCH   5   7
HETATM    7  C3  UNL     1     -32.452   7.854   3.066  1.00 20.00     0.288 C 
HETATM    8  O9  UNL     1     -31.422   8.193   3.633  1.00 20.00    -0.262 OA
BRANCH   7   9
HETATM    9  O11 UNL     1     -32.796   8.134   1.777  1.00 20.00    -0.320 OA
BRANCH   9  10
HETATM   10  C8  UNL     1     -31.899   9.000   1.076  1.00 20.00     0.174 C 
HETATM   11  C7  UNL     1     -32.614  10.296   0.755  1.00 20.00     0.034 C 
ENDBRANCH   9  10
ENDBRANCH   7   9
ENDBRANCH   5   7
TORSDOF 3
ENDMDL
MODEL 2
REMARK VINA RESULT:      -4.3     11.150     11.913
REMARK  3 active torsions:
REMARK  status: ('A' for Active; 'I' for Inactive)
REMARK    1  A    between atoms: C3_3  and  C6_6 
REMARK    2  A    between atoms: C3_3  and  O11_11 
REMARK    3  A    between atoms: C8_8  and  O11_11 
ROOT
HETATM    1  C1  UNL     1     -33.957  16.154  -3.083  1.00 20.00    -0.025 C 
HETATM    2  C2  UNL     1     -34.881  17.045  -2.700  1.00 20.00    -0.005 C 
HETATM    3  C4  UNL     1     -34.316  14.991  -3.958  1.00 20.00     0.069 C 
HETATM    4  C5  UNL     1     -36.322  16.909  -3.093  1.00 20.00     0.196 C 
HETATM    5  C6  UNL     1     -35.688  15.195  -4.600  1.00 20.00     0.224 C 
HETATM    6  O10 UNL     1     -36.630  15.611  -3.614  1.00 20.00    -0.372 OA
ENDROOT
BRANCH   5   7
HETATM    7  C3  UNL     1     -36.228  13.910  -5.133  1.00 20.00     0.288 C 
HETATM    8  O9  UNL     1     -37.400  13.567  -5.039  1.00 20.00    -0.262 OA
BRANCH   7   9
HETATM    9  O11 UNL     1     -35.224  13.204  -5.725  1.00 20.00    -0.320 OA
BRANCH   9  10
HETATM   10  C8  UNL     1     -35.304  13.101  -7.151  1.00 20.00     0.174 C 
HETATM   11  C7  UNL     1     -34.215  13.953  -7.768  1.00 20.00     0.034 C 
ENDBRANCH   9  10
ENDBRANCH   7   9
ENDBRANCH   5   7
TORSDOF 3
ENDMDL
MODEL 3
REMARK VINA RESULT:      -4.2      1.497      4.579
REMARK  3 active torsions:
REMARK  status: ('A' for Active; 'I' for Inactive)
REMARK    1  A    between atoms: C3_3  and  C6_6 
REMARK    2  A    between atoms: C3_3  and  O11_11 
REMARK    3  A    between atoms: C8_8  and  O11_11 
ROOT
HETATM    1  C1  UNL     1     -32.739   7.431   1.550  1.00 20.00    -0.025 C 
HETATM    2  C2  UNL     1     -31.743   8.292   1.800  1.00 20.00    -0.005 C 
HETATM    3  C4  UNL     1     -33.601   6.899   2.655  1.00 20.00     0.069 C 
HETATM    4  C5  UNL     1     -31.416   8.739   3.193  1.00 20.00     0.196 C 
HETATM    5  C6  UNL     1     -33.427   7.726   3.928  1.00 20.00     0.224 C 
HETATM    6  O10 UNL     1     -32.040   7.925   4.193  1.00 20.00    -0.372 OA
ENDROOT
BRANCH   5   7
HETATM    7  C3  UNL     1     -33.946   6.993   5.121  1.00 20.00     0.288 C 
HETATM    8  O9  UNL     1     -33.605   7.228   6.273  1.00 20.00    -0.262 OA
BRANCH   7   9
HETATM    9  O11 UNL     1     -34.839   6.045   4.719  1.00 20.00    -0.320 OA
BRANCH   9  10
HETATM   10  C8  UNL     1     -34.704   4.767   5.348  1.00 20.00     0.174 C 
HETATM   11  C7  UNL     1     -34.056   3.805   4.375  1.00 20.00     0.034 C 
ENDBRANCH   9  10
ENDBRANCH   7   9
ENDBRANCH   5   7
TORSDOF 3
ENDMDL
MODEL 4
REMARK VINA RESULT:      -4.2     10.883     12.074
REMARK  3 active torsions:
REMARK  status: ('A' for Active; 'I' for Inactive)
REMARK    1  A    between atoms: C3_3  and  C6_6 
REMARK    2  A    between atoms: C3_3  and  O11_11 
REMARK    3  A    between atoms: C8_8  and  O11_11 
ROOT
HETATM    1  C1  UNL     1     -37.640  16.483  -4.033  1.00 20.00    -0.025 C 
HETATM    2  C2  UNL     1     -38.812  16.008  -4.478  1.00 20.00    -0.005 C 
HETATM    3  C4  UNL     1     -36.374  15.696  -4.191  1.00 20.00     0.069 C 
HETATM    4  C5  UNL     1     -38.924  14.658  -5.121  1.00 20.00     0.196 C 
HETATM    5  C6  UNL     1     -36.559  14.561  -5.196  1.00 20.00     0.224 C 
HETATM    6  O10 UNL     1     -37.761  13.850  -4.911  1.00 20.00    -0.372 OA
ENDROOT
BRANCH   5   7
HETATM    7  C3  UNL     1     -35.471  13.547  -5.068  1.00 20.00     0.288 C 
HETATM    8  O9  UNL     1     -34.683  13.501  -4.133  1.00 20.00    -0.262 OA
BRANCH   7   9
HETATM    9  O11 UNL     1     -35.505  12.705  -6.140  1.00 20.00    -0.320 OA
BRANCH   9  10
HETATM   10  C8  UNL     1     -35.467  13.340  -7.422  1.00 20.00     0.174 C 
HETATM   11  C7  UNL     1     -34.084  13.914  -7.646  1.00 20.00     0.034 C 
ENDBRANCH   9  10
ENDBRANCH   7   9
ENDBRANCH   5   7
TORSDOF 3
ENDMDL
MODEL 5
REMARK VINA RESULT:      -4.2     11.166     12.274
REMARK  3 active torsions:
REMARK  status: ('A' for Active; 'I' for Inactive)
REMARK    1  A    between atoms: C3_3  and  C6_6 
REMARK    2  A    between atoms: C3_3  and  O11_11 
REMARK    3  A    between atoms: C8_8  and  O11_11 
ROOT
HETATM    1  C1  UNL     1     -33.348  16.110  -5.761  1.00 20.00    -0.025 C 
HETATM    2  C2  UNL     1     -33.293  16.550  -4.497  1.00 20.00    -0.005 C 
HETATM    3  C4  UNL     1     -34.313  15.038  -6.168  1.00 20.00     0.069 C 
HETATM    4  C5  UNL     1     -34.162  15.973  -3.420  1.00 20.00     0.196 C 
HETATM    5  C6  UNL     1     -35.386  14.835  -5.099  1.00 20.00     0.224 C 
HETATM    6  O10 UNL     1     -34.779  14.741  -3.813  1.00 20.00    -0.372 OA
ENDROOT
BRANCH   5   7
HETATM    7  C3  UNL     1     -36.094  13.535  -5.288  1.00 20.00     0.288 C 
HETATM    8  O9  UNL     1     -35.555  12.512  -5.689  1.00 20.00    -0.262 OA
BRANCH   7   9
HETATM    9  O11 UNL     1     -37.406  13.678  -4.948  1.00 20.00    -0.320 OA
BRANCH   9  10
HETATM   10  C8  UNL     1     -38.082  14.783  -5.556  1.00 20.00     0.174 C 
HETATM   11  C7  UNL     1     -39.008  15.415  -4.538  1.00 20.00     0.034 C 
ENDBRANCH   9  10
ENDBRANCH   7   9
ENDBRANCH   5   7
TORSDOF 3
ENDMDL
MODEL 6
REMARK VINA RESULT:      -4.1     10.907     12.021
REMARK  3 active torsions:
REMARK  status: ('A' for Active; 'I' for Inactive)
REMARK    1  A    between atoms: C3_3  and  C6_6 
REMARK    2  A    between atoms: C3_3  and  O11_11 
REMARK    3  A    between atoms: C8_8  and  O11_11 
ROOT
HETATM    1  C1  UNL     1     -38.089  16.709  -4.087  1.00 20.00    -0.025 C 
HETATM    2  C2  UNL     1     -39.203  16.195  -4.624  1.00 20.00    -0.005 C 
HETATM    3  C4  UNL     1     -36.797  15.949  -4.104  1.00 20.00     0.069 C 
HETATM    4  C5  UNL     1     -39.228  14.826  -5.236  1.00 20.00     0.196 C 
HETATM    5  C6  UNL     1     -36.864  14.782  -5.089  1.00 20.00     0.224 C 
HETATM    6  O10 UNL     1     -38.073  14.051  -4.896  1.00 20.00    -0.372 OA
ENDROOT
BRANCH   5   7
HETATM    7  C3  UNL     1     -35.772  13.798  -4.832  1.00 20.00     0.288 C 
HETATM    8  O9  UNL     1     -35.774  12.647  -5.248  1.00 20.00    -0.262 OA
BRANCH   7   9
HETATM    9  O11 UNL     1     -34.799  14.384  -4.079  1.00 20.00    -0.320 OA
BRANCH   9  10
HETATM   10  C8  UNL     1     -33.474  14.304  -4.616  1.00 20.00     0.174 C 
HETATM   11  C7  UNL     1     -33.084  15.659  -5.168  1.00 20.00     0.034 C 
ENDBRANCH   9  10
ENDBRANCH   7   9
ENDBRANCH   5   7
TORSDOF 3
ENDMDL
MODEL 7
REMARK VINA RESULT:      -4.0     11.446     11.947
REMARK  3 active torsions:
REMARK  status: ('A' for Active; 'I' for Inactive)
REMARK    1  A    between atoms: C3_3  and  C6_6 
REMARK    2  A    between atoms: C3_3  and  O11_11 
REMARK    3  A    between atoms: C8_8  and  O11_11 
ROOT
HETATM    1  C1  UNL     1     -35.184  17.023  -1.155  1.00 20.00    -0.025 C 
HETATM    2  C2  UNL     1     -34.156  17.802  -0.791  1.00 20.00    -0.005 C 
HETATM    3  C4  UNL     1     -35.200  16.331  -2.484  1.00 20.00     0.069 C 
HETATM    4  C5  UNL     1     -32.992  18.051  -1.702  1.00 20.00     0.196 C 
HETATM    5  C6  UNL     1     -33.811  16.341  -3.121  1.00 20.00     0.224 C 
HETATM    6  O10 UNL     1     -33.254  17.651  -3.052  1.00 20.00    -0.372 OA
ENDROOT
BRANCH   5   7
HETATM    7  C3  UNL     1     -33.886  16.029  -4.579  1.00 20.00     0.288 C 
HETATM    8  O9  UNL     1     -32.909  15.927  -5.309  1.00 20.00    -0.262 OA
BRANCH   7   9
HETATM    9  O11 UNL     1     -35.190  15.879  -4.946  1.00 20.00    -0.320 OA
BRANCH   9  10
HETATM   10  C8  UNL     1     -35.443  14.850  -5.908  1.00 20.00     0.174 C 
HETATM   11  C7  UNL     1     -35.885  13.596  -5.183  1.00 20.00     0.034 C 
ENDBRANCH   9  10
ENDBRANCH   7   9
ENDBRANCH   5   7
TORSDOF 3
ENDMDL
MODEL 8
REMARK VINA RESULT:      -4.0     11.101     12.321
REMARK  3 active torsions:
REMARK  status: ('A' for Active; 'I' for Inactive)
REMARK    1  A    between atoms: C3_3  and  C6_6 
REMARK    2  A    between atoms: C3_3  and  O11_11 
REMARK    3  A    between atoms: C8_8  and  O11_11 
ROOT
HETATM    1  C1  UNL     1     -33.973  16.688  -3.577  1.00 20.00    -0.025 C 
HETATM    2  C2  UNL     1     -33.265  16.943  -4.686  1.00 20.00    -0.005 C 
HETATM    3  C4  UNL     1     -34.959  15.561  -3.528  1.00 20.00     0.069 C 
HETATM    4  C5  UNL     1     -33.445  16.142  -5.940  1.00 20.00     0.196 C 
HETATM    5  C6  UNL     1     -34.750  14.603  -4.700  1.00 20.00     0.224 C 
HETATM    6  O10 UNL     1     -34.631  15.339  -5.915  1.00 20.00    -0.372 OA
ENDROOT
BRANCH   5   7
HETATM    7  C3  UNL     1     -35.942  13.725  -4.896  1.00 20.00     0.288 C 
HETATM    8  O9  UNL     1     -35.897  12.611  -5.401  1.00 20.00    -0.262 OA
BRANCH   7   9
HETATM    9  O11 UNL     1     -37.055  14.358  -4.430  1.00 20.00    -0.320 OA
BRANCH   9  10
HETATM   10  C8  UNL     1     -38.124  14.496  -5.372  1.00 20.00     0.174 C 
HETATM   11  C7  UNL     1     -38.141  15.917  -5.894  1.00 20.00     0.034 C 
ENDBRANCH   9  10
ENDBRANCH   7   9
ENDBRANCH   5   7
TORSDOF 3
ENDMDL
MODEL 9
REMARK VINA RESULT:      -4.0     10.769     12.039
REMARK  3 active torsions:
REMARK  status: ('A' for Active; 'I' for Inactive)
REMARK    1  A    between atoms: C3_3  and  C6_6 
REMARK    2  A    between atoms: C3_3  and  O11_11 
REMARK    3  A    between atoms: C8_8  and  O11_11 
ROOT
HETATM    1  C1  UNL     1     -36.722  14.437  -6.843  1.00 20.00    -0.025 C 
HETATM    2  C2  UNL     1     -36.042  13.983  -7.904  1.00 20.00    -0.005 C 
HETATM    3  C4  UNL     1     -36.046  14.658  -5.524  1.00 20.00     0.069 C 
HETATM    4  C5  UNL     1     -34.585  13.638  -7.820  1.00 20.00     0.196 C 
HETATM    5  C6  UNL     1     -34.526  14.658  -5.683  1.00 20.00     0.224 C 
HETATM    6  O10 UNL     1     -34.119  13.540  -6.469  1.00 20.00    -0.372 OA
ENDROOT
BRANCH   5   7
HETATM    7  C3  UNL     1     -33.848  14.472  -4.367  1.00 20.00     0.288 C 
HETATM    8  O9  UNL     1     -32.872  13.753  -4.194  1.00 20.00    -0.262 OA
BRANCH   7   9
HETATM    9  O11 UNL     1     -34.481  15.219  -3.419  1.00 20.00    -0.320 OA
BRANCH   9  10
HETATM   10  C8  UNL     1     -33.812  16.427  -3.041  1.00 20.00     0.174 C 
HETATM   11  C7  UNL     1     -34.439  16.960  -1.770  1.00 20.00     0.034 C 
ENDBRANCH   9  10
ENDBRANCH   7   9
ENDBRANCH   5   7
TORSDOF 3
ENDMDL
