MODEL 1
REMARK VINA RESULT:      -6.3      0.000      0.000
REMARK  0 active torsions:
REMARK  status: ('A' for Active; 'I' for Inactive)
ROOT
HETATM    1  C1  UNL     1     -34.415   4.175   4.440  1.00 20.00    -0.003 C 
HETATM    2  C2  UNL     1     -33.751   4.897   3.373  1.00 20.00     0.011 C 
HETATM    3  C3  UNL     1     -34.742   5.012   5.442  1.00 20.00    -0.017 C 
HETATM    4  C4  UNL     1     -33.724   6.179   3.738  1.00 20.00    -0.005 C 
HETATM    5  C5  UNL     1     -32.873   7.330   3.422  1.00 20.00     0.156 C 
HETATM    6  C6  UNL     1     -32.771   8.180   4.668  1.00 20.00     0.084 C 
HETATM    7  C7  UNL     1     -33.369   7.252   5.758  1.00 20.00     0.021 C 
HETATM    8  C8  UNL     1     -34.425   6.418   5.035  1.00 20.00     0.045 C 
HETATM    9  O9  UNL     1     -32.344   7.546   2.346  1.00 20.00    -0.293 OA
ENDROOT
TORSDOF 0
ENDMDL
MODEL 2
REMARK VINA RESULT:      -6.1      1.725      3.129
REMARK  0 active torsions:
REMARK  status: ('A' for Active; 'I' for Inactive)
ROOT
HETATM    1  C1  UNL     1     -32.806   6.837   2.290  1.00 20.00    -0.003 C 
HETATM    2  C2  UNL     1     -32.865   7.485   3.585  1.00 20.00     0.011 C 
HETATM    3  C3  UNL     1     -33.685   5.819   2.233  1.00 20.00    -0.017 C 
HETATM    4  C4  UNL     1     -33.817   6.864   4.281  1.00 20.00    -0.005 C 
HETATM    5  C5  UNL     1     -34.101   6.667   5.706  1.00 20.00     0.156 C 
HETATM    6  C6  UNL     1     -34.714   5.294   5.865  1.00 20.00     0.084 C 
HETATM    7  C7  UNL     1     -34.458   4.648   4.478  1.00 20.00     0.021 C 
HETATM    8  C8  UNL     1     -34.509   5.807   3.483  1.00 20.00     0.045 C 
HETATM    9  O9  UNL     1     -33.871   7.471   6.591  1.00 20.00    -0.293 OA
ENDROOT
TORSDOF 0
ENDMDL
MODEL 3
REMARK VINA RESULT:      -6.0      1.834      3.207
REMARK  0 active torsions:
REMARK  status: ('A' for Active; 'I' for Inactive)
ROOT
HETATM    1  C1  UNL     1     -33.866   7.410   6.106  1.00 20.00    -0.003 C 
HETATM    2  C2  UNL     1     -34.260   6.025   5.936  1.00 20.00     0.011 C 
HETATM    3  C3  UNL     1     -33.542   7.956   4.918  1.00 20.00    -0.017 C 
HETATM    4  C4  UNL     1     -34.204   5.769   4.628  1.00 20.00    -0.005 C 
HETATM    5  C5  UNL     1     -34.020   4.564   3.813  1.00 20.00     0.156 C 
HETATM    6  C6  UNL     1     -33.228   4.957   2.587  1.00 20.00     0.084 C 
HETATM    7  C7  UNL     1     -32.737   6.385   2.947  1.00 20.00     0.021 C 
HETATM    8  C8  UNL     1     -33.838   6.975   3.826  1.00 20.00     0.045 C 
HETATM    9  O9  UNL     1     -34.430   3.452   4.091  1.00 20.00    -0.293 OA
ENDROOT
TORSDOF 0
ENDMDL
MODEL 4
REMARK VINA RESULT:      -5.7      1.072      2.222
REMARK  0 active torsions:
REMARK  status: ('A' for Active; 'I' for Inactive)
ROOT
HETATM    1  C1  UNL     1     -34.695   6.168   5.964  1.00 20.00    -0.003 C 
HETATM    2  C2  UNL     1     -33.643   7.140   5.742  1.00 20.00     0.011 C 
HETATM    3  C3  UNL     1     -34.826   5.363   4.891  1.00 20.00    -0.017 C 
HETATM    4  C4  UNL     1     -33.125   6.877   4.542  1.00 20.00    -0.005 C 
HETATM    5  C5  UNL     1     -32.411   7.656   3.526  1.00 20.00     0.156 C 
HETATM    6  C6  UNL     1     -32.830   7.135   2.171  1.00 20.00     0.084 C 
HETATM    7  C7  UNL     1     -34.045   6.233   2.517  1.00 20.00     0.021 C 
HETATM    8  C8  UNL     1     -33.742   5.673   3.906  1.00 20.00     0.045 C 
HETATM    9  O9  UNL     1     -31.629   8.563   3.749  1.00 20.00    -0.293 OA
ENDROOT
TORSDOF 0
ENDMDL
MODEL 5
REMARK VINA RESULT:      -5.6      1.837      3.033
REMARK  0 active torsions:
REMARK  status: ('A' for Active; 'I' for Inactive)
ROOT
HETATM    1  C1  UNL     1     -32.912   7.395   2.195  1.00 20.00    -0.003 C 
HETATM    2  C2  UNL     1     -33.550   6.112   2.410  1.00 20.00     0.011 C 
HETATM    3  C3  UNL     1     -32.598   7.968   3.373  1.00 20.00    -0.017 C 
HETATM    4  C4  UNL     1     -33.573   5.912   3.728  1.00 20.00    -0.005 C 
HETATM    5  C5  UNL     1     -34.408   5.129   4.645  1.00 20.00     0.156 C 
HETATM    6  C6  UNL     1     -34.527   5.909   5.935  1.00 20.00     0.084 C 
HETATM    7  C7  UNL     1     -33.958   7.298   5.542  1.00 20.00     0.021 C 
HETATM    8  C8  UNL     1     -32.895   7.008   4.484  1.00 20.00     0.045 C 
HETATM    9  O9  UNL     1     -34.914   4.051   4.395  1.00 20.00    -0.293 OA
ENDROOT
TORSDOF 0
ENDMDL
MODEL 6
REMARK VINA RESULT:      -4.5     12.332     12.625
REMARK  0 active torsions:
REMARK  status: ('A' for Active; 'I' for Inactive)
ROOT
HETATM    1  C1  UNL     1     -35.060  16.691  -1.967  1.00 20.00    -0.003 C 
HETATM    2  C2  UNL     1     -33.646  17.012  -1.951  1.00 20.00     0.011 C 
HETATM    3  C3  UNL     1     -35.713  17.397  -1.025  1.00 20.00    -0.017 C 
HETATM    4  C4  UNL     1     -33.476  17.946  -1.014  1.00 20.00    -0.005 C 
HETATM    5  C5  UNL     1     -32.358  18.380  -0.171  1.00 20.00     0.156 C 
HETATM    6  C6  UNL     1     -32.927  18.800   1.165  1.00 20.00     0.084 C 
HETATM    7  C7  UNL     1     -34.385  18.274   1.090  1.00 20.00     0.021 C 
HETATM    8  C8  UNL     1     -34.766  18.366  -0.387  1.00 20.00     0.045 C 
HETATM    9  O9  UNL     1     -31.185  18.387  -0.500  1.00 20.00    -0.293 OA
ENDROOT
TORSDOF 0
ENDMDL
MODEL 7
REMARK VINA RESULT:      -4.5      1.145      2.889
REMARK  0 active torsions:
REMARK  status: ('A' for Active; 'I' for Inactive)
ROOT
HETATM    1  C1  UNL     1     -33.559   8.195   5.008  1.00 20.00    -0.003 C 
HETATM    2  C2  UNL     1     -33.198   7.438   3.826  1.00 20.00     0.011 C 
HETATM    3  C3  UNL     1     -33.920   7.365   6.005  1.00 20.00    -0.017 C 
HETATM    4  C4  UNL     1     -33.311   6.149   4.146  1.00 20.00    -0.005 C 
HETATM    5  C5  UNL     1     -33.550   4.910   3.399  1.00 20.00     0.156 C 
HETATM    6  C6  UNL     1     -34.383   4.001   4.274  1.00 20.00     0.084 C 
HETATM    7  C7  UNL     1     -34.833   4.952   5.416  1.00 20.00     0.021 C 
HETATM    8  C8  UNL     1     -33.686   5.949   5.579  1.00 20.00     0.045 C 
HETATM    9  O9  UNL     1     -33.150   4.674   2.274  1.00 20.00    -0.293 OA
ENDROOT
TORSDOF 0
ENDMDL
MODEL 8
REMARK VINA RESULT:      -4.4     11.967     12.565
REMARK  0 active torsions:
REMARK  status: ('A' for Active; 'I' for Inactive)
ROOT
HETATM    1  C1  UNL     1     -33.333  15.869  -3.786  1.00 20.00    -0.003 C 
HETATM    2  C2  UNL     1     -33.643  14.588  -4.388  1.00 20.00     0.011 C 
HETATM    3  C3  UNL     1     -34.458  16.467  -3.349  1.00 20.00    -0.017 C 
HETATM    4  C4  UNL     1     -34.959  14.416  -4.267  1.00 20.00    -0.005 C 
HETATM    5  C5  UNL     1     -35.978  13.649  -4.992  1.00 20.00     0.156 C 
HETATM    6  C6  UNL     1     -37.257  14.455  -4.974  1.00 20.00     0.084 C 
HETATM    7  C7  UNL     1     -36.776  15.838  -4.460  1.00 20.00     0.021 C 
HETATM    8  C8  UNL     1     -35.613  15.530  -3.517  1.00 20.00     0.045 C 
HETATM    9  O9  UNL     1     -35.807  12.563  -5.515  1.00 20.00    -0.293 OA
ENDROOT
TORSDOF 0
ENDMDL
MODEL 9
REMARK VINA RESULT:      -4.3     12.059     13.397
REMARK  0 active torsions:
REMARK  status: ('A' for Active; 'I' for Inactive)
ROOT
HETATM    1  C1  UNL     1     -33.562  16.264  -3.921  1.00 20.00    -0.003 C 
HETATM    2  C2  UNL     1     -34.403  15.088  -3.811  1.00 20.00     0.011 C 
HETATM    3  C3  UNL     1     -33.484  16.668  -5.203  1.00 20.00    -0.017 C 
HETATM    4  C4  UNL     1     -34.854  14.824  -5.037  1.00 20.00    -0.005 C 
HETATM    5  C5  UNL     1     -35.330  13.624  -5.733  1.00 20.00     0.156 C 
HETATM    6  C6  UNL     1     -34.895  13.728  -7.177  1.00 20.00     0.084 C 
HETATM    7  C7  UNL     1     -33.892  14.913  -7.142  1.00 20.00     0.021 C 
HETATM    8  C8  UNL     1     -34.408  15.838  -6.040  1.00 20.00     0.045 C 
HETATM    9  O9  UNL     1     -35.955  12.712  -5.223  1.00 20.00    -0.293 OA
ENDROOT
TORSDOF 0
ENDMDL
