MODEL 1
REMARK VINA RESULT:      -5.6      0.000      0.000
REMARK  3 active torsions:
REMARK  status: ('A' for Active; 'I' for Inactive)
REMARK    1  A    between atoms: C3_3  and  C6_6 
REMARK    2  A    between atoms: C3_3  and  C7_7 
REMARK    3  A    between atoms: C5_5  and  C7_7 
ROOT
HETATM    1  C1  UNL     1     -31.880   8.321   2.720  1.00 20.00     0.012 C 
HETATM    2  C2  UNL     1     -32.471   7.277   2.653  1.00 20.00    -0.117 C 
HETATM    3  C5  UNL     1     -33.194   5.999   2.569  1.00 20.00     0.100 C 
ENDROOT
BRANCH   3   4
HETATM    4  C7  UNL     1     -34.500   6.030   3.359  1.00 20.00     0.090 C 
BRANCH   4   5
HETATM    5  C3  UNL     1     -34.530   5.067   4.540  1.00 20.00     0.127 C 
HETATM    6  O8  UNL     1     -34.492   3.847   4.395  1.00 20.00    -0.298 OA
BRANCH   5   7
HETATM    7  C6  UNL     1     -34.589   5.719   5.912  1.00 20.00     0.074 C 
HETATM    8  C4  UNL     1     -33.911   7.075   5.948  1.00 20.00     0.013 C 
ENDBRANCH   5   7
ENDBRANCH   4   5
ENDBRANCH   3   4
TORSDOF 3
ENDMDL
MODEL 2
REMARK VINA RESULT:      -5.4      1.759      2.277
REMARK  3 active torsions:
REMARK  status: ('A' for Active; 'I' for Inactive)
REMARK    1  A    between atoms: C3_3  and  C6_6 
REMARK    2  A    between atoms: C3_3  and  C7_7 
REMARK    3  A    between atoms: C5_5  and  C7_7 
ROOT
HETATM    1  C1  UNL     1     -32.168   9.020   1.090  1.00 20.00     0.012 C 
HETATM    2  C2  UNL     1     -32.207   8.397   2.116  1.00 20.00    -0.117 C 
HETATM    3  C5  UNL     1     -32.252   7.635   3.373  1.00 20.00     0.100 C 
ENDROOT
BRANCH   3   4
HETATM    4  C7  UNL     1     -33.622   7.003   3.607  1.00 20.00     0.090 C 
BRANCH   4   5
HETATM    5  C3  UNL     1     -33.938   6.740   5.075  1.00 20.00     0.127 C 
HETATM    6  O8  UNL     1     -33.605   7.514   5.969  1.00 20.00    -0.298 OA
BRANCH   5   7
HETATM    7  C6  UNL     1     -34.712   5.462   5.357  1.00 20.00     0.074 C 
HETATM    8  C4  UNL     1     -34.361   4.338   4.399  1.00 20.00     0.013 C 
ENDBRANCH   5   7
ENDBRANCH   4   5
ENDBRANCH   3   4
TORSDOF 3
ENDMDL
MODEL 3
REMARK VINA RESULT:      -5.3      1.516      2.113
REMARK  3 active torsions:
REMARK  status: ('A' for Active; 'I' for Inactive)
REMARK    1  A    between atoms: C3_3  and  C6_6 
REMARK    2  A    between atoms: C3_3  and  C7_7 
REMARK    3  A    between atoms: C5_5  and  C7_7 
ROOT
HETATM    1  C1  UNL     1     -32.587   9.819   0.812  1.00 20.00     0.012 C 
HETATM    2  C2  UNL     1     -32.359   8.924   1.580  1.00 20.00    -0.117 C 
HETATM    3  C5  UNL     1     -32.077   7.828   2.519  1.00 20.00     0.100 C 
ENDROOT
BRANCH   3   4
HETATM    4  C7  UNL     1     -33.299   7.471   3.361  1.00 20.00     0.090 C 
BRANCH   4   5
HETATM    5  C3  UNL     1     -33.688   5.999   3.292  1.00 20.00     0.127 C 
HETATM    6  O8  UNL     1     -33.035   5.175   2.655  1.00 20.00    -0.298 OA
BRANCH   5   7
HETATM    7  C6  UNL     1     -34.927   5.613   4.084  1.00 20.00     0.074 C 
HETATM    8  C4  UNL     1     -34.621   5.300   5.537  1.00 20.00     0.013 C 
ENDBRANCH   5   7
ENDBRANCH   4   5
ENDBRANCH   3   4
TORSDOF 3
ENDMDL
MODEL 4
REMARK VINA RESULT:      -5.2      2.329      4.536
REMARK  3 active torsions:
REMARK  status: ('A' for Active; 'I' for Inactive)
REMARK    1  A    between atoms: C3_3  and  C6_6 
REMARK    2  A    between atoms: C3_3  and  C7_7 
REMARK    3  A    between atoms: C5_5  and  C7_7 
ROOT
HETATM    1  C1  UNL     1     -34.703   4.665   4.837  1.00 20.00     0.012 C 
HETATM    2  C2  UNL     1     -34.353   5.753   4.466  1.00 20.00    -0.117 C 
HETATM    3  C5  UNL     1     -33.928   7.086   4.014  1.00 20.00     0.100 C 
ENDROOT
BRANCH   3   4
HETATM    4  C7  UNL     1     -33.089   7.014   2.740  1.00 20.00     0.090 C 
BRANCH   4   5
HETATM    5  C3  UNL     1     -32.037   8.112   2.631  1.00 20.00     0.127 C 
HETATM    6  O8  UNL     1     -31.330   8.443   3.580  1.00 20.00    -0.298 OA
BRANCH   5   7
HETATM    7  C6  UNL     1     -31.906   8.756   1.260  1.00 20.00     0.074 C 
HETATM    8  C4  UNL     1     -32.650  10.075   1.157  1.00 20.00     0.013 C 
ENDBRANCH   5   7
ENDBRANCH   4   5
ENDBRANCH   3   4
TORSDOF 3
ENDMDL
MODEL 5
REMARK VINA RESULT:      -5.1      1.114      3.149
REMARK  3 active torsions:
REMARK  status: ('A' for Active; 'I' for Inactive)
REMARK    1  A    between atoms: C3_3  and  C6_6 
REMARK    2  A    between atoms: C3_3  and  C7_7 
REMARK    3  A    between atoms: C5_5  and  C7_7 
ROOT
HETATM    1  C1  UNL     1     -33.628   7.629   6.294  1.00 20.00     0.012 C 
HETATM    2  C2  UNL     1     -34.116   6.669   5.764  1.00 20.00    -0.117 C 
HETATM    3  C5  UNL     1     -34.714   5.490   5.117  1.00 20.00     0.100 C 
ENDROOT
BRANCH   3   4
HETATM    4  C7  UNL     1     -34.856   5.679   3.609  1.00 20.00     0.090 C 
BRANCH   4   5
HETATM    5  C3  UNL     1     -33.527   5.819   2.876  1.00 20.00     0.127 C 
HETATM    6  O8  UNL     1     -32.783   4.862   2.674  1.00 20.00    -0.298 OA
BRANCH   5   7
HETATM    7  C6  UNL     1     -33.194   7.222   2.393  1.00 20.00     0.074 C 
HETATM    8  C4  UNL     1     -31.923   7.771   3.013  1.00 20.00     0.013 C 
ENDBRANCH   5   7
ENDBRANCH   4   5
ENDBRANCH   3   4
TORSDOF 3
ENDMDL
MODEL 6
REMARK VINA RESULT:      -5.0      1.979      2.884
REMARK  3 active torsions:
REMARK  status: ('A' for Active; 'I' for Inactive)
REMARK    1  A    between atoms: C3_3  and  C6_6 
REMARK    2  A    between atoms: C3_3  and  C7_7 
REMARK    3  A    between atoms: C5_5  and  C7_7 
ROOT
HETATM    1  C1  UNL     1     -32.662  10.493   1.113  1.00 20.00     0.012 C 
HETATM    2  C2  UNL     1     -32.394   9.387   1.497  1.00 20.00    -0.117 C 
HETATM    3  C5  UNL     1     -32.066   8.031   1.964  1.00 20.00     0.100 C 
ENDROOT
BRANCH   3   4
HETATM    4  C7  UNL     1     -31.921   7.972   3.482  1.00 20.00     0.090 C 
BRANCH   4   5
HETATM    5  C3  UNL     1     -33.064   7.248   4.184  1.00 20.00     0.127 C 
HETATM    6  O8  UNL     1     -33.318   7.418   5.375  1.00 20.00    -0.298 OA
BRANCH   5   7
HETATM    7  C6  UNL     1     -33.885   6.318   3.306  1.00 20.00     0.074 C 
HETATM    8  C4  UNL     1     -35.075   5.721   4.033  1.00 20.00     0.013 C 
ENDBRANCH   5   7
ENDBRANCH   4   5
ENDBRANCH   3   4
TORSDOF 3
ENDMDL
MODEL 7
REMARK VINA RESULT:      -4.9      1.540      4.055
REMARK  3 active torsions:
REMARK  status: ('A' for Active; 'I' for Inactive)
REMARK    1  A    between atoms: C3_3  and  C6_6 
REMARK    2  A    between atoms: C3_3  and  C7_7 
REMARK    3  A    between atoms: C5_5  and  C7_7 
ROOT
HETATM    1  C1  UNL     1     -34.736   4.668   5.655  1.00 20.00     0.012 C 
HETATM    2  C2  UNL     1     -34.303   5.787   5.592  1.00 20.00    -0.117 C 
HETATM    3  C5  UNL     1     -33.773   7.157   5.519  1.00 20.00     0.100 C 
ENDROOT
BRANCH   3   4
HETATM    4  C7  UNL     1     -33.865   7.729   4.107  1.00 20.00     0.090 C 
BRANCH   4   5
HETATM    5  C3  UNL     1     -32.772   7.233   3.168  1.00 20.00     0.127 C 
HETATM    6  O8  UNL     1     -32.754   6.087   2.724  1.00 20.00    -0.298 OA
BRANCH   5   7
HETATM    7  C6  UNL     1     -31.714   8.261   2.798  1.00 20.00     0.074 C 
HETATM    8  C4  UNL     1     -31.840   8.744   1.365  1.00 20.00     0.013 C 
ENDBRANCH   5   7
ENDBRANCH   4   5
ENDBRANCH   3   4
TORSDOF 3
ENDMDL
MODEL 8
REMARK VINA RESULT:      -4.6      2.879      4.911
REMARK  3 active torsions:
REMARK  status: ('A' for Active; 'I' for Inactive)
REMARK    1  A    between atoms: C3_3  and  C6_6 
REMARK    2  A    between atoms: C3_3  and  C7_7 
REMARK    3  A    between atoms: C5_5  and  C7_7 
ROOT
HETATM    1  C1  UNL     1     -34.883   5.739   4.330  1.00 20.00     0.012 C 
HETATM    2  C2  UNL     1     -34.013   6.112   3.591  1.00 20.00    -0.117 C 
HETATM    3  C5  UNL     1     -32.947   6.566   2.685  1.00 20.00     0.100 C 
ENDROOT
BRANCH   3   4
HETATM    4  C7  UNL     1     -32.632   8.048   2.873  1.00 20.00     0.090 C 
BRANCH   4   5
HETATM    5  C3  UNL     1     -32.085   8.727   1.623  1.00 20.00     0.127 C 
HETATM    6  O8  UNL     1     -31.047   8.361   1.076  1.00 20.00    -0.298 OA
BRANCH   5   7
HETATM    7  C6  UNL     1     -32.924   9.875   1.084  1.00 20.00     0.074 C 
HETATM    8  C4  UNL     1     -33.279   9.706  -0.381  1.00 20.00     0.013 C 
ENDBRANCH   5   7
ENDBRANCH   4   5
ENDBRANCH   3   4
TORSDOF 3
ENDMDL
MODEL 9
REMARK VINA RESULT:      -4.6      1.926      3.943
REMARK  3 active torsions:
REMARK  status: ('A' for Active; 'I' for Inactive)
REMARK    1  A    between atoms: C3_3  and  C6_6 
REMARK    2  A    between atoms: C3_3  and  C7_7 
REMARK    3  A    between atoms: C5_5  and  C7_7 
ROOT
HETATM    1  C1  UNL     1     -34.773   4.687   5.759  1.00 20.00     0.012 C 
HETATM    2  C2  UNL     1     -34.334   5.805   5.763  1.00 20.00    -0.117 C 
HETATM    3  C5  UNL     1     -33.797   7.175   5.771  1.00 20.00     0.100 C 
ENDROOT
BRANCH   3   4
HETATM    4  C7  UNL     1     -33.914   7.840   4.402  1.00 20.00     0.090 C 
BRANCH   4   5
HETATM    5  C3  UNL     1     -32.990   7.245   3.345  1.00 20.00     0.127 C 
HETATM    6  O8  UNL     1     -31.812   7.579   3.238  1.00 20.00    -0.298 OA
BRANCH   5   7
HETATM    7  C6  UNL     1     -33.620   6.193   2.446  1.00 20.00     0.074 C 
HETATM    8  C4  UNL     1     -32.947   4.838   2.567  1.00 20.00     0.013 C 
ENDBRANCH   5   7
ENDBRANCH   4   5
ENDBRANCH   3   4
TORSDOF 3
ENDMDL
