MODEL 1
REMARK VINA RESULT:      -3.9      0.000      0.000
REMARK  5 active torsions:
REMARK  status: ('A' for Active; 'I' for Inactive)
REMARK    1  A    between atoms: C5_5  and  C9_9 
REMARK    2  A    between atoms: C6_6  and  C9_9 
REMARK    3  A    between atoms: C7_7  and  N11_11 
REMARK    4  A    between atoms: C8_8  and  N11_11 
REMARK    5  A    between atoms: C9_9  and  N11_11 
ROOT
HETATM    1  C1  UNL     1     -36.013  13.913  -4.899  1.00 20.00     0.061 C 
HETATM    2  C5  UNL     1     -36.034  15.291  -4.384  1.00 20.00     0.159 C 
HETATM    3  N10 UNL     1     -35.998  12.826  -5.306  1.00 20.00    -0.197 NA
ENDROOT
BRANCH   2   4
HETATM    4  C9  UNL     1     -34.750  15.642  -3.613  1.00 20.00     0.235 C 
BRANCH   4   5
HETATM    5  C6  UNL     1     -35.054  16.440  -2.329  1.00 20.00     0.032 C 
HETATM    6  C2  UNL     1     -33.840  17.156  -1.750  1.00 20.00     0.007 C 
ENDBRANCH   4   5
BRANCH   4   7
HETATM    7  N11 UNL     1     -33.880  16.420  -4.502  1.00 20.00     0.093 N 
BRANCH   7   8
HETATM    8  C7  UNL     1     -34.682  17.186  -5.452  1.00 20.00     0.268 C 
HETATM    9  C3  UNL     1     -34.023  17.245  -6.788  1.00 20.00     0.037 C 
ENDBRANCH   7   8
BRANCH   7  10
HETATM   10  C8  UNL     1     -32.955  15.535  -5.207  1.00 20.00     0.268 C 
HETATM   11  C4  UNL     1     -32.512  14.412  -4.332  1.00 20.00     0.037 C 
ENDBRANCH   7  10
ENDBRANCH   4   7
ENDBRANCH   2   4
TORSDOF 5
ENDMDL
MODEL 2
REMARK VINA RESULT:      -3.8      1.203      3.112
REMARK  5 active torsions:
REMARK  status: ('A' for Active; 'I' for Inactive)
REMARK    1  A    between atoms: C5_5  and  C9_9 
REMARK    2  A    between atoms: C6_6  and  C9_9 
REMARK    3  A    between atoms: C7_7  and  N11_11 
REMARK    4  A    between atoms: C8_8  and  N11_11 
REMARK    5  A    between atoms: C9_9  and  N11_11 
ROOT
HETATM    1  C1  UNL     1     -35.170  13.611  -4.727  1.00 20.00     0.061 C 
HETATM    2  C5  UNL     1     -34.085  14.370  -4.086  1.00 20.00     0.159 C 
HETATM    3  N10 UNL     1     -36.025  13.010  -5.232  1.00 20.00    -0.197 NA
ENDROOT
BRANCH   2   4
HETATM    4  C9  UNL     1     -34.340  15.887  -4.119  1.00 20.00     0.235 C 
BRANCH   4   5
HETATM    5  C6  UNL     1     -33.377  16.607  -5.084  1.00 20.00     0.032 C 
HETATM    6  C2  UNL     1     -33.875  16.655  -6.524  1.00 20.00     0.007 C 
ENDBRANCH   4   5
BRANCH   4   7
HETATM    7  N11 UNL     1     -34.180  16.409  -2.757  1.00 20.00     0.093 N 
BRANCH   7   8
HETATM    8  C7  UNL     1     -35.486  16.583  -2.126  1.00 20.00     0.268 C 
HETATM    9  C3  UNL     1     -36.469  17.174  -3.079  1.00 20.00     0.037 C 
ENDBRANCH   7   8
BRANCH   7  10
HETATM   10  C8  UNL     1     -33.447  17.673  -2.781  1.00 20.00     0.268 C 
HETATM   11  C4  UNL     1     -32.874  17.987  -1.441  1.00 20.00     0.037 C 
ENDBRANCH   7  10
ENDBRANCH   4   7
ENDBRANCH   2   4
TORSDOF 5
ENDMDL
MODEL 3
REMARK VINA RESULT:      -3.8      1.135      1.977
REMARK  5 active torsions:
REMARK  status: ('A' for Active; 'I' for Inactive)
REMARK    1  A    between atoms: C5_5  and  C9_9 
REMARK    2  A    between atoms: C6_6  and  C9_9 
REMARK    3  A    between atoms: C7_7  and  N11_11 
REMARK    4  A    between atoms: C8_8  and  N11_11 
REMARK    5  A    between atoms: C9_9  and  N11_11 
ROOT
HETATM    1  C1  UNL     1     -35.813  13.866  -4.753  1.00 20.00     0.061 C 
HETATM    2  C5  UNL     1     -35.725  15.153  -4.046  1.00 20.00     0.159 C 
HETATM    3  N10 UNL     1     -35.884  12.851  -5.311  1.00 20.00    -0.197 NA
ENDROOT
BRANCH   2   4
HETATM    4  C9  UNL     1     -34.287  15.702  -4.015  1.00 20.00     0.235 C 
BRANCH   4   5
HETATM    5  C6  UNL     1     -34.027  16.552  -2.755  1.00 20.00     0.032 C 
HETATM    6  C2  UNL     1     -35.238  16.675  -1.838  1.00 20.00     0.007 C 
ENDBRANCH   4   5
BRANCH   4   7
HETATM    7  N11 UNL     1     -34.077  16.505  -5.224  1.00 20.00     0.093 N 
BRANCH   7   8
HETATM    8  C7  UNL     1     -33.187  15.805  -6.148  1.00 20.00     0.268 C 
HETATM    9  C3  UNL     1     -33.879  15.499  -7.433  1.00 20.00     0.037 C 
ENDBRANCH   7   8
BRANCH   7  10
HETATM   10  C8  UNL     1     -33.529  17.813  -4.875  1.00 20.00     0.268 C 
HETATM   11  C4  UNL     1     -34.117  18.888  -5.725  1.00 20.00     0.037 C 
ENDBRANCH   7  10
ENDBRANCH   4   7
ENDBRANCH   2   4
TORSDOF 5
ENDMDL
MODEL 4
REMARK VINA RESULT:      -3.8      1.225      3.413
REMARK  5 active torsions:
REMARK  status: ('A' for Active; 'I' for Inactive)
REMARK    1  A    between atoms: C5_5  and  C9_9 
REMARK    2  A    between atoms: C6_6  and  C9_9 
REMARK    3  A    between atoms: C7_7  and  N11_11 
REMARK    4  A    between atoms: C8_8  and  N11_11 
REMARK    5  A    between atoms: C9_9  and  N11_11 
ROOT
HETATM    1  C1  UNL     1     -35.256  13.714  -4.712  1.00 20.00     0.061 C 
HETATM    2  C5  UNL     1     -34.348  14.658  -4.043  1.00 20.00     0.159 C 
HETATM    3  N10 UNL     1     -35.973  12.968  -5.238  1.00 20.00    -0.197 NA
ENDROOT
BRANCH   2   4
HETATM    4  C9  UNL     1     -34.163  15.956  -4.848  1.00 20.00     0.235 C 
BRANCH   4   5
HETATM    5  C6  UNL     1     -33.272  15.737  -6.088  1.00 20.00     0.032 C 
HETATM    6  C2  UNL     1     -33.997  15.954  -7.410  1.00 20.00     0.007 C 
ENDBRANCH   4   5
BRANCH   4   7
HETATM    7  N11 UNL     1     -33.569  16.964  -3.964  1.00 20.00     0.093 N 
BRANCH   7   8
HETATM    8  C7  UNL     1     -33.934  16.697  -2.575  1.00 20.00     0.268 C 
HETATM    9  C3  UNL     1     -33.206  17.607  -1.644  1.00 20.00     0.037 C 
ENDBRANCH   7   8
BRANCH   7  10
HETATM   10  C8  UNL     1     -33.998  18.303  -4.361  1.00 20.00     0.268 C 
HETATM   11  C4  UNL     1     -35.470  18.349  -4.592  1.00 20.00     0.037 C 
ENDBRANCH   7  10
ENDBRANCH   4   7
ENDBRANCH   2   4
TORSDOF 5
ENDMDL
MODEL 5
REMARK VINA RESULT:      -3.7      1.513      2.338
REMARK  5 active torsions:
REMARK  status: ('A' for Active; 'I' for Inactive)
REMARK    1  A    between atoms: C5_5  and  C9_9 
REMARK    2  A    between atoms: C6_6  and  C9_9 
REMARK    3  A    between atoms: C7_7  and  N11_11 
REMARK    4  A    between atoms: C8_8  and  N11_11 
REMARK    5  A    between atoms: C9_9  and  N11_11 
ROOT
HETATM    1  C1  UNL     1     -37.448  14.821  -4.566  1.00 20.00     0.061 C 
HETATM    2  C5  UNL     1     -36.475  15.740  -3.955  1.00 20.00     0.159 C 
HETATM    3  N10 UNL     1     -38.218  14.098  -5.047  1.00 20.00    -0.197 NA
ENDROOT
BRANCH   2   4
HETATM    4  C9  UNL     1     -35.026  15.258  -4.143  1.00 20.00     0.235 C 
BRANCH   4   5
HETATM    5  C6  UNL     1     -34.043  16.040  -3.246  1.00 20.00     0.032 C 
HETATM    6  C2  UNL     1     -34.707  16.711  -2.050  1.00 20.00     0.007 C 
ENDBRANCH   4   5
BRANCH   4   7
HETATM    7  N11 UNL     1     -34.667  15.422  -5.556  1.00 20.00     0.093 N 
BRANCH   7   8
HETATM    8  C7  UNL     1     -34.126  14.175  -6.089  1.00 20.00     0.268 C 
HETATM    9  C3  UNL     1     -35.043  13.583  -7.105  1.00 20.00     0.037 C 
ENDBRANCH   7   8
BRANCH   7  10
HETATM   10  C8  UNL     1     -33.701  16.509  -5.711  1.00 20.00     0.268 C 
HETATM   11  C4  UNL     1     -34.035  17.361  -6.887  1.00 20.00     0.037 C 
ENDBRANCH   7  10
ENDBRANCH   4   7
ENDBRANCH   2   4
TORSDOF 5
ENDMDL
MODEL 6
REMARK VINA RESULT:      -3.6      1.329      3.096
REMARK  5 active torsions:
REMARK  status: ('A' for Active; 'I' for Inactive)
REMARK    1  A    between atoms: C5_5  and  C9_9 
REMARK    2  A    between atoms: C6_6  and  C9_9 
REMARK    3  A    between atoms: C7_7  and  N11_11 
REMARK    4  A    between atoms: C8_8  and  N11_11 
REMARK    5  A    between atoms: C9_9  and  N11_11 
ROOT
HETATM    1  C1  UNL     1     -37.344  14.806  -4.524  1.00 20.00     0.061 C 
HETATM    2  C5  UNL     1     -36.566  15.836  -3.818  1.00 20.00     0.159 C 
HETATM    3  N10 UNL     1     -37.960  13.995  -5.080  1.00 20.00    -0.197 NA
ENDROOT
BRANCH   2   4
HETATM    4  C9  UNL     1     -35.086  15.834  -4.238  1.00 20.00     0.235 C 
BRANCH   4   5
HETATM    5  C6  UNL     1     -34.521  14.402  -4.334  1.00 20.00     0.032 C 
HETATM    6  C2  UNL     1     -32.998  14.342  -4.319  1.00 20.00     0.007 C 
ENDBRANCH   4   5
BRANCH   4   7
HETATM    7  N11 UNL     1     -34.329  16.616  -3.254  1.00 20.00     0.093 N 
BRANCH   7   8
HETATM    8  C7  UNL     1     -35.044  16.655  -1.981  1.00 20.00     0.268 C 
HETATM    9  C3  UNL     1     -34.296  17.455  -0.969  1.00 20.00     0.037 C 
ENDBRANCH   7   8
BRANCH   7  10
HETATM   10  C8  UNL     1     -34.094  17.969  -3.753  1.00 20.00     0.268 C 
HETATM   11  C4  UNL     1     -33.725  17.952  -5.198  1.00 20.00     0.037 C 
ENDBRANCH   7  10
ENDBRANCH   4   7
ENDBRANCH   2   4
TORSDOF 5
ENDMDL
MODEL 7
REMARK VINA RESULT:      -3.6      1.478      2.698
REMARK  5 active torsions:
REMARK  status: ('A' for Active; 'I' for Inactive)
REMARK    1  A    between atoms: C5_5  and  C9_9 
REMARK    2  A    between atoms: C6_6  and  C9_9 
REMARK    3  A    between atoms: C7_7  and  N11_11 
REMARK    4  A    between atoms: C8_8  and  N11_11 
REMARK    5  A    between atoms: C9_9  and  N11_11 
ROOT
HETATM    1  C1  UNL     1     -35.310  13.729  -4.739  1.00 20.00     0.061 C 
HETATM    2  C5  UNL     1     -34.522  14.802  -4.114  1.00 20.00     0.159 C 
HETATM    3  N10 UNL     1     -35.931  12.881  -5.232  1.00 20.00    -0.197 NA
ENDROOT
BRANCH   2   4
HETATM    4  C9  UNL     1     -35.411  15.846  -3.416  1.00 20.00     0.235 C 
BRANCH   4   5
HETATM    5  C6  UNL     1     -36.655  16.192  -4.260  1.00 20.00     0.032 C 
HETATM    6  C2  UNL     1     -37.446  17.380  -3.726  1.00 20.00     0.007 C 
ENDBRANCH   4   5
BRANCH   4   7
HETATM    7  N11 UNL     1     -34.606  17.048  -3.177  1.00 20.00     0.093 N 
BRANCH   7   8
HETATM    8  C7  UNL     1     -33.584  17.187  -4.211  1.00 20.00     0.268 C 
HETATM    9  C3  UNL     1     -33.539  18.582  -4.737  1.00 20.00     0.037 C 
ENDBRANCH   7   8
BRANCH   7  10
HETATM   10  C8  UNL     1     -33.993  16.992  -1.852  1.00 20.00     0.268 C 
HETATM   11  C4  UNL     1     -34.993  17.278  -0.783  1.00 20.00     0.037 C 
ENDBRANCH   7  10
ENDBRANCH   4   7
ENDBRANCH   2   4
TORSDOF 5
ENDMDL
MODEL 8
REMARK VINA RESULT:      -3.6      1.121      1.219
REMARK  5 active torsions:
REMARK  status: ('A' for Active; 'I' for Inactive)
REMARK    1  A    between atoms: C5_5  and  C9_9 
REMARK    2  A    between atoms: C6_6  and  C9_9 
REMARK    3  A    between atoms: C7_7  and  N11_11 
REMARK    4  A    between atoms: C8_8  and  N11_11 
REMARK    5  A    between atoms: C9_9  and  N11_11 
ROOT
HETATM    1  C1  UNL     1     -37.233  14.999  -4.666  1.00 20.00     0.061 C 
HETATM    2  C5  UNL     1     -36.544  16.263  -4.364  1.00 20.00     0.159 C 
HETATM    3  N10 UNL     1     -37.778  14.002  -4.905  1.00 20.00    -0.197 NA
ENDROOT
BRANCH   2   4
HETATM    4  C9  UNL     1     -35.239  16.040  -3.580  1.00 20.00     0.235 C 
BRANCH   4   5
HETATM    5  C6  UNL     1     -35.322  16.626  -2.156  1.00 20.00     0.032 C 
HETATM    6  C2  UNL     1     -33.980  17.099  -1.609  1.00 20.00     0.007 C 
ENDBRANCH   4   5
BRANCH   4   7
HETATM    7  N11 UNL     1     -34.143  16.666  -4.326  1.00 20.00     0.093 N 
BRANCH   7   8
HETATM    8  C7  UNL     1     -34.650  17.763  -5.147  1.00 20.00     0.268 C 
HETATM    9  C3  UNL     1     -33.746  18.946  -5.082  1.00 20.00     0.037 C 
ENDBRANCH   7   8
BRANCH   7  10
HETATM   10  C8  UNL     1     -33.463  15.674  -5.156  1.00 20.00     0.268 C 
HETATM   11  C4  UNL     1     -33.127  14.453  -4.369  1.00 20.00     0.037 C 
ENDBRANCH   7  10
ENDBRANCH   4   7
ENDBRANCH   2   4
TORSDOF 5
ENDMDL
MODEL 9
REMARK VINA RESULT:      -3.6     11.010     12.264
REMARK  5 active torsions:
REMARK  status: ('A' for Active; 'I' for Inactive)
REMARK    1  A    between atoms: C5_5  and  C9_9 
REMARK    2  A    between atoms: C6_6  and  C9_9 
REMARK    3  A    between atoms: C7_7  and  N11_11 
REMARK    4  A    between atoms: C8_8  and  N11_11 
REMARK    5  A    between atoms: C9_9  and  N11_11 
ROOT
HETATM    1  C1  UNL     1     -32.534   9.135   1.751  1.00 20.00     0.061 C 
HETATM    2  C5  UNL     1     -32.386   7.759   2.250  1.00 20.00     0.159 C 
HETATM    3  N10 UNL     1     -32.649  10.220   1.355  1.00 20.00    -0.197 NA
ENDROOT
BRANCH   2   4
HETATM    4  C9  UNL     1     -33.285   7.484   3.468  1.00 20.00     0.235 C 
BRANCH   4   5
HETATM    5  C6  UNL     1     -32.629   7.958   4.781  1.00 20.00     0.032 C 
HETATM    6  C2  UNL     1     -33.434   7.612   6.028  1.00 20.00     0.007 C 
ENDBRANCH   4   5
BRANCH   4   7
HETATM    7  N11 UNL     1     -33.554   6.043   3.524  1.00 20.00     0.093 N 
BRANCH   7   8
HETATM    8  C7  UNL     1     -33.263   5.423   2.234  1.00 20.00     0.268 C 
HETATM    9  C3  UNL     1     -32.701   4.053   2.410  1.00 20.00     0.037 C 
ENDBRANCH   7   8
BRANCH   7  10
HETATM   10  C8  UNL     1     -34.942   5.801   3.910  1.00 20.00     0.268 C 
HETATM   11  C4  UNL     1     -35.031   4.764   4.978  1.00 20.00     0.037 C 
ENDBRANCH   7  10
ENDBRANCH   4   7
ENDBRANCH   2   4
TORSDOF 5
ENDMDL
