MODEL 1
REMARK VINA RESULT:      -4.7      0.000      0.000
REMARK  1 active torsions:
REMARK  status: ('A' for Active; 'I' for Inactive)
REMARK    1  A    between atoms: C3_3  and  C8_8 
ROOT
HETATM    1  C1  UNL     1     -32.472   6.061   2.749  1.00 20.00     0.302 C 
HETATM    2  C2  UNL     1     -33.787   7.003   4.818  1.00 20.00     0.209 C 
HETATM    3  C3  UNL     1     -32.968   7.502   2.618  1.00 20.00     0.149 C 
HETATM    4  C4  UNL     1     -34.396   5.716   4.228  1.00 20.00     0.171 C 
HETATM    5  C5  UNL     1     -35.813   5.994   3.691  1.00 20.00     0.051 C 
HETATM    6  C6  UNL     1     -34.482   4.645   5.325  1.00 20.00     0.051 C 
HETATM    7  N9  UNL     1     -33.560   5.166   3.143  1.00 20.00     0.097 N 
HETATM    8  O10 UNL     1     -33.564   8.000   3.821  1.00 20.00    -0.382 OA
HETATM    9  H27 UNL     1     -34.150   4.999   2.327  1.00 20.00     0.317 HD
ENDROOT
BRANCH   3  10
HETATM   10  C8  UNL     1     -31.832   8.444   2.241  1.00 20.00     0.029 C 
HETATM   11  C7  UNL     1     -32.193   9.317   1.081  1.00 20.00     0.007 C 
ENDBRANCH   3  10
TORSDOF 1
ENDMDL
MODEL 2
REMARK VINA RESULT:      -4.3     11.133     12.314
REMARK  1 active torsions:
REMARK  status: ('A' for Active; 'I' for Inactive)
REMARK    1  A    between atoms: C3_3  and  C8_8 
ROOT
HETATM    1  C1  UNL     1     -33.965  14.340  -4.124  1.00 20.00     0.302 C 
HETATM    2  C2  UNL     1     -35.830  15.039  -5.834  1.00 20.00     0.209 C 
HETATM    3  C3  UNL     1     -34.337  15.824  -4.127  1.00 20.00     0.149 C 
HETATM    4  C4  UNL     1     -34.618  14.347  -6.486  1.00 20.00     0.171 C 
HETATM    5  C5  UNL     1     -33.910  15.313  -7.455  1.00 20.00     0.051 C 
HETATM    6  C6  UNL     1     -35.095  13.118  -7.271  1.00 20.00     0.051 C 
HETATM    7  N9  UNL     1     -33.653  13.874  -5.475  1.00 20.00     0.097 N 
HETATM    8  O10 UNL     1     -35.444  16.121  -4.986  1.00 20.00    -0.382 OA
HETATM    9  H27 UNL     1     -32.723  14.214  -5.724  1.00 20.00     0.317 HD
ENDROOT
BRANCH   3  10
HETATM   10  C8  UNL     1     -34.697  16.306  -2.728  1.00 20.00     0.029 C 
HETATM   11  C7  UNL     1     -33.590  17.101  -2.111  1.00 20.00     0.007 C 
ENDBRANCH   3  10
TORSDOF 1
ENDMDL
MODEL 3
REMARK VINA RESULT:      -3.9     11.507     12.172
REMARK  1 active torsions:
REMARK  status: ('A' for Active; 'I' for Inactive)
REMARK    1  A    between atoms: C3_3  and  C8_8 
ROOT
HETATM    1  C1  UNL     1     -35.031  16.654  -4.783  1.00 20.00     0.302 C 
HETATM    2  C2  UNL     1     -33.699  14.400  -4.985  1.00 20.00     0.209 C 
HETATM    3  C3  UNL     1     -34.890  15.850  -3.489  1.00 20.00     0.149 C 
HETATM    4  C4  UNL     1     -34.908  14.494  -5.935  1.00 20.00     0.171 C 
HETATM    5  C5  UNL     1     -35.941  13.403  -5.593  1.00 20.00     0.051 C 
HETATM    6  C6  UNL     1     -34.435  14.293  -7.382  1.00 20.00     0.051 C 
HETATM    7  N9  UNL     1     -35.554  15.819  -5.865  1.00 20.00     0.097 N 
HETATM    8  O10 UNL     1     -34.050  14.700  -3.634  1.00 20.00    -0.382 OA
HETATM    9  H27 UNL     1     -36.555  15.689  -5.714  1.00 20.00     0.317 HD
ENDROOT
BRANCH   3  10
HETATM   10  C8  UNL     1     -34.314  16.705  -2.369  1.00 20.00     0.029 C 
HETATM   11  C7  UNL     1     -35.310  16.941  -1.278  1.00 20.00     0.007 C 
ENDBRANCH   3  10
TORSDOF 1
ENDMDL
MODEL 4
REMARK VINA RESULT:      -3.9     11.458     12.339
REMARK  1 active torsions:
REMARK  status: ('A' for Active; 'I' for Inactive)
REMARK    1  A    between atoms: C3_3  and  C8_8 
ROOT
HETATM    1  C1  UNL     1     -33.284  16.201  -5.024  1.00 20.00     0.302 C 
HETATM    2  C2  UNL     1     -34.877  14.140  -4.698  1.00 20.00     0.209 C 
HETATM    3  C3  UNL     1     -34.359  16.359  -3.946  1.00 20.00     0.149 C 
HETATM    4  C4  UNL     1     -34.865  14.694  -6.136  1.00 20.00     0.171 C 
HETATM    5  C5  UNL     1     -36.261  15.222  -6.517  1.00 20.00     0.051 C 
HETATM    6  C6  UNL     1     -34.476  13.573  -7.110  1.00 20.00     0.051 C 
HETATM    7  N9  UNL     1     -33.873  15.776  -6.294  1.00 20.00     0.097 N 
HETATM    8  O10 UNL     1     -35.112  15.160  -3.729  1.00 20.00    -0.382 OA
HETATM    9  H27 UNL     1     -34.331  16.582  -6.721  1.00 20.00     0.317 HD
ENDROOT
BRANCH   3  10
HETATM   10  C8  UNL     1     -33.747  16.768  -2.613  1.00 20.00     0.029 C 
HETATM   11  C7  UNL     1     -34.785  16.914  -1.545  1.00 20.00     0.007 C 
ENDBRANCH   3  10
TORSDOF 1
ENDMDL
MODEL 5
REMARK VINA RESULT:      -3.7     11.239     12.496
REMARK  1 active torsions:
REMARK  status: ('A' for Active; 'I' for Inactive)
REMARK    1  A    between atoms: C3_3  and  C8_8 
ROOT
HETATM    1  C1  UNL     1     -34.580  15.582  -6.694  1.00 20.00     0.302 C 
HETATM    2  C2  UNL     1     -35.015  14.236  -4.482  1.00 20.00     0.209 C 
HETATM    3  C3  UNL     1     -34.649  14.062  -6.847  1.00 20.00     0.149 C 
HETATM    4  C4  UNL     1     -33.772  15.145  -4.422  1.00 20.00     0.171 C 
HETATM    5  C5  UNL     1     -32.500  14.297  -4.230  1.00 20.00     0.051 C 
HETATM    6  C6  UNL     1     -33.906  16.113  -3.238  1.00 20.00     0.051 C 
HETATM    7  N9  UNL     1     -33.636  15.962  -5.643  1.00 20.00     0.097 N 
HETATM    8  O10 UNL     1     -35.013  13.394  -5.633  1.00 20.00    -0.382 OA
HETATM    9  H27 UNL     1     -32.689  15.851  -6.008  1.00 20.00     0.317 HD
ENDROOT
BRANCH   3  10
HETATM   10  C8  UNL     1     -35.656  13.659  -7.915  1.00 20.00     0.029 C 
HETATM   11  C7  UNL     1     -36.856  14.553  -7.916  1.00 20.00     0.007 C 
ENDBRANCH   3  10
TORSDOF 1
ENDMDL
MODEL 6
REMARK VINA RESULT:      -3.7     11.185     12.146
REMARK  1 active torsions:
REMARK  status: ('A' for Active; 'I' for Inactive)
REMARK    1  A    between atoms: C3_3  and  C8_8 
ROOT
HETATM    1  C1  UNL     1     -35.982  16.949  -2.420  1.00 20.00     0.302 C 
HETATM    2  C2  UNL     1     -34.183  16.668  -4.312  1.00 20.00     0.209 C 
HETATM    3  C3  UNL     1     -34.555  16.677  -1.941  1.00 20.00     0.149 C 
HETATM    4  C4  UNL     1     -35.365  15.687  -4.428  1.00 20.00     0.171 C 
HETATM    5  C5  UNL     1     -34.870  14.235  -4.278  1.00 20.00     0.051 C 
HETATM    6  C6  UNL     1     -36.025  15.845  -5.805  1.00 20.00     0.051 C 
HETATM    7  N9  UNL     1     -36.400  15.959  -3.412  1.00 20.00     0.097 N 
HETATM    8  O10 UNL     1     -33.601  16.660  -3.009  1.00 20.00    -0.382 OA
HETATM    9  H27 UNL     1     -36.619  15.089  -2.924  1.00 20.00     0.317 HD
ENDROOT
BRANCH   3  10
HETATM   10  C8  UNL     1     -34.102  17.725  -0.934  1.00 20.00     0.029 C 
HETATM   11  C7  UNL     1     -32.688  18.153  -1.172  1.00 20.00     0.007 C 
ENDBRANCH   3  10
TORSDOF 1
ENDMDL
MODEL 7
REMARK VINA RESULT:      -3.7     11.445     12.431
REMARK  1 active torsions:
REMARK  status: ('A' for Active; 'I' for Inactive)
REMARK    1  A    between atoms: C3_3  and  C8_8 
ROOT
HETATM    1  C1  UNL     1     -36.026  13.695  -5.081  1.00 20.00     0.302 C 
HETATM    2  C2  UNL     1     -35.296  16.192  -5.430  1.00 20.00     0.209 C 
HETATM    3  C3  UNL     1     -37.032  14.749  -4.618  1.00 20.00     0.149 C 
HETATM    4  C4  UNL     1     -34.305  15.368  -4.586  1.00 20.00     0.171 C 
HETATM    5  C5  UNL     1     -34.210  15.946  -3.161  1.00 20.00     0.051 C 
HETATM    6  C6  UNL     1     -32.915  15.421  -5.237  1.00 20.00     0.051 C 
HETATM    7  N9  UNL     1     -34.701  13.949  -4.514  1.00 20.00     0.097 N 
HETATM    8  O10 UNL     1     -36.635  16.085  -4.949  1.00 20.00    -0.382 OA
HETATM    9  H27 UNL     1     -34.711  13.660  -3.534  1.00 20.00     0.317 HD
ENDROOT
BRANCH   3  10
HETATM   10  C8  UNL     1     -38.405  14.510  -5.232  1.00 20.00     0.029 C 
HETATM   11  C7  UNL     1     -39.387  15.564  -4.830  1.00 20.00     0.007 C 
ENDBRANCH   3  10
TORSDOF 1
ENDMDL
MODEL 8
REMARK VINA RESULT:      -3.6     11.478     12.565
REMARK  1 active torsions:
REMARK  status: ('A' for Active; 'I' for Inactive)
REMARK    1  A    between atoms: C3_3  and  C8_8 
ROOT
HETATM    1  C1  UNL     1     -35.224  15.922  -6.454  1.00 20.00     0.302 C 
HETATM    2  C2  UNL     1     -35.072  14.392  -4.326  1.00 20.00     0.209 C 
HETATM    3  C3  UNL     1     -34.138  14.846  -6.489  1.00 20.00     0.149 C 
HETATM    4  C4  UNL     1     -34.931  15.896  -4.021  1.00 20.00     0.171 C 
HETATM    5  C5  UNL     1     -33.539  16.192  -3.431  1.00 20.00     0.051 C 
HETATM    6  C6  UNL     1     -36.001  16.311  -3.001  1.00 20.00     0.051 C 
HETATM    7  N9  UNL     1     -35.136  16.717  -5.230  1.00 20.00     0.097 N 
HETATM    8  O10 UNL     1     -34.187  13.965  -5.360  1.00 20.00    -0.382 OA
HETATM    9  H27 UNL     1     -34.352  17.365  -5.324  1.00 20.00     0.317 HD
ENDROOT
BRANCH   3  10
HETATM   10  C8  UNL     1     -34.247  13.992  -7.745  1.00 20.00     0.029 C 
HETATM   11  C7  UNL     1     -35.609  13.392  -7.896  1.00 20.00     0.007 C 
ENDBRANCH   3  10
TORSDOF 1
ENDMDL
MODEL 9
REMARK VINA RESULT:      -3.6     11.374     12.295
REMARK  1 active torsions:
REMARK  status: ('A' for Active; 'I' for Inactive)
REMARK    1  A    between atoms: C3_3  and  C8_8 
ROOT
HETATM    1  C1  UNL     1     -35.902  16.298  -3.426  1.00 20.00     0.302 C 
HETATM    2  C2  UNL     1     -33.462  17.062  -4.024  1.00 20.00     0.209 C 
HETATM    3  C3  UNL     1     -34.924  16.368  -2.252  1.00 20.00     0.149 C 
HETATM    4  C4  UNL     1     -33.937  15.826  -4.813  1.00 20.00     0.171 C 
HETATM    5  C5  UNL     1     -33.057  14.607  -4.474  1.00 20.00     0.051 C 
HETATM    6  C6  UNL     1     -33.832  16.111  -6.317  1.00 20.00     0.051 C 
HETATM    7  N9  UNL     1     -35.349  15.506  -4.524  1.00 20.00     0.097 N 
HETATM    8  O10 UNL     1     -33.650  16.910  -2.618  1.00 20.00    -0.382 OA
HETATM    9  H27 UNL     1     -35.417  14.519  -4.273  1.00 20.00     0.317 HD
ENDROOT
BRANCH   3  10
HETATM   10  C8  UNL     1     -35.480  17.220  -1.120  1.00 20.00     0.029 C 
HETATM   11  C7  UNL     1     -34.392  17.873  -0.327  1.00 20.00     0.007 C 
ENDBRANCH   3  10
TORSDOF 1
ENDMDL
