MODEL 1
REMARK VINA RESULT:      -3.9      0.000      0.000
REMARK  2 active torsions:
REMARK  status: ('A' for Active; 'I' for Inactive)
REMARK    1  A    between atoms: C6_6  and  C7_7 
REMARK    2  A    between atoms: C7_7  and  N9_9 
ROOT
HETATM    1  C1  UNL     1     -35.270  13.859  -4.893  1.00 20.00     0.101 C 
HETATM    2  C4  UNL     1     -32.959  14.545  -4.424  1.00 20.00     0.066 C 
HETATM    3  C7  UNL     1     -34.421  15.012  -4.527  1.00 20.00     0.243 C 
HETATM    4  N8  UNL     1     -35.935  12.953  -5.182  1.00 20.00    -0.195 NA
ENDROOT
BRANCH   3   5
HETATM    5  C6  UNL     1     -34.905  15.688  -3.203  1.00 20.00     0.030 C 
HETATM    6  C2  UNL     1     -36.264  16.392  -3.332  1.00 20.00     0.013 C 
HETATM    7  C3  UNL     1     -33.883  16.681  -2.625  1.00 20.00     0.013 C 
ENDBRANCH   3   5
BRANCH   3   8
HETATM    8  N9  UNL     1     -34.473  15.994  -5.600  1.00 20.00     0.102 N 
HETATM    9  C5  UNL     1     -33.611  15.601  -6.708  1.00 20.00     0.309 C 
HETATM   10  H23 UNL     1     -35.432  16.075  -5.935  1.00 20.00     0.317 HD
ENDBRANCH   3   8
TORSDOF 2
ENDMDL
MODEL 2
REMARK VINA RESULT:      -3.9     11.807     12.611
REMARK  2 active torsions:
REMARK  status: ('A' for Active; 'I' for Inactive)
REMARK    1  A    between atoms: C6_6  and  C7_7 
REMARK    2  A    between atoms: C7_7  and  N9_9 
ROOT
HETATM    1  C1  UNL     1     -32.638   7.258   3.339  1.00 20.00     0.101 C 
HETATM    2  C4  UNL     1     -34.679   6.282   2.384  1.00 20.00     0.066 C 
HETATM    3  C7  UNL     1     -33.675   6.226   3.548  1.00 20.00     0.243 C 
HETATM    4  N8  UNL     1     -31.823   8.068   3.173  1.00 20.00    -0.195 NA
ENDROOT
BRANCH   3   5
HETATM    5  C6  UNL     1     -34.384   6.393   4.931  1.00 20.00     0.030 C 
HETATM    6  C2  UNL     1     -33.646   7.334   5.893  1.00 20.00     0.013 C 
HETATM    7  C3  UNL     1     -34.640   5.054   5.642  1.00 20.00     0.013 C 
ENDBRANCH   3   5
BRANCH   3   8
HETATM    8  N9  UNL     1     -33.048   4.913   3.499  1.00 20.00     0.102 N 
HETATM    9  C5  UNL     1     -32.955   4.431   2.127  1.00 20.00     0.309 C 
HETATM   10  H23 UNL     1     -32.112   4.973   3.898  1.00 20.00     0.317 HD
ENDBRANCH   3   8
TORSDOF 2
ENDMDL
MODEL 3
REMARK VINA RESULT:      -3.9      1.812      2.566
REMARK  2 active torsions:
REMARK  status: ('A' for Active; 'I' for Inactive)
REMARK    1  A    between atoms: C6_6  and  C7_7 
REMARK    2  A    between atoms: C7_7  and  N9_9 
ROOT
HETATM    1  C1  UNL     1     -35.894  13.927  -4.886  1.00 20.00     0.101 C 
HETATM    2  C4  UNL     1     -35.922  16.283  -5.582  1.00 20.00     0.066 C 
HETATM    3  C7  UNL     1     -35.944  15.318  -4.385  1.00 20.00     0.243 C 
HETATM    4  N8  UNL     1     -35.857  12.837  -5.281  1.00 20.00    -0.195 NA
ENDROOT
BRANCH   3   5
HETATM    5  C6  UNL     1     -34.780  15.612  -3.384  1.00 20.00     0.030 C 
HETATM    6  C2  UNL     1     -35.170  16.569  -2.249  1.00 20.00     0.013 C 
HETATM    7  C3  UNL     1     -33.514  16.147  -4.073  1.00 20.00     0.013 C 
ENDBRANCH   3   5
BRANCH   3   8
HETATM    8  N9  UNL     1     -37.213  15.526  -3.702  1.00 20.00     0.102 N 
HETATM    9  C5  UNL     1     -38.334  15.223  -4.582  1.00 20.00     0.309 C 
HETATM   10  H23 UNL     1     -37.257  14.920  -2.883  1.00 20.00     0.317 HD
ENDBRANCH   3   8
TORSDOF 2
ENDMDL
MODEL 4
REMARK VINA RESULT:      -3.9     11.031     11.699
REMARK  2 active torsions:
REMARK  status: ('A' for Active; 'I' for Inactive)
REMARK    1  A    between atoms: C6_6  and  C7_7 
REMARK    2  A    between atoms: C7_7  and  N9_9 
ROOT
HETATM    1  C1  UNL     1     -32.910   5.754   2.803  1.00 20.00     0.101 C 
HETATM    2  C4  UNL     1     -31.763   7.687   3.795  1.00 20.00     0.066 C 
HETATM    3  C7  UNL     1     -33.118   7.114   3.346  1.00 20.00     0.243 C 
HETATM    4  N8  UNL     1     -32.744   4.688   2.375  1.00 20.00    -0.195 NA
ENDROOT
BRANCH   3   5
HETATM    5  C6  UNL     1     -34.161   7.116   4.510  1.00 20.00     0.030 C 
HETATM    6  C2  UNL     1     -33.553   7.437   5.882  1.00 20.00     0.013 C 
HETATM    7  C3  UNL     1     -34.954   5.803   4.611  1.00 20.00     0.013 C 
ENDBRANCH   3   5
BRANCH   3   8
HETATM    8  N9  UNL     1     -33.606   7.976   2.279  1.00 20.00     0.102 N 
HETATM    9  C5  UNL     1     -32.518   8.751   1.697  1.00 20.00     0.309 C 
HETATM   10  H23 UNL     1     -34.034   7.403   1.553  1.00 20.00     0.317 HD
ENDBRANCH   3   8
TORSDOF 2
ENDMDL
MODEL 5
REMARK VINA RESULT:      -3.7      1.923      2.733
REMARK  2 active torsions:
REMARK  status: ('A' for Active; 'I' for Inactive)
REMARK    1  A    between atoms: C6_6  and  C7_7 
REMARK    2  A    between atoms: C7_7  and  N9_9 
ROOT
HETATM    1  C1  UNL     1     -36.649  14.071  -5.211  1.00 20.00     0.101 C 
HETATM    2  C4  UNL     1     -34.458  14.214  -4.109  1.00 20.00     0.066 C 
HETATM    3  C7  UNL     1     -35.204  14.271  -5.453  1.00 20.00     0.243 C 
HETATM    4  N8  UNL     1     -37.782  13.911  -5.020  1.00 20.00    -0.195 NA
ENDROOT
BRANCH   3   5
HETATM    5  C6  UNL     1     -34.926  15.608  -6.212  1.00 20.00     0.030 C 
HETATM    6  C2  UNL     1     -33.452  16.036  -6.188  1.00 20.00     0.013 C 
HETATM    7  C3  UNL     1     -35.792  16.776  -5.711  1.00 20.00     0.013 C 
ENDBRANCH   3   5
BRANCH   3   8
HETATM    8  N9  UNL     1     -34.705  13.164  -6.257  1.00 20.00     0.102 N 
HETATM    9  C5  UNL     1     -35.288  13.185  -7.592  1.00 20.00     0.309 C 
HETATM   10  H23 UNL     1     -33.691  13.235  -6.333  1.00 20.00     0.317 HD
ENDBRANCH   3   8
TORSDOF 2
ENDMDL
MODEL 6
REMARK VINA RESULT:      -3.7     11.835     12.740
REMARK  2 active torsions:
REMARK  status: ('A' for Active; 'I' for Inactive)
REMARK    1  A    between atoms: C6_6  and  C7_7 
REMARK    2  A    between atoms: C7_7  and  N9_9 
ROOT
HETATM    1  C1  UNL     1     -33.799   7.019   5.079  1.00 20.00     0.101 C 
HETATM    2  C4  UNL     1     -35.456   6.354   3.392  1.00 20.00     0.066 C 
HETATM    3  C7  UNL     1     -33.960   6.394   3.749  1.00 20.00     0.243 C 
HETATM    4  N8  UNL     1     -33.675   7.512   6.123  1.00 20.00    -0.195 NA
ENDROOT
BRANCH   3   5
HETATM    5  C6  UNL     1     -33.316   4.971   3.698  1.00 20.00     0.030 C 
HETATM    6  C2  UNL     1     -33.006   4.485   2.276  1.00 20.00     0.013 C 
HETATM    7  C3  UNL     1     -34.156   3.903   4.418  1.00 20.00     0.013 C 
ENDBRANCH   3   5
BRANCH   3   8
HETATM    8  N9  UNL     1     -33.314   7.236   2.753  1.00 20.00     0.102 N 
HETATM    9  C5  UNL     1     -32.077   7.804   3.275  1.00 20.00     0.309 C 
HETATM   10  H23 UNL     1     -33.103   6.678   1.926  1.00 20.00     0.317 HD
ENDBRANCH   3   8
TORSDOF 2
ENDMDL
MODEL 7
REMARK VINA RESULT:      -3.6      1.294      1.960
REMARK  2 active torsions:
REMARK  status: ('A' for Active; 'I' for Inactive)
REMARK    1  A    between atoms: C6_6  and  C7_7 
REMARK    2  A    between atoms: C7_7  and  N9_9 
ROOT
HETATM    1  C1  UNL     1     -36.833  14.263  -5.163  1.00 20.00     0.101 C 
HETATM    2  C4  UNL     1     -34.836  13.813  -6.521  1.00 20.00     0.066 C 
HETATM    3  C7  UNL     1     -35.438  14.688  -5.408  1.00 20.00     0.243 C 
HETATM    4  N8  UNL     1     -37.928  13.930  -4.973  1.00 20.00    -0.195 NA
ENDROOT
BRANCH   3   5
HETATM    5  C6  UNL     1     -34.581  14.633  -4.103  1.00 20.00     0.030 C 
HETATM    6  C2  UNL     1     -34.756  15.860  -3.198  1.00 20.00     0.013 C 
HETATM    7  C3  UNL     1     -33.082  14.425  -4.375  1.00 20.00     0.013 C 
ENDBRANCH   3   5
BRANCH   3   8
HETATM    8  N9  UNL     1     -35.444  16.056  -5.907  1.00 20.00     0.102 N 
HETATM    9  C5  UNL     1     -34.860  16.127  -7.240  1.00 20.00     0.309 C 
HETATM   10  H23 UNL     1     -36.404  16.396  -5.943  1.00 20.00     0.317 HD
ENDBRANCH   3   8
TORSDOF 2
ENDMDL
MODEL 8
REMARK VINA RESULT:      -3.6      1.521      2.690
REMARK  2 active torsions:
REMARK  status: ('A' for Active; 'I' for Inactive)
REMARK    1  A    between atoms: C6_6  and  C7_7 
REMARK    2  A    between atoms: C7_7  and  N9_9 
ROOT
HETATM    1  C1  UNL     1     -35.232  15.720  -6.030  1.00 20.00     0.101 C 
HETATM    2  C4  UNL     1     -36.321  13.643  -5.302  1.00 20.00     0.066 C 
HETATM    3  C7  UNL     1     -34.982  14.385  -5.445  1.00 20.00     0.243 C 
HETATM    4  N8  UNL     1     -35.429  16.766  -6.492  1.00 20.00    -0.195 NA
ENDROOT
BRANCH   3   5
HETATM    5  C6  UNL     1     -34.228  14.486  -4.080  1.00 20.00     0.030 C 
HETATM    6  C2  UNL     1     -34.556  15.759  -3.287  1.00 20.00     0.013 C 
HETATM    7  C3  UNL     1     -32.702  14.370  -4.224  1.00 20.00     0.013 C 
ENDBRANCH   3   5
BRANCH   3   8
HETATM    8  N9  UNL     1     -34.169  13.610  -6.372  1.00 20.00     0.102 N 
HETATM    9  C5  UNL     1     -34.916  13.298  -7.584  1.00 20.00     0.309 C 
HETATM   10  H23 UNL     1     -33.338  14.146  -6.619  1.00 20.00     0.317 HD
ENDBRANCH   3   8
TORSDOF 2
ENDMDL
MODEL 9
REMARK VINA RESULT:      -3.6      1.236      2.178
REMARK  2 active torsions:
REMARK  status: ('A' for Active; 'I' for Inactive)
REMARK    1  A    between atoms: C6_6  and  C7_7 
REMARK    2  A    between atoms: C7_7  and  N9_9 
ROOT
HETATM    1  C1  UNL     1     -35.387  13.857  -5.479  1.00 20.00     0.101 C 
HETATM    2  C4  UNL     1     -33.988  15.081  -7.083  1.00 20.00     0.066 C 
HETATM    3  C7  UNL     1     -34.688  15.137  -5.715  1.00 20.00     0.243 C 
HETATM    4  N8  UNL     1     -35.937  12.851  -5.296  1.00 20.00    -0.195 NA
ENDROOT
BRANCH   3   5
HETATM    5  C6  UNL     1     -33.683  15.467  -4.564  1.00 20.00     0.030 C 
HETATM    6  C2  UNL     1     -32.721  14.316  -4.237  1.00 20.00     0.013 C 
HETATM    7  C3  UNL     1     -34.377  15.918  -3.269  1.00 20.00     0.013 C 
ENDBRANCH   3   5
BRANCH   3   8
HETATM    8  N9  UNL     1     -35.676  16.205  -5.793  1.00 20.00     0.102 N 
HETATM    9  C5  UNL     1     -36.482  16.081  -7.000  1.00 20.00     0.309 C 
HETATM   10  H23 UNL     1     -36.285  16.159  -4.977  1.00 20.00     0.317 HD
ENDBRANCH   3   8
TORSDOF 2
ENDMDL
