MODEL 1
REMARK VINA RESULT:      -3.3      0.000      0.000
REMARK  1 active torsions:
REMARK  status: ('A' for Active; 'I' for Inactive)
REMARK    1  A    between atoms: C1_1  and  S9_9 
ROOT
HETATM    1  C1  UNL     1     -34.607  14.980  -4.081  1.00 20.00     0.047 A 
HETATM    2  C2  UNL     1     -35.036  16.011  -3.225  1.00 20.00     0.069 A 
HETATM    3  C3  UNL     1     -35.760  14.523  -4.672  1.00 20.00     0.044 A 
HETATM    4  C4  UNL     1     -34.220  16.859  -2.335  1.00 20.00     0.074 C 
HETATM    5  C5  UNL     1     -35.998  13.456  -5.666  1.00 20.00     0.071 C 
HETATM    6  C6  UNL     1     -38.177  15.181  -4.466  1.00 20.00     0.179 C 
HETATM    7  N7  UNL     1     -36.358  16.199  -3.265  1.00 20.00    -0.176 NA
HETATM    8  N8  UNL     1     -36.770  15.279  -4.154  1.00 20.00    -0.277 N 
ENDROOT
BRANCH   1   9
HETATM    9  S9  UNL     1     -32.981  14.419  -4.326  1.00 20.00    -0.139 SA
HETATM   10  H19 UNL     1     -32.382  15.034  -3.287  1.00 20.00     0.107 HD
ENDBRANCH   1   9
TORSDOF 1
ENDMDL
MODEL 2
REMARK VINA RESULT:      -3.3      4.873      6.107
REMARK  1 active torsions:
REMARK  status: ('A' for Active; 'I' for Inactive)
REMARK    1  A    between atoms: C1_1  and  S9_9 
ROOT
HETATM    1  C1  UNL     1     -33.544  18.468   0.955  1.00 20.00     0.047 A 
HETATM    2  C2  UNL     1     -32.221  18.728   0.555  1.00 20.00     0.069 A 
HETATM    3  C3  UNL     1     -34.156  17.985  -0.175  1.00 20.00     0.044 A 
HETATM    4  C4  UNL     1     -31.109  19.263   1.365  1.00 20.00     0.074 C 
HETATM    5  C5  UNL     1     -35.539  17.530  -0.426  1.00 20.00     0.071 C 
HETATM    6  C6  UNL     1     -33.352  17.560  -2.519  1.00 20.00     0.179 C 
HETATM    7  N7  UNL     1     -32.002  18.433  -0.729  1.00 20.00    -0.176 NA
HETATM    8  N8  UNL     1     -33.198  17.984  -1.146  1.00 20.00    -0.277 N 
ENDROOT
BRANCH   1   9
HETATM    9  S9  UNL     1     -34.238  18.711   2.530  1.00 20.00    -0.139 SA
HETATM   10  H19 UNL     1     -33.106  18.886   3.240  1.00 20.00     0.107 HD
ENDBRANCH   1   9
TORSDOF 1
ENDMDL
MODEL 3
REMARK VINA RESULT:      -3.3      5.112      6.991
REMARK  1 active torsions:
REMARK  status: ('A' for Active; 'I' for Inactive)
REMARK    1  A    between atoms: C1_1  and  S9_9 
ROOT
HETATM    1  C1  UNL     1     -34.004  18.207   0.098  1.00 20.00     0.047 A 
HETATM    2  C2  UNL     1     -33.052  18.153  -0.937  1.00 20.00     0.069 A 
HETATM    3  C3  UNL     1     -33.292  18.616   1.199  1.00 20.00     0.044 A 
HETATM    4  C4  UNL     1     -33.256  17.773  -2.348  1.00 20.00     0.074 C 
HETATM    5  C5  UNL     1     -33.701  18.867   2.595  1.00 20.00     0.071 C 
HETATM    6  C6  UNL     1     -30.874  19.198   1.565  1.00 20.00     0.179 C 
HETATM    7  N7  UNL     1     -31.827  18.501  -0.531  1.00 20.00    -0.176 NA
HETATM    8  N8  UNL     1     -32.006  18.776   0.773  1.00 20.00    -0.277 N 
ENDROOT
BRANCH   1   9
HETATM    9  S9  UNL     1     -35.698  17.836  -0.007  1.00 20.00    -0.139 SA
HETATM   10  H19 UNL     1     -35.972  18.411  -1.195  1.00 20.00     0.107 HD
ENDBRANCH   1   9
TORSDOF 1
ENDMDL
MODEL 4
REMARK VINA RESULT:      -3.2      2.127      2.646
REMARK  1 active torsions:
REMARK  status: ('A' for Active; 'I' for Inactive)
REMARK    1  A    between atoms: C1_1  and  S9_9 
ROOT
HETATM    1  C1  UNL     1     -36.210  16.445  -3.349  1.00 20.00     0.047 A 
HETATM    2  C2  UNL     1     -34.863  16.046  -3.274  1.00 20.00     0.069 A 
HETATM    3  C3  UNL     1     -36.812  15.479  -4.117  1.00 20.00     0.044 A 
HETATM    4  C4  UNL     1     -33.749  16.714  -2.573  1.00 20.00     0.074 C 
HETATM    5  C5  UNL     1     -38.208  15.311  -4.568  1.00 20.00     0.071 C 
HETATM    6  C6  UNL     1     -35.961  13.398  -5.243  1.00 20.00     0.179 C 
HETATM    7  N7  UNL     1     -34.621  14.914  -3.942  1.00 20.00    -0.176 NA
HETATM    8  N8  UNL     1     -35.826  14.594  -4.444  1.00 20.00    -0.277 N 
ENDROOT
BRANCH   1   9
HETATM    9  S9  UNL     1     -36.936  17.849  -2.628  1.00 20.00    -0.139 SA
HETATM   10  H19 UNL     1     -36.163  18.802  -3.184  1.00 20.00     0.107 HD
ENDBRANCH   1   9
TORSDOF 1
ENDMDL
MODEL 5
REMARK VINA RESULT:      -3.2      1.822      2.554
REMARK  1 active torsions:
REMARK  status: ('A' for Active; 'I' for Inactive)
REMARK    1  A    between atoms: C1_1  and  S9_9 
ROOT
HETATM    1  C1  UNL     1     -34.596  15.706  -3.617  1.00 20.00     0.047 A 
HETATM    2  C2  UNL     1     -34.064  14.538  -4.193  1.00 20.00     0.069 A 
HETATM    3  C3  UNL     1     -35.923  15.688  -3.967  1.00 20.00     0.044 A 
HETATM    4  C4  UNL     1     -32.675  14.043  -4.140  1.00 20.00     0.074 C 
HETATM    5  C5  UNL     1     -37.028  16.625  -3.679  1.00 20.00     0.071 C 
HETATM    6  C6  UNL     1     -37.329  14.087  -5.301  1.00 20.00     0.179 C 
HETATM    7  N7  UNL     1     -34.978  13.828  -4.859  1.00 20.00    -0.176 NA
HETATM    8  N8  UNL     1     -36.099  14.553  -4.704  1.00 20.00    -0.277 N 
ENDROOT
BRANCH   1   9
HETATM    9  S9  UNL     1     -33.751  16.898  -2.676  1.00 20.00    -0.139 SA
HETATM   10  H19 UNL     1     -33.090  17.527  -3.668  1.00 20.00     0.107 HD
ENDBRANCH   1   9
TORSDOF 1
ENDMDL
MODEL 6
REMARK VINA RESULT:      -3.2      2.275      3.856
REMARK  1 active torsions:
REMARK  status: ('A' for Active; 'I' for Inactive)
REMARK    1  A    between atoms: C1_1  and  S9_9 
ROOT
HETATM    1  C1  UNL     1     -35.869  15.752  -3.971  1.00 20.00     0.047 A 
HETATM    2  C2  UNL     1     -36.090  14.576  -4.712  1.00 20.00     0.069 A 
HETATM    3  C3  UNL     1     -34.536  15.705  -3.643  1.00 20.00     0.044 A 
HETATM    4  C4  UNL     1     -37.348  14.103  -5.321  1.00 20.00     0.074 C 
HETATM    5  C5  UNL     1     -33.680  16.633  -2.876  1.00 20.00     0.071 C 
HETATM    6  C6  UNL     1     -32.705  14.050  -4.117  1.00 20.00     0.179 C 
HETATM    7  N7  UNL     1     -34.987  13.836  -4.848  1.00 20.00    -0.176 NA
HETATM    8  N8  UNL     1     -34.058  14.548  -4.187  1.00 20.00    -0.277 N 
ENDROOT
BRANCH   1   9
HETATM    9  S9  UNL     1     -37.030  16.979  -3.568  1.00 20.00    -0.139 SA
HETATM   10  H19 UNL     1     -37.949  16.730  -4.522  1.00 20.00     0.107 HD
ENDBRANCH   1   9
TORSDOF 1
ENDMDL
MODEL 7
REMARK VINA RESULT:      -3.2      1.609      2.266
REMARK  1 active torsions:
REMARK  status: ('A' for Active; 'I' for Inactive)
REMARK    1  A    between atoms: C1_1  and  S9_9 
ROOT
HETATM    1  C1  UNL     1     -34.749  16.195  -3.221  1.00 20.00     0.047 A 
HETATM    2  C2  UNL     1     -36.135  16.417  -3.319  1.00 20.00     0.069 A 
HETATM    3  C3  UNL     1     -34.529  15.061  -3.963  1.00 20.00     0.044 A 
HETATM    4  C4  UNL     1     -36.932  17.502  -2.716  1.00 20.00     0.074 C 
HETATM    5  C5  UNL     1     -33.296  14.305  -4.260  1.00 20.00     0.071 C 
HETATM    6  C6  UNL     1     -36.043  13.547  -5.281  1.00 20.00     0.179 C 
HETATM    7  N7  UNL     1     -36.754  15.497  -4.065  1.00 20.00    -0.176 NA
HETATM    8  N8  UNL     1     -35.751  14.686  -4.442  1.00 20.00    -0.277 N 
ENDROOT
BRANCH   1   9
HETATM    9  S9  UNL     1     -33.587  17.150  -2.352  1.00 20.00    -0.139 SA
HETATM   10  H19 UNL     1     -32.477  16.431  -2.614  1.00 20.00     0.107 HD
ENDBRANCH   1   9
TORSDOF 1
ENDMDL
MODEL 8
REMARK VINA RESULT:      -3.2      1.489      3.077
REMARK  1 active torsions:
REMARK  status: ('A' for Active; 'I' for Inactive)
REMARK    1  A    between atoms: C1_1  and  S9_9 
ROOT
HETATM    1  C1  UNL     1     -35.534  14.387  -5.351  1.00 20.00     0.047 A 
HETATM    2  C2  UNL     1     -36.763  14.842  -4.839  1.00 20.00     0.069 A 
HETATM    3  C3  UNL     1     -34.591  14.933  -4.516  1.00 20.00     0.044 A 
HETATM    4  C4  UNL     1     -38.122  14.566  -5.344  1.00 20.00     0.074 C 
HETATM    5  C5  UNL     1     -33.117  14.842  -4.506  1.00 20.00     0.071 C 
HETATM    6  C6  UNL     1     -34.738  16.415  -2.491  1.00 20.00     0.179 C 
HETATM    7  N7  UNL     1     -36.619  15.617  -3.761  1.00 20.00    -0.176 NA
HETATM    8  N8  UNL     1     -35.286  15.654  -3.589  1.00 20.00    -0.277 N 
ENDROOT
BRANCH   1   9
HETATM    9  S9  UNL     1     -35.280  13.365  -6.733  1.00 20.00    -0.139 SA
HETATM   10  H19 UNL     1     -36.471  13.527  -7.344  1.00 20.00     0.107 HD
ENDBRANCH   1   9
TORSDOF 1
ENDMDL
MODEL 9
REMARK VINA RESULT:      -3.2     11.853     12.078
REMARK  1 active torsions:
REMARK  status: ('A' for Active; 'I' for Inactive)
REMARK    1  A    between atoms: C1_1  and  S9_9 
ROOT
HETATM    1  C1  UNL     1     -33.801   5.970   4.275  1.00 20.00     0.047 A 
HETATM    2  C2  UNL     1     -33.516   7.156   4.976  1.00 20.00     0.069 A 
HETATM    3  C3  UNL     1     -33.225   6.153   3.042  1.00 20.00     0.044 A 
HETATM    4  C4  UNL     1     -33.893   7.515   6.356  1.00 20.00     0.074 C 
HETATM    5  C5  UNL     1     -33.164   5.286   1.848  1.00 20.00     0.071 C 
HETATM    6  C6  UNL     1     -31.919   8.040   2.016  1.00 20.00     0.179 C 
HETATM    7  N7  UNL     1     -32.812   8.029   4.250  1.00 20.00    -0.176 NA
HETATM    8  N8  UNL     1     -32.651   7.390   3.078  1.00 20.00    -0.277 N 
ENDROOT
BRANCH   1   9
HETATM    9  S9  UNL     1     -34.687   4.591   4.851  1.00 20.00    -0.139 SA
HETATM   10  H19 UNL     1     -33.657   3.749   5.070  1.00 20.00     0.107 HD
ENDBRANCH   1   9
TORSDOF 1
ENDMDL
