MODEL 1
REMARK VINA RESULT:      -5.0      0.000      0.000
REMARK  2 active torsions:
REMARK  status: ('A' for Active; 'I' for Inactive)
REMARK    1  A    between atoms: C1_1  and  C5_5 
REMARK       I    between atoms: C1_1  and  N7_7 
REMARK    2  A    between atoms: C5_5  and  C6_6 
ROOT
HETATM    1  C1  UNL     1     -32.584   7.679   3.608  1.00 20.00     0.220 C 
HETATM    2  C2  UNL     1     -34.751   5.609   5.220  1.00 20.00     0.040 C 
HETATM    3  C3  UNL     1     -33.832   6.760   5.649  1.00 20.00     0.127 C 
HETATM    4  C4  UNL     1     -34.642   6.115   3.777  1.00 20.00     0.127 C 
HETATM    5  N7  UNL     1     -33.543   6.939   4.240  1.00 20.00    -0.352 N 
HETATM    6  O8  UNL     1     -31.745   8.365   4.189  1.00 20.00    -0.273 OA
ENDROOT
BRANCH   1   7
HETATM    7  C5  UNL     1     -32.622   7.590   2.105  1.00 20.00     0.118 C 
BRANCH   7   8
HETATM    8  C6  UNL     1     -31.832   8.723   1.483  1.00 20.00     0.124 C 
HETATM    9 CL9  UNL     1     -32.872  10.122   1.115  1.00 20.00    -0.130 Cl
ENDBRANCH   7   8
ENDBRANCH   1   7
TORSDOF 2
ENDMDL
MODEL 2
REMARK VINA RESULT:      -4.8      2.676      4.129
REMARK  2 active torsions:
REMARK  status: ('A' for Active; 'I' for Inactive)
REMARK    1  A    between atoms: C1_1  and  C5_5 
REMARK       I    between atoms: C1_1  and  N7_7 
REMARK    2  A    between atoms: C5_5  and  C6_6 
ROOT
HETATM    1  C1  UNL     1     -33.626   7.112   4.950  1.00 20.00     0.220 C 
HETATM    2  C2  UNL     1     -31.938   8.164   2.189  1.00 20.00     0.040 C 
HETATM    3  C3  UNL     1     -31.691   8.235   3.701  1.00 20.00     0.127 C 
HETATM    4  C4  UNL     1     -32.953   7.044   2.450  1.00 20.00     0.127 C 
HETATM    5  N7  UNL     1     -32.883   7.424   3.847  1.00 20.00    -0.352 N 
HETATM    6  O8  UNL     1     -33.375   7.508   6.087  1.00 20.00    -0.273 OA
ENDROOT
BRANCH   1   7
HETATM    7  C5  UNL     1     -34.813   6.229   4.670  1.00 20.00     0.118 C 
BRANCH   7   8
HETATM    8  C6  UNL     1     -34.637   4.874   5.324  1.00 20.00     0.124 C 
HETATM    9 CL9  UNL     1     -33.963   3.680   4.186  1.00 20.00    -0.130 Cl
ENDBRANCH   7   8
ENDBRANCH   1   7
TORSDOF 2
ENDMDL
MODEL 3
REMARK VINA RESULT:      -4.5      1.322      1.638
REMARK  2 active torsions:
REMARK  status: ('A' for Active; 'I' for Inactive)
REMARK    1  A    between atoms: C1_1  and  C5_5 
REMARK       I    between atoms: C1_1  and  N7_7 
REMARK    2  A    between atoms: C5_5  and  C6_6 
ROOT
HETATM    1  C1  UNL     1     -33.122   7.064   2.976  1.00 20.00     0.220 C 
HETATM    2  C2  UNL     1     -34.515   6.460   6.021  1.00 20.00     0.040 C 
HETATM    3  C3  UNL     1     -34.497   5.726   4.675  1.00 20.00     0.127 C 
HETATM    4  C4  UNL     1     -33.296   7.263   5.553  1.00 20.00     0.127 C 
HETATM    5  N7  UNL     1     -33.577   6.752   4.227  1.00 20.00    -0.352 N 
HETATM    6  O8  UNL     1     -33.453   6.471   1.951  1.00 20.00    -0.273 OA
ENDROOT
BRANCH   1   7
HETATM    7  C5  UNL     1     -32.162   8.223   2.938  1.00 20.00     0.118 C 
BRANCH   7   8
HETATM    8  C6  UNL     1     -31.925   8.674   1.511  1.00 20.00     0.124 C 
HETATM    9 CL9  UNL     1     -32.705  10.242   1.183  1.00 20.00    -0.130 Cl
ENDBRANCH   7   8
ENDBRANCH   1   7
TORSDOF 2
ENDMDL
MODEL 4
REMARK VINA RESULT:      -4.2      2.882      4.454
REMARK  2 active torsions:
REMARK  status: ('A' for Active; 'I' for Inactive)
REMARK    1  A    between atoms: C1_1  and  C5_5 
REMARK       I    between atoms: C1_1  and  N7_7 
REMARK    2  A    between atoms: C5_5  and  C6_6 
ROOT
HETATM    1  C1  UNL     1     -34.210   6.668   3.953  1.00 20.00     0.220 C 
HETATM    2  C2  UNL     1     -31.491   8.293   2.711  1.00 20.00     0.040 C 
HETATM    3  C3  UNL     1     -32.863   7.897   2.152  1.00 20.00     0.127 C 
HETATM    4  C4  UNL     1     -32.054   8.094   4.123  1.00 20.00     0.127 C 
HETATM    5  N7  UNL     1     -33.176   7.430   3.489  1.00 20.00    -0.352 N 
HETATM    6  O8  UNL     1     -35.112   6.221   3.247  1.00 20.00    -0.273 OA
ENDROOT
BRANCH   1   7
HETATM    7  C5  UNL     1     -34.166   6.399   5.434  1.00 20.00     0.118 C 
BRANCH   7   8
HETATM    8  C6  UNL     1     -34.642   4.992   5.736  1.00 20.00     0.124 C 
HETATM    9 CL9  UNL     1     -34.005   3.819   4.557  1.00 20.00    -0.130 Cl
ENDBRANCH   7   8
ENDBRANCH   1   7
TORSDOF 2
ENDMDL
MODEL 5
REMARK VINA RESULT:      -4.0      2.739      4.265
REMARK  2 active torsions:
REMARK  status: ('A' for Active; 'I' for Inactive)
REMARK    1  A    between atoms: C1_1  and  C5_5 
REMARK       I    between atoms: C1_1  and  N7_7 
REMARK    2  A    between atoms: C5_5  and  C6_6 
ROOT
HETATM    1  C1  UNL     1     -32.902   7.442   3.218  1.00 20.00     0.220 C 
HETATM    2  C2  UNL     1     -32.503   9.822   0.819  1.00 20.00     0.040 C 
HETATM    3  C3  UNL     1     -32.002   9.641   2.257  1.00 20.00     0.127 C 
HETATM    4  C4  UNL     1     -32.815   8.322   0.783  1.00 20.00     0.127 C 
HETATM    5  N7  UNL     1     -32.633   8.337   2.220  1.00 20.00    -0.352 N 
HETATM    6  O8  UNL     1     -32.625   7.623   4.402  1.00 20.00    -0.273 OA
ENDROOT
BRANCH   1   7
HETATM    7  C5  UNL     1     -33.585   6.183   2.754  1.00 20.00     0.118 C 
BRANCH   7   8
HETATM    8  C6  UNL     1     -34.762   5.852   3.649  1.00 20.00     0.124 C 
HETATM    9 CL9  UNL     1     -34.490   4.343   4.555  1.00 20.00    -0.130 Cl
ENDBRANCH   7   8
ENDBRANCH   1   7
TORSDOF 2
ENDMDL
MODEL 6
REMARK VINA RESULT:      -3.7      2.717      4.478
REMARK  2 active torsions:
REMARK  status: ('A' for Active; 'I' for Inactive)
REMARK    1  A    between atoms: C1_1  and  C5_5 
REMARK       I    between atoms: C1_1  and  N7_7 
REMARK    2  A    between atoms: C5_5  and  C6_6 
ROOT
HETATM    1  C1  UNL     1     -32.746   7.452   2.702  1.00 20.00     0.220 C 
HETATM    2  C2  UNL     1     -32.239  10.253   0.836  1.00 20.00     0.040 C 
HETATM    3  C3  UNL     1     -31.717   8.811   0.788  1.00 20.00     0.127 C 
HETATM    4  C4  UNL     1     -33.390   9.763   1.723  1.00 20.00     0.127 C 
HETATM    5  N7  UNL     1     -32.635   8.535   1.875  1.00 20.00    -0.352 N 
HETATM    6  O8  UNL     1     -32.019   6.462   2.645  1.00 20.00    -0.273 OA
ENDROOT
BRANCH   1   7
HETATM    7  C5  UNL     1     -33.848   7.561   3.721  1.00 20.00     0.118 C 
BRANCH   7   8
HETATM    8  C6  UNL     1     -34.382   6.189   4.079  1.00 20.00     0.124 C 
HETATM    9 CL9  UNL     1     -34.432   5.946   5.843  1.00 20.00    -0.130 Cl
ENDBRANCH   7   8
ENDBRANCH   1   7
TORSDOF 2
ENDMDL
MODEL 7
REMARK VINA RESULT:      -3.7     11.111     11.395
REMARK  2 active torsions:
REMARK  status: ('A' for Active; 'I' for Inactive)
REMARK    1  A    between atoms: C1_1  and  C5_5 
REMARK       I    between atoms: C1_1  and  N7_7 
REMARK    2  A    between atoms: C5_5  and  C6_6 
ROOT
HETATM    1  C1  UNL     1     -32.214  18.501  -0.163  1.00 20.00     0.220 C 
HETATM    2  C2  UNL     1     -33.820  18.485   2.837  1.00 20.00     0.040 C 
HETATM    3  C3  UNL     1     -32.353  18.557   2.395  1.00 20.00     0.127 C 
HETATM    4  C4  UNL     1     -34.224  18.907   1.419  1.00 20.00     0.127 C 
HETATM    5  N7  UNL     1     -32.855  18.623   1.038  1.00 20.00    -0.352 N 
HETATM    6  O8  UNL     1     -31.007  18.298  -0.284  1.00 20.00    -0.273 OA
ENDROOT
BRANCH   1   7
HETATM    7  C5  UNL     1     -33.113  18.631  -1.363  1.00 20.00     0.118 C 
BRANCH   7   8
HETATM    8  C6  UNL     1     -33.482  17.265  -1.905  1.00 20.00     0.124 C 
HETATM    9 CL9  UNL     1     -35.121  16.782  -1.399  1.00 20.00    -0.130 Cl
ENDBRANCH   7   8
ENDBRANCH   1   7
TORSDOF 2
ENDMDL
MODEL 8
REMARK VINA RESULT:      -3.7     10.956     12.015
REMARK  2 active torsions:
REMARK  status: ('A' for Active; 'I' for Inactive)
REMARK    1  A    between atoms: C1_1  and  C5_5 
REMARK       I    between atoms: C1_1  and  N7_7 
REMARK    2  A    between atoms: C5_5  and  C6_6 
ROOT
HETATM    1  C1  UNL     1     -34.395  14.350  -4.613  1.00 20.00     0.220 C 
HETATM    2  C2  UNL     1     -33.746  14.840  -7.917  1.00 20.00     0.040 C 
HETATM    3  C3  UNL     1     -34.487  13.769  -7.108  1.00 20.00     0.127 C 
HETATM    4  C4  UNL     1     -33.865  15.777  -6.709  1.00 20.00     0.127 C 
HETATM    5  N7  UNL     1     -34.249  14.605  -5.948  1.00 20.00    -0.352 N 
HETATM    6  O8  UNL     1     -34.784  13.278  -4.153  1.00 20.00    -0.273 OA
ENDROOT
BRANCH   1   7
HETATM    7  C5  UNL     1     -34.031  15.504  -3.718  1.00 20.00     0.118 C 
BRANCH   7   8
HETATM    8  C6  UNL     1     -35.277  16.188  -3.194  1.00 20.00     0.124 C 
HETATM    9 CL9  UNL     1     -35.080  16.695  -1.497  1.00 20.00    -0.130 Cl
ENDBRANCH   7   8
ENDBRANCH   1   7
TORSDOF 2
ENDMDL
MODEL 9
REMARK VINA RESULT:      -3.6     10.865     11.626
REMARK  2 active torsions:
REMARK  status: ('A' for Active; 'I' for Inactive)
REMARK    1  A    between atoms: C1_1  and  C5_5 
REMARK       I    between atoms: C1_1  and  N7_7 
REMARK    2  A    between atoms: C5_5  and  C6_6 
ROOT
HETATM    1  C1  UNL     1     -35.603  13.797  -4.798  1.00 20.00     0.220 C 
HETATM    2  C2  UNL     1     -38.179  16.017  -4.690  1.00 20.00     0.040 C 
HETATM    3  C3  UNL     1     -38.034  14.547  -5.102  1.00 20.00     0.127 C 
HETATM    4  C4  UNL     1     -36.855  15.891  -3.927  1.00 20.00     0.127 C 
HETATM    5  N7  UNL     1     -36.665  14.642  -4.638  1.00 20.00    -0.352 N 
HETATM    6  O8  UNL     1     -35.651  12.734  -5.415  1.00 20.00    -0.273 OA
ENDROOT
BRANCH   1   7
HETATM    7  C5  UNL     1     -34.329  14.273  -4.151  1.00 20.00     0.118 C 
BRANCH   7   8
HETATM    8  C6  UNL     1     -33.430  14.942  -5.171  1.00 20.00     0.124 C 
HETATM    9 CL9  UNL     1     -33.396  16.710  -4.952  1.00 20.00    -0.130 Cl
ENDBRANCH   7   8
ENDBRANCH   1   7
TORSDOF 2
ENDMDL
