MODEL 1
REMARK VINA RESULT:      -5.8      0.000      0.000
REMARK  2 active torsions:
REMARK  status: ('A' for Active; 'I' for Inactive)
REMARK    1  A    between atoms: C2_2  and  C4_4 
REMARK    2  A    between atoms: C2_2  and  C8_8 
ROOT
HETATM    1  C1  UNL     1     -33.692   7.159   4.883  1.00 20.00     0.071 C 
HETATM    2  C7  UNL     1     -33.526   5.640   2.950  1.00 20.00     0.033 C 
HETATM    3  C8  UNL     1     -33.602   7.090   3.415  1.00 20.00     0.158 C 
HETATM    4  N9  UNL     1     -33.767   7.215   6.040  1.00 20.00    -0.196 NA
ENDROOT
BRANCH   3   5
HETATM    5  C2  UNL     1     -32.385   7.847   2.910  1.00 20.00     0.148 C 
HETATM    6  O10 UNL     1     -31.497   8.287   3.630  1.00 20.00    -0.296 OA
BRANCH   5   7
HETATM    7  C4  UNL     1     -32.314   8.063   1.434  1.00 20.00     0.061 A 
HETATM    8  C3  UNL     1     -31.160   8.833   0.882  1.00 20.00     0.017 A 
HETATM    9  C5  UNL     1     -32.530   9.456   0.909  1.00 20.00    -0.007 A 
HETATM   10  C6  UNL     1     -33.291   9.652  -0.356  1.00 20.00     0.011 C 
ENDBRANCH   5   7
ENDBRANCH   3   5
TORSDOF 2
ENDMDL
MODEL 2
REMARK VINA RESULT:      -5.6      1.586      2.038
REMARK  2 active torsions:
REMARK  status: ('A' for Active; 'I' for Inactive)
REMARK    1  A    between atoms: C2_2  and  C4_4 
REMARK    2  A    between atoms: C2_2  and  C8_8 
ROOT
HETATM    1  C1  UNL     1     -34.497   4.872   4.427  1.00 20.00     0.071 C 
HETATM    2  C7  UNL     1     -33.004   4.726   2.473  1.00 20.00     0.033 C 
HETATM    3  C8  UNL     1     -34.050   5.559   3.203  1.00 20.00     0.158 C 
HETATM    4  N9  UNL     1     -34.853   4.331   5.390  1.00 20.00    -0.196 NA
ENDROOT
BRANCH   3   5
HETATM    5  C2  UNL     1     -33.472   6.926   3.528  1.00 20.00     0.148 C 
HETATM    6  O10 UNL     1     -33.864   7.644   4.440  1.00 20.00    -0.296 OA
BRANCH   5   7
HETATM    7  C4  UNL     1     -32.365   7.396   2.641  1.00 20.00     0.061 A 
HETATM    8  C3  UNL     1     -31.412   8.415   3.173  1.00 20.00     0.017 A 
HETATM    9  C5  UNL     1     -32.421   8.808   2.126  1.00 20.00    -0.007 A 
HETATM   10  C6  UNL     1     -31.982   9.096   0.732  1.00 20.00     0.011 C 
ENDBRANCH   5   7
ENDBRANCH   3   5
TORSDOF 2
ENDMDL
MODEL 3
REMARK VINA RESULT:      -5.3      1.462      1.831
REMARK  2 active torsions:
REMARK  status: ('A' for Active; 'I' for Inactive)
REMARK    1  A    between atoms: C2_2  and  C4_4 
REMARK    2  A    between atoms: C2_2  and  C8_8 
ROOT
HETATM    1  C1  UNL     1     -33.821   7.089   5.126  1.00 20.00     0.071 C 
HETATM    2  C7  UNL     1     -35.414   5.885   3.681  1.00 20.00     0.033 C 
HETATM    3  C8  UNL     1     -34.216   6.827   3.731  1.00 20.00     0.158 C 
HETATM    4  N9  UNL     1     -33.510   7.299   6.224  1.00 20.00    -0.196 NA
ENDROOT
BRANCH   3   5
HETATM    5  C2  UNL     1     -33.065   6.223   2.945  1.00 20.00     0.148 C 
HETATM    6  O10 UNL     1     -32.883   5.020   2.798  1.00 20.00    -0.296 OA
BRANCH   5   7
HETATM    7  C4  UNL     1     -32.102   7.194   2.343  1.00 20.00     0.061 A 
HETATM    8  C3  UNL     1     -31.631   8.338   3.177  1.00 20.00     0.017 A 
HETATM    9  C5  UNL     1     -32.590   8.584   2.043  1.00 20.00    -0.007 A 
HETATM   10  C6  UNL     1     -32.129   9.270   0.805  1.00 20.00     0.011 C 
ENDBRANCH   5   7
ENDBRANCH   3   5
TORSDOF 2
ENDMDL
MODEL 4
REMARK VINA RESULT:      -4.9      2.185      4.443
REMARK  2 active torsions:
REMARK  status: ('A' for Active; 'I' for Inactive)
REMARK    1  A    between atoms: C2_2  and  C4_4 
REMARK    2  A    between atoms: C2_2  and  C8_8 
ROOT
HETATM    1  C1  UNL     1     -32.305   8.412   1.634  1.00 20.00     0.071 C 
HETATM    2  C7  UNL     1     -33.561   6.345   2.105  1.00 20.00     0.033 C 
HETATM    3  C8  UNL     1     -32.406   7.246   2.528  1.00 20.00     0.158 C 
HETATM    4  N9  UNL     1     -32.221   9.330   0.929  1.00 20.00    -0.196 NA
ENDROOT
BRANCH   3   5
HETATM    5  C2  UNL     1     -32.607   7.683   3.969  1.00 20.00     0.148 C 
HETATM    6  O10 UNL     1     -31.829   8.396   4.591  1.00 20.00    -0.296 OA
BRANCH   5   7
HETATM    7  C4  UNL     1     -33.839   7.171   4.643  1.00 20.00     0.061 A 
HETATM    8  C3  UNL     1     -33.943   7.299   6.127  1.00 20.00     0.017 A 
HETATM    9  C5  UNL     1     -33.719   5.945   5.506  1.00 20.00    -0.007 A 
HETATM   10  C6  UNL     1     -34.812   4.934   5.496  1.00 20.00     0.011 C 
ENDBRANCH   5   7
ENDBRANCH   3   5
TORSDOF 2
ENDMDL
MODEL 5
REMARK VINA RESULT:      -4.9      2.441      4.676
REMARK  2 active torsions:
REMARK  status: ('A' for Active; 'I' for Inactive)
REMARK    1  A    between atoms: C2_2  and  C4_4 
REMARK    2  A    between atoms: C2_2  and  C8_8 
ROOT
HETATM    1  C1  UNL     1     -32.541   8.769   1.511  1.00 20.00     0.071 C 
HETATM    2  C7  UNL     1     -31.146   8.387   3.506  1.00 20.00     0.033 C 
HETATM    3  C8  UNL     1     -32.553   8.341   2.921  1.00 20.00     0.158 C 
HETATM    4  N9  UNL     1     -32.535   9.109   0.402  1.00 20.00    -0.196 NA
ENDROOT
BRANCH   3   5
HETATM    5  C2  UNL     1     -33.112   6.935   3.056  1.00 20.00     0.148 C 
HETATM    6  O10 UNL     1     -32.793   5.992   2.342  1.00 20.00    -0.296 OA
BRANCH   5   7
HETATM    7  C4  UNL     1     -34.130   6.736   4.131  1.00 20.00     0.061 A 
HETATM    8  C3  UNL     1     -33.839   7.270   5.494  1.00 20.00     0.017 A 
HETATM    9  C5  UNL     1     -33.804   5.785   5.250  1.00 20.00    -0.007 A 
HETATM   10  C6  UNL     1     -34.874   4.908   5.800  1.00 20.00     0.011 C 
ENDBRANCH   5   7
ENDBRANCH   3   5
TORSDOF 2
ENDMDL
MODEL 6
REMARK VINA RESULT:      -4.8      1.815      2.627
REMARK  2 active torsions:
REMARK  status: ('A' for Active; 'I' for Inactive)
REMARK    1  A    between atoms: C2_2  and  C4_4 
REMARK    2  A    between atoms: C2_2  and  C8_8 
ROOT
HETATM    1  C1  UNL     1     -34.272   6.484   5.442  1.00 20.00     0.071 C 
HETATM    2  C7  UNL     1     -34.432   4.167   4.619  1.00 20.00     0.033 C 
HETATM    3  C8  UNL     1     -34.587   5.644   4.274  1.00 20.00     0.158 C 
HETATM    4  N9  UNL     1     -34.028   7.148   6.362  1.00 20.00    -0.196 NA
ENDROOT
BRANCH   3   5
HETATM    5  C2  UNL     1     -33.684   5.986   3.101  1.00 20.00     0.148 C 
HETATM    6  O10 UNL     1     -33.297   5.176   2.267  1.00 20.00    -0.296 OA
BRANCH   5   7
HETATM    7  C4  UNL     1     -33.246   7.411   3.005  1.00 20.00     0.061 A 
HETATM    8  C3  UNL     1     -32.457   7.833   1.809  1.00 20.00     0.017 A 
HETATM    9  C5  UNL     1     -31.781   7.714   3.149  1.00 20.00    -0.007 A 
HETATM   10  C6  UNL     1     -31.355   8.936   3.887  1.00 20.00     0.011 C 
ENDBRANCH   5   7
ENDBRANCH   3   5
TORSDOF 2
ENDMDL
MODEL 7
REMARK VINA RESULT:      -4.6     10.241     10.806
REMARK  2 active torsions:
REMARK  status: ('A' for Active; 'I' for Inactive)
REMARK    1  A    between atoms: C2_2  and  C4_4 
REMARK    2  A    between atoms: C2_2  and  C8_8 
ROOT
HETATM    1  C1  UNL     1     -35.409  13.890  -4.998  1.00 20.00     0.071 C 
HETATM    2  C7  UNL     1     -33.276  14.907  -4.301  1.00 20.00     0.033 C 
HETATM    3  C8  UNL     1     -34.723  15.161  -4.708  1.00 20.00     0.158 C 
HETATM    4  N9  UNL     1     -35.951  12.890  -5.230  1.00 20.00    -0.196 NA
ENDROOT
BRANCH   3   5
HETATM    5  C2  UNL     1     -35.434  15.921  -3.601  1.00 20.00     0.148 C 
HETATM    6  O10 UNL     1     -36.604  16.279  -3.649  1.00 20.00    -0.296 OA
BRANCH   5   7
HETATM    7  C4  UNL     1     -34.610  16.251  -2.399  1.00 20.00     0.061 A 
HETATM    8  C3  UNL     1     -35.265  16.960  -1.261  1.00 20.00     0.017 A 
HETATM    9  C5  UNL     1     -34.285  17.695  -2.136  1.00 20.00    -0.007 A 
HETATM   10  C6  UNL     1     -32.939  18.059  -1.614  1.00 20.00     0.011 C 
ENDBRANCH   5   7
ENDBRANCH   3   5
TORSDOF 2
ENDMDL
MODEL 8
REMARK VINA RESULT:      -4.5      1.895      2.450
REMARK  2 active torsions:
REMARK  status: ('A' for Active; 'I' for Inactive)
REMARK    1  A    between atoms: C2_2  and  C4_4 
REMARK    2  A    between atoms: C2_2  and  C8_8 
ROOT
HETATM    1  C1  UNL     1     -34.179   4.903   4.670  1.00 20.00     0.071 C 
HETATM    2  C7  UNL     1     -34.006   7.265   5.350  1.00 20.00     0.033 C 
HETATM    3  C8  UNL     1     -33.443   6.162   4.461  1.00 20.00     0.158 C 
HETATM    4  N9  UNL     1     -34.755   3.909   4.835  1.00 20.00    -0.196 NA
ENDROOT
BRANCH   3   5
HETATM    5  C2  UNL     1     -33.515   6.598   3.007  1.00 20.00     0.148 C 
HETATM    6  O10 UNL     1     -34.489   6.432   2.283  1.00 20.00    -0.296 OA
BRANCH   5   7
HETATM    7  C4  UNL     1     -32.290   7.251   2.457  1.00 20.00     0.061 A 
HETATM    8  C3  UNL     1     -31.672   8.369   3.230  1.00 20.00     0.017 A 
HETATM    9  C5  UNL     1     -32.405   8.660   1.947  1.00 20.00    -0.007 A 
HETATM   10  C6  UNL     1     -31.651   9.061   0.726  1.00 20.00     0.011 C 
ENDBRANCH   5   7
ENDBRANCH   3   5
TORSDOF 2
ENDMDL
MODEL 9
REMARK VINA RESULT:      -4.4      2.567      4.490
REMARK  2 active torsions:
REMARK  status: ('A' for Active; 'I' for Inactive)
REMARK    1  A    between atoms: C2_2  and  C4_4 
REMARK    2  A    between atoms: C2_2  and  C8_8 
ROOT
HETATM    1  C1  UNL     1     -32.972   9.251  -0.119  1.00 20.00     0.071 C 
HETATM    2  C7  UNL     1     -32.320  10.948   1.544  1.00 20.00     0.033 C 
HETATM    3  C8  UNL     1     -33.062   9.639   1.299  1.00 20.00     0.158 C 
HETATM    4  N9  UNL     1     -32.906   8.945  -1.236  1.00 20.00    -0.196 NA
ENDROOT
BRANCH   3   5
HETATM    5  C2  UNL     1     -32.485   8.556   2.196  1.00 20.00     0.148 C 
HETATM    6  O10 UNL     1     -31.349   8.569   2.653  1.00 20.00    -0.296 OA
BRANCH   5   7
HETATM    7  C4  UNL     1     -33.390   7.407   2.500  1.00 20.00     0.061 A 
HETATM    8  C3  UNL     1     -33.703   7.107   3.929  1.00 20.00     0.017 A 
HETATM    9  C5  UNL     1     -32.797   6.190   3.152  1.00 20.00    -0.007 A 
HETATM   10  C6  UNL     1     -33.268   4.837   2.744  1.00 20.00     0.011 C 
ENDBRANCH   5   7
ENDBRANCH   3   5
TORSDOF 2
ENDMDL
