MODEL 1
REMARK VINA RESULT:      -5.6      0.000      0.000
REMARK  2 active torsions:
REMARK  status: ('A' for Active; 'I' for Inactive)
REMARK    1  A    between atoms: C1_1  and  C3_3 
REMARK    2  A    between atoms: C7_7  and  C9_9 
ROOT
HETATM    1  C1  UNL     1     -33.791   6.682   3.708  1.00 20.00    -0.002 C 
HETATM    2  C2  UNL     1     -33.369   7.300   4.825  1.00 20.00     0.021 C 
HETATM    3  C4  UNL     1     -33.245   7.011   2.342  1.00 20.00     0.047 C 
HETATM    4  C5  UNL     1     -32.293   8.353   4.817  1.00 20.00     0.052 C 
HETATM    5  C6  UNL     1     -31.517   8.427   3.499  1.00 20.00     0.010 C 
HETATM    6  C7  UNL     1     -32.465   8.336   2.300  1.00 20.00    -0.010 C 
HETATM    7 CL11 UNL     1     -33.995   6.963   6.407  1.00 20.00    -0.088 Cl
ENDROOT
BRANCH   1   8
HETATM    8  C3  UNL     1     -34.830   5.638   3.731  1.00 20.00     0.267 C 
HETATM    9  O10 UNL     1     -34.635   4.535   4.217  1.00 20.00    -0.302 OA
ENDBRANCH   1   8
BRANCH   6  10
HETATM   10  C9  UNL     1     -31.702   8.476   0.984  1.00 20.00     0.000 C 
HETATM   11  C8  UNL     1     -32.418   9.371   0.025  1.00 20.00     0.005 C 
ENDBRANCH   6  10
TORSDOF 2
ENDMDL
MODEL 2
REMARK VINA RESULT:      -5.1     11.237     11.862
REMARK  2 active torsions:
REMARK  status: ('A' for Active; 'I' for Inactive)
REMARK    1  A    between atoms: C1_1  and  C3_3 
REMARK    2  A    between atoms: C7_7  and  C9_9 
ROOT
HETATM    1  C1  UNL     1     -35.100  14.773  -5.018  1.00 20.00    -0.002 C 
HETATM    2  C2  UNL     1     -34.215  15.103  -5.976  1.00 20.00     0.021 C 
HETATM    3  C4  UNL     1     -35.088  15.404  -3.649  1.00 20.00     0.047 C 
HETATM    4  C5  UNL     1     -33.155  16.154  -5.779  1.00 20.00     0.052 C 
HETATM    5  C6  UNL     1     -33.373  17.018  -4.533  1.00 20.00     0.010 C 
HETATM    6  C7  UNL     1     -33.785  16.157  -3.335  1.00 20.00    -0.010 C 
HETATM    7 CL11 UNL     1     -34.185  14.377  -7.550  1.00 20.00    -0.088 Cl
ENDROOT
BRANCH   1   8
HETATM    8  C3  UNL     1     -36.144  13.756  -5.229  1.00 20.00     0.267 C 
HETATM    9  O10 UNL     1     -35.902  12.560  -5.214  1.00 20.00    -0.302 OA
ENDBRANCH   1   8
BRANCH   6  10
HETATM   10  C9  UNL     1     -33.937  17.006  -2.075  1.00 20.00     0.000 C 
HETATM   11  C8  UNL     1     -35.291  16.845  -1.463  1.00 20.00     0.005 C 
ENDBRANCH   6  10
TORSDOF 2
ENDMDL
MODEL 3
REMARK VINA RESULT:      -4.9     10.924     11.510
REMARK  2 active torsions:
REMARK  status: ('A' for Active; 'I' for Inactive)
REMARK    1  A    between atoms: C1_1  and  C3_3 
REMARK    2  A    between atoms: C7_7  and  C9_9 
ROOT
HETATM    1  C1  UNL     1     -33.267  18.103  -0.532  1.00 20.00    -0.002 C 
HETATM    2  C2  UNL     1     -34.386  18.015   0.209  1.00 20.00     0.021 C 
HETATM    3  C4  UNL     1     -33.163  17.522  -1.919  1.00 20.00     0.047 C 
HETATM    4  C5  UNL     1     -35.645  17.357  -0.292  1.00 20.00     0.052 C 
HETATM    5  C6  UNL     1     -35.638  17.088  -1.799  1.00 20.00     0.010 C 
HETATM    6  C7  UNL     1     -34.286  16.525  -2.249  1.00 20.00    -0.010 C 
HETATM    7 CL11 UNL     1     -34.530  18.648   1.816  1.00 20.00    -0.088 Cl
ENDROOT
BRANCH   1   8
HETATM    8  C3  UNL     1     -32.048  18.767  -0.038  1.00 20.00     0.267 C 
HETATM    9  O10 UNL     1     -30.935  18.298  -0.214  1.00 20.00    -0.302 OA
ENDBRANCH   1   8
BRANCH   6  10
HETATM   10  C9  UNL     1     -34.297  16.194  -3.740  1.00 20.00     0.000 C 
HETATM   11  C8  UNL     1     -34.584  14.747  -3.980  1.00 20.00     0.005 C 
ENDBRANCH   6  10
TORSDOF 2
ENDMDL
MODEL 4
REMARK VINA RESULT:      -4.9      1.898      2.534
REMARK  2 active torsions:
REMARK  status: ('A' for Active; 'I' for Inactive)
REMARK    1  A    between atoms: C1_1  and  C3_3 
REMARK    2  A    between atoms: C7_7  and  C9_9 
ROOT
HETATM    1  C1  UNL     1     -33.699   6.587   4.539  1.00 20.00    -0.002 C 
HETATM    2  C2  UNL     1     -33.765   5.457   3.813  1.00 20.00     0.021 C 
HETATM    3  C4  UNL     1     -33.080   7.856   4.011  1.00 20.00     0.047 C 
HETATM    4  C5  UNL     1     -33.256   5.365   2.399  1.00 20.00     0.052 C 
HETATM    5  C6  UNL     1     -32.955   6.727   1.767  1.00 20.00     0.010 C 
HETATM    6  C7  UNL     1     -32.221   7.639   2.754  1.00 20.00    -0.010 C 
HETATM    7 CL11 UNL     1     -34.448   3.974   4.400  1.00 20.00    -0.088 Cl
ENDROOT
BRANCH   1   8
HETATM    8  C3  UNL     1     -34.219   6.670   5.914  1.00 20.00     0.267 C 
HETATM    9  O10 UNL     1     -34.042   7.650   6.620  1.00 20.00    -0.302 OA
ENDBRANCH   1   8
BRANCH   6  10
HETATM   10  C9  UNL     1     -31.860   8.973   2.105  1.00 20.00     0.000 C 
HETATM   11  C8  UNL     1     -32.541   9.148   0.787  1.00 20.00     0.005 C 
ENDBRANCH   6  10
TORSDOF 2
ENDMDL
MODEL 5
REMARK VINA RESULT:      -4.8     11.243     11.743
REMARK  2 active torsions:
REMARK  status: ('A' for Active; 'I' for Inactive)
REMARK    1  A    between atoms: C1_1  and  C3_3 
REMARK    2  A    between atoms: C7_7  and  C9_9 
ROOT
HETATM    1  C1  UNL     1     -35.739  14.692  -5.064  1.00 20.00    -0.002 C 
HETATM    2  C2  UNL     1     -34.555  14.540  -5.685  1.00 20.00     0.021 C 
HETATM    3  C4  UNL     1     -35.896  15.501  -3.802  1.00 20.00     0.047 C 
HETATM    4  C5  UNL     1     -33.289  15.189  -5.194  1.00 20.00     0.052 C 
HETATM    5  C6  UNL     1     -33.525  16.270  -4.136  1.00 20.00     0.010 C 
HETATM    6  C7  UNL     1     -34.561  15.811  -3.106  1.00 20.00    -0.010 C 
HETATM    7 CL11 UNL     1     -34.336  13.594  -7.122  1.00 20.00    -0.088 Cl
ENDROOT
BRANCH   1   8
HETATM    8  C3  UNL     1     -36.975  14.067  -5.565  1.00 20.00     0.267 C 
HETATM    9  O10 UNL     1     -37.968  13.936  -4.867  1.00 20.00    -0.302 OA
ENDBRANCH   1   8
BRANCH   6  10
HETATM   10  C9  UNL     1     -34.750  16.859  -2.011  1.00 20.00     0.000 C 
HETATM   11  C8  UNL     1     -33.454  17.501  -1.633  1.00 20.00     0.005 C 
ENDBRANCH   6  10
TORSDOF 2
ENDMDL
MODEL 6
REMARK VINA RESULT:      -4.5     11.089     11.631
REMARK  2 active torsions:
REMARK  status: ('A' for Active; 'I' for Inactive)
REMARK    1  A    between atoms: C1_1  and  C3_3 
REMARK    2  A    between atoms: C7_7  and  C9_9 
ROOT
HETATM    1  C1  UNL     1     -35.654  14.925  -4.468  1.00 20.00    -0.002 C 
HETATM    2  C2  UNL     1     -36.851  15.532  -4.380  1.00 20.00     0.021 C 
HETATM    3  C4  UNL     1     -34.455  15.375  -3.673  1.00 20.00     0.047 C 
HETATM    4  C5  UNL     1     -37.110  16.694  -3.459  1.00 20.00     0.052 C 
HETATM    5  C6  UNL     1     -36.004  16.912  -2.422  1.00 20.00     0.010 C 
HETATM    6  C7  UNL     1     -34.619  16.776  -3.061  1.00 20.00    -0.010 C 
HETATM    7 CL11 UNL     1     -38.242  15.056  -5.300  1.00 20.00    -0.088 Cl
ENDROOT
BRANCH   1   8
HETATM    8  C3  UNL     1     -35.419  13.776  -5.359  1.00 20.00     0.267 C 
HETATM    9  O10 UNL     1     -35.898  12.674  -5.142  1.00 20.00    -0.302 OA
ENDBRANCH   1   8
BRANCH   6  10
HETATM   10  C9  UNL     1     -33.514  17.059  -2.045  1.00 20.00     0.000 C 
HETATM   11  C8  UNL     1     -34.051  17.719  -0.817  1.00 20.00     0.005 C 
ENDBRANCH   6  10
TORSDOF 2
ENDMDL
MODEL 7
REMARK VINA RESULT:      -4.4     11.110     11.988
REMARK  2 active torsions:
REMARK  status: ('A' for Active; 'I' for Inactive)
REMARK    1  A    between atoms: C1_1  and  C3_3 
REMARK    2  A    between atoms: C7_7  and  C9_9 
ROOT
HETATM    1  C1  UNL     1     -34.449  15.921  -3.857  1.00 20.00    -0.002 C 
HETATM    2  C2  UNL     1     -33.777  16.714  -4.711  1.00 20.00     0.021 C 
HETATM    3  C4  UNL     1     -34.644  16.273  -2.405  1.00 20.00     0.047 C 
HETATM    4  C5  UNL     1     -33.187  18.037  -4.302  1.00 20.00     0.052 C 
HETATM    5  C6  UNL     1     -33.683  18.535  -2.942  1.00 20.00     0.010 C 
HETATM    6  C7  UNL     1     -33.712  17.397  -1.919  1.00 20.00    -0.010 C 
HETATM    7 CL11 UNL     1     -33.513  16.325  -6.381  1.00 20.00    -0.088 Cl
ENDROOT
BRANCH   1   8
HETATM    8  C3  UNL     1     -35.039  14.638  -4.274  1.00 20.00     0.267 C 
HETATM    9  O10 UNL     1     -34.445  13.578  -4.155  1.00 20.00    -0.302 OA
ENDBRANCH   1   8
BRANCH   6  10
HETATM   10  C9  UNL     1     -34.143  17.903  -0.544  1.00 20.00     0.000 C 
HETATM   11  C8  UNL     1     -35.513  17.427  -0.186  1.00 20.00     0.005 C 
ENDBRANCH   6  10
TORSDOF 2
ENDMDL
MODEL 8
REMARK VINA RESULT:      -4.3     10.950     11.387
REMARK  2 active torsions:
REMARK  status: ('A' for Active; 'I' for Inactive)
REMARK    1  A    between atoms: C1_1  and  C3_3 
REMARK    2  A    between atoms: C7_7  and  C9_9 
ROOT
HETATM    1  C1  UNL     1     -34.833  17.721  -0.011  1.00 20.00    -0.002 C 
HETATM    2  C2  UNL     1     -33.606  18.241  -0.192  1.00 20.00     0.021 C 
HETATM    3  C4  UNL     1     -35.548  16.934  -1.078  1.00 20.00     0.047 C 
HETATM    4  C5  UNL     1     -32.824  18.057  -1.466  1.00 20.00     0.052 C 
HETATM    5  C6  UNL     1     -33.403  16.983  -2.391  1.00 20.00     0.010 C 
HETATM    6  C7  UNL     1     -34.927  17.098  -2.476  1.00 20.00    -0.010 C 
HETATM    7 CL11 UNL     1     -32.768  19.173   1.006  1.00 20.00    -0.088 Cl
ENDROOT
BRANCH   1   8
HETATM    8  C3  UNL     1     -35.580  17.891   1.247  1.00 20.00     0.267 C 
HETATM    9  O10 UNL     1     -36.776  18.137   1.267  1.00 20.00    -0.302 OA
ENDBRANCH   1   8
BRANCH   6  10
HETATM   10  C9  UNL     1     -35.502  16.071  -3.450  1.00 20.00     0.000 C 
HETATM   11  C8  UNL     1     -34.484  15.048  -3.837  1.00 20.00     0.005 C 
ENDBRANCH   6  10
TORSDOF 2
ENDMDL
MODEL 9
REMARK VINA RESULT:      -4.2     11.159     11.626
REMARK  2 active torsions:
REMARK  status: ('A' for Active; 'I' for Inactive)
REMARK    1  A    between atoms: C1_1  and  C3_3 
REMARK    2  A    between atoms: C7_7  and  C9_9 
ROOT
HETATM    1  C1  UNL     1     -33.520  18.586   1.731  1.00 20.00    -0.002 C 
HETATM    2  C2  UNL     1     -32.355  18.772   1.085  1.00 20.00     0.021 C 
HETATM    3  C4  UNL     1     -34.787  18.183   1.022  1.00 20.00     0.047 C 
HETATM    4  C5  UNL     1     -32.204  18.566  -0.399  1.00 20.00     0.052 C 
HETATM    5  C6  UNL     1     -33.387  17.832  -1.039  1.00 20.00     0.010 C 
HETATM    6  C7  UNL     1     -34.718  18.368  -0.504  1.00 20.00    -0.010 C 
HETATM    7 CL11 UNL     1     -30.887  19.261   1.867  1.00 20.00    -0.088 Cl
ENDROOT
BRANCH   1   8
HETATM    8  C3  UNL     1     -33.649  18.772   3.186  1.00 20.00     0.267 C 
HETATM    9  O10 UNL     1     -33.376  17.889   3.983  1.00 20.00    -0.302 OA
ENDBRANCH   1   8
BRANCH   6  10
HETATM   10  C9  UNL     1     -35.900  17.686  -1.188  1.00 20.00     0.000 C 
HETATM   11  C8  UNL     1     -35.456  16.550  -2.052  1.00 20.00     0.005 C 
ENDBRANCH   6  10
TORSDOF 2
ENDMDL
