MODEL 1
REMARK VINA RESULT:      -5.4      0.000      0.000
REMARK  3 active torsions:
REMARK  status: ('A' for Active; 'I' for Inactive)
REMARK    1  A    between atoms: C2_2  and  C5_5 
REMARK    2  A    between atoms: C2_2  and  C7_7 
REMARK    3  A    between atoms: C5_5  and  C6_6 
ROOT
HETATM    1  C1  UNL     1     -33.629   7.225   4.794  1.00 20.00     0.071 C 
HETATM    2  C4  UNL     1     -33.256   5.842   2.786  1.00 20.00     0.033 C 
HETATM    3  C7  UNL     1     -33.370   7.256   3.344  1.00 20.00     0.158 C 
HETATM    4  N8  UNL     1     -33.837   7.202   5.935  1.00 20.00    -0.196 NA
ENDROOT
BRANCH   3   5
HETATM    5  C2  UNL     1     -32.094   8.030   3.033  1.00 20.00     0.144 C 
HETATM    6  O9  UNL     1     -31.312   8.377   3.919  1.00 20.00    -0.297 OA
BRANCH   5   7
HETATM    7  C5  UNL     1     -31.849   8.355   1.566  1.00 20.00     0.079 C 
BRANCH   7   8
HETATM    8  C6  UNL     1     -32.524   9.643   1.099  1.00 20.00     0.003 C 
HETATM    9  C3  UNL     1     -33.079   9.533  -0.314  1.00 20.00     0.005 C 
ENDBRANCH   7   8
ENDBRANCH   5   7
ENDBRANCH   3   5
TORSDOF 3
ENDMDL
MODEL 2
REMARK VINA RESULT:      -5.2      1.811      2.380
REMARK  3 active torsions:
REMARK  status: ('A' for Active; 'I' for Inactive)
REMARK    1  A    between atoms: C2_2  and  C5_5 
REMARK    2  A    between atoms: C2_2  and  C7_7 
REMARK    3  A    between atoms: C5_5  and  C6_6 
ROOT
HETATM    1  C1  UNL     1     -34.114   6.649   5.318  1.00 20.00     0.071 C 
HETATM    2  C4  UNL     1     -34.450   4.282   4.714  1.00 20.00     0.033 C 
HETATM    3  C7  UNL     1     -34.487   5.727   4.231  1.00 20.00     0.158 C 
HETATM    4  N8  UNL     1     -33.824   7.377   6.174  1.00 20.00    -0.196 NA
ENDROOT
BRANCH   3   5
HETATM    5  C2  UNL     1     -33.555   5.887   3.035  1.00 20.00     0.144 C 
HETATM    6  O9  UNL     1     -32.928   4.937   2.568  1.00 20.00    -0.297 OA
BRANCH   5   7
HETATM    7  C5  UNL     1     -33.438   7.293   2.461  1.00 20.00     0.079 C 
BRANCH   7   8
HETATM    8  C6  UNL     1     -32.025   7.869   2.523  1.00 20.00     0.003 C 
HETATM    9  C3  UNL     1     -31.693   8.732   1.314  1.00 20.00     0.005 C 
ENDBRANCH   7   8
ENDBRANCH   5   7
ENDBRANCH   3   5
TORSDOF 3
ENDMDL
MODEL 3
REMARK VINA RESULT:      -4.7      2.540      4.414
REMARK  3 active torsions:
REMARK  status: ('A' for Active; 'I' for Inactive)
REMARK    1  A    between atoms: C2_2  and  C5_5 
REMARK    2  A    between atoms: C2_2  and  C7_7 
REMARK    3  A    between atoms: C5_5  and  C6_6 
ROOT
HETATM    1  C1  UNL     1     -32.494   8.479   1.663  1.00 20.00     0.071 C 
HETATM    2  C4  UNL     1     -31.730   8.114   3.979  1.00 20.00     0.033 C 
HETATM    3  C7  UNL     1     -32.883   7.976   2.992  1.00 20.00     0.158 C 
HETATM    4  N8  UNL     1     -32.191   8.878   0.617  1.00 20.00    -0.196 NA
ENDROOT
BRANCH   3   5
HETATM    5  C2  UNL     1     -33.318   6.517   2.918  1.00 20.00     0.144 C 
HETATM    6  O9  UNL     1     -32.567   5.635   2.501  1.00 20.00    -0.297 OA
BRANCH   5   7
HETATM    7  C5  UNL     1     -34.738   6.217   3.381  1.00 20.00     0.079 C 
BRANCH   7   8
HETATM    8  C6  UNL     1     -34.807   5.352   4.637  1.00 20.00     0.003 C 
HETATM    9  C3  UNL     1     -34.350   6.097   5.884  1.00 20.00     0.005 C 
ENDBRANCH   7   8
ENDBRANCH   5   7
ENDBRANCH   3   5
TORSDOF 3
ENDMDL
MODEL 4
REMARK VINA RESULT:      -4.6      2.265      4.249
REMARK  3 active torsions:
REMARK  status: ('A' for Active; 'I' for Inactive)
REMARK    1  A    between atoms: C2_2  and  C5_5 
REMARK    2  A    between atoms: C2_2  and  C7_7 
REMARK    3  A    between atoms: C5_5  and  C6_6 
ROOT
HETATM    1  C1  UNL     1     -32.405   8.269   2.243  1.00 20.00     0.071 C 
HETATM    2  C4  UNL     1     -33.491   6.059   2.110  1.00 20.00     0.033 C 
HETATM    3  C7  UNL     1     -32.620   6.991   2.944  1.00 20.00     0.158 C 
HETATM    4  N8  UNL     1     -32.231   9.274   1.690  1.00 20.00    -0.196 NA
ENDROOT
BRANCH   3   5
HETATM    5  C2  UNL     1     -33.275   7.217   4.303  1.00 20.00     0.144 C 
HETATM    6  O9  UNL     1     -32.730   7.883   5.184  1.00 20.00    -0.297 OA
BRANCH   5   7
HETATM    7  C5  UNL     1     -34.634   6.563   4.508  1.00 20.00     0.079 C 
BRANCH   7   8
HETATM    8  C6  UNL     1     -34.621   5.417   5.517  1.00 20.00     0.003 C 
HETATM    9  C3  UNL     1     -34.323   4.072   4.870  1.00 20.00     0.005 C 
ENDBRANCH   7   8
ENDBRANCH   5   7
ENDBRANCH   3   5
TORSDOF 3
ENDMDL
MODEL 5
REMARK VINA RESULT:      -4.5      2.081      2.668
REMARK  3 active torsions:
REMARK  status: ('A' for Active; 'I' for Inactive)
REMARK    1  A    between atoms: C2_2  and  C5_5 
REMARK    2  A    between atoms: C2_2  and  C7_7 
REMARK    3  A    between atoms: C5_5  and  C6_6 
ROOT
HETATM    1  C1  UNL     1     -34.325   4.536   4.451  1.00 20.00     0.071 C 
HETATM    2  C4  UNL     1     -35.747   6.280   3.444  1.00 20.00     0.033 C 
HETATM    3  C7  UNL     1     -34.741   5.946   4.539  1.00 20.00     0.158 C 
HETATM    4  N8  UNL     1     -34.000   3.424   4.386  1.00 20.00    -0.196 NA
ENDROOT
BRANCH   3   5
HETATM    5  C2  UNL     1     -33.539   6.878   4.426  1.00 20.00     0.144 C 
HETATM    6  O9  UNL     1     -33.131   7.532   5.386  1.00 20.00    -0.297 OA
BRANCH   5   7
HETATM    7  C5  UNL     1     -32.882   6.959   3.055  1.00 20.00     0.079 C 
BRANCH   7   8
HETATM    8  C6  UNL     1     -31.929   8.142   2.897  1.00 20.00     0.003 C 
HETATM    9  C3  UNL     1     -32.010   8.776   1.516  1.00 20.00     0.005 C 
ENDBRANCH   7   8
ENDBRANCH   5   7
ENDBRANCH   3   5
TORSDOF 3
ENDMDL
MODEL 6
REMARK VINA RESULT:      -4.5      1.834      2.384
REMARK  3 active torsions:
REMARK  status: ('A' for Active; 'I' for Inactive)
REMARK    1  A    between atoms: C2_2  and  C5_5 
REMARK    2  A    between atoms: C2_2  and  C7_7 
REMARK    3  A    between atoms: C5_5  and  C6_6 
ROOT
HETATM    1  C1  UNL     1     -34.166   5.176   4.571  1.00 20.00     0.071 C 
HETATM    2  C4  UNL     1     -33.882   7.424   5.544  1.00 20.00     0.033 C 
HETATM    3  C7  UNL     1     -33.306   6.372   4.604  1.00 20.00     0.158 C 
HETATM    4  N8  UNL     1     -34.840   4.232   4.547  1.00 20.00    -0.196 NA
ENDROOT
BRANCH   3   5
HETATM    5  C2  UNL     1     -33.148   6.969   3.209  1.00 20.00     0.144 C 
HETATM    6  O9  UNL     1     -33.829   6.587   2.257  1.00 20.00    -0.297 OA
BRANCH   5   7
HETATM    7  C5  UNL     1     -32.091   8.055   3.063  1.00 20.00     0.079 C 
BRANCH   7   8
HETATM    8  C6  UNL     1     -31.842   8.483   1.618  1.00 20.00     0.003 C 
HETATM    9  C3  UNL     1     -32.500   9.814   1.282  1.00 20.00     0.005 C 
ENDBRANCH   7   8
ENDBRANCH   5   7
ENDBRANCH   3   5
TORSDOF 3
ENDMDL
MODEL 7
REMARK VINA RESULT:      -4.3      2.968      4.527
REMARK  3 active torsions:
REMARK  status: ('A' for Active; 'I' for Inactive)
REMARK    1  A    between atoms: C2_2  and  C5_5 
REMARK    2  A    between atoms: C2_2  and  C7_7 
REMARK    3  A    between atoms: C5_5  and  C6_6 
ROOT
HETATM    1  C1  UNL     1     -33.031   7.554   3.579  1.00 20.00     0.071 C 
HETATM    2  C4  UNL     1     -33.560   7.308   5.975  1.00 20.00     0.033 C 
HETATM    3  C7  UNL     1     -34.117   7.363   4.557  1.00 20.00     0.158 C 
HETATM    4  N8  UNL     1     -32.178   7.708   2.808  1.00 20.00    -0.196 NA
ENDROOT
BRANCH   3   5
HETATM    5  C2  UNL     1     -34.895   6.084   4.267  1.00 20.00     0.144 C 
HETATM    6  O9  UNL     1     -35.829   6.059   3.465  1.00 20.00    -0.297 OA
BRANCH   5   7
HETATM    7  C5  UNL     1     -34.456   4.844   5.035  1.00 20.00     0.079 C 
BRANCH   7   8
HETATM    8  C6  UNL     1     -33.937   3.719   4.144  1.00 20.00     0.003 C 
HETATM    9  C3  UNL     1     -33.179   4.237   2.930  1.00 20.00     0.005 C 
ENDBRANCH   7   8
ENDBRANCH   5   7
ENDBRANCH   3   5
TORSDOF 3
ENDMDL
MODEL 8
REMARK VINA RESULT:      -4.3      2.798      4.482
REMARK  3 active torsions:
REMARK  status: ('A' for Active; 'I' for Inactive)
REMARK    1  A    between atoms: C2_2  and  C5_5 
REMARK    2  A    between atoms: C2_2  and  C7_7 
REMARK    3  A    between atoms: C5_5  and  C6_6 
ROOT
HETATM    1  C1  UNL     1     -32.794   7.088   2.520  1.00 20.00     0.071 C 
HETATM    2  C4  UNL     1     -32.920   4.660   2.108  1.00 20.00     0.033 C 
HETATM    3  C7  UNL     1     -33.073   5.778   3.133  1.00 20.00     0.158 C 
HETATM    4  N8  UNL     1     -32.571   8.121   2.041  1.00 20.00    -0.196 NA
ENDROOT
BRANCH   3   5
HETATM    5  C2  UNL     1     -34.479   5.738   3.722  1.00 20.00     0.144 C 
HETATM    6  O9  UNL     1     -35.448   6.208   3.125  1.00 20.00    -0.297 OA
BRANCH   5   7
HETATM    7  C5  UNL     1     -34.611   5.095   5.096  1.00 20.00     0.079 C 
BRANCH   7   8
HETATM    8  C6  UNL     1     -34.633   6.098   6.247  1.00 20.00     0.003 C 
HETATM    9  C3  UNL     1     -33.760   7.315   5.977  1.00 20.00     0.005 C 
ENDBRANCH   7   8
ENDBRANCH   5   7
ENDBRANCH   3   5
TORSDOF 3
ENDMDL
MODEL 9
REMARK VINA RESULT:      -4.2      2.080      4.157
REMARK  3 active torsions:
REMARK  status: ('A' for Active; 'I' for Inactive)
REMARK    1  A    between atoms: C2_2  and  C5_5 
REMARK    2  A    between atoms: C2_2  and  C7_7 
REMARK    3  A    between atoms: C5_5  and  C6_6 
ROOT
HETATM    1  C1  UNL     1     -32.736   7.644   4.474  1.00 20.00     0.071 C 
HETATM    2  C4  UNL     1     -32.727   8.116   2.054  1.00 20.00     0.033 C 
HETATM    3  C7  UNL     1     -32.453   7.084   3.142  1.00 20.00     0.158 C 
HETATM    4  N8  UNL     1     -32.954   8.085   5.525  1.00 20.00    -0.196 NA
ENDROOT
BRANCH   3   5
HETATM    5  C2  UNL     1     -33.293   5.837   2.883  1.00 20.00     0.144 C 
HETATM    6  O9  UNL     1     -32.882   4.909   2.187  1.00 20.00    -0.297 OA
BRANCH   5   7
HETATM    7  C5  UNL     1     -34.672   5.815   3.529  1.00 20.00     0.079 C 
BRANCH   7   8
HETATM    8  C6  UNL     1     -34.885   4.646   4.487  1.00 20.00     0.003 C 
HETATM    9  C3  UNL     1     -34.611   5.023   5.937  1.00 20.00     0.005 C 
ENDBRANCH   7   8
ENDBRANCH   5   7
ENDBRANCH   3   5
TORSDOF 3
ENDMDL
