MODEL 1
REMARK VINA RESULT:      -5.7      0.000      0.000
REMARK  4 active torsions:
REMARK  status: ('A' for Active; 'I' for Inactive)
REMARK    1  A    between atoms: C3_3  and  C6_6 
REMARK    2  A    between atoms: C3_3  and  C7_7 
REMARK    3  A    between atoms: C5_5  and  C6_6 
REMARK    4  A    between atoms: C7_7  and  C8_8 
ROOT
HETATM    1  C1  UNL     1     -34.720   4.780   5.156  1.00 20.00     0.012 C 
HETATM    2  C2  UNL     1     -34.352   5.845   4.742  1.00 20.00    -0.117 C 
HETATM    3  C5  UNL     1     -33.901   7.151   4.236  1.00 20.00     0.100 C 
ENDROOT
BRANCH   3   4
HETATM    4  C6  UNL     1     -33.102   7.015   2.942  1.00 20.00     0.090 C 
BRANCH   4   5
HETATM    5  C3  UNL     1     -31.994   8.050   2.791  1.00 20.00     0.127 C 
HETATM    6  O9  UNL     1     -31.365   8.487   3.753  1.00 20.00    -0.298 OA
BRANCH   5   7
HETATM    7  C7  UNL     1     -31.703   8.491   1.364  1.00 20.00     0.078 C 
BRANCH   7   8
HETATM    8  C8  UNL     1     -32.508   9.721   0.953  1.00 20.00     0.003 C 
HETATM    9  C4  UNL     1     -33.163   9.530  -0.405  1.00 20.00     0.005 C 
ENDBRANCH   7   8
ENDBRANCH   5   7
ENDBRANCH   4   5
ENDBRANCH   3   4
TORSDOF 4
ENDMDL
MODEL 2
REMARK VINA RESULT:      -5.7      1.059      4.929
REMARK  4 active torsions:
REMARK  status: ('A' for Active; 'I' for Inactive)
REMARK    1  A    between atoms: C3_3  and  C6_6 
REMARK    2  A    between atoms: C3_3  and  C7_7 
REMARK    3  A    between atoms: C5_5  and  C6_6 
REMARK    4  A    between atoms: C7_7  and  C8_8 
ROOT
HETATM    1  C1  UNL     1     -32.592  10.251   0.744  1.00 20.00     0.012 C 
HETATM    2  C2  UNL     1     -32.255   9.418   1.540  1.00 20.00    -0.117 C 
HETATM    3  C5  UNL     1     -31.840   8.397   2.515  1.00 20.00     0.100 C 
ENDROOT
BRANCH   3   4
HETATM    4  C6  UNL     1     -32.865   7.271   2.630  1.00 20.00     0.090 C 
BRANCH   4   5
HETATM    5  C3  UNL     1     -33.471   7.128   4.020  1.00 20.00     0.127 C 
HETATM    6  O9  UNL     1     -32.942   7.607   5.022  1.00 20.00    -0.298 OA
BRANCH   5   7
HETATM    7  C7  UNL     1     -34.789   6.372   4.083  1.00 20.00     0.078 C 
BRANCH   7   8
HETATM    8  C8  UNL     1     -34.747   5.199   5.058  1.00 20.00     0.003 C 
HETATM    9  C4  UNL     1     -34.146   3.960   4.415  1.00 20.00     0.005 C 
ENDBRANCH   7   8
ENDBRANCH   5   7
ENDBRANCH   4   5
ENDBRANCH   3   4
TORSDOF 4
ENDMDL
MODEL 3
REMARK VINA RESULT:      -5.6      1.672      4.984
REMARK  4 active torsions:
REMARK  status: ('A' for Active; 'I' for Inactive)
REMARK    1  A    between atoms: C3_3  and  C6_6 
REMARK    2  A    between atoms: C3_3  and  C7_7 
REMARK    3  A    between atoms: C5_5  and  C6_6 
REMARK    4  A    between atoms: C7_7  and  C8_8 
ROOT
HETATM    1  C1  UNL     1     -32.148   9.653   0.741  1.00 20.00     0.012 C 
HETATM    2  C2  UNL     1     -32.233   8.779   1.560  1.00 20.00    -0.117 C 
HETATM    3  C5  UNL     1     -32.336   7.708   2.563  1.00 20.00     0.100 C 
ENDROOT
BRANCH   3   4
HETATM    4  C6  UNL     1     -33.758   7.161   2.667  1.00 20.00     0.090 C 
BRANCH   4   5
HETATM    5  C3  UNL     1     -33.831   5.728   3.177  1.00 20.00     0.127 C 
HETATM    6  O9  UNL     1     -33.050   4.854   2.803  1.00 20.00    -0.298 OA
BRANCH   5   7
HETATM    7  C7  UNL     1     -34.923   5.453   4.200  1.00 20.00     0.078 C 
BRANCH   7   8
HETATM    8  C8  UNL     1     -34.419   5.552   5.638  1.00 20.00     0.003 C 
HETATM    9  C4  UNL     1     -33.962   6.962   5.973  1.00 20.00     0.005 C 
ENDBRANCH   7   8
ENDBRANCH   5   7
ENDBRANCH   4   5
ENDBRANCH   3   4
TORSDOF 4
ENDMDL
MODEL 4
REMARK VINA RESULT:      -5.5      1.234      1.497
REMARK  4 active torsions:
REMARK  status: ('A' for Active; 'I' for Inactive)
REMARK    1  A    between atoms: C3_3  and  C6_6 
REMARK    2  A    between atoms: C3_3  and  C7_7 
REMARK    3  A    between atoms: C5_5  and  C6_6 
REMARK    4  A    between atoms: C7_7  and  C8_8 
ROOT
HETATM    1  C1  UNL     1     -34.736   4.723   5.645  1.00 20.00     0.012 C 
HETATM    2  C2  UNL     1     -34.287   5.833   5.562  1.00 20.00    -0.117 C 
HETATM    3  C5  UNL     1     -33.737   7.194   5.462  1.00 20.00     0.100 C 
ENDROOT
BRANCH   3   4
HETATM    4  C6  UNL     1     -33.849   7.751   4.045  1.00 20.00     0.090 C 
BRANCH   4   5
HETATM    5  C3  UNL     1     -32.737   7.290   3.112  1.00 20.00     0.127 C 
HETATM    6  O9  UNL     1     -32.628   6.121   2.744  1.00 20.00    -0.298 OA
BRANCH   5   7
HETATM    7  C7  UNL     1     -31.783   8.378   2.645  1.00 20.00     0.078 C 
BRANCH   7   8
HETATM    8  C8  UNL     1     -32.049   8.818   1.208  1.00 20.00     0.003 C 
HETATM    9  C4  UNL     1     -32.614  10.228   1.152  1.00 20.00     0.005 C 
ENDBRANCH   7   8
ENDBRANCH   5   7
ENDBRANCH   4   5
ENDBRANCH   3   4
TORSDOF 4
ENDMDL
MODEL 5
REMARK VINA RESULT:      -5.5      1.877      2.866
REMARK  4 active torsions:
REMARK  status: ('A' for Active; 'I' for Inactive)
REMARK    1  A    between atoms: C3_3  and  C6_6 
REMARK    2  A    between atoms: C3_3  and  C7_7 
REMARK    3  A    between atoms: C5_5  and  C6_6 
REMARK    4  A    between atoms: C7_7  and  C8_8 
ROOT
HETATM    1  C1  UNL     1     -33.566   7.660   6.188  1.00 20.00     0.012 C 
HETATM    2  C2  UNL     1     -34.037   6.612   5.841  1.00 20.00    -0.117 C 
HETATM    3  C5  UNL     1     -34.615   5.327   5.417  1.00 20.00     0.100 C 
ENDROOT
BRANCH   3   4
HETATM    4  C6  UNL     1     -34.941   5.314   3.926  1.00 20.00     0.090 C 
BRANCH   4   5
HETATM    5  C3  UNL     1     -33.735   5.564   3.029  1.00 20.00     0.127 C 
HETATM    6  O9  UNL     1     -32.923   4.681   2.757  1.00 20.00    -0.298 OA
BRANCH   5   7
HETATM    7  C7  UNL     1     -33.614   6.975   2.474  1.00 20.00     0.078 C 
BRANCH   7   8
HETATM    8  C8  UNL     1     -32.240   7.589   2.726  1.00 20.00     0.003 C 
HETATM    9  C4  UNL     1     -31.921   8.678   1.714  1.00 20.00     0.005 C 
ENDBRANCH   7   8
ENDBRANCH   5   7
ENDBRANCH   4   5
ENDBRANCH   3   4
TORSDOF 4
ENDMDL
MODEL 6
REMARK VINA RESULT:      -5.0      2.088      5.097
REMARK  4 active torsions:
REMARK  status: ('A' for Active; 'I' for Inactive)
REMARK    1  A    between atoms: C3_3  and  C6_6 
REMARK    2  A    between atoms: C3_3  and  C7_7 
REMARK    3  A    between atoms: C5_5  and  C6_6 
REMARK    4  A    between atoms: C7_7  and  C8_8 
ROOT
HETATM    1  C1  UNL     1     -31.846   8.835   1.384  1.00 20.00     0.012 C 
HETATM    2  C2  UNL     1     -32.204   7.997   2.166  1.00 20.00    -0.117 C 
HETATM    3  C5  UNL     1     -32.642   6.971   3.125  1.00 20.00     0.100 C 
ENDROOT
BRANCH   3   4
HETATM    4  C6  UNL     1     -33.710   6.056   2.532  1.00 20.00     0.090 C 
BRANCH   4   5
HETATM    5  C3  UNL     1     -34.800   5.660   3.519  1.00 20.00     0.127 C 
HETATM    6  O9  UNL     1     -35.954   6.078   3.430  1.00 20.00    -0.298 OA
BRANCH   5   7
HETATM    7  C7  UNL     1     -34.371   4.693   4.613  1.00 20.00     0.078 C 
BRANCH   7   8
HETATM    8  C8  UNL     1     -34.597   5.253   6.014  1.00 20.00     0.003 C 
HETATM    9  C4  UNL     1     -34.121   6.692   6.124  1.00 20.00     0.005 C 
ENDBRANCH   7   8
ENDBRANCH   5   7
ENDBRANCH   4   5
ENDBRANCH   3   4
TORSDOF 4
ENDMDL
MODEL 7
REMARK VINA RESULT:      -4.8      1.827      2.661
REMARK  4 active torsions:
REMARK  status: ('A' for Active; 'I' for Inactive)
REMARK    1  A    between atoms: C3_3  and  C6_6 
REMARK    2  A    between atoms: C3_3  and  C7_7 
REMARK    3  A    between atoms: C5_5  and  C6_6 
REMARK    4  A    between atoms: C7_7  and  C8_8 
ROOT
HETATM    1  C1  UNL     1     -34.739   4.787   5.791  1.00 20.00     0.012 C 
HETATM    2  C2  UNL     1     -34.265   5.890   5.808  1.00 20.00    -0.117 C 
HETATM    3  C5  UNL     1     -33.683   7.241   5.830  1.00 20.00     0.100 C 
ENDROOT
BRANCH   3   4
HETATM    4  C6  UNL     1     -33.788   7.928   4.471  1.00 20.00     0.090 C 
BRANCH   4   5
HETATM    5  C3  UNL     1     -32.530   7.810   3.621  1.00 20.00     0.127 C 
HETATM    6  O9  UNL     1     -31.442   8.251   3.989  1.00 20.00    -0.298 OA
BRANCH   5   7
HETATM    7  C7  UNL     1     -32.702   7.087   2.294  1.00 20.00     0.078 C 
BRANCH   7   8
HETATM    8  C8  UNL     1     -33.694   5.930   2.380  1.00 20.00     0.003 C 
HETATM    9  C4  UNL     1     -32.983   4.598   2.558  1.00 20.00     0.005 C 
ENDBRANCH   7   8
ENDBRANCH   5   7
ENDBRANCH   4   5
ENDBRANCH   3   4
TORSDOF 4
ENDMDL
MODEL 8
REMARK VINA RESULT:      -4.8      1.747      3.018
REMARK  4 active torsions:
REMARK  status: ('A' for Active; 'I' for Inactive)
REMARK    1  A    between atoms: C3_3  and  C6_6 
REMARK    2  A    between atoms: C3_3  and  C7_7 
REMARK    3  A    between atoms: C5_5  and  C6_6 
REMARK    4  A    between atoms: C7_7  and  C8_8 
ROOT
HETATM    1  C1  UNL     1     -32.918   4.392   2.380  1.00 20.00     0.012 C 
HETATM    2  C2  UNL     1     -33.560   4.414   3.394  1.00 20.00    -0.117 C 
HETATM    3  C5  UNL     1     -34.348   4.439   4.637  1.00 20.00     0.100 C 
ENDROOT
BRANCH   3   4
HETATM    4  C6  UNL     1     -34.970   5.810   4.888  1.00 20.00     0.090 C 
BRANCH   4   5
HETATM    5  C3  UNL     1     -33.952   6.937   5.007  1.00 20.00     0.127 C 
HETATM    6  O9  UNL     1     -33.389   7.207   6.067  1.00 20.00    -0.298 OA
BRANCH   5   7
HETATM    7  C7  UNL     1     -33.660   7.693   3.720  1.00 20.00     0.078 C 
BRANCH   7   8
HETATM    8  C8  UNL     1     -32.166   7.838   3.449  1.00 20.00     0.003 C 
HETATM    9  C4  UNL     1     -31.900   8.337   2.038  1.00 20.00     0.005 C 
ENDBRANCH   7   8
ENDBRANCH   5   7
ENDBRANCH   4   5
ENDBRANCH   3   4
TORSDOF 4
ENDMDL
MODEL 9
REMARK VINA RESULT:      -4.4      1.942      3.216
REMARK  4 active torsions:
REMARK  status: ('A' for Active; 'I' for Inactive)
REMARK    1  A    between atoms: C3_3  and  C6_6 
REMARK    2  A    between atoms: C3_3  and  C7_7 
REMARK    3  A    between atoms: C5_5  and  C6_6 
REMARK    4  A    between atoms: C7_7  and  C8_8 
ROOT
HETATM    1  C1  UNL     1     -34.448   4.154   4.697  1.00 20.00     0.012 C 
HETATM    2  C2  UNL     1     -33.832   4.567   3.754  1.00 20.00    -0.117 C 
HETATM    3  C5  UNL     1     -33.076   5.072   2.597  1.00 20.00     0.100 C 
ENDROOT
BRANCH   3   4
HETATM    4  C6  UNL     1     -33.487   6.496   2.226  1.00 20.00     0.090 C 
BRANCH   4   5
HETATM    5  C3  UNL     1     -32.460   7.553   2.609  1.00 20.00     0.127 C 
HETATM    6  O9  UNL     1     -31.780   8.146   1.772  1.00 20.00    -0.298 OA
BRANCH   5   7
HETATM    7  C7  UNL     1     -32.345   7.844   4.098  1.00 20.00     0.078 C 
BRANCH   7   8
HETATM    8  C8  UNL     1     -33.703   7.917   4.789  1.00 20.00     0.003 C 
HETATM    9  C4  UNL     1     -33.665   7.271   6.164  1.00 20.00     0.005 C 
ENDBRANCH   7   8
ENDBRANCH   5   7
ENDBRANCH   4   5
ENDBRANCH   3   4
TORSDOF 4
ENDMDL
