MODEL 1
REMARK VINA RESULT:      -4.8      0.000      0.000
REMARK  3 active torsions:
REMARK  status: ('A' for Active; 'I' for Inactive)
REMARK    1  A    between atoms: C2_2  and  C7_7 
REMARK    2  A    between atoms: C2_2  and  C8_8 
REMARK    3  A    between atoms: C7_7  and  C9_9 
ROOT
HETATM    1  C1  UNL     1     -33.980   6.923   5.202  1.00 20.00     0.071 C 
HETATM    2  C3  UNL     1     -34.523   4.689   4.309  1.00 20.00     0.033 C 
HETATM    3  C8  UNL     1     -34.413   6.179   4.007  1.00 20.00     0.158 C 
HETATM    4  N10 UNL     1     -33.641   7.511   6.143  1.00 20.00    -0.196 NA
ENDROOT
BRANCH   3   5
HETATM    5  C2  UNL     1     -33.441   6.387   2.852  1.00 20.00     0.144 C 
HETATM    6  O11 UNL     1     -32.561   5.568   2.582  1.00 20.00    -0.296 OA
BRANCH   5   7
HETATM    7  C7  UNL     1     -33.579   7.674   2.050  1.00 20.00     0.088 C 
BRANCH   7   8
HETATM    8  C9  UNL     1     -32.306   8.548   1.999  1.00 20.00    -0.045 C 
HETATM    9  C4  UNL     1     -31.426   8.185   0.793  1.00 20.00     0.015 C 
HETATM   10  C5  UNL     1     -31.481   8.410   3.289  1.00 20.00     0.015 C 
HETATM   11  C6  UNL     1     -32.744  10.020   1.859  1.00 20.00     0.015 C 
ENDBRANCH   7   8
ENDBRANCH   5   7
ENDBRANCH   3   5
TORSDOF 3
ENDMDL
MODEL 2
REMARK VINA RESULT:      -4.8      1.414      1.852
REMARK  3 active torsions:
REMARK  status: ('A' for Active; 'I' for Inactive)
REMARK    1  A    between atoms: C2_2  and  C7_7 
REMARK    2  A    between atoms: C2_2  and  C8_8 
REMARK    3  A    between atoms: C7_7  and  C9_9 
ROOT
HETATM    1  C1  UNL     1     -34.130   6.231   4.503  1.00 20.00     0.071 C 
HETATM    2  C3  UNL     1     -32.938   5.144   2.637  1.00 20.00     0.033 C 
HETATM    3  C8  UNL     1     -33.758   6.349   3.082  1.00 20.00     0.158 C 
HETATM    4  N10 UNL     1     -34.426   6.139   5.621  1.00 20.00    -0.196 NA
ENDROOT
BRANCH   3   5
HETATM    5  C2  UNL     1     -32.958   7.622   2.831  1.00 20.00     0.144 C 
HETATM    6  O11 UNL     1     -31.870   7.828   3.372  1.00 20.00    -0.296 OA
BRANCH   5   7
HETATM    7  C7  UNL     1     -33.571   8.658   1.899  1.00 20.00     0.088 C 
BRANCH   7   8
HETATM    8  C9  UNL     1     -32.575   9.333   0.931  1.00 20.00    -0.045 C 
HETATM    9  C4  UNL     1     -31.253   8.553   0.858  1.00 20.00     0.015 C 
HETATM   10  C5  UNL     1     -32.287  10.784   1.347  1.00 20.00     0.015 C 
HETATM   11  C6  UNL     1     -33.211   9.349  -0.474  1.00 20.00     0.015 C 
ENDBRANCH   7   8
ENDBRANCH   5   7
ENDBRANCH   3   5
TORSDOF 3
ENDMDL
MODEL 3
REMARK VINA RESULT:      -4.7      2.120      4.384
REMARK  3 active torsions:
REMARK  status: ('A' for Active; 'I' for Inactive)
REMARK    1  A    between atoms: C2_2  and  C7_7 
REMARK    2  A    between atoms: C2_2  and  C8_8 
REMARK    3  A    between atoms: C7_7  and  C9_9 
ROOT
HETATM    1  C1  UNL     1     -32.380   8.857   1.404  1.00 20.00     0.071 C 
HETATM    2  C3  UNL     1     -31.438   8.139   3.567  1.00 20.00     0.033 C 
HETATM    3  C8  UNL     1     -32.680   8.197   2.686  1.00 20.00     0.158 C 
HETATM    4  N10 UNL     1     -32.146   9.379   0.394  1.00 20.00    -0.196 NA
ENDROOT
BRANCH   3   5
HETATM    5  C2  UNL     1     -33.205   6.784   2.463  1.00 20.00     0.144 C 
HETATM    6  O11 UNL     1     -33.727   6.439   1.401  1.00 20.00    -0.296 OA
BRANCH   5   7
HETATM    7  C7  UNL     1     -33.087   5.806   3.625  1.00 20.00     0.088 C 
BRANCH   7   8
HETATM    8  C9  UNL     1     -34.310   5.766   4.568  1.00 20.00    -0.045 C 
HETATM    9  C4  UNL     1     -35.606   6.105   3.815  1.00 20.00     0.015 C 
HETATM   10  C5  UNL     1     -34.138   6.737   5.747  1.00 20.00     0.015 C 
HETATM   11  C6  UNL     1     -34.431   4.336   5.131  1.00 20.00     0.015 C 
ENDBRANCH   7   8
ENDBRANCH   5   7
ENDBRANCH   3   5
TORSDOF 3
ENDMDL
MODEL 4
REMARK VINA RESULT:      -4.4     11.039     11.905
REMARK  3 active torsions:
REMARK  status: ('A' for Active; 'I' for Inactive)
REMARK    1  A    between atoms: C2_2  and  C7_7 
REMARK    2  A    between atoms: C2_2  and  C8_8 
REMARK    3  A    between atoms: C7_7  and  C9_9 
ROOT
HETATM    1  C1  UNL     1     -35.439  13.806  -5.594  1.00 20.00     0.071 C 
HETATM    2  C3  UNL     1     -34.116  14.925  -7.349  1.00 20.00     0.033 C 
HETATM    3  C8  UNL     1     -34.791  15.068  -5.989  1.00 20.00     0.158 C 
HETATM    4  N10 UNL     1     -35.953  12.813  -5.282  1.00 20.00    -0.196 NA
ENDROOT
BRANCH   3   5
HETATM    5  C2  UNL     1     -33.755  15.496  -4.957  1.00 20.00     0.144 C 
HETATM    6  O11 UNL     1     -32.609  15.818  -5.274  1.00 20.00    -0.296 OA
BRANCH   5   7
HETATM    7  C7  UNL     1     -34.183  15.482  -3.495  1.00 20.00     0.088 C 
BRANCH   7   8
HETATM    8  C9  UNL     1     -34.429  16.876  -2.876  1.00 20.00    -0.045 C 
HETATM    9  C4  UNL     1     -34.847  17.896  -3.947  1.00 20.00     0.015 C 
HETATM   10  C5  UNL     1     -33.178  17.392  -2.145  1.00 20.00     0.015 C 
HETATM   11  C6  UNL     1     -35.572  16.748  -1.850  1.00 20.00     0.015 C 
ENDBRANCH   7   8
ENDBRANCH   5   7
ENDBRANCH   3   5
TORSDOF 3
ENDMDL
MODEL 5
REMARK VINA RESULT:      -4.4     11.111     11.781
REMARK  3 active torsions:
REMARK  status: ('A' for Active; 'I' for Inactive)
REMARK    1  A    between atoms: C2_2  and  C7_7 
REMARK    2  A    between atoms: C2_2  and  C8_8 
REMARK    3  A    between atoms: C7_7  and  C9_9 
ROOT
HETATM    1  C1  UNL     1     -35.685  13.812  -4.931  1.00 20.00     0.071 C 
HETATM    2  C3  UNL     1     -37.031  15.829  -4.480  1.00 20.00     0.033 C 
HETATM    3  C8  UNL     1     -35.776  15.040  -4.124  1.00 20.00     0.158 C 
HETATM    4  N10 UNL     1     -35.614  12.841  -5.564  1.00 20.00    -0.196 NA
ENDROOT
BRANCH   3   5
HETATM    5  C2  UNL     1     -34.552  15.923  -4.335  1.00 20.00     0.144 C 
HETATM    6  O11 UNL     1     -34.251  16.371  -5.443  1.00 20.00    -0.296 OA
BRANCH   5   7
HETATM    7  C7  UNL     1     -33.684  16.213  -3.118  1.00 20.00     0.088 C 
BRANCH   7   8
HETATM    8  C9  UNL     1     -34.160  17.395  -2.245  1.00 20.00    -0.045 C 
HETATM    9  C4  UNL     1     -35.227  16.947  -1.234  1.00 20.00     0.015 C 
HETATM   10  C5  UNL     1     -34.725  18.535  -3.108  1.00 20.00     0.015 C 
HETATM   11  C6  UNL     1     -32.944  17.933  -1.466  1.00 20.00     0.015 C 
ENDBRANCH   7   8
ENDBRANCH   5   7
ENDBRANCH   3   5
TORSDOF 3
ENDMDL
MODEL 6
REMARK VINA RESULT:      -4.4      1.816      2.345
REMARK  3 active torsions:
REMARK  status: ('A' for Active; 'I' for Inactive)
REMARK    1  A    between atoms: C2_2  and  C7_7 
REMARK    2  A    between atoms: C2_2  and  C8_8 
REMARK    3  A    between atoms: C7_7  and  C9_9 
ROOT
HETATM    1  C1  UNL     1     -34.358   6.381   3.731  1.00 20.00     0.071 C 
HETATM    2  C3  UNL     1     -33.303   7.662   5.556  1.00 20.00     0.033 C 
HETATM    3  C8  UNL     1     -33.085   6.915   4.245  1.00 20.00     0.158 C 
HETATM    4  N10 UNL     1     -35.359   5.957   3.326  1.00 20.00    -0.196 NA
ENDROOT
BRANCH   3   5
HETATM    5  C2  UNL     1     -32.439   7.855   3.233  1.00 20.00     0.144 C 
HETATM    6  O11 UNL     1     -31.368   8.420   3.456  1.00 20.00    -0.296 OA
BRANCH   5   7
HETATM    7  C7  UNL     1     -33.190   8.098   1.931  1.00 20.00     0.088 C 
BRANCH   7   8
HETATM    8  C9  UNL     1     -32.540   9.135   0.988  1.00 20.00    -0.045 C 
HETATM    9  C4  UNL     1     -31.085   8.760   0.665  1.00 20.00     0.015 C 
HETATM   10  C5  UNL     1     -32.577  10.545   1.599  1.00 20.00     0.015 C 
HETATM   11  C6  UNL     1     -33.344   9.155  -0.327  1.00 20.00     0.015 C 
ENDBRANCH   7   8
ENDBRANCH   5   7
ENDBRANCH   3   5
TORSDOF 3
ENDMDL
MODEL 7
REMARK VINA RESULT:      -4.3     10.858     11.669
REMARK  3 active torsions:
REMARK  status: ('A' for Active; 'I' for Inactive)
REMARK    1  A    between atoms: C2_2  and  C7_7 
REMARK    2  A    between atoms: C2_2  and  C8_8 
REMARK    3  A    between atoms: C7_7  and  C9_9 
ROOT
HETATM    1  C1  UNL     1     -36.949  14.174  -5.368  1.00 20.00     0.071 C 
HETATM    2  C3  UNL     1     -35.231  13.340  -6.929  1.00 20.00     0.033 C 
HETATM    3  C8  UNL     1     -35.589  14.395  -5.888  1.00 20.00     0.158 C 
HETATM    4  N10 UNL     1     -38.022  14.004  -4.959  1.00 20.00    -0.196 NA
ENDROOT
BRANCH   3   5
HETATM    5  C2  UNL     1     -34.562  14.359  -4.762  1.00 20.00     0.144 C 
HETATM    6  O11 UNL     1     -33.550  13.659  -4.822  1.00 20.00    -0.296 OA
BRANCH   5   7
HETATM    7  C7  UNL     1     -34.849  15.207  -3.530  1.00 20.00     0.088 C 
BRANCH   7   8
HETATM    8  C9  UNL     1     -34.387  16.678  -3.632  1.00 20.00    -0.045 C 
HETATM    9  C4  UNL     1     -35.584  17.629  -3.790  1.00 20.00     0.015 C 
HETATM   10  C5  UNL     1     -33.419  16.880  -4.809  1.00 20.00     0.015 C 
HETATM   11  C6  UNL     1     -33.647  17.036  -2.328  1.00 20.00     0.015 C 
ENDBRANCH   7   8
ENDBRANCH   5   7
ENDBRANCH   3   5
TORSDOF 3
ENDMDL
MODEL 8
REMARK VINA RESULT:      -4.2     11.087     11.855
REMARK  3 active torsions:
REMARK  status: ('A' for Active; 'I' for Inactive)
REMARK    1  A    between atoms: C2_2  and  C7_7 
REMARK    2  A    between atoms: C2_2  and  C8_8 
REMARK    3  A    between atoms: C7_7  and  C9_9 
ROOT
HETATM    1  C1  UNL     1     -34.968  13.889  -6.038  1.00 20.00     0.071 C 
HETATM    2  C3  UNL     1     -33.264  15.638  -5.688  1.00 20.00     0.033 C 
HETATM    3  C8  UNL     1     -34.743  15.278  -5.603  1.00 20.00     0.158 C 
HETATM    4  N10 UNL     1     -35.148  12.796  -6.383  1.00 20.00    -0.196 NA
ENDROOT
BRANCH   3   5
HETATM    5  C2  UNL     1     -35.230  15.488  -4.174  1.00 20.00     0.144 C 
HETATM    6  O11 UNL     1     -36.424  15.435  -3.875  1.00 20.00    -0.296 OA
BRANCH   5   7
HETATM    7  C7  UNL     1     -34.177  15.800  -3.118  1.00 20.00     0.088 C 
BRANCH   7   8
HETATM    8  C9  UNL     1     -34.387  17.132  -2.365  1.00 20.00    -0.045 C 
HETATM    9  C4  UNL     1     -33.067  17.653  -1.774  1.00 20.00     0.015 C 
HETATM   10  C5  UNL     1     -35.422  16.980  -1.238  1.00 20.00     0.015 C 
HETATM   11  C6  UNL     1     -34.916  18.172  -3.372  1.00 20.00     0.015 C 
ENDBRANCH   7   8
ENDBRANCH   5   7
ENDBRANCH   3   5
TORSDOF 3
ENDMDL
MODEL 9
REMARK VINA RESULT:      -4.2      1.979      2.554
REMARK  3 active torsions:
REMARK  status: ('A' for Active; 'I' for Inactive)
REMARK    1  A    between atoms: C2_2  and  C7_7 
REMARK    2  A    between atoms: C2_2  and  C8_8 
REMARK    3  A    between atoms: C7_7  and  C9_9 
ROOT
HETATM    1  C1  UNL     1     -34.414   4.513   4.547  1.00 20.00     0.071 C 
HETATM    2  C3  UNL     1     -35.858   6.181   3.444  1.00 20.00     0.033 C 
HETATM    3  C8  UNL     1     -35.038   5.841   4.683  1.00 20.00     0.158 C 
HETATM    4  N10 UNL     1     -33.924   3.467   4.443  1.00 20.00    -0.196 NA
ENDROOT
BRANCH   3   5
HETATM    5  C2  UNL     1     -33.984   6.920   4.900  1.00 20.00     0.144 C 
HETATM    6  O11 UNL     1     -33.315   6.982   5.933  1.00 20.00    -0.296 OA
BRANCH   5   7
HETATM    7  C7  UNL     1     -33.805   7.950   3.793  1.00 20.00     0.088 C 
BRANCH   7   8
HETATM    8  C9  UNL     1     -32.546   7.754   2.919  1.00 20.00    -0.045 C 
HETATM    9  C4  UNL     1     -32.619   8.600   1.638  1.00 20.00     0.015 C 
HETATM   10  C5  UNL     1     -32.354   6.276   2.542  1.00 20.00     0.015 C 
HETATM   11  C6  UNL     1     -31.321   8.209   3.737  1.00 20.00     0.015 C 
ENDBRANCH   7   8
ENDBRANCH   5   7
ENDBRANCH   3   5
TORSDOF 3
ENDMDL
