MODEL 1
REMARK VINA RESULT:      -6.1      0.000      0.000
REMARK  3 active torsions:
REMARK  status: ('A' for Active; 'I' for Inactive)
REMARK    1  A    between atoms: C2_2  and  C4_4 
REMARK    2  A    between atoms: C2_2  and  C9_9 
REMARK    3  A    between atoms: C8_8  and  C9_9 
ROOT
HETATM    1  C1  UNL     1     -33.621   7.265   4.896  1.00 20.00     0.071 C 
HETATM    2  C9  UNL     1     -33.583   7.142   3.428  1.00 20.00     0.162 C 
HETATM    3  N10 UNL     1     -33.653   7.366   6.052  1.00 20.00    -0.196 NA
ENDROOT
BRANCH   2   4
HETATM    4  C2  UNL     1     -32.389   7.875   2.841  1.00 20.00     0.148 C 
HETATM    5  O11 UNL     1     -31.461   8.328   3.502  1.00 20.00    -0.296 OA
BRANCH   4   6
HETATM    6  C4  UNL     1     -32.385   8.043   1.356  1.00 20.00     0.061 A 
HETATM    7  C3  UNL     1     -31.248   8.778   0.724  1.00 20.00     0.017 A 
HETATM    8  C5  UNL     1     -32.619   9.392   0.752  1.00 20.00    -0.007 A 
HETATM    9  C6  UNL     1     -32.873  10.614   1.566  1.00 20.00     0.011 C 
ENDBRANCH   4   6
ENDBRANCH   2   4
BRANCH   2  10
HETATM   10  C8  UNL     1     -33.607   5.673   2.979  1.00 20.00     0.022 C 
HETATM   11  C7  UNL     1     -34.238   4.711   3.981  1.00 20.00     0.007 C 
ENDBRANCH   2  10
TORSDOF 3
ENDMDL
MODEL 2
REMARK VINA RESULT:      -4.9      1.690      4.413
REMARK  3 active torsions:
REMARK  status: ('A' for Active; 'I' for Inactive)
REMARK    1  A    between atoms: C2_2  and  C4_4 
REMARK    2  A    between atoms: C2_2  and  C9_9 
REMARK    3  A    between atoms: C8_8  and  C9_9 
ROOT
HETATM    1  C1  UNL     1     -31.637   8.268   3.515  1.00 20.00     0.071 C 
HETATM    2  C9  UNL     1     -32.255   7.533   2.397  1.00 20.00     0.162 C 
HETATM    3  N10 UNL     1     -31.147   8.844   4.396  1.00 20.00    -0.196 NA
ENDROOT
BRANCH   2   4
HETATM    4  C2  UNL     1     -33.098   6.371   2.896  1.00 20.00     0.148 C 
HETATM    5  O11 UNL     1     -32.893   5.196   2.612  1.00 20.00    -0.296 OA
BRANCH   4   6
HETATM    6  C4  UNL     1     -34.248   6.725   3.782  1.00 20.00     0.061 A 
HETATM    7  C3  UNL     1     -34.031   6.736   5.260  1.00 20.00     0.017 A 
HETATM    8  C5  UNL     1     -34.891   5.675   4.632  1.00 20.00    -0.007 A 
HETATM    9  C6  UNL     1     -34.447   4.253   4.643  1.00 20.00     0.011 C 
ENDBRANCH   4   6
ENDBRANCH   2   4
BRANCH   2  10
HETATM   10  C8  UNL     1     -33.075   8.463   1.489  1.00 20.00     0.022 C 
HETATM   11  C7  UNL     1     -32.324   9.696   0.996  1.00 20.00     0.007 C 
ENDBRANCH   2  10
TORSDOF 3
ENDMDL
MODEL 3
REMARK VINA RESULT:      -4.8      1.599      2.042
REMARK  3 active torsions:
REMARK  status: ('A' for Active; 'I' for Inactive)
REMARK    1  A    between atoms: C2_2  and  C4_4 
REMARK    2  A    between atoms: C2_2  and  C9_9 
REMARK    3  A    between atoms: C8_8  and  C9_9 
ROOT
HETATM    1  C1  UNL     1     -32.941   5.710   2.860  1.00 20.00     0.071 C 
HETATM    2  C9  UNL     1     -32.683   6.888   3.707  1.00 20.00     0.162 C 
HETATM    3  N10 UNL     1     -33.141   4.780   2.194  1.00 20.00    -0.196 NA
ENDROOT
BRANCH   2   4
HETATM    4  C2  UNL     1     -32.051   8.017   2.908  1.00 20.00     0.148 C 
HETATM    5  O11 UNL     1     -31.291   8.856   3.378  1.00 20.00    -0.296 OA
BRANCH   4   6
HETATM    6  C4  UNL     1     -32.413   8.079   1.460  1.00 20.00     0.061 A 
HETATM    7  C3  UNL     1     -31.463   8.742   0.516  1.00 20.00     0.017 A 
HETATM    8  C5  UNL     1     -32.782   9.387   0.834  1.00 20.00    -0.007 A 
HETATM    9  C6  UNL     1     -32.822  10.668   1.593  1.00 20.00     0.011 C 
ENDBRANCH   4   6
ENDBRANCH   2   4
BRANCH   2  10
HETATM   10  C8  UNL     1     -33.954   7.362   4.427  1.00 20.00     0.022 C 
HETATM   11  C7  UNL     1     -33.908   7.241   5.947  1.00 20.00     0.007 C 
ENDBRANCH   2  10
TORSDOF 3
ENDMDL
MODEL 4
REMARK VINA RESULT:      -4.5     10.488     11.260
REMARK  3 active torsions:
REMARK  status: ('A' for Active; 'I' for Inactive)
REMARK    1  A    between atoms: C2_2  and  C4_4 
REMARK    2  A    between atoms: C2_2  and  C9_9 
REMARK    3  A    between atoms: C8_8  and  C9_9 
ROOT
HETATM    1  C1  UNL     1     -36.850  14.626  -4.765  1.00 20.00     0.071 C 
HETATM    2  C9  UNL     1     -35.583  15.350  -4.562  1.00 20.00     0.162 C 
HETATM    3  N10 UNL     1     -37.849  14.057  -4.929  1.00 20.00    -0.196 NA
ENDROOT
BRANCH   2   4
HETATM    4  C2  UNL     1     -35.767  16.540  -3.633  1.00 20.00     0.148 C 
HETATM    5  O11 UNL     1     -36.188  17.635  -3.988  1.00 20.00    -0.296 OA
BRANCH   4   6
HETATM    6  C4  UNL     1     -35.393  16.322  -2.204  1.00 20.00     0.061 A 
HETATM    7  C3  UNL     1     -35.561  17.454  -1.242  1.00 20.00     0.017 A 
HETATM    8  C5  UNL     1     -34.185  16.996  -1.633  1.00 20.00    -0.007 A 
HETATM    9  C6  UNL     1     -33.300  17.891  -2.431  1.00 20.00     0.011 C 
ENDBRANCH   4   6
ENDBRANCH   2   4
BRANCH   2  10
HETATM   10  C8  UNL     1     -34.470  14.420  -4.056  1.00 20.00     0.022 C 
HETATM   11  C7  UNL     1     -33.074  14.760  -4.567  1.00 20.00     0.007 C 
ENDBRANCH   2  10
TORSDOF 3
ENDMDL
MODEL 5
REMARK VINA RESULT:      -4.5     10.237     11.714
REMARK  3 active torsions:
REMARK  status: ('A' for Active; 'I' for Inactive)
REMARK    1  A    between atoms: C2_2  and  C4_4 
REMARK    2  A    between atoms: C2_2  and  C9_9 
REMARK    3  A    between atoms: C8_8  and  C9_9 
ROOT
HETATM    1  C1  UNL     1     -37.849  14.521  -5.241  1.00 20.00     0.071 C 
HETATM    2  C9  UNL     1     -36.482  14.892  -5.644  1.00 20.00     0.162 C 
HETATM    3  N10 UNL     1     -38.927  14.231  -4.920  1.00 20.00    -0.196 NA
ENDROOT
BRANCH   2   4
HETATM    4  C2  UNL     1     -35.479  13.815  -5.260  1.00 20.00     0.148 C 
HETATM    5  O11 UNL     1     -35.368  12.737  -5.833  1.00 20.00    -0.296 OA
BRANCH   4   6
HETATM    6  C4  UNL     1     -34.595  14.125  -4.096  1.00 20.00     0.061 A 
HETATM    7  C3  UNL     1     -34.591  15.518  -3.555  1.00 20.00     0.017 A 
HETATM    8  C5  UNL     1     -33.387  14.988  -4.280  1.00 20.00    -0.007 A 
HETATM    9  C6  UNL     1     -32.995  15.567  -5.596  1.00 20.00     0.011 C 
ENDBRANCH   4   6
ENDBRANCH   2   4
BRANCH   2  10
HETATM   10  C8  UNL     1     -36.398  15.217  -7.143  1.00 20.00     0.022 C 
HETATM   11  C7  UNL     1     -35.999  16.655  -7.461  1.00 20.00     0.007 C 
ENDBRANCH   2  10
TORSDOF 3
ENDMDL
MODEL 6
REMARK VINA RESULT:      -4.4     10.661     11.327
REMARK  3 active torsions:
REMARK  status: ('A' for Active; 'I' for Inactive)
REMARK    1  A    between atoms: C2_2  and  C4_4 
REMARK    2  A    between atoms: C2_2  and  C9_9 
REMARK    3  A    between atoms: C8_8  and  C9_9 
ROOT
HETATM    1  C1  UNL     1     -37.156  14.205  -5.412  1.00 20.00     0.071 C 
HETATM    2  C9  UNL     1     -35.802  14.496  -5.914  1.00 20.00     0.162 C 
HETATM    3  N10 UNL     1     -38.224  13.980  -5.016  1.00 20.00    -0.196 NA
ENDROOT
BRANCH   2   4
HETATM    4  C2  UNL     1     -34.794  14.571  -4.778  1.00 20.00     0.148 C 
HETATM    5  O11 UNL     1     -34.478  13.622  -4.070  1.00 20.00    -0.296 OA
BRANCH   4   6
HETATM    6  C4  UNL     1     -34.176  15.910  -4.536  1.00 20.00     0.061 A 
HETATM    7  C3  UNL     1     -33.547  16.174  -3.206  1.00 20.00     0.017 A 
HETATM    8  C5  UNL     1     -34.820  16.874  -3.589  1.00 20.00    -0.007 A 
HETATM    9  C6  UNL     1     -36.084  16.574  -2.859  1.00 20.00     0.011 C 
ENDBRANCH   4   6
ENDBRANCH   2   4
BRANCH   2  10
HETATM   10  C8  UNL     1     -35.360  13.482  -6.980  1.00 20.00     0.022 C 
HETATM   11  C7  UNL     1     -34.166  13.923  -7.822  1.00 20.00     0.007 C 
ENDBRANCH   2  10
TORSDOF 3
ENDMDL
MODEL 7
REMARK VINA RESULT:      -4.4      2.237      4.436
REMARK  3 active torsions:
REMARK  status: ('A' for Active; 'I' for Inactive)
REMARK    1  A    between atoms: C2_2  and  C4_4 
REMARK    2  A    between atoms: C2_2  and  C9_9 
REMARK    3  A    between atoms: C8_8  and  C9_9 
ROOT
HETATM    1  C1  UNL     1     -32.443   8.275   2.085  1.00 20.00     0.071 C 
HETATM    2  C9  UNL     1     -33.113   7.603   3.212  1.00 20.00     0.162 C 
HETATM    3  N10 UNL     1     -31.918   8.806   1.195  1.00 20.00    -0.196 NA
ENDROOT
BRANCH   2   4
HETATM    4  C2  UNL     1     -33.201   6.102   2.989  1.00 20.00     0.148 C 
HETATM    5  O11 UNL     1     -32.234   5.372   2.800  1.00 20.00    -0.296 OA
BRANCH   4   6
HETATM    6  C4  UNL     1     -34.575   5.515   2.998  1.00 20.00     0.061 A 
HETATM    7  C3  UNL     1     -35.624   6.172   3.836  1.00 20.00     0.017 A 
HETATM    8  C5  UNL     1     -35.088   4.822   4.221  1.00 20.00    -0.007 A 
HETATM    9  C6  UNL     1     -34.282   4.669   5.465  1.00 20.00     0.011 C 
ENDBRANCH   4   6
ENDBRANCH   2   4
BRANCH   2  10
HETATM   10  C8  UNL     1     -32.434   7.925   4.552  1.00 20.00     0.022 C 
HETATM   11  C7  UNL     1     -33.330   7.756   5.775  1.00 20.00     0.007 C 
ENDBRANCH   2  10
TORSDOF 3
ENDMDL
MODEL 8
REMARK VINA RESULT:      -4.3     10.436     11.738
REMARK  3 active torsions:
REMARK  status: ('A' for Active; 'I' for Inactive)
REMARK    1  A    between atoms: C2_2  and  C4_4 
REMARK    2  A    between atoms: C2_2  and  C9_9 
REMARK    3  A    between atoms: C8_8  and  C9_9 
ROOT
HETATM    1  C1  UNL     1     -35.339  13.760  -4.765  1.00 20.00     0.071 C 
HETATM    2  C9  UNL     1     -34.463  14.804  -4.206  1.00 20.00     0.162 C 
HETATM    3  N10 UNL     1     -36.028  12.934  -5.204  1.00 20.00    -0.196 NA
ENDROOT
BRANCH   2   4
HETATM    4  C2  UNL     1     -33.709  15.540  -5.303  1.00 20.00     0.148 C 
HETATM    5  O11 UNL     1     -32.488  15.635  -5.360  1.00 20.00    -0.296 OA
BRANCH   4   6
HETATM    6  C4  UNL     1     -34.548  16.184  -6.358  1.00 20.00     0.061 A 
HETATM    7  C3  UNL     1     -33.861  16.908  -7.471  1.00 20.00     0.017 A 
HETATM    8  C5  UNL     1     -34.639  17.675  -6.439  1.00 20.00    -0.007 A 
HETATM    9  C6  UNL     1     -33.930  18.585  -5.495  1.00 20.00     0.011 C 
ENDBRANCH   4   6
ENDBRANCH   2   4
BRANCH   2  10
HETATM   10  C8  UNL     1     -35.240  15.784  -3.315  1.00 20.00     0.022 C 
HETATM   11  C7  UNL     1     -34.372  16.618  -2.377  1.00 20.00     0.007 C 
ENDBRANCH   2  10
TORSDOF 3
ENDMDL
MODEL 9
REMARK VINA RESULT:      -4.3     10.586     11.681
REMARK  3 active torsions:
REMARK  status: ('A' for Active; 'I' for Inactive)
REMARK    1  A    between atoms: C2_2  and  C4_4 
REMARK    2  A    between atoms: C2_2  and  C9_9 
REMARK    3  A    between atoms: C8_8  and  C9_9 
ROOT
HETATM    1  C1  UNL     1     -35.639  13.980  -5.091  1.00 20.00     0.071 C 
HETATM    2  C9  UNL     1     -35.385  15.416  -4.882  1.00 20.00     0.162 C 
HETATM    3  N10 UNL     1     -35.840  12.848  -5.253  1.00 20.00    -0.196 NA
ENDROOT
BRANCH   2   4
HETATM    4  C2  UNL     1     -33.937  15.672  -4.496  1.00 20.00     0.148 C 
HETATM    5  O11 UNL     1     -32.994  15.626  -5.278  1.00 20.00    -0.296 OA
BRANCH   4   6
HETATM    6  C4  UNL     1     -33.686  15.991  -3.058  1.00 20.00     0.061 A 
HETATM    7  C3  UNL     1     -34.779  16.638  -2.270  1.00 20.00     0.017 A 
HETATM    8  C5  UNL     1     -33.540  17.414  -2.619  1.00 20.00    -0.007 A 
HETATM    9  C6  UNL     1     -33.623  18.567  -3.559  1.00 20.00     0.011 C 
ENDBRANCH   4   6
ENDBRANCH   2   4
BRANCH   2  10
HETATM   10  C8  UNL     1     -35.789  16.251  -6.107  1.00 20.00     0.022 C 
HETATM   11  C7  UNL     1     -36.493  17.563  -5.779  1.00 20.00     0.007 C 
ENDBRANCH   2  10
TORSDOF 3
ENDMDL
