MODEL 1
REMARK VINA RESULT:      -4.4      0.000      0.000
REMARK  3 active torsions:
REMARK  status: ('A' for Active; 'I' for Inactive)
REMARK    1  A    between atoms: C1_1  and  C4_4 
REMARK       I    between atoms: C1_1  and  N7_7 
REMARK    2  A    between atoms: C5_5  and  C6_6 
REMARK    3  A    between atoms: C6_6  and  N7_7 
ROOT
HETATM    1  C1  UNL     1     -33.158   7.053   3.224  1.00 20.00     0.233 C 
HETATM    2  C3  UNL     1     -33.427   7.543   5.704  1.00 20.00     0.152 C 
HETATM    3  N7  UNL     1     -33.806   6.886   4.454  1.00 20.00    -0.356 N 
HETATM    4  O8  UNL     1     -33.513   6.475   2.192  1.00 20.00    -0.272 OA
ENDROOT
BRANCH   3   5
HETATM    5  C6  UNL     1     -34.960   6.000   4.546  1.00 20.00     0.125 C 
BRANCH   5   6
HETATM    6  C5  UNL     1     -34.631   4.689   5.249  1.00 20.00     0.015 C 
HETATM    7  C2  UNL     1     -33.960   3.680   4.328  1.00 20.00     0.006 C 
ENDBRANCH   5   6
ENDBRANCH   3   5
BRANCH   1   8
HETATM    8  C4  UNL     1     -31.974   7.998   3.230  1.00 20.00     0.217 C 
HETATM    9 CL9  UNL     1     -31.755   8.745   1.634  1.00 20.00    -0.121 Cl
ENDBRANCH   1   8
TORSDOF 3
ENDMDL
MODEL 2
REMARK VINA RESULT:      -4.4      2.759      4.510
REMARK  3 active torsions:
REMARK  status: ('A' for Active; 'I' for Inactive)
REMARK    1  A    between atoms: C1_1  and  C4_4 
REMARK       I    between atoms: C1_1  and  N7_7 
REMARK    2  A    between atoms: C5_5  and  C6_6 
REMARK    3  A    between atoms: C6_6  and  N7_7 
ROOT
HETATM    1  C1  UNL     1     -33.784   6.913   4.569  1.00 20.00     0.233 C 
HETATM    2  C3  UNL     1     -33.324   6.185   2.177  1.00 20.00     0.152 C 
HETATM    3  N7  UNL     1     -33.081   7.006   3.362  1.00 20.00    -0.356 N 
HETATM    4  O8  UNL     1     -33.543   7.629   5.545  1.00 20.00    -0.272 OA
ENDROOT
BRANCH   3   5
HETATM    5  C6  UNL     1     -32.013   7.990   3.225  1.00 20.00     0.125 C 
BRANCH   5   6
HETATM    6  C5  UNL     1     -31.777   8.393   1.774  1.00 20.00     0.015 C 
HETATM    7  C2  UNL     1     -32.431   9.721   1.419  1.00 20.00     0.006 C 
ENDBRANCH   5   6
ENDBRANCH   3   5
BRANCH   1   8
HETATM    8  C4  UNL     1     -34.878   5.865   4.611  1.00 20.00     0.217 C 
HETATM    9 CL9  UNL     1     -34.464   4.567   5.749  1.00 20.00    -0.121 Cl
ENDBRANCH   1   8
TORSDOF 3
ENDMDL
MODEL 3
REMARK VINA RESULT:      -4.3      2.384      4.037
REMARK  3 active torsions:
REMARK  status: ('A' for Active; 'I' for Inactive)
REMARK    1  A    between atoms: C1_1  and  C4_4 
REMARK       I    between atoms: C1_1  and  N7_7 
REMARK    2  A    between atoms: C5_5  and  C6_6 
REMARK    3  A    between atoms: C6_6  and  N7_7 
ROOT
HETATM    1  C1  UNL     1     -33.979   6.241   3.329  1.00 20.00     0.233 C 
HETATM    2  C3  UNL     1     -33.260   7.678   5.299  1.00 20.00     0.152 C 
HETATM    3  N7  UNL     1     -33.140   7.190   3.927  1.00 20.00    -0.356 N 
HETATM    4  O8  UNL     1     -33.840   5.858   2.164  1.00 20.00    -0.272 OA
ENDROOT
BRANCH   3   5
HETATM    5  C6  UNL     1     -32.042   7.765   3.159  1.00 20.00     0.125 C 
BRANCH   5   6
HETATM    6  C5  UNL     1     -32.503   8.885   2.235  1.00 20.00     0.015 C 
HETATM    7  C2  UNL     1     -31.791   8.868   0.890  1.00 20.00     0.006 C 
ENDBRANCH   5   6
ENDBRANCH   3   5
BRANCH   1   8
HETATM    8  C4  UNL     1     -35.087   5.699   4.210  1.00 20.00     0.217 C 
HETATM    9 CL9  UNL     1     -34.511   4.322   5.171  1.00 20.00    -0.121 Cl
ENDBRANCH   1   8
TORSDOF 3
ENDMDL
MODEL 4
REMARK VINA RESULT:      -4.3      2.654      4.346
REMARK  3 active torsions:
REMARK  status: ('A' for Active; 'I' for Inactive)
REMARK    1  A    between atoms: C1_1  and  C4_4 
REMARK       I    between atoms: C1_1  and  N7_7 
REMARK    2  A    between atoms: C5_5  and  C6_6 
REMARK    3  A    between atoms: C6_6  and  N7_7 
ROOT
HETATM    1  C1  UNL     1     -33.815   6.827   3.796  1.00 20.00     0.233 C 
HETATM    2  C3  UNL     1     -31.752   8.298   4.006  1.00 20.00     0.152 C 
HETATM    3  N7  UNL     1     -32.766   7.574   3.243  1.00 20.00    -0.356 N 
HETATM    4  O8  UNL     1     -34.651   6.232   3.110  1.00 20.00    -0.272 OA
ENDROOT
BRANCH   3   5
HETATM    5  C6  UNL     1     -32.632   7.664   1.794  1.00 20.00     0.125 C 
BRANCH   5   6
HETATM    6  C5  UNL     1     -31.831   8.885   1.359  1.00 20.00     0.015 C 
HETATM    7  C2  UNL     1     -32.705   9.977   0.757  1.00 20.00     0.006 C 
ENDBRANCH   5   6
ENDBRANCH   3   5
BRANCH   1   8
HETATM    8  C4  UNL     1     -33.865   6.790   5.309  1.00 20.00     0.217 C 
HETATM    9 CL9  UNL     1     -34.576   5.266   5.879  1.00 20.00    -0.121 Cl
ENDBRANCH   1   8
TORSDOF 3
ENDMDL
MODEL 5
REMARK VINA RESULT:      -4.1      1.548      2.098
REMARK  3 active torsions:
REMARK  status: ('A' for Active; 'I' for Inactive)
REMARK    1  A    between atoms: C1_1  and  C4_4 
REMARK       I    between atoms: C1_1  and  N7_7 
REMARK    2  A    between atoms: C5_5  and  C6_6 
REMARK    3  A    between atoms: C6_6  and  N7_7 
ROOT
HETATM    1  C1  UNL     1     -32.122   8.003   3.121  1.00 20.00     0.233 C 
HETATM    2  C3  UNL     1     -33.951   6.467   2.252  1.00 20.00     0.152 C 
HETATM    3  N7  UNL     1     -33.197   7.127   3.316  1.00 20.00    -0.356 N 
HETATM    4  O8  UNL     1     -31.513   8.539   4.053  1.00 20.00    -0.272 OA
ENDROOT
BRANCH   3   5
HETATM    5  C6  UNL     1     -33.633   6.812   4.671  1.00 20.00     0.125 C 
BRANCH   5   6
HETATM    6  C5  UNL     1     -34.808   5.842   4.692  1.00 20.00     0.015 C 
HETATM    7  C2  UNL     1     -34.497   4.559   5.450  1.00 20.00     0.006 C 
ENDBRANCH   5   6
ENDBRANCH   3   5
BRANCH   1   8
HETATM    8  C4  UNL     1     -31.741   8.262   1.678  1.00 20.00     0.217 C 
HETATM    9 CL9  UNL     1     -32.474   9.770   1.093  1.00 20.00    -0.121 Cl
ENDBRANCH   1   8
TORSDOF 3
ENDMDL
MODEL 6
REMARK VINA RESULT:      -3.7      1.402      2.000
REMARK  3 active torsions:
REMARK  status: ('A' for Active; 'I' for Inactive)
REMARK    1  A    between atoms: C1_1  and  C4_4 
REMARK       I    between atoms: C1_1  and  N7_7 
REMARK    2  A    between atoms: C5_5  and  C6_6 
REMARK    3  A    between atoms: C6_6  and  N7_7 
ROOT
HETATM    1  C1  UNL     1     -33.175   7.396   3.086  1.00 20.00     0.233 C 
HETATM    2  C3  UNL     1     -32.911   4.932   2.522  1.00 20.00     0.152 C 
HETATM    3  N7  UNL     1     -33.639   6.075   3.067  1.00 20.00    -0.356 N 
HETATM    4  O8  UNL     1     -33.827   8.332   3.558  1.00 20.00    -0.272 OA
ENDROOT
BRANCH   3   5
HETATM    5  C6  UNL     1     -34.949   5.764   3.629  1.00 20.00     0.125 C 
BRANCH   5   6
HETATM    6  C5  UNL     1     -34.849   5.036   4.964  1.00 20.00     0.015 C 
HETATM    7  C2  UNL     1     -34.416   5.951   6.101  1.00 20.00     0.006 C 
ENDBRANCH   5   6
ENDBRANCH   3   5
BRANCH   1   8
HETATM    8  C4  UNL     1     -31.802   7.616   2.484  1.00 20.00     0.217 C 
HETATM    9 CL9  UNL     1     -31.872   8.815   1.177  1.00 20.00    -0.121 Cl
ENDBRANCH   1   8
TORSDOF 3
ENDMDL
MODEL 7
REMARK VINA RESULT:      -3.7     11.658     12.117
REMARK  3 active torsions:
REMARK  status: ('A' for Active; 'I' for Inactive)
REMARK    1  A    between atoms: C1_1  and  C4_4 
REMARK       I    between atoms: C1_1  and  N7_7 
REMARK    2  A    between atoms: C5_5  and  C6_6 
REMARK    3  A    between atoms: C6_6  and  N7_7 
ROOT
HETATM    1  C1  UNL     1     -34.926  14.159  -4.445  1.00 20.00     0.233 C 
HETATM    2  C3  UNL     1     -36.732  15.893  -4.003  1.00 20.00     0.152 C 
HETATM    3  N7  UNL     1     -35.386  15.343  -3.855  1.00 20.00    -0.356 N 
HETATM    4  O8  UNL     1     -33.778  13.732  -4.291  1.00 20.00    -0.272 OA
ENDROOT
BRANCH   3   5
HETATM    5  C6  UNL     1     -34.487  16.123  -3.012  1.00 20.00     0.125 C 
BRANCH   5   6
HETATM    6  C5  UNL     1     -35.197  16.717  -1.802  1.00 20.00     0.015 C 
HETATM    7  C2  UNL     1     -34.263  17.522  -0.909  1.00 20.00     0.006 C 
ENDBRANCH   5   6
ENDBRANCH   3   5
BRANCH   1   8
HETATM    8  C4  UNL     1     -35.936  13.417  -5.297  1.00 20.00     0.217 C 
HETATM    9 CL9  UNL     1     -35.291  13.121  -6.924  1.00 20.00    -0.121 Cl
ENDBRANCH   1   8
TORSDOF 3
ENDMDL
MODEL 8
REMARK VINA RESULT:      -3.6     11.994     12.803
REMARK  3 active torsions:
REMARK  status: ('A' for Active; 'I' for Inactive)
REMARK    1  A    between atoms: C1_1  and  C4_4 
REMARK       I    between atoms: C1_1  and  N7_7 
REMARK    2  A    between atoms: C5_5  and  C6_6 
REMARK    3  A    between atoms: C6_6  and  N7_7 
ROOT
HETATM    1  C1  UNL     1     -35.336  13.546  -6.020  1.00 20.00     0.233 C 
HETATM    2  C3  UNL     1     -33.654  15.413  -6.407  1.00 20.00     0.152 C 
HETATM    3  N7  UNL     1     -34.384  14.468  -5.565  1.00 20.00    -0.356 N 
HETATM    4  O8  UNL     1     -35.928  12.765  -5.270  1.00 20.00    -0.272 OA
ENDROOT
BRANCH   3   5
HETATM    5  C6  UNL     1     -34.064  14.530  -4.143  1.00 20.00     0.125 C 
BRANCH   5   6
HETATM    6  C5  UNL     1     -34.772  15.680  -3.439  1.00 20.00     0.015 C 
HETATM    7  C2  UNL     1     -33.807  16.613  -2.722  1.00 20.00     0.006 C 
ENDBRANCH   5   6
ENDBRANCH   3   5
BRANCH   1   8
HETATM    8  C4  UNL     1     -35.602  13.563  -7.512  1.00 20.00     0.217 C 
HETATM    9 CL9  UNL     1     -36.919  14.689  -7.904  1.00 20.00    -0.121 Cl
ENDBRANCH   1   8
TORSDOF 3
ENDMDL
MODEL 9
REMARK VINA RESULT:      -3.5      1.373      1.597
REMARK  3 active torsions:
REMARK  status: ('A' for Active; 'I' for Inactive)
REMARK    1  A    between atoms: C1_1  and  C4_4 
REMARK       I    between atoms: C1_1  and  N7_7 
REMARK    2  A    between atoms: C5_5  and  C6_6 
REMARK    3  A    between atoms: C6_6  and  N7_7 
ROOT
HETATM    1  C1  UNL     1     -32.710   8.074   2.182  1.00 20.00     0.233 C 
HETATM    2  C3  UNL     1     -32.891   7.710   4.691  1.00 20.00     0.152 C 
HETATM    3  N7  UNL     1     -33.095   7.320   3.298  1.00 20.00    -0.356 N 
HETATM    4  O8  UNL     1     -32.903   7.703   1.020  1.00 20.00    -0.272 OA
ENDROOT
BRANCH   3   5
HETATM    5  C6  UNL     1     -33.762   6.038   3.105  1.00 20.00     0.125 C 
BRANCH   5   6
HETATM    6  C5  UNL     1     -34.805   5.758   4.180  1.00 20.00     0.015 C 
HETATM    7  C2  UNL     1     -34.560   4.444   4.908  1.00 20.00     0.006 C 
ENDBRANCH   5   6
ENDBRANCH   3   5
BRANCH   1   8
HETATM    8  C4  UNL     1     -32.030   9.393   2.486  1.00 20.00     0.217 C 
HETATM    9 CL9  UNL     1     -32.567  10.654   1.357  1.00 20.00    -0.121 Cl
ENDBRANCH   1   8
TORSDOF 3
ENDMDL
