MODEL 1
REMARK VINA RESULT:      -4.5      0.000      0.000
REMARK  3 active torsions:
REMARK  status: ('A' for Active; 'I' for Inactive)
REMARK    1  A    between atoms: C4_4  and  N9_9 
REMARK    2  A    between atoms: C6_6  and  N9_9 
REMARK    3  A    between atoms: C7_7  and  N9_9 
ROOT
HETATM    1  C1  UNL     1     -32.248   8.652   2.013  1.00 20.00     0.089 C 
HETATM    2  C6  UNL     1     -31.820   8.079   3.288  1.00 20.00     0.396 C 
HETATM    3  N8  UNL     1     -32.586   9.110   1.001  1.00 20.00    -0.195 NA
ENDROOT
BRANCH   2   4
HETATM    4  N9  UNL     1     -32.630   6.912   3.632  1.00 20.00     0.105 N 
BRANCH   4   5
HETATM    5  C4  UNL     1     -33.755   7.302   4.481  1.00 20.00     0.224 A 
HETATM    6  C2  UNL     1     -34.444   6.285   5.348  1.00 20.00     0.038 A 
HETATM    7  C3  UNL     1     -33.601   7.355   5.976  1.00 20.00     0.038 A 
ENDBRANCH   4   5
BRANCH   4   8
HETATM    8  C7  UNL     1     -33.113   6.249   2.420  1.00 20.00     0.269 C 
HETATM    9  C5  UNL     1     -33.012   4.767   2.540  1.00 20.00     0.037 C 
ENDBRANCH   4   8
ENDBRANCH   2   4
TORSDOF 3
ENDMDL
MODEL 2
REMARK VINA RESULT:      -4.1      1.436      3.631
REMARK  3 active torsions:
REMARK  status: ('A' for Active; 'I' for Inactive)
REMARK    1  A    between atoms: C4_4  and  N9_9 
REMARK    2  A    between atoms: C6_6  and  N9_9 
REMARK    3  A    between atoms: C7_7  and  N9_9 
ROOT
HETATM    1  C1  UNL     1     -34.267   5.997   5.573  1.00 20.00     0.089 C 
HETATM    2  C6  UNL     1     -33.668   7.191   4.980  1.00 20.00     0.396 C 
HETATM    3  N8  UNL     1     -34.743   5.050   6.048  1.00 20.00    -0.195 NA
ENDROOT
BRANCH   2   4
HETATM    4  N9  UNL     1     -33.665   7.100   3.521  1.00 20.00     0.105 N 
BRANCH   4   5
HETATM    5  C4  UNL     1     -32.311   7.288   2.999  1.00 20.00     0.224 A 
HETATM    6  C2  UNL     1     -32.030   8.353   1.976  1.00 20.00     0.038 A 
HETATM    7  C3  UNL     1     -31.510   8.504   3.375  1.00 20.00     0.038 A 
ENDBRANCH   4   5
BRANCH   4   8
HETATM    8  C7  UNL     1     -34.203   5.811   3.087  1.00 20.00     0.269 C 
HETATM    9  C5  UNL     1     -33.123   4.918   2.581  1.00 20.00     0.037 C 
ENDBRANCH   4   8
ENDBRANCH   2   4
TORSDOF 3
ENDMDL
MODEL 3
REMARK VINA RESULT:      -4.1      1.470      4.025
REMARK  3 active torsions:
REMARK  status: ('A' for Active; 'I' for Inactive)
REMARK    1  A    between atoms: C4_4  and  N9_9 
REMARK    2  A    between atoms: C6_6  and  N9_9 
REMARK    3  A    between atoms: C7_7  and  N9_9 
ROOT
HETATM    1  C1  UNL     1     -33.948   4.614   3.694  1.00 20.00     0.089 C 
HETATM    2  C6  UNL     1     -33.479   5.653   2.779  1.00 20.00     0.396 C 
HETATM    3  N8  UNL     1     -34.321   3.787   4.418  1.00 20.00    -0.195 NA
ENDROOT
BRANCH   2   4
HETATM    4  N9  UNL     1     -33.101   6.859   3.512  1.00 20.00     0.105 N 
BRANCH   4   5
HETATM    5  C4  UNL     1     -32.925   7.983   2.592  1.00 20.00     0.224 A 
HETATM    6  C2  UNL     1     -31.880   9.030   2.860  1.00 20.00     0.038 A 
HETATM    7  C3  UNL     1     -31.703   8.072   1.720  1.00 20.00     0.038 A 
ENDBRANCH   4   5
BRANCH   4   8
HETATM    8  C7  UNL     1     -34.108   7.181   4.522  1.00 20.00     0.269 C 
HETATM    9  C5  UNL     1     -33.484   7.380   5.861  1.00 20.00     0.037 C 
ENDBRANCH   4   8
ENDBRANCH   2   4
TORSDOF 3
ENDMDL
MODEL 4
REMARK VINA RESULT:      -4.0      0.785      2.542
REMARK  3 active torsions:
REMARK  status: ('A' for Active; 'I' for Inactive)
REMARK    1  A    between atoms: C4_4  and  N9_9 
REMARK    2  A    between atoms: C6_6  and  N9_9 
REMARK    3  A    between atoms: C7_7  and  N9_9 
ROOT
HETATM    1  C1  UNL     1     -31.978   8.429   2.061  1.00 20.00     0.089 C 
HETATM    2  C6  UNL     1     -32.197   7.850   3.386  1.00 20.00     0.396 C 
HETATM    3  N8  UNL     1     -31.801   8.890   1.011  1.00 20.00    -0.195 NA
ENDROOT
BRANCH   2   4
HETATM    4  N9  UNL     1     -33.351   6.952   3.377  1.00 20.00     0.105 N 
BRANCH   4   5
HETATM    5  C4  UNL     1     -32.915   5.558   3.443  1.00 20.00     0.224 A 
HETATM    6  C2  UNL     1     -33.919   4.454   3.629  1.00 20.00     0.038 A 
HETATM    7  C3  UNL     1     -33.214   4.610   2.314  1.00 20.00     0.038 A 
ENDBRANCH   4   5
BRANCH   4   8
HETATM    8  C7  UNL     1     -34.247   7.260   4.491  1.00 20.00     0.269 C 
HETATM    9  C5  UNL     1     -33.493   7.382   5.771  1.00 20.00     0.037 C 
ENDBRANCH   4   8
ENDBRANCH   2   4
TORSDOF 3
ENDMDL
MODEL 5
REMARK VINA RESULT:      -4.0      1.364      3.705
REMARK  3 active torsions:
REMARK  status: ('A' for Active; 'I' for Inactive)
REMARK    1  A    between atoms: C4_4  and  N9_9 
REMARK    2  A    between atoms: C6_6  and  N9_9 
REMARK    3  A    between atoms: C7_7  and  N9_9 
ROOT
HETATM    1  C1  UNL     1     -33.321   7.462   5.339  1.00 20.00     0.089 C 
HETATM    2  C6  UNL     1     -32.349   8.071   4.432  1.00 20.00     0.396 C 
HETATM    3  N8  UNL     1     -34.090   6.980   6.063  1.00 20.00    -0.195 NA
ENDROOT
BRANCH   2   4
HETATM    4  N9  UNL     1     -32.768   7.913   3.040  1.00 20.00     0.105 N 
BRANCH   4   5
HETATM    5  C4  UNL     1     -31.968   8.769   2.165  1.00 20.00     0.224 A 
HETATM    6  C2  UNL     1     -32.131   8.694   0.672  1.00 20.00     0.038 A 
HETATM    7  C3  UNL     1     -32.608   9.906   1.417  1.00 20.00     0.038 A 
ENDBRANCH   4   5
BRANCH   4   8
HETATM    8  C7  UNL     1     -32.655   6.514   2.628  1.00 20.00     0.269 C 
HETATM    9  C5  UNL     1     -33.994   5.865   2.550  1.00 20.00     0.037 C 
ENDBRANCH   4   8
ENDBRANCH   2   4
TORSDOF 3
ENDMDL
MODEL 6
REMARK VINA RESULT:      -3.8     11.147     12.059
REMARK  3 active torsions:
REMARK  status: ('A' for Active; 'I' for Inactive)
REMARK    1  A    between atoms: C4_4  and  N9_9 
REMARK    2  A    between atoms: C6_6  and  N9_9 
REMARK    3  A    between atoms: C7_7  and  N9_9 
ROOT
HETATM    1  C1  UNL     1     -36.008  13.975  -5.205  1.00 20.00     0.089 C 
HETATM    2  C6  UNL     1     -36.214  15.423  -5.200  1.00 20.00     0.396 C 
HETATM    3  N8  UNL     1     -35.849  12.826  -5.211  1.00 20.00    -0.195 NA
ENDROOT
BRANCH   2   4
HETATM    4  N9  UNL     1     -35.010  16.117  -4.747  1.00 20.00     0.105 N 
BRANCH   4   5
HETATM    5  C4  UNL     1     -34.713  15.773  -3.356  1.00 20.00     0.224 A 
HETATM    6  C2  UNL     1     -33.742  16.599  -2.558  1.00 20.00     0.038 A 
HETATM    7  C3  UNL     1     -35.206  16.642  -2.233  1.00 20.00     0.038 A 
ENDBRANCH   4   5
BRANCH   4   8
HETATM    8  C7  UNL     1     -33.874  15.786  -5.607  1.00 20.00     0.269 C 
HETATM    9  C5  UNL     1     -33.839  16.660  -6.813  1.00 20.00     0.037 C 
ENDBRANCH   4   8
ENDBRANCH   2   4
TORSDOF 3
ENDMDL
MODEL 7
REMARK VINA RESULT:      -3.8     11.243     11.936
REMARK  3 active torsions:
REMARK  status: ('A' for Active; 'I' for Inactive)
REMARK    1  A    between atoms: C4_4  and  N9_9 
REMARK    2  A    between atoms: C6_6  and  N9_9 
REMARK    3  A    between atoms: C7_7  and  N9_9 
ROOT
HETATM    1  C1  UNL     1     -37.329  14.004  -5.205  1.00 20.00     0.089 C 
HETATM    2  C6  UNL     1     -35.959  13.678  -5.597  1.00 20.00     0.396 C 
HETATM    3  N8  UNL     1     -38.418  14.259  -4.894  1.00 20.00    -0.195 NA
ENDROOT
BRANCH   2   4
HETATM    4  N9  UNL     1     -35.082  14.836  -5.433  1.00 20.00     0.105 N 
BRANCH   4   5
HETATM    5  C4  UNL     1     -34.503  14.854  -4.090  1.00 20.00     0.224 A 
HETATM    6  C2  UNL     1     -33.489  15.897  -3.712  1.00 20.00     0.038 A 
HETATM    7  C3  UNL     1     -34.865  15.941  -3.117  1.00 20.00     0.038 A 
ENDBRANCH   4   5
BRANCH   4   8
HETATM    8  C7  UNL     1     -34.025  14.824  -6.444  1.00 20.00     0.269 C 
HETATM    9  C5  UNL     1     -34.310  13.822  -7.510  1.00 20.00     0.037 C 
ENDBRANCH   4   8
ENDBRANCH   2   4
TORSDOF 3
ENDMDL
MODEL 8
REMARK VINA RESULT:      -3.8     11.051     12.281
REMARK  3 active torsions:
REMARK  status: ('A' for Active; 'I' for Inactive)
REMARK    1  A    between atoms: C4_4  and  N9_9 
REMARK    2  A    between atoms: C6_6  and  N9_9 
REMARK    3  A    between atoms: C7_7  and  N9_9 
ROOT
HETATM    1  C1  UNL     1     -36.158  13.816  -4.938  1.00 20.00     0.089 C 
HETATM    2  C6  UNL     1     -36.538  15.117  -4.390  1.00 20.00     0.396 C 
HETATM    3  N8  UNL     1     -35.860  12.782  -5.374  1.00 20.00    -0.195 NA
ENDROOT
BRANCH   2   4
HETATM    4  N9  UNL     1     -35.358  15.864  -3.959  1.00 20.00     0.105 N 
BRANCH   4   5
HETATM    5  C4  UNL     1     -34.618  16.364  -5.117  1.00 20.00     0.224 A 
HETATM    6  C2  UNL     1     -33.534  17.391  -4.942  1.00 20.00     0.038 A 
HETATM    7  C3  UNL     1     -33.177  15.985  -5.324  1.00 20.00     0.038 A 
ENDBRANCH   4   5
BRANCH   4   8
HETATM    8  C7  UNL     1     -35.745  16.971  -3.085  1.00 20.00     0.269 C 
HETATM    9  C5  UNL     1     -35.258  16.754  -1.693  1.00 20.00     0.037 C 
ENDBRANCH   4   8
ENDBRANCH   2   4
TORSDOF 3
ENDMDL
MODEL 9
REMARK VINA RESULT:      -3.7      1.520      3.267
REMARK  3 active torsions:
REMARK  status: ('A' for Active; 'I' for Inactive)
REMARK    1  A    between atoms: C4_4  and  N9_9 
REMARK    2  A    between atoms: C6_6  and  N9_9 
REMARK    3  A    between atoms: C7_7  and  N9_9 
ROOT
HETATM    1  C1  UNL     1     -33.885   4.561   3.594  1.00 20.00     0.089 C 
HETATM    2  C6  UNL     1     -33.438   5.701   2.795  1.00 20.00     0.396 C 
HETATM    3  N8  UNL     1     -34.239   3.653   4.225  1.00 20.00    -0.195 NA
ENDROOT
BRANCH   2   4
HETATM    4  N9  UNL     1     -33.706   6.959   3.489  1.00 20.00     0.105 N 
BRANCH   4   5
HETATM    5  C4  UNL     1     -33.234   6.891   4.872  1.00 20.00     0.224 A 
HETATM    6  C2  UNL     1     -33.497   8.026   5.822  1.00 20.00     0.038 A 
HETATM    7  C3  UNL     1     -34.209   6.718   6.004  1.00 20.00     0.038 A 
ENDBRANCH   4   5
BRANCH   4   8
HETATM    8  C7  UNL     1     -33.072   8.075   2.788  1.00 20.00     0.269 C 
HETATM    9  C5  UNL     1     -31.587   7.989   2.871  1.00 20.00     0.037 C 
ENDBRANCH   4   8
ENDBRANCH   2   4
TORSDOF 3
ENDMDL
