MODEL 1
REMARK VINA RESULT:      -5.2      0.000      0.000
REMARK  0 active torsions:
REMARK  status: ('A' for Active; 'I' for Inactive)
ROOT
HETATM    1  C1  UNL     1     -31.987   8.348   4.384  1.00 20.00     0.039 A 
HETATM    2  C2  UNL     1     -31.657   8.886   3.138  1.00 20.00     0.022 A 
HETATM    3  C3  UNL     1     -33.288   7.452   2.040  1.00 20.00     0.029 A 
HETATM    4  C4  UNL     1     -33.611   6.933   3.280  1.00 20.00    -0.021 A 
HETATM    5  C5  UNL     1     -32.971   7.379   4.426  1.00 20.00     0.075 A 
HETATM    6  C6  UNL     1     -32.305   8.442   1.974  1.00 20.00     0.011 A 
HETATM    7  C7  UNL     1     -34.556   5.851   3.632  1.00 20.00     0.073 C 
HETATM    8  C8  UNL     1     -34.597   6.047   5.156  1.00 20.00     0.129 C 
HETATM    9  C9  UNL     1     -34.680   4.732   5.912  1.00 20.00     0.040 C 
HETATM   10  O10 UNL     1     -33.396   6.751   5.569  1.00 20.00    -0.345 OA
HETATM   11 BR11 UNL     1     -31.832   9.185   0.300  1.00 20.00    -0.051 Br
ENDROOT
TORSDOF 0
ENDMDL
MODEL 2
REMARK VINA RESULT:      -4.8     11.382     11.722
REMARK  0 active torsions:
REMARK  status: ('A' for Active; 'I' for Inactive)
ROOT
HETATM    1  C1  UNL     1     -35.616  17.331  -0.580  1.00 20.00     0.039 A 
HETATM    2  C2  UNL     1     -34.723  18.071   0.199  1.00 20.00     0.022 A 
HETATM    3  C3  UNL     1     -32.945  17.713  -1.425  1.00 20.00     0.029 A 
HETATM    4  C4  UNL     1     -33.842  16.990  -2.190  1.00 20.00    -0.021 A 
HETATM    5  C5  UNL     1     -35.151  16.809  -1.771  1.00 20.00     0.075 A 
HETATM    6  C6  UNL     1     -33.397  18.262  -0.222  1.00 20.00     0.011 A 
HETATM    7  C7  UNL     1     -33.624  16.259  -3.458  1.00 20.00     0.073 C 
HETATM    8  C8  UNL     1     -35.088  15.982  -3.836  1.00 20.00     0.129 C 
HETATM    9  C9  UNL     1     -35.277  14.617  -4.477  1.00 20.00     0.040 C 
HETATM   10  O10 UNL     1     -35.902  16.055  -2.636  1.00 20.00    -0.345 OA
HETATM   11 BR11 UNL     1     -32.209  19.263   0.857  1.00 20.00    -0.051 Br
ENDROOT
TORSDOF 0
ENDMDL
MODEL 3
REMARK VINA RESULT:      -4.6     11.225     11.504
REMARK  0 active torsions:
REMARK  status: ('A' for Active; 'I' for Inactive)
ROOT
HETATM    1  C1  UNL     1     -32.933  17.855  -1.545  1.00 20.00     0.039 A 
HETATM    2  C2  UNL     1     -33.456  17.174  -2.646  1.00 20.00     0.022 A 
HETATM    3  C3  UNL     1     -35.542  16.770  -1.458  1.00 20.00     0.029 A 
HETATM    4  C4  UNL     1     -35.015  17.455  -0.378  1.00 20.00    -0.021 A 
HETATM    5  C5  UNL     1     -33.736  17.987  -0.429  1.00 20.00     0.075 A 
HETATM    6  C6  UNL     1     -34.754  16.636  -2.603  1.00 20.00     0.011 A 
HETATM    7  C7  UNL     1     -35.596  17.693   0.961  1.00 20.00     0.073 C 
HETATM    8  C8  UNL     1     -34.598  18.741   1.478  1.00 20.00     0.129 C 
HETATM    9  C9  UNL     1     -34.295  18.579   2.959  1.00 20.00     0.040 C 
HETATM   10  O10 UNL     1     -33.360  18.619   0.729  1.00 20.00    -0.345 OA
HETATM   11 BR11 UNL     1     -35.432  15.713  -4.107  1.00 20.00    -0.051 Br
ENDROOT
TORSDOF 0
ENDMDL
MODEL 4
REMARK VINA RESULT:      -4.6     11.481     11.889
REMARK  0 active torsions:
REMARK  status: ('A' for Active; 'I' for Inactive)
ROOT
HETATM    1  C1  UNL     1     -32.719  18.104  -1.175  1.00 20.00     0.039 A 
HETATM    2  C2  UNL     1     -33.147  18.538   0.081  1.00 20.00     0.022 A 
HETATM    3  C3  UNL     1     -35.303  17.451  -0.231  1.00 20.00     0.029 A 
HETATM    4  C4  UNL     1     -34.864  17.021  -1.470  1.00 20.00    -0.021 A 
HETATM    5  C5  UNL     1     -33.595  17.343  -1.926  1.00 20.00     0.075 A 
HETATM    6  C6  UNL     1     -34.431  18.212   0.551  1.00 20.00     0.011 A 
HETATM    7  C7  UNL     1     -35.587  16.264  -2.515  1.00 20.00     0.073 C 
HETATM    8  C8  UNL     1     -34.400  15.912  -3.427  1.00 20.00     0.129 C 
HETATM    9  C9  UNL     1     -34.763  15.959  -4.902  1.00 20.00     0.040 C 
HETATM   10  O10 UNL     1     -33.323  16.853  -3.178  1.00 20.00    -0.345 OA
HETATM   11 BR11 UNL     1     -34.984  18.819   2.254  1.00 20.00    -0.051 Br
ENDROOT
TORSDOF 0
ENDMDL
MODEL 5
REMARK VINA RESULT:      -4.5     11.399     11.715
REMARK  0 active torsions:
REMARK  status: ('A' for Active; 'I' for Inactive)
ROOT
HETATM    1  C1  UNL     1     -35.957  17.207  -1.628  1.00 20.00     0.039 A 
HETATM    2  C2  UNL     1     -35.004  17.914  -0.892  1.00 20.00     0.022 A 
HETATM    3  C3  UNL     1     -33.208  16.995  -2.254  1.00 20.00     0.029 A 
HETATM    4  C4  UNL     1     -34.163  16.307  -2.980  1.00 20.00    -0.021 A 
HETATM    5  C5  UNL     1     -35.509  16.418  -2.669  1.00 20.00     0.075 A 
HETATM    6  C6  UNL     1     -33.638  17.810  -1.204  1.00 20.00     0.011 A 
HETATM    7  C7  UNL     1     -33.989  15.342  -4.088  1.00 20.00     0.073 C 
HETATM    8  C8  UNL     1     -35.449  15.247  -4.561  1.00 20.00     0.129 C 
HETATM    9  C9  UNL     1     -35.832  13.842  -4.993  1.00 20.00     0.040 C 
HETATM   10  O10 UNL     1     -36.320  15.659  -3.474  1.00 20.00    -0.345 OA
HETATM   11 BR11 UNL     1     -32.371  18.775  -0.184  1.00 20.00    -0.051 Br
ENDROOT
TORSDOF 0
ENDMDL
MODEL 6
REMARK VINA RESULT:      -4.5      2.745      4.335
REMARK  0 active torsions:
REMARK  status: ('A' for Active; 'I' for Inactive)
ROOT
HETATM    1  C1  UNL     1     -32.668   8.161   4.933  1.00 20.00     0.039 A 
HETATM    2  C2  UNL     1     -33.362   7.102   5.521  1.00 20.00     0.022 A 
HETATM    3  C3  UNL     1     -33.778   6.107   3.338  1.00 20.00     0.029 A 
HETATM    4  C4  UNL     1     -33.081   7.157   2.770  1.00 20.00    -0.021 A 
HETATM    5  C5  UNL     1     -32.537   8.160   3.558  1.00 20.00     0.075 A 
HETATM    6  C6  UNL     1     -33.913   6.080   4.728  1.00 20.00     0.011 A 
HETATM    7  C7  UNL     1     -32.840   7.465   1.343  1.00 20.00     0.073 C 
HETATM    8  C8  UNL     1     -31.777   8.564   1.506  1.00 20.00     0.129 C 
HETATM    9  C9  UNL     1     -31.926   9.676   0.481  1.00 20.00     0.040 C 
HETATM   10  O10 UNL     1     -31.893   9.133   2.837  1.00 20.00    -0.345 OA
HETATM   11 BR11 UNL     1     -34.853   4.662   5.554  1.00 20.00    -0.051 Br
ENDROOT
TORSDOF 0
ENDMDL
MODEL 7
REMARK VINA RESULT:      -4.5     11.482     11.914
REMARK  0 active torsions:
REMARK  status: ('A' for Active; 'I' for Inactive)
ROOT
HETATM    1  C1  UNL     1     -33.363  15.340  -4.102  1.00 20.00     0.039 A 
HETATM    2  C2  UNL     1     -33.733  16.127  -3.009  1.00 20.00     0.022 A 
HETATM    3  C3  UNL     1     -36.091  15.741  -3.477  1.00 20.00     0.029 A 
HETATM    4  C4  UNL     1     -35.710  14.958  -4.551  1.00 20.00    -0.021 A 
HETATM    5  C5  UNL     1     -34.371  14.764  -4.850  1.00 20.00     0.075 A 
HETATM    6  C6  UNL     1     -35.089  16.324  -2.697  1.00 20.00     0.011 A 
HETATM    7  C7  UNL     1     -36.547  14.279  -5.565  1.00 20.00     0.073 C 
HETATM    8  C8  UNL     1     -35.471  13.396  -6.218  1.00 20.00     0.129 C 
HETATM    9  C9  UNL     1     -35.657  13.264  -7.720  1.00 20.00     0.040 C 
HETATM   10  O10 UNL     1     -34.166  13.977  -5.955  1.00 20.00    -0.345 OA
HETATM   11 BR11 UNL     1     -35.560  17.399  -1.214  1.00 20.00    -0.051 Br
ENDROOT
TORSDOF 0
ENDMDL
MODEL 8
REMARK VINA RESULT:      -4.3     11.385     12.231
REMARK  0 active torsions:
REMARK  status: ('A' for Active; 'I' for Inactive)
ROOT
HETATM    1  C1  UNL     1     -33.141  18.243  -2.788  1.00 20.00     0.039 A 
HETATM    2  C2  UNL     1     -33.683  18.469  -1.521  1.00 20.00     0.022 A 
HETATM    3  C3  UNL     1     -35.081  16.486  -1.719  1.00 20.00     0.029 A 
HETATM    4  C4  UNL     1     -34.529  16.269  -2.969  1.00 20.00    -0.021 A 
HETATM    5  C5  UNL     1     -33.577  17.134  -3.486  1.00 20.00     0.075 A 
HETATM    6  C6  UNL     1     -34.646  17.594  -0.989  1.00 20.00     0.011 A 
HETATM    7  C7  UNL     1     -34.842  15.224  -3.968  1.00 20.00     0.073 C 
HETATM    8  C8  UNL     1     -33.659  15.440  -4.926  1.00 20.00     0.129 C 
HETATM    9  C9  UNL     1     -34.048  15.258  -6.384  1.00 20.00     0.040 C 
HETATM   10  O10 UNL     1     -33.147  16.785  -4.741  1.00 20.00    -0.345 OA
HETATM   11 BR11 UNL     1     -35.366  17.930   0.727  1.00 20.00    -0.051 Br
ENDROOT
TORSDOF 0
ENDMDL
MODEL 9
REMARK VINA RESULT:      -4.2     11.360     12.315
REMARK  0 active torsions:
REMARK  status: ('A' for Active; 'I' for Inactive)
ROOT
HETATM    1  C1  UNL     1     -33.525  17.032  -5.117  1.00 20.00     0.039 A 
HETATM    2  C2  UNL     1     -34.212  15.926  -5.620  1.00 20.00     0.022 A 
HETATM    3  C3  UNL     1     -35.065  15.395  -3.403  1.00 20.00     0.029 A 
HETATM    4  C4  UNL     1     -34.385  16.498  -2.920  1.00 20.00    -0.021 A 
HETATM    5  C5  UNL     1     -33.634  17.298  -3.766  1.00 20.00     0.075 A 
HETATM    6  C6  UNL     1     -34.980  15.114  -4.768  1.00 20.00     0.011 A 
HETATM    7  C7  UNL     1     -34.254  16.990  -1.530  1.00 20.00     0.073 C 
HETATM    8  C8  UNL     1     -33.637  18.369  -1.815  1.00 20.00     0.129 C 
HETATM    9  C9  UNL     1     -32.597  18.768  -0.782  1.00 20.00     0.040 C 
HETATM   10  O10 UNL     1     -33.011  18.339  -3.125  1.00 20.00    -0.345 OA
HETATM   11 BR11 UNL     1     -35.895  13.619  -5.478  1.00 20.00    -0.051 Br
ENDROOT
TORSDOF 0
ENDMDL
