MODEL 1
REMARK VINA RESULT:      -5.3      0.000      0.000
REMARK  6 active torsions:
REMARK  status: ('A' for Active; 'I' for Inactive)
REMARK    1  A    between atoms: C1_1  and  C5_5 
REMARK    2  A    between atoms: C1_1  and  O10_10 
REMARK    3  A    between atoms: C5_5  and  C6_6 
REMARK    4  A    between atoms: C6_6  and  C7_7 
REMARK    5  A    between atoms: C7_7  and  O11_11 
REMARK    6  A    between atoms: C8_8  and  O11_11 
ROOT
HETATM    1  C6  UNL     1     -32.602   7.034   3.006  1.00 20.00     0.036 C 
ENDROOT
BRANCH   1   2
HETATM    2  C5  UNL     1     -34.009   6.900   3.580  1.00 20.00     0.113 C 
BRANCH   2   3
HETATM    3  C1  UNL     1     -33.991   6.697   5.079  1.00 20.00     0.258 C 
HETATM    4  O9  UNL     1     -33.370   7.384   5.877  1.00 20.00    -0.265 OA
BRANCH   3   5
HETATM    5  O10 UNL     1     -34.783   5.628   5.388  1.00 20.00    -0.326 OA
HETATM    6  C4  UNL     1     -34.505   4.426   4.662  1.00 20.00     0.213 C 
ENDBRANCH   3   5
ENDBRANCH   2   3
ENDBRANCH   1   2
BRANCH   1   7
HETATM    7  C7  UNL     1     -32.299   8.466   2.586  1.00 20.00     0.168 C 
BRANCH   7   8
HETATM    8  O11 UNL     1     -31.694   8.449   1.300  1.00 20.00    -0.387 OA
BRANCH   8   9
HETATM    9  C8  UNL     1     -32.093   9.568   0.521  1.00 20.00     0.113 C 
HETATM   10  C2  UNL     1     -33.070   9.110  -0.551  1.00 20.00     0.039 C 
HETATM   11  C3  UNL     1     -32.707  10.619   1.434  1.00 20.00     0.039 C 
ENDBRANCH   8   9
ENDBRANCH   7   8
ENDBRANCH   1   7
TORSDOF 6
ENDMDL
MODEL 2
REMARK VINA RESULT:      -5.2      1.258      1.943
REMARK  6 active torsions:
REMARK  status: ('A' for Active; 'I' for Inactive)
REMARK    1  A    between atoms: C1_1  and  C5_5 
REMARK    2  A    between atoms: C1_1  and  O10_10 
REMARK    3  A    between atoms: C5_5  and  C6_6 
REMARK    4  A    between atoms: C6_6  and  C7_7 
REMARK    5  A    between atoms: C7_7  and  O11_11 
REMARK    6  A    between atoms: C8_8  and  O11_11 
ROOT
HETATM    1  C6  UNL     1     -33.596   6.065   2.550  1.00 20.00     0.036 C 
ENDROOT
BRANCH   1   2
HETATM    2  C5  UNL     1     -34.646   6.249   3.641  1.00 20.00     0.113 C 
BRANCH   2   3
HETATM    3  C1  UNL     1     -34.557   5.171   4.699  1.00 20.00     0.258 C 
HETATM    4  O9  UNL     1     -34.554   3.968   4.483  1.00 20.00    -0.265 OA
BRANCH   3   5
HETATM    5  O10 UNL     1     -34.479   5.765   5.928  1.00 20.00    -0.326 OA
HETATM    6  C4  UNL     1     -33.904   7.075   5.943  1.00 20.00     0.213 C 
ENDBRANCH   3   5
ENDBRANCH   2   3
ENDBRANCH   1   2
BRANCH   1   7
HETATM    7  C7  UNL     1     -32.491   7.107   2.651  1.00 20.00     0.168 C 
BRANCH   7   8
HETATM    8  O11 UNL     1     -33.050   8.393   2.416  1.00 20.00    -0.387 OA
BRANCH   8   9
HETATM    9  C8  UNL     1     -32.118   9.257   1.779  1.00 20.00     0.113 C 
HETATM   10  C2  UNL     1     -31.409   8.498   0.668  1.00 20.00     0.039 C 
HETATM   11  C3  UNL     1     -32.853  10.480   1.250  1.00 20.00     0.039 C 
ENDBRANCH   8   9
ENDBRANCH   7   8
ENDBRANCH   1   7
TORSDOF 6
ENDMDL
MODEL 3
REMARK VINA RESULT:      -5.1      0.341      1.127
REMARK  6 active torsions:
REMARK  status: ('A' for Active; 'I' for Inactive)
REMARK    1  A    between atoms: C1_1  and  C5_5 
REMARK    2  A    between atoms: C1_1  and  O10_10 
REMARK    3  A    between atoms: C5_5  and  C6_6 
REMARK    4  A    between atoms: C6_6  and  C7_7 
REMARK    5  A    between atoms: C7_7  and  O11_11 
REMARK    6  A    between atoms: C8_8  and  O11_11 
ROOT
HETATM    1  C6  UNL     1     -32.660   6.856   2.937  1.00 20.00     0.036 C 
ENDROOT
BRANCH   1   2
HETATM    2  C5  UNL     1     -34.032   7.010   3.585  1.00 20.00     0.113 C 
BRANCH   2   3
HETATM    3  C1  UNL     1     -33.995   6.715   5.068  1.00 20.00     0.258 C 
HETATM    4  O9  UNL     1     -33.338   7.333   5.894  1.00 20.00    -0.265 OA
BRANCH   3   5
HETATM    5  O10 UNL     1     -34.813   5.652   5.327  1.00 20.00    -0.326 OA
HETATM    6  C4  UNL     1     -34.484   4.440   4.639  1.00 20.00     0.213 C 
ENDBRANCH   3   5
ENDBRANCH   2   3
ENDBRANCH   1   2
BRANCH   1   7
HETATM    7  C7  UNL     1     -31.927   8.188   2.849  1.00 20.00     0.168 C 
BRANCH   7   8
HETATM    8  O11 UNL     1     -31.753   8.526   1.480  1.00 20.00    -0.387 OA
BRANCH   8   9
HETATM    9  C8  UNL     1     -32.822   9.332   1.001  1.00 20.00     0.113 C 
HETATM   10  C2  UNL     1     -32.587  10.775   1.419  1.00 20.00     0.039 C 
HETATM   11  C3  UNL     1     -32.918   9.188  -0.510  1.00 20.00     0.039 C 
ENDBRANCH   8   9
ENDBRANCH   7   8
ENDBRANCH   1   7
TORSDOF 6
ENDMDL
MODEL 4
REMARK VINA RESULT:      -5.1      0.859      1.915
REMARK  6 active torsions:
REMARK  status: ('A' for Active; 'I' for Inactive)
REMARK    1  A    between atoms: C1_1  and  C5_5 
REMARK    2  A    between atoms: C1_1  and  O10_10 
REMARK    3  A    between atoms: C5_5  and  C6_6 
REMARK    4  A    between atoms: C6_6  and  C7_7 
REMARK    5  A    between atoms: C7_7  and  O11_11 
REMARK    6  A    between atoms: C8_8  and  O11_11 
ROOT
HETATM    1  C6  UNL     1     -32.898   6.624   2.738  1.00 20.00     0.036 C 
ENDROOT
BRANCH   1   2
HETATM    2  C5  UNL     1     -34.192   6.647   3.546  1.00 20.00     0.113 C 
BRANCH   2   3
HETATM    3  C1  UNL     1     -34.313   5.444   4.455  1.00 20.00     0.258 C 
HETATM    4  O9  UNL     1     -34.297   4.278   4.088  1.00 20.00    -0.265 OA
BRANCH   3   5
HETATM    5  O10 UNL     1     -34.440   5.876   5.745  1.00 20.00    -0.326 OA
HETATM    6  C4  UNL     1     -33.892   7.171   6.017  1.00 20.00     0.213 C 
ENDBRANCH   3   5
ENDBRANCH   2   3
ENDBRANCH   1   2
BRANCH   1   7
HETATM    7  C7  UNL     1     -32.156   7.950   2.828  1.00 20.00     0.168 C 
BRANCH   7   8
HETATM    8  O11 UNL     1     -31.862   8.401   1.512  1.00 20.00    -0.387 OA
BRANCH   8   9
HETATM    9  C8  UNL     1     -32.870   9.276   1.023  1.00 20.00     0.113 C 
HETATM   10  C2  UNL     1     -32.546  10.700   1.448  1.00 20.00     0.039 C 
HETATM   11  C3  UNL     1     -32.957   9.143  -0.489  1.00 20.00     0.039 C 
ENDBRANCH   8   9
ENDBRANCH   7   8
ENDBRANCH   1   7
TORSDOF 6
ENDMDL
MODEL 5
REMARK VINA RESULT:      -5.0      1.307      5.383
REMARK  6 active torsions:
REMARK  status: ('A' for Active; 'I' for Inactive)
REMARK    1  A    between atoms: C1_1  and  C5_5 
REMARK    2  A    between atoms: C1_1  and  O10_10 
REMARK    3  A    between atoms: C5_5  and  C6_6 
REMARK    4  A    between atoms: C6_6  and  C7_7 
REMARK    5  A    between atoms: C7_7  and  O11_11 
REMARK    6  A    between atoms: C8_8  and  O11_11 
ROOT
HETATM    1  C6  UNL     1     -32.581   7.406   2.468  1.00 20.00     0.036 C 
ENDROOT
BRANCH   1   2
HETATM    2  C5  UNL     1     -31.804   8.719   2.487  1.00 20.00     0.113 C 
BRANCH   2   3
HETATM    3  C1  UNL     1     -32.270   9.668   1.406  1.00 20.00     0.258 C 
HETATM    4  O9  UNL     1     -32.717  10.790   1.597  1.00 20.00    -0.265 OA
BRANCH   3   5
HETATM    5  O10 UNL     1     -32.108   9.067   0.190  1.00 20.00    -0.326 OA
HETATM    6  C4  UNL     1     -33.172   9.271  -0.745  1.00 20.00     0.213 C 
ENDBRANCH   3   5
ENDBRANCH   2   3
ENDBRANCH   1   2
BRANCH   1   7
HETATM    7  C7  UNL     1     -33.491   7.274   3.681  1.00 20.00     0.168 C 
BRANCH   7   8
HETATM    8  O11 UNL     1     -34.476   6.285   3.411  1.00 20.00    -0.387 OA
BRANCH   8   9
HETATM    9  C8  UNL     1     -34.847   5.583   4.590  1.00 20.00     0.113 C 
HETATM   10  C2  UNL     1     -34.339   4.152   4.502  1.00 20.00     0.039 C 
HETATM   11  C3  UNL     1     -34.284   6.309   5.802  1.00 20.00     0.039 C 
ENDBRANCH   8   9
ENDBRANCH   7   8
ENDBRANCH   1   7
TORSDOF 6
ENDMDL
MODEL 6
REMARK VINA RESULT:      -4.9      1.387      5.469
REMARK  6 active torsions:
REMARK  status: ('A' for Active; 'I' for Inactive)
REMARK    1  A    between atoms: C1_1  and  C5_5 
REMARK    2  A    between atoms: C1_1  and  O10_10 
REMARK    3  A    between atoms: C5_5  and  C6_6 
REMARK    4  A    between atoms: C6_6  and  C7_7 
REMARK    5  A    between atoms: C7_7  and  O11_11 
REMARK    6  A    between atoms: C8_8  and  O11_11 
ROOT
HETATM    1  C6  UNL     1     -32.739   7.140   2.696  1.00 20.00     0.036 C 
ENDROOT
BRANCH   1   2
HETATM    2  C5  UNL     1     -31.940   8.436   2.593  1.00 20.00     0.113 C 
BRANCH   2   3
HETATM    3  C1  UNL     1     -31.787   8.894   1.160  1.00 20.00     0.258 C 
HETATM    4  O9  UNL     1     -30.881   8.568   0.407  1.00 20.00    -0.265 OA
BRANCH   3   5
HETATM    5  O10 UNL     1     -32.825   9.727   0.850  1.00 20.00    -0.326 OA
HETATM    6  C4  UNL     1     -33.353   9.588  -0.473  1.00 20.00     0.213 C 
ENDBRANCH   3   5
ENDBRANCH   2   3
ENDBRANCH   1   2
BRANCH   1   7
HETATM    7  C7  UNL     1     -33.758   7.197   3.826  1.00 20.00     0.168 C 
BRANCH   7   8
HETATM    8  O11 UNL     1     -34.782   6.246   3.568  1.00 20.00    -0.387 OA
BRANCH   8   9
HETATM    9  C8  UNL     1     -34.937   5.339   4.652  1.00 20.00     0.113 C 
HETATM   10  C2  UNL     1     -34.196   4.049   4.335  1.00 20.00     0.039 C 
HETATM   11  C3  UNL     1     -34.419   5.990   5.926  1.00 20.00     0.039 C 
ENDBRANCH   8   9
ENDBRANCH   7   8
ENDBRANCH   1   7
TORSDOF 6
ENDMDL
MODEL 7
REMARK VINA RESULT:      -4.9      1.355      5.107
REMARK  6 active torsions:
REMARK  status: ('A' for Active; 'I' for Inactive)
REMARK    1  A    between atoms: C1_1  and  C5_5 
REMARK    2  A    between atoms: C1_1  and  O10_10 
REMARK    3  A    between atoms: C5_5  and  C6_6 
REMARK    4  A    between atoms: C6_6  and  C7_7 
REMARK    5  A    between atoms: C7_7  and  O11_11 
REMARK    6  A    between atoms: C8_8  and  O11_11 
ROOT
HETATM    1  C6  UNL     1     -32.840   5.918   2.624  1.00 20.00     0.036 C 
ENDROOT
BRANCH   1   2
HETATM    2  C5  UNL     1     -33.167   7.377   2.318  1.00 20.00     0.113 C 
BRANCH   2   3
HETATM    3  C1  UNL     1     -31.957   8.272   2.468  1.00 20.00     0.258 C 
HETATM    4  O9  UNL     1     -31.312   8.420   3.496  1.00 20.00    -0.265 OA
BRANCH   3   5
HETATM    5  O10 UNL     1     -31.707   8.880   1.271  1.00 20.00    -0.326 OA
HETATM    6  C4  UNL     1     -32.534  10.008   0.968  1.00 20.00     0.213 C 
ENDBRANCH   3   5
ENDBRANCH   2   3
ENDBRANCH   1   2
BRANCH   1   7
HETATM    7  C7  UNL     1     -33.971   5.235   3.380  1.00 20.00     0.168 C 
BRANCH   7   8
HETATM    8  O11 UNL     1     -34.797   6.232   3.968  1.00 20.00    -0.387 OA
BRANCH   8   9
HETATM    9  C8  UNL     1     -34.782   6.151   5.387  1.00 20.00     0.113 C 
HETATM   10  C2  UNL     1     -34.427   4.732   5.804  1.00 20.00     0.039 C 
HETATM   11  C3  UNL     1     -33.791   7.166   5.935  1.00 20.00     0.039 C 
ENDBRANCH   8   9
ENDBRANCH   7   8
ENDBRANCH   1   7
TORSDOF 6
ENDMDL
MODEL 8
REMARK VINA RESULT:      -4.2     10.508     11.156
REMARK  6 active torsions:
REMARK  status: ('A' for Active; 'I' for Inactive)
REMARK    1  A    between atoms: C1_1  and  C5_5 
REMARK    2  A    between atoms: C1_1  and  O10_10 
REMARK    3  A    between atoms: C5_5  and  C6_6 
REMARK    4  A    between atoms: C6_6  and  C7_7 
REMARK    5  A    between atoms: C7_7  and  O11_11 
REMARK    6  A    between atoms: C8_8  and  O11_11 
ROOT
HETATM    1  C6  UNL     1     -34.431  14.898  -3.942  1.00 20.00     0.036 C 
ENDROOT
BRANCH   1   2
HETATM    2  C5  UNL     1     -35.868  15.023  -4.439  1.00 20.00     0.113 C 
BRANCH   2   3
HETATM    3  C1  UNL     1     -36.385  13.722  -5.012  1.00 20.00     0.258 C 
HETATM    4  O9  UNL     1     -35.687  12.798  -5.405  1.00 20.00    -0.265 OA
BRANCH   3   5
HETATM    5  O10 UNL     1     -37.751  13.753  -5.014  1.00 20.00    -0.326 OA
HETATM    6  C4  UNL     1     -38.339  14.996  -4.617  1.00 20.00     0.213 C 
ENDBRANCH   3   5
ENDBRANCH   2   3
ENDBRANCH   1   2
BRANCH   1   7
HETATM    7  C7  UNL     1     -33.665  16.204  -4.102  1.00 20.00     0.168 C 
BRANCH   7   8
HETATM    8  O11 UNL     1     -34.260  17.189  -3.268  1.00 20.00    -0.387 OA
BRANCH   8   9
HETATM    9  C8  UNL     1     -33.975  16.952  -1.896  1.00 20.00     0.113 C 
HETATM   10  C2  UNL     1     -32.932  17.952  -1.420  1.00 20.00     0.039 C 
HETATM   11  C3  UNL     1     -35.263  17.053  -1.094  1.00 20.00     0.039 C 
ENDBRANCH   8   9
ENDBRANCH   7   8
ENDBRANCH   1   7
TORSDOF 6
ENDMDL
MODEL 9
REMARK VINA RESULT:      -4.1     10.503     11.291
REMARK  6 active torsions:
REMARK  status: ('A' for Active; 'I' for Inactive)
REMARK    1  A    between atoms: C1_1  and  C5_5 
REMARK    2  A    between atoms: C1_1  and  O10_10 
REMARK    3  A    between atoms: C5_5  and  C6_6 
REMARK    4  A    between atoms: C6_6  and  C7_7 
REMARK    5  A    between atoms: C7_7  and  O11_11 
REMARK    6  A    between atoms: C8_8  and  O11_11 
ROOT
HETATM    1  C6  UNL     1     -33.792  15.289  -3.860  1.00 20.00     0.036 C 
ENDROOT
BRANCH   1   2
HETATM    2  C5  UNL     1     -35.207  14.860  -4.235  1.00 20.00     0.113 C 
BRANCH   2   3
HETATM    3  C1  UNL     1     -35.210  13.670  -5.169  1.00 20.00     0.258 C 
HETATM    4  O9  UNL     1     -36.040  12.773  -5.166  1.00 20.00    -0.265 OA
BRANCH   3   5
HETATM    5  O10 UNL     1     -34.138  13.769  -6.011  1.00 20.00    -0.326 OA
HETATM    6  C4  UNL     1     -34.439  13.660  -7.406  1.00 20.00     0.213 C 
ENDBRANCH   3   5
ENDBRANCH   2   3
ENDBRANCH   1   2
BRANCH   1   7
HETATM    7  C7  UNL     1     -33.650  16.805  -3.845  1.00 20.00     0.168 C 
BRANCH   7   8
HETATM    8  O11 UNL     1     -34.559  17.342  -2.894  1.00 20.00    -0.387 OA
BRANCH   8   9
HETATM    9  C8  UNL     1     -34.117  17.112  -1.563  1.00 20.00     0.113 C 
HETATM   10  C2  UNL     1     -32.990  18.079  -1.235  1.00 20.00     0.039 C 
HETATM   11  C3  UNL     1     -35.293  17.270  -0.611  1.00 20.00     0.039 C 
ENDBRANCH   8   9
ENDBRANCH   7   8
ENDBRANCH   1   7
TORSDOF 6
ENDMDL
