MODEL 1
REMARK VINA RESULT:      -4.5      0.000      0.000
REMARK  0 active torsions:
REMARK  status: ('A' for Active; 'I' for Inactive)
ROOT
HETATM    1  C1  UNL     1     -35.684  13.854  -4.892  1.00 20.00     0.064 C 
HETATM    2  C2  UNL     1     -34.056  15.260  -3.588  1.00 20.00     0.023 C 
HETATM    3  C3  UNL     1     -35.488  16.314  -5.381  1.00 20.00     0.028 C 
HETATM    4  C4  UNL     1     -33.861  17.751  -4.062  1.00 20.00     0.013 C 
HETATM    5  C5  UNL     1     -35.422  15.235  -4.291  1.00 20.00     0.094 C 
HETATM    6  C6  UNL     1     -33.695  16.636  -3.018  1.00 20.00    -0.017 C 
HETATM    7  C7  UNL     1     -35.190  17.737  -4.860  1.00 20.00    -0.046 C 
HETATM    8  C8  UNL     1     -34.444  16.919  -1.780  1.00 20.00     0.010 C 
HETATM    9  C9  UNL     1     -36.366  18.261  -4.012  1.00 20.00     0.015 C 
HETATM   10  C10 UNL     1     -35.043  18.686  -6.069  1.00 20.00     0.015 C 
HETATM   11  N11 UNL     1     -35.883  12.805  -5.348  1.00 20.00    -0.197 NA
ENDROOT
TORSDOF 0
ENDMDL
MODEL 2
REMARK VINA RESULT:      -4.5      0.878      2.778
REMARK  0 active torsions:
REMARK  status: ('A' for Active; 'I' for Inactive)
ROOT
HETATM    1  C1  UNL     1     -35.492  13.932  -4.921  1.00 20.00     0.064 C 
HETATM    2  C2  UNL     1     -35.609  16.403  -5.381  1.00 20.00     0.023 C 
HETATM    3  C3  UNL     1     -35.363  15.567  -3.012  1.00 20.00     0.028 C 
HETATM    4  C4  UNL     1     -35.464  18.064  -3.462  1.00 20.00     0.013 C 
HETATM    5  C5  UNL     1     -35.004  15.314  -4.483  1.00 20.00     0.094 C 
HETATM    6  C6  UNL     1     -35.217  17.822  -4.959  1.00 20.00    -0.017 C 
HETATM    7  C7  UNL     1     -34.942  16.963  -2.504  1.00 20.00    -0.046 C 
HETATM    8  C8  UNL     1     -33.831  18.137  -5.350  1.00 20.00     0.010 C 
HETATM    9  C9  UNL     1     -33.411  17.038  -2.334  1.00 20.00     0.015 C 
HETATM   10  C10 UNL     1     -35.566  17.192  -1.110  1.00 20.00     0.015 C 
HETATM   11  N11 UNL     1     -35.862  12.884  -5.253  1.00 20.00    -0.197 NA
ENDROOT
TORSDOF 0
ENDMDL
MODEL 3
REMARK VINA RESULT:      -4.5      1.635      2.907
REMARK  0 active torsions:
REMARK  status: ('A' for Active; 'I' for Inactive)
ROOT
HETATM    1  C1  UNL     1     -37.458  14.648  -4.848  1.00 20.00     0.064 C 
HETATM    2  C2  UNL     1     -36.222  16.234  -3.336  1.00 20.00     0.023 C 
HETATM    3  C3  UNL     1     -34.960  14.459  -4.615  1.00 20.00     0.028 C 
HETATM    4  C4  UNL     1     -33.695  16.063  -3.106  1.00 20.00     0.013 C 
HETATM    5  C5  UNL     1     -36.156  15.422  -4.638  1.00 20.00     0.094 C 
HETATM    6  C6  UNL     1     -34.922  16.984  -3.026  1.00 20.00    -0.017 C 
HETATM    7  C7  UNL     1     -33.607  15.162  -4.364  1.00 20.00    -0.046 C 
HETATM    8  C8  UNL     1     -34.775  18.180  -3.876  1.00 20.00     0.010 C 
HETATM    9  C9  UNL     1     -33.174  15.963  -5.608  1.00 20.00     0.015 C 
HETATM   10  C10 UNL     1     -32.529  14.084  -4.118  1.00 20.00     0.015 C 
HETATM   11  N11 UNL     1     -38.447  14.061  -5.006  1.00 20.00    -0.197 NA
ENDROOT
TORSDOF 0
ENDMDL
MODEL 4
REMARK VINA RESULT:      -4.4      1.773      3.386
REMARK  0 active torsions:
REMARK  status: ('A' for Active; 'I' for Inactive)
ROOT
HETATM    1  C1  UNL     1     -37.465  14.428  -5.140  1.00 20.00     0.064 C 
HETATM    2  C2  UNL     1     -35.889  15.893  -6.444  1.00 20.00     0.023 C 
HETATM    3  C3  UNL     1     -35.424  15.377  -4.016  1.00 20.00     0.028 C 
HETATM    4  C4  UNL     1     -33.815  16.845  -5.322  1.00 20.00     0.013 C 
HETATM    5  C5  UNL     1     -36.005  14.840  -5.332  1.00 20.00     0.094 C 
HETATM    6  C6  UNL     1     -34.459  16.404  -6.646  1.00 20.00    -0.017 C 
HETATM    7  C7  UNL     1     -33.961  15.856  -4.137  1.00 20.00    -0.046 C 
HETATM    8  C8  UNL     1     -33.631  15.418  -7.363  1.00 20.00     0.010 C 
HETATM    9  C9  UNL     1     -33.007  14.654  -4.280  1.00 20.00     0.015 C 
HETATM   10  C10 UNL     1     -33.572  16.593  -2.837  1.00 20.00     0.015 C 
HETATM   11  N11 UNL     1     -38.573  14.115  -4.996  1.00 20.00    -0.197 NA
ENDROOT
TORSDOF 0
ENDMDL
MODEL 5
REMARK VINA RESULT:      -4.4      1.541      1.797
REMARK  0 active torsions:
REMARK  status: ('A' for Active; 'I' for Inactive)
ROOT
HETATM    1  C1  UNL     1     -37.336  14.683  -4.870  1.00 20.00     0.064 C 
HETATM    2  C2  UNL     1     -34.955  14.754  -4.061  1.00 20.00     0.023 C 
HETATM    3  C3  UNL     1     -35.636  16.063  -6.110  1.00 20.00     0.028 C 
HETATM    4  C4  UNL     1     -33.232  16.158  -5.296  1.00 20.00     0.013 C 
HETATM    5  C5  UNL     1     -36.083  15.550  -4.734  1.00 20.00     0.094 C 
HETATM    6  C6  UNL     1     -33.644  15.539  -3.951  1.00 20.00    -0.017 C 
HETATM    7  C7  UNL     1     -34.348  16.913  -6.062  1.00 20.00    -0.046 C 
HETATM    8  C8  UNL     1     -33.706  16.544  -2.875  1.00 20.00     0.010 C 
HETATM    9  C9  UNL     1     -34.632  18.293  -5.436  1.00 20.00     0.015 C 
HETATM   10  C10 UNL     1     -33.865  17.161  -7.508  1.00 20.00     0.015 C 
HETATM   11  N11 UNL     1     -38.287  14.025  -4.973  1.00 20.00    -0.197 NA
ENDROOT
TORSDOF 0
ENDMDL
MODEL 6
REMARK VINA RESULT:      -4.4      1.105      2.810
REMARK  0 active torsions:
REMARK  status: ('A' for Active; 'I' for Inactive)
ROOT
HETATM    1  C1  UNL     1     -35.786  13.888  -4.947  1.00 20.00     0.064 C 
HETATM    2  C2  UNL     1     -37.165  15.809  -4.087  1.00 20.00     0.023 C 
HETATM    3  C3  UNL     1     -34.736  15.599  -3.430  1.00 20.00     0.028 C 
HETATM    4  C4  UNL     1     -36.110  17.552  -2.566  1.00 20.00     0.013 C 
HETATM    5  C5  UNL     1     -35.767  15.363  -4.542  1.00 20.00     0.094 C 
HETATM    6  C6  UNL     1     -37.207  17.261  -3.601  1.00 20.00    -0.017 C 
HETATM    7  C7  UNL     1     -34.686  17.060  -2.933  1.00 20.00    -0.046 C 
HETATM    8  C8  UNL     1     -37.170  18.208  -4.729  1.00 20.00     0.010 C 
HETATM    9  C9  UNL     1     -34.027  17.969  -3.990  1.00 20.00     0.015 C 
HETATM   10  C10 UNL     1     -33.806  17.123  -1.666  1.00 20.00     0.015 C 
HETATM   11  N11 UNL     1     -35.801  12.769  -5.255  1.00 20.00    -0.197 NA
ENDROOT
TORSDOF 0
ENDMDL
MODEL 7
REMARK VINA RESULT:      -4.3      1.527      2.323
REMARK  0 active torsions:
REMARK  status: ('A' for Active; 'I' for Inactive)
ROOT
HETATM    1  C1  UNL     1     -37.172  14.402  -4.818  1.00 20.00     0.064 C 
HETATM    2  C2  UNL     1     -34.782  14.617  -5.573  1.00 20.00     0.023 C 
HETATM    3  C3  UNL     1     -35.844  16.445  -4.192  1.00 20.00     0.028 C 
HETATM    4  C4  UNL     1     -33.425  16.670  -4.933  1.00 20.00     0.013 C 
HETATM    5  C5  UNL     1     -35.785  14.934  -4.454  1.00 20.00     0.094 C 
HETATM    6  C6  UNL     1     -33.382  15.181  -5.307  1.00 20.00    -0.017 C 
HETATM    7  C7  UNL     1     -34.470  17.068  -3.860  1.00 20.00    -0.046 C 
HETATM    8  C8  UNL     1     -32.660  14.378  -4.304  1.00 20.00     0.010 C 
HETATM    9  C9  UNL     1     -34.016  16.655  -2.446  1.00 20.00     0.015 C 
HETATM   10  C10 UNL     1     -34.611  18.606  -3.862  1.00 20.00     0.015 C 
HETATM   11  N11 UNL     1     -38.224  13.997  -5.094  1.00 20.00    -0.197 NA
ENDROOT
TORSDOF 0
ENDMDL
MODEL 8
REMARK VINA RESULT:      -4.3      1.865      2.647
REMARK  0 active torsions:
REMARK  status: ('A' for Active; 'I' for Inactive)
ROOT
HETATM    1  C1  UNL     1     -34.558  14.718  -3.973  1.00 20.00     0.064 C 
HETATM    2  C2  UNL     1     -33.544  16.983  -3.559  1.00 20.00     0.023 C 
HETATM    3  C3  UNL     1     -35.904  16.495  -2.805  1.00 20.00     0.028 C 
HETATM    4  C4  UNL     1     -34.889  18.781  -2.365  1.00 20.00     0.013 C 
HETATM    5  C5  UNL     1     -34.500  15.910  -3.017  1.00 20.00     0.094 C 
HETATM    6  C6  UNL     1     -33.487  18.239  -2.684  1.00 20.00    -0.017 C 
HETATM    7  C7  UNL     1     -35.925  17.733  -1.883  1.00 20.00    -0.046 C 
HETATM    8  C8  UNL     1     -32.691  18.011  -1.465  1.00 20.00     0.010 C 
HETATM    9  C9  UNL     1     -35.675  17.322  -0.418  1.00 20.00     0.015 C 
HETATM   10  C10 UNL     1     -37.329  18.372  -1.943  1.00 20.00     0.015 C 
HETATM   11  N11 UNL     1     -34.602  13.813  -4.698  1.00 20.00    -0.197 NA
ENDROOT
TORSDOF 0
ENDMDL
MODEL 9
REMARK VINA RESULT:      -4.2      2.617      4.050
REMARK  0 active torsions:
REMARK  status: ('A' for Active; 'I' for Inactive)
ROOT
HETATM    1  C1  UNL     1     -34.789  17.309  -0.967  1.00 20.00     0.064 C 
HETATM    2  C2  UNL     1     -36.237  17.310  -3.025  1.00 20.00     0.023 C 
HETATM    3  C3  UNL     1     -33.910  16.332  -3.113  1.00 20.00     0.028 C 
HETATM    4  C4  UNL     1     -35.365  16.311  -5.194  1.00 20.00     0.013 C 
HETATM    5  C5  UNL     1     -35.156  16.549  -2.242  1.00 20.00     0.094 C 
HETATM    6  C6  UNL     1     -36.607  16.639  -4.351  1.00 20.00    -0.017 C 
HETATM    7  C7  UNL     1     -34.206  15.607  -4.444  1.00 20.00    -0.046 C 
HETATM    8  C8  UNL     1     -37.461  15.457  -4.137  1.00 20.00     0.010 C 
HETATM    9  C9  UNL     1     -34.515  14.117  -4.192  1.00 20.00     0.015 C 
HETATM   10  C10 UNL     1     -32.943  15.666  -5.331  1.00 20.00     0.015 C 
HETATM   11  N11 UNL     1     -34.511  17.886   0.001  1.00 20.00    -0.197 NA
ENDROOT
TORSDOF 0
ENDMDL
