MODEL 1
REMARK VINA RESULT:      -5.0      0.000      0.000
REMARK  2 active torsions:
REMARK  status: ('A' for Active; 'I' for Inactive)
REMARK    1  A    between atoms: C7_7  and  C12_12 
REMARK    2  A    between atoms: C11_11  and  C12_12 
ROOT
HETATM    1  C1  UNL     1     -35.339  15.209  -6.583  1.00 20.00     0.064 C 
HETATM    2  C2  UNL     1     -33.084  15.683  -5.665  1.00 20.00     0.019 C 
HETATM    3  C3  UNL     1     -34.673  14.132  -4.451  1.00 20.00     0.019 C 
HETATM    4  C4  UNL     1     -33.427  16.802  -4.678  1.00 20.00     0.007 C 
HETATM    5  C5  UNL     1     -35.012  15.253  -3.466  1.00 20.00     0.007 C 
HETATM    6  C6  UNL     1     -34.208  14.652  -5.816  1.00 20.00     0.093 C 
HETATM    7  C7  UNL     1     -33.852  16.245  -3.314  1.00 20.00    -0.007 C 
HETATM    8  N13 UNL     1     -36.228  15.648  -7.185  1.00 20.00    -0.197 NA
ENDROOT
BRANCH   7   9
HETATM    9  C12 UNL     1     -34.234  17.379  -2.364  1.00 20.00    -0.044 C 
HETATM   10  C9  UNL     1     -32.993  17.786  -1.544  1.00 20.00     0.015 C 
HETATM   11  C10 UNL     1     -34.701  18.592  -3.193  1.00 20.00     0.015 C 
BRANCH   9  12
HETATM   12  C11 UNL     1     -35.372  16.881  -1.430  1.00 20.00     0.004 C 
HETATM   13  C8  UNL     1     -35.420  17.498  -0.036  1.00 20.00     0.006 C 
ENDBRANCH   9  12
ENDBRANCH   7   9
TORSDOF 2
ENDMDL
MODEL 2
REMARK VINA RESULT:      -4.9      1.102      1.886
REMARK  2 active torsions:
REMARK  status: ('A' for Active; 'I' for Inactive)
REMARK    1  A    between atoms: C7_7  and  C12_12 
REMARK    2  A    between atoms: C11_11  and  C12_12 
ROOT
HETATM    1  C1  UNL     1     -34.402  15.064  -6.624  1.00 20.00     0.064 C 
HETATM    2  C2  UNL     1     -33.304  14.429  -4.493  1.00 20.00     0.019 C 
HETATM    3  C3  UNL     1     -35.827  14.435  -4.694  1.00 20.00     0.019 C 
HETATM    4  C4  UNL     1     -33.363  15.767  -3.753  1.00 20.00     0.007 C 
HETATM    5  C5  UNL     1     -35.880  15.772  -3.953  1.00 20.00     0.007 C 
HETATM    6  C6  UNL     1     -34.499  14.207  -5.427  1.00 20.00     0.093 C 
HETATM    7  C7  UNL     1     -34.689  15.943  -3.003  1.00 20.00    -0.007 C 
HETATM    8  N13 UNL     1     -34.326  15.739  -7.565  1.00 20.00    -0.197 NA
ENDROOT
BRANCH   7   9
HETATM    9  C12 UNL     1     -34.741  17.305  -2.312  1.00 20.00    -0.044 C 
HETATM   10  C9  UNL     1     -35.704  18.225  -3.090  1.00 20.00     0.015 C 
HETATM   11  C10 UNL     1     -35.279  17.120  -0.879  1.00 20.00     0.015 C 
BRANCH   9  12
HETATM   12  C11 UNL     1     -33.307  17.904  -2.287  1.00 20.00     0.004 C 
HETATM   13  C8  UNL     1     -32.744  18.253  -0.914  1.00 20.00     0.006 C 
ENDBRANCH   9  12
ENDBRANCH   7   9
TORSDOF 2
ENDMDL
MODEL 3
REMARK VINA RESULT:      -4.8      1.366      2.009
REMARK  2 active torsions:
REMARK  status: ('A' for Active; 'I' for Inactive)
REMARK    1  A    between atoms: C7_7  and  C12_12 
REMARK    2  A    between atoms: C11_11  and  C12_12 
ROOT
HETATM    1  C1  UNL     1     -35.215  13.802  -5.538  1.00 20.00     0.064 C 
HETATM    2  C2  UNL     1     -34.854  16.171  -6.179  1.00 20.00     0.019 C 
HETATM    3  C3  UNL     1     -33.053  14.874  -4.965  1.00 20.00     0.019 C 
HETATM    4  C4  UNL     1     -35.235  16.864  -4.869  1.00 20.00     0.007 C 
HETATM    5  C5  UNL     1     -33.437  15.569  -3.657  1.00 20.00     0.007 C 
HETATM    6  C6  UNL     1     -34.211  14.796  -5.966  1.00 20.00     0.093 C 
HETATM    7  C7  UNL     1     -34.044  16.955  -3.908  1.00 20.00    -0.007 C 
HETATM    8  N13 UNL     1     -36.004  13.022  -5.201  1.00 20.00    -0.197 NA
ENDROOT
BRANCH   7   9
HETATM    9  C12 UNL     1     -34.462  17.607  -2.591  1.00 20.00    -0.044 C 
HETATM   10  C9  UNL     1     -35.180  18.937  -2.895  1.00 20.00     0.015 C 
HETATM   11  C10 UNL     1     -35.442  16.670  -1.857  1.00 20.00     0.015 C 
BRANCH   9  12
HETATM   12  C11 UNL     1     -33.189  17.852  -1.732  1.00 20.00     0.004 C 
HETATM   13  C8  UNL     1     -33.421  18.277  -0.287  1.00 20.00     0.006 C 
ENDBRANCH   9  12
ENDBRANCH   7   9
TORSDOF 2
ENDMDL
MODEL 4
REMARK VINA RESULT:      -4.8     11.306     12.437
REMARK  2 active torsions:
REMARK  status: ('A' for Active; 'I' for Inactive)
REMARK    1  A    between atoms: C7_7  and  C12_12 
REMARK    2  A    between atoms: C11_11  and  C12_12 
ROOT
HETATM    1  C1  UNL     1     -34.279   4.290   4.661  1.00 20.00     0.064 C 
HETATM    2  C2  UNL     1     -34.203   6.583   5.605  1.00 20.00     0.019 C 
HETATM    3  C3  UNL     1     -35.489   6.104   3.478  1.00 20.00     0.019 C 
HETATM    4  C4  UNL     1     -33.060   7.176   4.777  1.00 20.00     0.007 C 
HETATM    5  C5  UNL     1     -34.344   6.698   2.655  1.00 20.00     0.007 C 
HETATM    6  C6  UNL     1     -35.030   5.549   4.832  1.00 20.00     0.093 C 
HETATM    7  C7  UNL     1     -33.562   7.753   3.448  1.00 20.00    -0.007 C 
HETATM    8  N13 UNL     1     -33.687   3.302   4.526  1.00 20.00    -0.197 NA
ENDROOT
BRANCH   7   9
HETATM    9  C12 UNL     1     -32.397   8.294   2.621  1.00 20.00    -0.044 C 
HETATM   10  C9  UNL     1     -31.157   8.426   3.528  1.00 20.00     0.015 C 
HETATM   11  C10 UNL     1     -32.081   7.298   1.488  1.00 20.00     0.015 C 
BRANCH   9  12
HETATM   12  C11 UNL     1     -32.802   9.677   2.039  1.00 20.00     0.004 C 
HETATM   13  C8  UNL     1     -32.481   9.912   0.568  1.00 20.00     0.006 C 
ENDBRANCH   9  12
ENDBRANCH   7   9
TORSDOF 2
ENDMDL
MODEL 5
REMARK VINA RESULT:      -4.8      1.274      1.520
REMARK  2 active torsions:
REMARK  status: ('A' for Active; 'I' for Inactive)
REMARK    1  A    between atoms: C7_7  and  C12_12 
REMARK    2  A    between atoms: C11_11  and  C12_12 
ROOT
HETATM    1  C1  UNL     1     -35.217  13.790  -5.534  1.00 20.00     0.064 C 
HETATM    2  C2  UNL     1     -34.843  16.129  -6.269  1.00 20.00     0.019 C 
HETATM    3  C3  UNL     1     -33.029  14.854  -5.048  1.00 20.00     0.019 C 
HETATM    4  C4  UNL     1     -35.186  16.874  -4.976  1.00 20.00     0.007 C 
HETATM    5  C5  UNL     1     -33.375  15.602  -3.758  1.00 20.00     0.007 C 
HETATM    6  C6  UNL     1     -34.212  14.755  -6.020  1.00 20.00     0.093 C 
HETATM    7  C7  UNL     1     -33.971  16.985  -4.046  1.00 20.00    -0.007 C 
HETATM    8  N13 UNL     1     -36.007  13.033  -5.150  1.00 20.00    -0.197 NA
ENDROOT
BRANCH   7   9
HETATM    9  C12 UNL     1     -34.351  17.689  -2.745  1.00 20.00    -0.044 C 
HETATM   10  C9  UNL     1     -33.065  18.023  -1.961  1.00 20.00     0.015 C 
HETATM   11  C10 UNL     1     -35.083  19.004  -3.081  1.00 20.00     0.015 C 
BRANCH   9  12
HETATM   12  C11 UNL     1     -35.268  16.745  -1.919  1.00 20.00     0.004 C 
HETATM   13  C8  UNL     1     -35.517  17.142  -0.468  1.00 20.00     0.006 C 
ENDBRANCH   9  12
ENDBRANCH   7   9
TORSDOF 2
ENDMDL
MODEL 6
REMARK VINA RESULT:      -4.6     11.034     12.117
REMARK  2 active torsions:
REMARK  status: ('A' for Active; 'I' for Inactive)
REMARK    1  A    between atoms: C7_7  and  C12_12 
REMARK    2  A    between atoms: C11_11  and  C12_12 
ROOT
HETATM    1  C1  UNL     1     -32.594   9.606   1.619  1.00 20.00     0.064 C 
HETATM    2  C2  UNL     1     -31.277   8.358   3.310  1.00 20.00     0.019 C 
HETATM    3  C3  UNL     1     -32.409   7.142   1.400  1.00 20.00     0.019 C 
HETATM    4  C4  UNL     1     -32.400   7.917   4.252  1.00 20.00     0.007 C 
HETATM    5  C5  UNL     1     -33.529   6.704   2.346  1.00 20.00     0.007 C 
HETATM    6  C6  UNL     1     -31.721   8.438   1.845  1.00 20.00     0.093 C 
HETATM    7  C7  UNL     1     -33.040   6.600   3.796  1.00 20.00    -0.007 C 
HETATM    8  N13 UNL     1     -33.282  10.523   1.443  1.00 20.00    -0.197 NA
ENDROOT
BRANCH   7   9
HETATM    9  C12 UNL     1     -34.187   6.208   4.725  1.00 20.00    -0.044 C 
HETATM   10  C9  UNL     1     -34.216   7.177   5.924  1.00 20.00     0.015 C 
HETATM   11  C10 UNL     1     -35.518   6.330   3.957  1.00 20.00     0.015 C 
BRANCH   9  12
HETATM   12  C11 UNL     1     -33.961   4.747   5.204  1.00 20.00     0.004 C 
HETATM   13  C8  UNL     1     -34.006   3.668   4.128  1.00 20.00     0.006 C 
ENDBRANCH   9  12
ENDBRANCH   7   9
TORSDOF 2
ENDMDL
MODEL 7
REMARK VINA RESULT:      -4.5      2.608      4.855
REMARK  2 active torsions:
REMARK  status: ('A' for Active; 'I' for Inactive)
REMARK    1  A    between atoms: C7_7  and  C12_12 
REMARK    2  A    between atoms: C11_11  and  C12_12 
ROOT
HETATM    1  C1  UNL     1     -32.625  18.378  -0.996  1.00 20.00     0.064 C 
HETATM    2  C2  UNL     1     -34.184  19.200  -2.741  1.00 20.00     0.019 C 
HETATM    3  C3  UNL     1     -34.825  17.260  -1.248  1.00 20.00     0.019 C 
HETATM    4  C4  UNL     1     -33.862  18.220  -3.872  1.00 20.00     0.007 C 
HETATM    5  C5  UNL     1     -34.502  16.284  -2.381  1.00 20.00     0.007 C 
HETATM    6  C6  UNL     1     -34.045  18.576  -1.348  1.00 20.00     0.093 C 
HETATM    7  C7  UNL     1     -34.686  16.932  -3.758  1.00 20.00    -0.007 C 
HETATM    8  N13 UNL     1     -31.510  18.221  -0.721  1.00 20.00    -0.197 NA
ENDROOT
BRANCH   7   9
HETATM    9  C12 UNL     1     -34.311  15.952  -4.869  1.00 20.00    -0.044 C 
HETATM   10  C9  UNL     1     -33.737  16.742  -6.062  1.00 20.00     0.015 C 
HETATM   11  C10 UNL     1     -33.228  14.989  -4.344  1.00 20.00     0.015 C 
BRANCH   9  12
HETATM   12  C11 UNL     1     -35.586  15.168  -5.291  1.00 20.00     0.004 C 
HETATM   13  C8  UNL     1     -35.637  13.697  -4.894  1.00 20.00     0.006 C 
ENDBRANCH   9  12
ENDBRANCH   7   9
TORSDOF 2
ENDMDL
MODEL 8
REMARK VINA RESULT:      -4.2      2.300      4.778
REMARK  2 active torsions:
REMARK  status: ('A' for Active; 'I' for Inactive)
REMARK    1  A    between atoms: C7_7  and  C12_12 
REMARK    2  A    between atoms: C11_11  and  C12_12 
ROOT
HETATM    1  C1  UNL     1     -34.611  16.701  -2.312  1.00 20.00     0.064 C 
HETATM    2  C2  UNL     1     -33.318  15.214  -3.818  1.00 20.00     0.019 C 
HETATM    3  C3  UNL     1     -34.188  17.444  -4.640  1.00 20.00     0.019 C 
HETATM    4  C4  UNL     1     -34.464  14.503  -4.541  1.00 20.00     0.007 C 
HETATM    5  C5  UNL     1     -35.333  16.728  -5.362  1.00 20.00     0.007 C 
HETATM    6  C6  UNL     1     -33.655  16.660  -3.435  1.00 20.00     0.093 C 
HETATM    7  C7  UNL     1     -34.947  15.298  -5.760  1.00 20.00    -0.007 C 
HETATM    8  N13 UNL     1     -35.363  16.733  -1.429  1.00 20.00    -0.197 NA
ENDROOT
BRANCH   7   9
HETATM    9  C12 UNL     1     -36.121  14.592  -6.434  1.00 20.00    -0.044 C 
HETATM   10  C9  UNL     1     -36.889  15.610  -7.301  1.00 20.00     0.015 C 
HETATM   11  C10 UNL     1     -35.577  13.474  -7.346  1.00 20.00     0.015 C 
BRANCH   9  12
HETATM   12  C11 UNL     1     -37.045  14.001  -5.332  1.00 20.00     0.004 C 
HETATM   13  C8  UNL     1     -38.429  14.627  -5.202  1.00 20.00     0.006 C 
ENDBRANCH   9  12
ENDBRANCH   7   9
TORSDOF 2
ENDMDL
MODEL 9
REMARK VINA RESULT:      -4.1      2.160      4.822
REMARK  2 active torsions:
REMARK  status: ('A' for Active; 'I' for Inactive)
REMARK    1  A    between atoms: C7_7  and  C12_12 
REMARK    2  A    between atoms: C11_11  and  C12_12 
ROOT
HETATM    1  C1  UNL     1     -33.660  18.116  -3.346  1.00 20.00     0.064 C 
HETATM    2  C2  UNL     1     -35.320  16.637  -2.247  1.00 20.00     0.019 C 
HETATM    3  C3  UNL     1     -33.322  15.662  -3.456  1.00 20.00     0.019 C 
HETATM    4  C4  UNL     1     -36.208  16.295  -3.446  1.00 20.00     0.007 C 
HETATM    5  C5  UNL     1     -34.214  15.321  -4.652  1.00 20.00     0.007 C 
HETATM    6  C6  UNL     1     -33.849  16.840  -2.629  1.00 20.00     0.093 C 
HETATM    7  C7  UNL     1     -35.669  15.090  -4.227  1.00 20.00    -0.007 C 
HETATM    8  N13 UNL     1     -33.512  19.119  -3.910  1.00 20.00    -0.197 NA
ENDROOT
BRANCH   7   9
HETATM    9  C12 UNL     1     -36.546  14.800  -5.444  1.00 20.00    -0.044 C 
HETATM   10  C9  UNL     1     -37.992  14.544  -4.971  1.00 20.00     0.015 C 
HETATM   11  C10 UNL     1     -36.538  16.030  -6.373  1.00 20.00     0.015 C 
BRANCH   9  12
HETATM   12  C11 UNL     1     -35.979  13.553  -6.178  1.00 20.00     0.004 C 
HETATM   13  C8  UNL     1     -35.718  13.709  -7.672  1.00 20.00     0.006 C 
ENDBRANCH   9  12
ENDBRANCH   7   9
TORSDOF 2
ENDMDL
