MODEL 1
REMARK VINA RESULT:      -4.6      0.000      0.000
REMARK  3 active torsions:
REMARK  status: ('A' for Active; 'I' for Inactive)
REMARK    1  A    between atoms: C5_5  and  C6_6 
REMARK    2  A    between atoms: C6_6  and  C7_7 
REMARK    3  A    between atoms: C7_7  and  N9_9 
ROOT
HETATM    1  C1  UNL     1     -33.272   5.579   2.921  1.00 20.00     0.095 C 
HETATM    2  C7  UNL     1     -33.656   6.906   3.430  1.00 20.00     0.327 C 
HETATM    3  N8  UNL     1     -32.975   4.533   2.516  1.00 20.00    -0.195 NA
ENDROOT
BRANCH   2   4
HETATM    4  C6  UNL     1     -32.439   7.840   3.552  1.00 20.00     0.050 C 
BRANCH   4   5
HETATM    5  C5  UNL     1     -31.760   8.193   2.221  1.00 20.00    -0.001 C 
HETATM    6  C2  UNL     1     -32.488   9.328   1.515  1.00 20.00     0.005 C 
ENDBRANCH   4   5
ENDBRANCH   2   4
BRANCH   2   7
HETATM    7  N9  UNL     1     -34.351   6.780   4.710  1.00 20.00     0.098 N 
HETATM    8  C3  UNL     1     -33.535   7.329   5.793  1.00 20.00     0.311 C 
HETATM    9  C4  UNL     1     -34.680   5.380   4.978  1.00 20.00     0.311 C 
ENDBRANCH   2   7
TORSDOF 3
ENDMDL
MODEL 2
REMARK VINA RESULT:      -4.4      1.177      2.408
REMARK  3 active torsions:
REMARK  status: ('A' for Active; 'I' for Inactive)
REMARK    1  A    between atoms: C5_5  and  C6_6 
REMARK    2  A    between atoms: C6_6  and  C7_7 
REMARK    3  A    between atoms: C7_7  and  N9_9 
ROOT
HETATM    1  C1  UNL     1     -33.347   7.263   4.905  1.00 20.00     0.095 C 
HETATM    2  C7  UNL     1     -32.940   7.047   3.506  1.00 20.00     0.327 C 
HETATM    3  N8  UNL     1     -33.663   7.429   6.009  1.00 20.00    -0.195 NA
ENDROOT
BRANCH   2   4
HETATM    4  C6  UNL     1     -32.940   8.363   2.708  1.00 20.00     0.050 C 
BRANCH   4   5
HETATM    5  C5  UNL     1     -31.854   8.464   1.628  1.00 20.00    -0.001 C 
HETATM    6  C2  UNL     1     -32.194   9.535   0.602  1.00 20.00     0.005 C 
ENDBRANCH   4   5
ENDBRANCH   2   4
BRANCH   2   7
HETATM    7  N9  UNL     1     -33.800   6.049   2.873  1.00 20.00     0.098 N 
HETATM    8  C3  UNL     1     -35.017   5.848   3.659  1.00 20.00     0.311 C 
HETATM    9  C4  UNL     1     -33.083   4.785   2.712  1.00 20.00     0.311 C 
ENDBRANCH   2   7
TORSDOF 3
ENDMDL
MODEL 3
REMARK VINA RESULT:      -4.4      1.493      3.837
REMARK  3 active torsions:
REMARK  status: ('A' for Active; 'I' for Inactive)
REMARK    1  A    between atoms: C5_5  and  C6_6 
REMARK    2  A    between atoms: C6_6  and  C7_7 
REMARK    3  A    between atoms: C7_7  and  N9_9 
ROOT
HETATM    1  C1  UNL     1     -33.554   7.344   4.845  1.00 20.00     0.095 C 
HETATM    2  C7  UNL     1     -33.613   7.366   3.373  1.00 20.00     0.327 C 
HETATM    3  N8  UNL     1     -33.509   7.332   6.004  1.00 20.00    -0.195 NA
ENDROOT
BRANCH   2   4
HETATM    4  C6  UNL     1     -34.192   6.055   2.811  1.00 20.00     0.050 C 
BRANCH   4   5
HETATM    5  C5  UNL     1     -33.456   4.783   3.252  1.00 20.00    -0.001 C 
HETATM    6  C2  UNL     1     -34.228   4.049   4.340  1.00 20.00     0.005 C 
ENDBRANCH   4   5
ENDBRANCH   2   4
BRANCH   2   7
HETATM    7  N9  UNL     1     -32.291   7.640   2.814  1.00 20.00     0.098 N 
HETATM    8  C3  UNL     1     -31.439   8.290   3.809  1.00 20.00     0.311 C 
HETATM    9  C4  UNL     1     -32.405   8.473   1.617  1.00 20.00     0.311 C 
ENDBRANCH   2   7
TORSDOF 3
ENDMDL
MODEL 4
REMARK VINA RESULT:      -3.9     11.188     12.246
REMARK  3 active torsions:
REMARK  status: ('A' for Active; 'I' for Inactive)
REMARK    1  A    between atoms: C5_5  and  C6_6 
REMARK    2  A    between atoms: C6_6  and  C7_7 
REMARK    3  A    between atoms: C7_7  and  N9_9 
ROOT
HETATM    1  C1  UNL     1     -35.351  13.877  -4.873  1.00 20.00     0.095 C 
HETATM    2  C7  UNL     1     -34.654  15.097  -4.431  1.00 20.00     0.327 C 
HETATM    3  N8  UNL     1     -35.896  12.915  -5.223  1.00 20.00    -0.195 NA
ENDROOT
BRANCH   2   4
HETATM    4  C6  UNL     1     -35.382  15.770  -3.254  1.00 20.00     0.050 C 
BRANCH   4   5
HETATM    5  C5  UNL     1     -34.492  16.636  -2.353  1.00 20.00    -0.001 C 
HETATM    6  C2  UNL     1     -35.235  17.070  -1.097  1.00 20.00     0.005 C 
ENDBRANCH   4   5
ENDBRANCH   2   4
BRANCH   2   7
HETATM    7  N9  UNL     1     -34.490  16.025  -5.548  1.00 20.00     0.098 N 
HETATM    8  C3  UNL     1     -35.794  16.419  -6.081  1.00 20.00     0.311 C 
HETATM    9  C4  UNL     1     -33.670  15.422  -6.598  1.00 20.00     0.311 C 
ENDBRANCH   2   7
TORSDOF 3
ENDMDL
MODEL 5
REMARK VINA RESULT:      -3.8     11.430     12.265
REMARK  3 active torsions:
REMARK  status: ('A' for Active; 'I' for Inactive)
REMARK    1  A    between atoms: C5_5  and  C6_6 
REMARK    2  A    between atoms: C6_6  and  C7_7 
REMARK    3  A    between atoms: C7_7  and  N9_9 
ROOT
HETATM    1  C1  UNL     1     -36.539  14.113  -4.942  1.00 20.00     0.095 C 
HETATM    2  C7  UNL     1     -35.072  14.251  -4.964  1.00 20.00     0.327 C 
HETATM    3  N8  UNL     1     -37.693  13.999  -4.927  1.00 20.00    -0.195 NA
ENDROOT
BRANCH   2   4
HETATM    4  C6  UNL     1     -34.570  15.139  -3.812  1.00 20.00     0.050 C 
BRANCH   4   5
HETATM    5  C5  UNL     1     -35.600  16.141  -3.273  1.00 20.00    -0.001 C 
HETATM    6  C2  UNL     1     -35.188  16.673  -1.907  1.00 20.00     0.005 C 
ENDBRANCH   4   5
ENDBRANCH   2   4
BRANCH   2   7
HETATM    7  N9  UNL     1     -34.628  14.767  -6.258  1.00 20.00     0.098 N 
HETATM    8  C3  UNL     1     -34.433  13.672  -7.207  1.00 20.00     0.311 C 
HETATM    9  C4  UNL     1     -33.393  15.536  -6.105  1.00 20.00     0.311 C 
ENDBRANCH   2   7
TORSDOF 3
ENDMDL
MODEL 6
REMARK VINA RESULT:      -3.7     11.271     12.676
REMARK  3 active torsions:
REMARK  status: ('A' for Active; 'I' for Inactive)
REMARK    1  A    between atoms: C5_5  and  C6_6 
REMARK    2  A    between atoms: C6_6  and  C7_7 
REMARK    3  A    between atoms: C7_7  and  N9_9 
ROOT
HETATM    1  C1  UNL     1     -35.183  13.735  -5.480  1.00 20.00     0.095 C 
HETATM    2  C7  UNL     1     -34.208  14.802  -5.764  1.00 20.00     0.327 C 
HETATM    3  N8  UNL     1     -35.949  12.892  -5.262  1.00 20.00    -0.195 NA
ENDROOT
BRANCH   2   4
HETATM    4  C6  UNL     1     -33.466  15.243  -4.490  1.00 20.00     0.050 C 
BRANCH   4   5
HETATM    5  C5  UNL     1     -34.374  15.665  -3.327  1.00 20.00    -0.001 C 
HETATM    6  C2  UNL     1     -33.762  16.817  -2.541  1.00 20.00     0.005 C 
ENDBRANCH   4   5
ENDBRANCH   2   4
BRANCH   2   7
HETATM    7  N9  UNL     1     -34.867  15.937  -6.408  1.00 20.00     0.098 N 
HETATM    8  C3  UNL     1     -35.542  15.510  -7.633  1.00 20.00     0.311 C 
HETATM    9  C4  UNL     1     -33.898  16.993  -6.700  1.00 20.00     0.311 C 
ENDBRANCH   2   7
TORSDOF 3
ENDMDL
MODEL 7
REMARK VINA RESULT:      -3.7     11.023     12.467
REMARK  3 active torsions:
REMARK  status: ('A' for Active; 'I' for Inactive)
REMARK    1  A    between atoms: C5_5  and  C6_6 
REMARK    2  A    between atoms: C6_6  and  C7_7 
REMARK    3  A    between atoms: C7_7  and  N9_9 
ROOT
HETATM    1  C1  UNL     1     -34.139  14.804  -4.086  1.00 20.00     0.095 C 
HETATM    2  C7  UNL     1     -33.559  16.148  -3.929  1.00 20.00     0.327 C 
HETATM    3  N8  UNL     1     -34.592  13.743  -4.213  1.00 20.00    -0.195 NA
ENDROOT
BRANCH   2   4
HETATM    4  C6  UNL     1     -33.805  16.709  -2.517  1.00 20.00     0.050 C 
BRANCH   4   5
HETATM    5  C5  UNL     1     -35.263  16.647  -2.042  1.00 20.00    -0.001 C 
HETATM    6  C2  UNL     1     -35.423  17.281  -0.667  1.00 20.00     0.005 C 
ENDBRANCH   4   5
ENDBRANCH   2   4
BRANCH   2   7
HETATM    7  N9  UNL     1     -34.082  17.052  -4.952  1.00 20.00     0.098 N 
HETATM    8  C3  UNL     1     -33.759  16.555  -6.289  1.00 20.00     0.311 C 
HETATM    9  C4  UNL     1     -33.546  18.400  -4.765  1.00 20.00     0.311 C 
ENDBRANCH   2   7
TORSDOF 3
ENDMDL
MODEL 8
REMARK VINA RESULT:      -3.7     10.982     11.607
REMARK  3 active torsions:
REMARK  status: ('A' for Active; 'I' for Inactive)
REMARK    1  A    between atoms: C5_5  and  C6_6 
REMARK    2  A    between atoms: C6_6  and  C7_7 
REMARK    3  A    between atoms: C7_7  and  N9_9 
ROOT
HETATM    1  C1  UNL     1     -33.848  14.429  -4.314  1.00 20.00     0.095 C 
HETATM    2  C7  UNL     1     -35.078  15.238  -4.324  1.00 20.00     0.327 C 
HETATM    3  N8  UNL     1     -32.878  13.792  -4.312  1.00 20.00    -0.195 NA
ENDROOT
BRANCH   2   4
HETATM    4  C6  UNL     1     -35.237  16.042  -3.021  1.00 20.00     0.050 C 
BRANCH   4   5
HETATM    5  C5  UNL     1     -33.961  16.742  -2.534  1.00 20.00    -0.001 C 
HETATM    6  C2  UNL     1     -34.155  17.337  -1.146  1.00 20.00     0.005 C 
ENDBRANCH   4   5
ENDBRANCH   2   4
BRANCH   2   7
HETATM    7  N9  UNL     1     -36.245  14.391  -4.565  1.00 20.00     0.098 N 
HETATM    8  C3  UNL     1     -36.165  13.774  -5.889  1.00 20.00     0.311 C 
HETATM    9  C4  UNL     1     -37.477  15.168  -4.437  1.00 20.00     0.311 C 
ENDBRANCH   2   7
TORSDOF 3
ENDMDL
MODEL 9
REMARK VINA RESULT:      -3.6      1.513      3.457
REMARK  3 active torsions:
REMARK  status: ('A' for Active; 'I' for Inactive)
REMARK    1  A    between atoms: C5_5  and  C6_6 
REMARK    2  A    between atoms: C6_6  and  C7_7 
REMARK    3  A    between atoms: C7_7  and  N9_9 
ROOT
HETATM    1  C1  UNL     1     -32.892   5.212   2.626  1.00 20.00     0.095 C 
HETATM    2  C7  UNL     1     -32.810   6.448   3.422  1.00 20.00     0.327 C 
HETATM    3  N8  UNL     1     -32.952   4.236   2.001  1.00 20.00    -0.195 NA
ENDROOT
BRANCH   2   4
HETATM    4  C6  UNL     1     -34.198   6.904   3.904  1.00 20.00     0.050 C 
BRANCH   4   5
HETATM    5  C5  UNL     1     -35.118   5.773   4.386  1.00 20.00    -0.001 C 
HETATM    6  C2  UNL     1     -34.642   5.205   5.716  1.00 20.00     0.005 C 
ENDBRANCH   4   5
ENDBRANCH   2   4
BRANCH   2   7
HETATM    7  N9  UNL     1     -32.146   7.503   2.658  1.00 20.00     0.098 N 
HETATM    8  C3  UNL     1     -31.368   8.366   3.546  1.00 20.00     0.311 C 
HETATM    9  C4  UNL     1     -33.129   8.291   1.913  1.00 20.00     0.311 C 
ENDBRANCH   2   7
TORSDOF 3
ENDMDL
