MODEL 1
REMARK VINA RESULT:      -5.5      0.000      0.000
REMARK  4 active torsions:
REMARK  status: ('A' for Active; 'I' for Inactive)
REMARK    1  A    between atoms: C1_1  and  C8_8 
REMARK    2  A    between atoms: C4_4  and  C7_7 
REMARK    3  A    between atoms: C7_7  and  O10_10 
REMARK    4  A    between atoms: C8_8  and  O10_10 
ROOT
HETATM    1  C6  UNL     1     -32.931   5.524   2.606  1.00 20.00     0.048 C 
HETATM    2  C8  UNL     1     -33.443   6.815   3.218  1.00 20.00     0.186 C 
ENDROOT
BRANCH   2   3
HETATM    3  C1  UNL     1     -34.171   6.559   4.530  1.00 20.00     0.151 C 
HETATM    4  C5  UNL     1     -33.698   7.321   5.741  1.00 20.00     0.093 C 
HETATM    5  O9  UNL     1     -35.106   5.760   4.614  1.00 20.00    -0.296 OA
ENDBRANCH   2   3
BRANCH   2   6
HETATM    6  O10 UNL     1     -32.331   7.661   3.462  1.00 20.00    -0.378 OA
BRANCH   6   7
HETATM    7  C7  UNL     1     -31.803   8.194   2.253  1.00 20.00     0.173 C 
BRANCH   7   8
HETATM    8  C4  UNL     1     -32.864   9.041   1.583  1.00 20.00     0.009 A 
HETATM    9  C2  UNL     1     -32.548  10.442   1.141  1.00 20.00     0.007 A 
HETATM   10  C3  UNL     1     -32.762   9.362   0.117  1.00 20.00     0.007 A 
ENDBRANCH   7   8
ENDBRANCH   6   7
ENDBRANCH   2   6
TORSDOF 4
ENDMDL
MODEL 2
REMARK VINA RESULT:      -5.4      1.519      4.739
REMARK  4 active torsions:
REMARK  status: ('A' for Active; 'I' for Inactive)
REMARK    1  A    between atoms: C1_1  and  C8_8 
REMARK    2  A    between atoms: C4_4  and  C7_7 
REMARK    3  A    between atoms: C7_7  and  O10_10 
REMARK    4  A    between atoms: C8_8  and  O10_10 
ROOT
HETATM    1  C6  UNL     1     -31.538   8.078   3.548  1.00 20.00     0.048 C 
HETATM    2  C8  UNL     1     -32.654   8.331   2.551  1.00 20.00     0.186 C 
ENDROOT
BRANCH   2   3
HETATM    3  C1  UNL     1     -32.146   9.069   1.321  1.00 20.00     0.151 C 
HETATM    4  C5  UNL     1     -32.778  10.401   1.007  1.00 20.00     0.093 C 
HETATM    5  O9  UNL     1     -31.260   8.607   0.600  1.00 20.00    -0.296 OA
ENDBRANCH   2   3
BRANCH   2   6
HETATM    6  O10 UNL     1     -33.186   7.077   2.155  1.00 20.00    -0.378 OA
BRANCH   6   7
HETATM    7  C7  UNL     1     -33.030   6.096   3.173  1.00 20.00     0.173 C 
BRANCH   7   8
HETATM    8  C4  UNL     1     -34.373   5.843   3.824  1.00 20.00     0.009 A 
HETATM    9  C2  UNL     1     -34.593   4.606   4.650  1.00 20.00     0.007 A 
HETATM   10  C3  UNL     1     -34.522   5.953   5.316  1.00 20.00     0.007 A 
ENDBRANCH   7   8
ENDBRANCH   6   7
ENDBRANCH   2   6
TORSDOF 4
ENDMDL
MODEL 3
REMARK VINA RESULT:      -5.4      1.238      1.968
REMARK  4 active torsions:
REMARK  status: ('A' for Active; 'I' for Inactive)
REMARK    1  A    between atoms: C1_1  and  C8_8 
REMARK    2  A    between atoms: C4_4  and  C7_7 
REMARK    3  A    between atoms: C7_7  and  O10_10 
REMARK    4  A    between atoms: C8_8  and  O10_10 
ROOT
HETATM    1  C6  UNL     1     -33.752   7.274   5.868  1.00 20.00     0.048 C 
HETATM    2  C8  UNL     1     -33.581   6.685   4.480  1.00 20.00     0.186 C 
ENDROOT
BRANCH   2   3
HETATM    3  C1  UNL     1     -34.666   5.662   4.171  1.00 20.00     0.151 C 
HETATM    4  C5  UNL     1     -34.391   4.231   4.553  1.00 20.00     0.093 C 
HETATM    5  O9  UNL     1     -35.726   5.977   3.626  1.00 20.00    -0.296 OA
ENDBRANCH   2   3
BRANCH   2   6
HETATM    6  O10 UNL     1     -33.657   7.742   3.538  1.00 20.00    -0.378 OA
BRANCH   6   7
HETATM    7  C7  UNL     1     -32.827   7.499   2.409  1.00 20.00     0.173 C 
BRANCH   7   8
HETATM    8  C4  UNL     1     -32.139   8.789   2.016  1.00 20.00     0.009 A 
HETATM    9  C2  UNL     1     -31.411   8.890   0.704  1.00 20.00     0.007 A 
HETATM   10  C3  UNL     1     -32.699   9.638   0.908  1.00 20.00     0.007 A 
ENDBRANCH   7   8
ENDBRANCH   6   7
ENDBRANCH   2   6
TORSDOF 4
ENDMDL
MODEL 4
REMARK VINA RESULT:      -4.6      1.493      1.779
REMARK  4 active torsions:
REMARK  status: ('A' for Active; 'I' for Inactive)
REMARK    1  A    between atoms: C1_1  and  C8_8 
REMARK    2  A    between atoms: C4_4  and  C7_7 
REMARK    3  A    between atoms: C7_7  and  O10_10 
REMARK    4  A    between atoms: C8_8  and  O10_10 
ROOT
HETATM    1  C6  UNL     1     -33.519   4.682   3.364  1.00 20.00     0.048 C 
HETATM    2  C8  UNL     1     -34.576   5.617   3.922  1.00 20.00     0.186 C 
ENDROOT
BRANCH   2   3
HETATM    3  C1  UNL     1     -34.459   5.751   5.434  1.00 20.00     0.151 C 
HETATM    4  C5  UNL     1     -33.911   7.048   5.970  1.00 20.00     0.093 C 
HETATM    5  O9  UNL     1     -34.789   4.842   6.199  1.00 20.00    -0.296 OA
ENDBRANCH   2   3
BRANCH   2   6
HETATM    6  O10 UNL     1     -34.398   6.892   3.327  1.00 20.00    -0.378 OA
BRANCH   6   7
HETATM    7  C7  UNL     1     -33.334   6.886   2.383  1.00 20.00     0.173 C 
BRANCH   7   8
HETATM    8  C4  UNL     1     -32.744   8.277   2.297  1.00 20.00     0.009 A 
HETATM    9  C2  UNL     1     -31.385   8.562   2.874  1.00 20.00     0.007 A 
HETATM   10  C3  UNL     1     -31.580   8.550   1.383  1.00 20.00     0.007 A 
ENDBRANCH   7   8
ENDBRANCH   6   7
ENDBRANCH   2   6
TORSDOF 4
ENDMDL
MODEL 5
REMARK VINA RESULT:      -4.1     10.428     11.150
REMARK  4 active torsions:
REMARK  status: ('A' for Active; 'I' for Inactive)
REMARK    1  A    between atoms: C1_1  and  C8_8 
REMARK    2  A    between atoms: C4_4  and  C7_7 
REMARK    3  A    between atoms: C7_7  and  O10_10 
REMARK    4  A    between atoms: C8_8  and  O10_10 
ROOT
HETATM    1  C6  UNL     1     -34.428  13.722  -7.526  1.00 20.00     0.048 C 
HETATM    2  C8  UNL     1     -34.857  14.511  -6.302  1.00 20.00     0.186 C 
ENDROOT
BRANCH   2   3
HETATM    3  C1  UNL     1     -35.967  13.799  -5.541  1.00 20.00     0.151 C 
HETATM    4  C5  UNL     1     -37.214  14.590  -5.241  1.00 20.00     0.093 C 
HETATM    5  O9  UNL     1     -35.861  12.627  -5.174  1.00 20.00    -0.296 OA
ENDBRANCH   2   3
BRANCH   2   6
HETATM    6  O10 UNL     1     -33.731  14.659  -5.453  1.00 20.00    -0.378 OA
BRANCH   6   7
HETATM    7  C7  UNL     1     -33.693  15.947  -4.852  1.00 20.00     0.173 C 
BRANCH   7   8
HETATM    8  C4  UNL     1     -33.777  15.792  -3.348  1.00 20.00     0.009 A 
HETATM    9  C2  UNL     1     -33.648  16.993  -2.454  1.00 20.00     0.007 A 
HETATM   10  C3  UNL     1     -34.977  16.305  -2.600  1.00 20.00     0.007 A 
ENDBRANCH   7   8
ENDBRANCH   6   7
ENDBRANCH   2   6
TORSDOF 4
ENDMDL
MODEL 6
REMARK VINA RESULT:      -4.1      1.905      4.723
REMARK  4 active torsions:
REMARK  status: ('A' for Active; 'I' for Inactive)
REMARK    1  A    between atoms: C1_1  and  C8_8 
REMARK    2  A    between atoms: C4_4  and  C7_7 
REMARK    3  A    between atoms: C7_7  and  O10_10 
REMARK    4  A    between atoms: C8_8  and  O10_10 
ROOT
HETATM    1  C6  UNL     1     -32.931  10.833   1.895  1.00 20.00     0.048 C 
HETATM    2  C8  UNL     1     -32.663   9.343   1.781  1.00 20.00     0.186 C 
ENDROOT
BRANCH   2   3
HETATM    3  C1  UNL     1     -32.110   8.981   0.409  1.00 20.00     0.151 C 
HETATM    4  C5  UNL     1     -33.029   9.159  -0.772  1.00 20.00     0.093 C 
HETATM    5  O9  UNL     1     -30.965   8.552   0.258  1.00 20.00    -0.296 OA
ENDBRANCH   2   3
BRANCH   2   6
HETATM    6  O10 UNL     1     -31.715   8.987   2.774  1.00 20.00    -0.378 OA
BRANCH   6   7
HETATM    7  C7  UNL     1     -31.977   7.695   3.308  1.00 20.00     0.173 C 
BRANCH   7   8
HETATM    8  C4  UNL     1     -33.444   7.598   3.667  1.00 20.00     0.009 A 
HETATM    9  C2  UNL     1     -34.115   6.255   3.759  1.00 20.00     0.007 A 
HETATM   10  C3  UNL     1     -33.861   7.055   5.007  1.00 20.00     0.007 A 
ENDBRANCH   7   8
ENDBRANCH   6   7
ENDBRANCH   2   6
TORSDOF 4
ENDMDL
MODEL 7
REMARK VINA RESULT:      -4.1      1.572      4.670
REMARK  4 active torsions:
REMARK  status: ('A' for Active; 'I' for Inactive)
REMARK    1  A    between atoms: C1_1  and  C8_8 
REMARK    2  A    between atoms: C4_4  and  C7_7 
REMARK    3  A    between atoms: C7_7  and  O10_10 
REMARK    4  A    between atoms: C8_8  and  O10_10 
ROOT
HETATM    1  C6  UNL     1     -32.184   6.393   2.358  1.00 20.00     0.048 C 
HETATM    2  C8  UNL     1     -32.428   7.785   2.912  1.00 20.00     0.186 C 
ENDROOT
BRANCH   2   3
HETATM    3  C1  UNL     1     -32.432   8.831   1.806  1.00 20.00     0.151 C 
HETATM    4  C5  UNL     1     -31.422   8.667   0.700  1.00 20.00     0.093 C 
HETATM    5  O9  UNL     1     -33.218   9.781   1.807  1.00 20.00    -0.296 OA
ENDBRANCH   2   3
BRANCH   2   6
HETATM    6  O10 UNL     1     -33.689   7.788   3.561  1.00 20.00    -0.378 OA
BRANCH   6   7
HETATM    7  C7  UNL     1     -33.636   7.118   4.814  1.00 20.00     0.173 C 
BRANCH   7   8
HETATM    8  C4  UNL     1     -34.731   6.074   4.861  1.00 20.00     0.009 A 
HETATM    9  C2  UNL     1     -34.473   4.681   4.357  1.00 20.00     0.007 A 
HETATM   10  C3  UNL     1     -34.642   4.927   5.831  1.00 20.00     0.007 A 
ENDBRANCH   7   8
ENDBRANCH   6   7
ENDBRANCH   2   6
TORSDOF 4
ENDMDL
MODEL 8
REMARK VINA RESULT:      -4.0     10.442     11.229
REMARK  4 active torsions:
REMARK  status: ('A' for Active; 'I' for Inactive)
REMARK    1  A    between atoms: C1_1  and  C8_8 
REMARK    2  A    between atoms: C4_4  and  C7_7 
REMARK    3  A    between atoms: C7_7  and  O10_10 
REMARK    4  A    between atoms: C8_8  and  O10_10 
ROOT
HETATM    1  C6  UNL     1     -37.551  15.054  -4.545  1.00 20.00     0.048 C 
HETATM    2  C8  UNL     1     -36.040  14.971  -4.442  1.00 20.00     0.186 C 
ENDROOT
BRANCH   2   3
HETATM    3  C1  UNL     1     -35.486  13.830  -5.285  1.00 20.00     0.151 C 
HETATM    4  C5  UNL     1     -34.373  14.163  -6.246  1.00 20.00     0.093 C 
HETATM    5  O9  UNL     1     -35.924  12.682  -5.201  1.00 20.00    -0.296 OA
ENDBRANCH   2   3
BRANCH   2   6
HETATM    6  O10 UNL     1     -35.496  16.197  -4.902  1.00 20.00    -0.378 OA
BRANCH   6   7
HETATM    7  C7  UNL     1     -35.373  17.144  -3.848  1.00 20.00     0.173 C 
BRANCH   7   8
HETATM    8  C4  UNL     1     -34.818  16.449  -2.623  1.00 20.00     0.009 A 
HETATM    9  C2  UNL     1     -33.845  17.159  -1.724  1.00 20.00     0.007 A 
HETATM   10  C3  UNL     1     -35.245  16.885  -1.248  1.00 20.00     0.007 A 
ENDBRANCH   7   8
ENDBRANCH   6   7
ENDBRANCH   2   6
TORSDOF 4
ENDMDL
MODEL 9
REMARK VINA RESULT:      -4.0     10.265     11.282
REMARK  4 active torsions:
REMARK  status: ('A' for Active; 'I' for Inactive)
REMARK    1  A    between atoms: C1_1  and  C8_8 
REMARK    2  A    between atoms: C4_4  and  C7_7 
REMARK    3  A    between atoms: C7_7  and  O10_10 
REMARK    4  A    between atoms: C8_8  and  O10_10 
ROOT
HETATM    1  C6  UNL     1     -37.011  14.553  -4.955  1.00 20.00     0.048 C 
HETATM    2  C8  UNL     1     -36.010  13.423  -5.108  1.00 20.00     0.186 C 
ENDROOT
BRANCH   2   3
HETATM    3  C1  UNL     1     -35.556  13.274  -6.554  1.00 20.00     0.151 C 
HETATM    4  C5  UNL     1     -35.733  14.467  -7.458  1.00 20.00     0.093 C 
HETATM    5  O9  UNL     1     -35.069  12.226  -6.982  1.00 20.00    -0.296 OA
ENDBRANCH   2   3
BRANCH   2   6
HETATM    6  O10 UNL     1     -34.884  13.714  -4.296  1.00 20.00    -0.378 OA
BRANCH   6   7
HETATM    7  C7  UNL     1     -34.946  15.034  -3.769  1.00 20.00     0.173 C 
BRANCH   7   8
HETATM    8  C4  UNL     1     -33.615  15.718  -3.997  1.00 20.00     0.009 A 
HETATM    9  C2  UNL     1     -32.868  15.512  -5.285  1.00 20.00     0.007 A 
HETATM   10  C3  UNL     1     -33.503  16.843  -4.990  1.00 20.00     0.007 A 
ENDBRANCH   7   8
ENDBRANCH   6   7
ENDBRANCH   2   6
TORSDOF 4
ENDMDL
