MODEL 1
REMARK VINA RESULT:      -4.6      0.000      0.000
REMARK  3 active torsions:
REMARK  status: ('A' for Active; 'I' for Inactive)
REMARK    1  A    between atoms: C5_5  and  C6_6 
REMARK    2  A    between atoms: C6_6  and  C7_7 
REMARK    3  A    between atoms: C7_7  and  N9_9 
ROOT
HETATM    1  C1  UNL     1     -33.576   7.329   4.940  1.00 20.00     0.095 C 
HETATM    2  C7  UNL     1     -33.624   7.198   3.475  1.00 20.00     0.327 C 
HETATM    3  N8  UNL     1     -33.539   7.438   6.095  1.00 20.00    -0.195 NA
ENDROOT
BRANCH   2   4
HETATM    4  C6  UNL     1     -32.232   7.385   2.845  1.00 20.00     0.050 C 
BRANCH   4   5
HETATM    5  C5  UNL     1     -31.920   8.814   2.378  1.00 20.00    -0.001 C 
HETATM    6  C2  UNL     1     -32.365   9.033   0.940  1.00 20.00     0.005 C 
ENDBRANCH   4   5
ENDBRANCH   2   4
BRANCH   2   7
HETATM    7  N9  UNL     1     -34.210   5.914   3.097  1.00 20.00     0.098 N 
HETATM    8  C3  UNL     1     -35.060   5.402   4.172  1.00 20.00     0.311 C 
HETATM    9  C4  UNL     1     -33.161   4.948   2.773  1.00 20.00     0.311 C 
ENDBRANCH   2   7
TORSDOF 3
ENDMDL
MODEL 2
REMARK VINA RESULT:      -4.3      1.631      4.069
REMARK  3 active torsions:
REMARK  status: ('A' for Active; 'I' for Inactive)
REMARK    1  A    between atoms: C5_5  and  C6_6 
REMARK    2  A    between atoms: C6_6  and  C7_7 
REMARK    3  A    between atoms: C7_7  and  N9_9 
ROOT
HETATM    1  C1  UNL     1     -33.013   5.383   2.580  1.00 20.00     0.095 C 
HETATM    2  C7  UNL     1     -33.309   6.795   2.870  1.00 20.00     0.327 C 
HETATM    3  N8  UNL     1     -32.783   4.269   2.349  1.00 20.00    -0.195 NA
ENDROOT
BRANCH   2   4
HETATM    4  C6  UNL     1     -33.902   6.969   4.280  1.00 20.00     0.050 C 
BRANCH   4   5
HETATM    5  C5  UNL     1     -34.982   5.945   4.658  1.00 20.00    -0.001 C 
HETATM    6  C2  UNL     1     -34.515   5.044   5.792  1.00 20.00     0.005 C 
ENDBRANCH   4   5
ENDBRANCH   2   4
BRANCH   2   7
HETATM    7  N9  UNL     1     -32.112   7.614   2.692  1.00 20.00     0.098 N 
HETATM    8  C3  UNL     1     -31.726   8.240   3.956  1.00 20.00     0.311 C 
HETATM    9  C4  UNL     1     -32.336   8.631   1.665  1.00 20.00     0.311 C 
ENDBRANCH   2   7
TORSDOF 3
ENDMDL
MODEL 3
REMARK VINA RESULT:      -4.3      1.110      2.359
REMARK  3 active torsions:
REMARK  status: ('A' for Active; 'I' for Inactive)
REMARK    1  A    between atoms: C5_5  and  C6_6 
REMARK    2  A    between atoms: C6_6  and  C7_7 
REMARK    3  A    between atoms: C7_7  and  N9_9 
ROOT
HETATM    1  C1  UNL     1     -32.980   5.603   2.904  1.00 20.00     0.095 C 
HETATM    2  C7  UNL     1     -33.047   6.925   3.548  1.00 20.00     0.327 C 
HETATM    3  N8  UNL     1     -32.922   4.561   2.396  1.00 20.00    -0.195 NA
ENDROOT
BRANCH   2   4
HETATM    4  C6  UNL     1     -33.129   8.056   2.507  1.00 20.00     0.050 C 
BRANCH   4   5
HETATM    5  C5  UNL     1     -31.793   8.426   1.847  1.00 20.00    -0.001 C 
HETATM    6  C2  UNL     1     -32.008   9.301   0.620  1.00 20.00     0.005 C 
ENDBRANCH   4   5
ENDBRANCH   2   4
BRANCH   2   7
HETATM    7  N9  UNL     1     -34.169   6.980   4.483  1.00 20.00     0.098 N 
HETATM    8  C3  UNL     1     -33.695   7.275   5.835  1.00 20.00     0.311 C 
HETATM    9  C4  UNL     1     -34.911   5.719   4.466  1.00 20.00     0.311 C 
ENDBRANCH   2   7
TORSDOF 3
ENDMDL
MODEL 4
REMARK VINA RESULT:      -4.0     11.071     12.260
REMARK  3 active torsions:
REMARK  status: ('A' for Active; 'I' for Inactive)
REMARK    1  A    between atoms: C5_5  and  C6_6 
REMARK    2  A    between atoms: C6_6  and  C7_7 
REMARK    3  A    between atoms: C7_7  and  N9_9 
ROOT
HETATM    1  C1  UNL     1     -35.634  13.936  -5.009  1.00 20.00     0.095 C 
HETATM    2  C7  UNL     1     -35.308  15.342  -4.717  1.00 20.00     0.327 C 
HETATM    3  N8  UNL     1     -35.895  12.828  -5.237  1.00 20.00    -0.195 NA
ENDROOT
BRANCH   2   4
HETATM    4  C6  UNL     1     -34.397  15.465  -3.483  1.00 20.00     0.050 C 
BRANCH   4   5
HETATM    5  C5  UNL     1     -34.901  16.432  -2.402  1.00 20.00    -0.001 C 
HETATM    6  C2  UNL     1     -33.753  17.227  -1.795  1.00 20.00     0.005 C 
ENDBRANCH   4   5
ENDBRANCH   2   4
BRANCH   2   7
HETATM    7  N9  UNL     1     -34.708  15.979  -5.888  1.00 20.00     0.098 N 
HETATM    8  C3  UNL     1     -33.250  15.875  -5.838  1.00 20.00     0.311 C 
HETATM    9  C4  UNL     1     -35.117  17.381  -5.973  1.00 20.00     0.311 C 
ENDBRANCH   2   7
TORSDOF 3
ENDMDL
MODEL 5
REMARK VINA RESULT:      -3.9      1.349      3.552
REMARK  3 active torsions:
REMARK  status: ('A' for Active; 'I' for Inactive)
REMARK    1  A    between atoms: C5_5  and  C6_6 
REMARK    2  A    between atoms: C6_6  and  C7_7 
REMARK    3  A    between atoms: C7_7  and  N9_9 
ROOT
HETATM    1  C1  UNL     1     -33.398   7.323   5.190  1.00 20.00     0.095 C 
HETATM    2  C7  UNL     1     -33.050   6.944   3.811  1.00 20.00     0.327 C 
HETATM    3  N8  UNL     1     -33.671   7.618   6.279  1.00 20.00    -0.195 NA
ENDROOT
BRANCH   2   4
HETATM    4  C6  UNL     1     -34.218   6.227   3.110  1.00 20.00     0.050 C 
BRANCH   4   5
HETATM    5  C5  UNL     1     -35.093   5.365   4.032  1.00 20.00    -0.001 C 
HETATM    6  C2  UNL     1     -34.360   4.105   4.468  1.00 20.00     0.005 C 
ENDBRANCH   4   5
ENDBRANCH   2   4
BRANCH   2   7
HETATM    7  N9  UNL     1     -32.615   8.117   3.055  1.00 20.00     0.098 N 
HETATM    8  C3  UNL     1     -32.708   7.864   1.618  1.00 20.00     0.311 C 
HETATM    9  C4  UNL     1     -31.248   8.485   3.422  1.00 20.00     0.311 C 
ENDBRANCH   2   7
TORSDOF 3
ENDMDL
MODEL 6
REMARK VINA RESULT:      -3.8      1.752      3.333
REMARK  3 active torsions:
REMARK  status: ('A' for Active; 'I' for Inactive)
REMARK    1  A    between atoms: C5_5  and  C6_6 
REMARK    2  A    between atoms: C6_6  and  C7_7 
REMARK    3  A    between atoms: C7_7  and  N9_9 
ROOT
HETATM    1  C1  UNL     1     -32.270   8.154   2.491  1.00 20.00     0.095 C 
HETATM    2  C7  UNL     1     -32.824   7.062   3.307  1.00 20.00     0.327 C 
HETATM    3  N8  UNL     1     -31.830   9.017   1.851  1.00 20.00    -0.195 NA
ENDROOT
BRANCH   2   4
HETATM    4  C6  UNL     1     -33.850   7.585   4.329  1.00 20.00     0.050 C 
BRANCH   4   5
HETATM    5  C5  UNL     1     -33.672   7.046   5.756  1.00 20.00    -0.001 C 
HETATM    6  C2  UNL     1     -34.494   5.784   5.975  1.00 20.00     0.005 C 
ENDBRANCH   4   5
ENDBRANCH   2   4
BRANCH   2   7
HETATM    7  N9  UNL     1     -33.406   6.031   2.450  1.00 20.00     0.098 N 
HETATM    8  C3  UNL     1     -34.866   6.096   2.488  1.00 20.00     0.311 C 
HETATM    9  C4  UNL     1     -32.943   4.704   2.859  1.00 20.00     0.311 C 
ENDBRANCH   2   7
TORSDOF 3
ENDMDL
MODEL 7
REMARK VINA RESULT:      -3.7     11.338     12.191
REMARK  3 active torsions:
REMARK  status: ('A' for Active; 'I' for Inactive)
REMARK    1  A    between atoms: C5_5  and  C6_6 
REMARK    2  A    between atoms: C6_6  and  C7_7 
REMARK    3  A    between atoms: C7_7  and  N9_9 
ROOT
HETATM    1  C1  UNL     1     -36.760  14.668  -4.910  1.00 20.00     0.095 C 
HETATM    2  C7  UNL     1     -35.614  15.591  -4.882  1.00 20.00     0.327 C 
HETATM    3  N8  UNL     1     -37.667  13.944  -4.930  1.00 20.00    -0.195 NA
ENDROOT
BRANCH   2   4
HETATM    4  C6  UNL     1     -34.728  15.354  -3.646  1.00 20.00     0.050 C 
BRANCH   4   5
HETATM    5  C5  UNL     1     -34.912  16.374  -2.514  1.00 20.00    -0.001 C 
HETATM    6  C2  UNL     1     -33.596  17.058  -2.170  1.00 20.00     0.005 C 
ENDBRANCH   4   5
ENDBRANCH   2   4
BRANCH   2   7
HETATM    7  N9  UNL     1     -34.842  15.481  -6.119  1.00 20.00     0.098 N 
HETATM    8  C3  UNL     1     -34.356  14.114  -6.301  1.00 20.00     0.311 C 
HETATM    9  C4  UNL     1     -33.723  16.424  -6.109  1.00 20.00     0.311 C 
ENDBRANCH   2   7
TORSDOF 3
ENDMDL
MODEL 8
REMARK VINA RESULT:      -3.7     10.821     12.113
REMARK  3 active torsions:
REMARK  status: ('A' for Active; 'I' for Inactive)
REMARK    1  A    between atoms: C5_5  and  C6_6 
REMARK    2  A    between atoms: C6_6  and  C7_7 
REMARK    3  A    between atoms: C7_7  and  N9_9 
ROOT
HETATM    1  C1  UNL     1     -34.580  14.757  -3.956  1.00 20.00     0.095 C 
HETATM    2  C7  UNL     1     -34.758  16.175  -3.608  1.00 20.00     0.327 C 
HETATM    3  N8  UNL     1     -34.441  13.636  -4.226  1.00 20.00    -0.195 NA
ENDROOT
BRANCH   2   4
HETATM    4  C6  UNL     1     -33.583  16.703  -2.765  1.00 20.00     0.050 C 
BRANCH   4   5
HETATM    5  C5  UNL     1     -33.976  17.282  -1.399  1.00 20.00    -0.001 C 
HETATM    6  C2  UNL     1     -35.446  17.029  -1.095  1.00 20.00     0.005 C 
ENDBRANCH   4   5
ENDBRANCH   2   4
BRANCH   2   7
HETATM    7  N9  UNL     1     -34.948  16.976  -4.816  1.00 20.00     0.098 N 
HETATM    8  C3  UNL     1     -36.137  16.534  -5.543  1.00 20.00     0.311 C 
HETATM    9  C4  UNL     1     -33.766  16.896  -5.674  1.00 20.00     0.311 C 
ENDBRANCH   2   7
TORSDOF 3
ENDMDL
MODEL 9
REMARK VINA RESULT:      -3.6     11.223     12.211
REMARK  3 active torsions:
REMARK  status: ('A' for Active; 'I' for Inactive)
REMARK    1  A    between atoms: C5_5  and  C6_6 
REMARK    2  A    between atoms: C6_6  and  C7_7 
REMARK    3  A    between atoms: C7_7  and  N9_9 
ROOT
HETATM    1  C1  UNL     1     -37.292  14.390  -5.131  1.00 20.00     0.095 C 
HETATM    2  C7  UNL     1     -35.908  14.498  -5.619  1.00 20.00     0.327 C 
HETATM    3  N8  UNL     1     -38.384  14.309  -4.745  1.00 20.00    -0.195 NA
ENDROOT
BRANCH   2   4
HETATM    4  C6  UNL     1     -34.893  14.110  -4.529  1.00 20.00     0.050 C 
BRANCH   4   5
HETATM    5  C5  UNL     1     -34.309  15.291  -3.741  1.00 20.00    -0.001 C 
HETATM    6  C2  UNL     1     -33.542  16.238  -4.653  1.00 20.00     0.005 C 
ENDBRANCH   4   5
ENDBRANCH   2   4
BRANCH   2   7
HETATM    7  N9  UNL     1     -35.728  13.691  -6.824  1.00 20.00     0.098 N 
HETATM    8  C3  UNL     1     -34.319  13.657  -7.214  1.00 20.00     0.311 C 
HETATM    9  C4  UNL     1     -36.548  14.213  -7.918  1.00 20.00     0.311 C 
ENDBRANCH   2   7
TORSDOF 3
ENDMDL
