MODEL 1
REMARK VINA RESULT:      -4.4      0.000      0.000
REMARK  4 active torsions:
REMARK  status: ('A' for Active; 'I' for Inactive)
REMARK    1  A    between atoms: C1_1  and  C8_8 
REMARK    2  A    between atoms: C7_7  and  N10_10 
REMARK    3  A    between atoms: C8_8  and  N10_10 
REMARK    4  A    between atoms: C9_9  and  N10_10 
ROOT
HETATM    1  N10 UNL     1     -32.900   6.802   3.675  1.00 20.00     0.103 N 
ENDROOT
BRANCH   1   2
HETATM    2  C7  UNL     1     -33.740   7.707   4.475  1.00 20.00     0.269 C 
HETATM    3  C3  UNL     1     -33.533   7.484   5.934  1.00 20.00     0.037 C 
ENDBRANCH   1   2
BRANCH   1   4
HETATM    4  C8  UNL     1     -33.701   5.894   2.900  1.00 20.00     0.287 C 
HETATM    5  C4  UNL     1     -32.886   4.727   2.373  1.00 20.00     0.051 C 
BRANCH   4   6
HETATM    6  C1  UNL     1     -34.824   5.401   3.798  1.00 20.00     0.155 C 
HETATM    7  C2  UNL     1     -34.481   4.291   4.759  1.00 20.00     0.093 C 
HETATM    8  O11 UNL     1     -35.950   5.901   3.784  1.00 20.00    -0.296 OA
ENDBRANCH   4   6
ENDBRANCH   1   4
BRANCH   1   9
HETATM    9  C9  UNL     1     -32.005   7.593   2.815  1.00 20.00     0.216 C 
HETATM   10  C5  UNL     1     -31.111   8.459   3.691  1.00 20.00     0.042 C 
HETATM   11  C6  UNL     1     -32.849   8.433   1.866  1.00 20.00     0.042 C 
ENDBRANCH   1   9
TORSDOF 4
ENDMDL
MODEL 2
REMARK VINA RESULT:      -4.4     11.265     12.328
REMARK  4 active torsions:
REMARK  status: ('A' for Active; 'I' for Inactive)
REMARK    1  A    between atoms: C1_1  and  C8_8 
REMARK    2  A    between atoms: C7_7  and  N10_10 
REMARK    3  A    between atoms: C8_8  and  N10_10 
REMARK    4  A    between atoms: C9_9  and  N10_10 
ROOT
HETATM    1  N10 UNL     1     -35.227  15.144  -4.347  1.00 20.00     0.103 N 
ENDROOT
BRANCH   1   2
HETATM    2  C7  UNL     1     -36.072  16.061  -3.567  1.00 20.00     0.269 C 
HETATM    3  C3  UNL     1     -37.469  16.078  -4.084  1.00 20.00     0.037 C 
ENDBRANCH   1   2
BRANCH   1   4
HETATM    4  C8  UNL     1     -35.691  15.032  -5.704  1.00 20.00     0.287 C 
HETATM    5  C4  UNL     1     -34.842  15.846  -6.662  1.00 20.00     0.051 C 
BRANCH   4   6
HETATM    6  C1  UNL     1     -35.655  13.558  -6.074  1.00 20.00     0.155 C 
HETATM    7  C2  UNL     1     -35.210  13.227  -7.476  1.00 20.00     0.093 C 
HETATM    8  O11 UNL     1     -35.929  12.667  -5.270  1.00 20.00    -0.296 OA
ENDBRANCH   4   6
ENDBRANCH   1   4
BRANCH   1   9
HETATM    9  C9  UNL     1     -33.829  15.600  -4.296  1.00 20.00     0.216 C 
HETATM   10  C5  UNL     1     -32.915  14.389  -4.166  1.00 20.00     0.042 C 
HETATM   11  C6  UNL     1     -33.665  16.557  -3.123  1.00 20.00     0.042 C 
ENDBRANCH   1   9
TORSDOF 4
ENDMDL
MODEL 3
REMARK VINA RESULT:      -4.3     11.438     12.502
REMARK  4 active torsions:
REMARK  status: ('A' for Active; 'I' for Inactive)
REMARK    1  A    between atoms: C1_1  and  C8_8 
REMARK    2  A    between atoms: C7_7  and  N10_10 
REMARK    3  A    between atoms: C8_8  and  N10_10 
REMARK    4  A    between atoms: C9_9  and  N10_10 
ROOT
HETATM    1  N10 UNL     1     -35.133  14.773  -5.404  1.00 20.00     0.103 N 
ENDROOT
BRANCH   1   2
HETATM    2  C7  UNL     1     -36.124  13.719  -5.670  1.00 20.00     0.269 C 
HETATM    3  C3  UNL     1     -37.513  14.224  -5.476  1.00 20.00     0.037 C 
ENDBRANCH   1   2
BRANCH   1   4
HETATM    4  C8  UNL     1     -34.518  14.600  -4.117  1.00 20.00     0.287 C 
HETATM    5  C4  UNL     1     -33.019  14.389  -4.228  1.00 20.00     0.051 C 
BRANCH   4   6
HETATM    6  C1  UNL     1     -34.825  15.843  -3.298  1.00 20.00     0.155 C 
HETATM    7  C2  UNL     1     -33.643  16.670  -2.859  1.00 20.00     0.093 C 
HETATM    8  O11 UNL     1     -35.976  16.195  -3.034  1.00 20.00    -0.296 OA
ENDBRANCH   4   6
ENDBRANCH   1   4
BRANCH   1   9
HETATM    9  C9  UNL     1     -34.129  14.786  -6.480  1.00 20.00     0.216 C 
HETATM   10  C5  UNL     1     -34.136  16.152  -7.151  1.00 20.00     0.042 C 
HETATM   11  C6  UNL     1     -34.450  13.672  -7.467  1.00 20.00     0.042 C 
ENDBRANCH   1   9
TORSDOF 4
ENDMDL
MODEL 4
REMARK VINA RESULT:      -4.3     11.416     12.502
REMARK  4 active torsions:
REMARK  status: ('A' for Active; 'I' for Inactive)
REMARK    1  A    between atoms: C1_1  and  C8_8 
REMARK    2  A    between atoms: C7_7  and  N10_10 
REMARK    3  A    between atoms: C8_8  and  N10_10 
REMARK    4  A    between atoms: C9_9  and  N10_10 
ROOT
HETATM    1  N10 UNL     1     -34.815  16.278  -4.455  1.00 20.00     0.103 N 
ENDROOT
BRANCH   1   2
HETATM    2  C7  UNL     1     -34.434  17.404  -5.321  1.00 20.00     0.269 C 
HETATM    3  C3  UNL     1     -34.222  16.955  -6.726  1.00 20.00     0.037 C 
ENDBRANCH   1   2
BRANCH   1   4
HETATM    4  C8  UNL     1     -34.442  15.019  -5.039  1.00 20.00     0.287 C 
HETATM    5  C4  UNL     1     -33.251  14.397  -4.334  1.00 20.00     0.051 C 
BRANCH   4   6
HETATM    6  C1  UNL     1     -35.653  14.104  -4.955  1.00 20.00     0.155 C 
HETATM    7  C2  UNL     1     -36.996  14.775  -4.823  1.00 20.00     0.093 C 
HETATM    8  O11 UNL     1     -35.563  12.878  -5.034  1.00 20.00    -0.296 OA
ENDBRANCH   4   6
ENDBRANCH   1   4
BRANCH   1   9
HETATM    9  C9  UNL     1     -34.208  16.452  -3.126  1.00 20.00     0.216 C 
HETATM   10  C5  UNL     1     -35.309  16.486  -2.076  1.00 20.00     0.042 C 
HETATM   11  C6  UNL     1     -33.387  17.735  -3.123  1.00 20.00     0.042 C 
ENDBRANCH   1   9
TORSDOF 4
ENDMDL
MODEL 5
REMARK VINA RESULT:      -4.3     11.662     12.654
REMARK  4 active torsions:
REMARK  status: ('A' for Active; 'I' for Inactive)
REMARK    1  A    between atoms: C1_1  and  C8_8 
REMARK    2  A    between atoms: C7_7  and  N10_10 
REMARK    3  A    between atoms: C8_8  and  N10_10 
REMARK    4  A    between atoms: C9_9  and  N10_10 
ROOT
HETATM    1  N10 UNL     1     -34.744  15.568  -5.616  1.00 20.00     0.103 N 
ENDROOT
BRANCH   1   2
HETATM    2  C7  UNL     1     -33.589  16.164  -6.304  1.00 20.00     0.269 C 
HETATM    3  C3  UNL     1     -33.965  17.435  -6.985  1.00 20.00     0.037 C 
ENDBRANCH   1   2
BRANCH   1   4
HETATM    4  C8  UNL     1     -35.411  14.606  -6.452  1.00 20.00     0.287 C 
HETATM    5  C4  UNL     1     -34.426  13.740  -7.216  1.00 20.00     0.051 C 
BRANCH   4   6
HETATM    6  C1  UNL     1     -36.288  13.754  -5.551  1.00 20.00     0.155 C 
HETATM    7  C2  UNL     1     -37.615  14.346  -5.146  1.00 20.00     0.093 C 
HETATM    8  O11 UNL     1     -35.967  12.619  -5.195  1.00 20.00    -0.296 OA
ENDBRANCH   4   6
ENDBRANCH   1   4
BRANCH   1   9
HETATM    9  C9  UNL     1     -34.303  14.962  -4.350  1.00 20.00     0.216 C 
HETATM   10  C5  UNL     1     -34.659  15.894  -3.201  1.00 20.00     0.042 C 
HETATM   11  C6  UNL     1     -32.804  14.703  -4.423  1.00 20.00     0.042 C 
ENDBRANCH   1   9
TORSDOF 4
ENDMDL
MODEL 6
REMARK VINA RESULT:      -4.3     11.499     12.831
REMARK  4 active torsions:
REMARK  status: ('A' for Active; 'I' for Inactive)
REMARK    1  A    between atoms: C1_1  and  C8_8 
REMARK    2  A    between atoms: C7_7  and  N10_10 
REMARK    3  A    between atoms: C8_8  and  N10_10 
REMARK    4  A    between atoms: C9_9  and  N10_10 
ROOT
HETATM    1  N10 UNL     1     -34.679  15.573  -5.520  1.00 20.00     0.103 N 
ENDROOT
BRANCH   1   2
HETATM    2  C7  UNL     1     -33.225  15.517  -5.305  1.00 20.00     0.269 C 
HETATM    3  C3  UNL     1     -32.863  14.432  -4.351  1.00 20.00     0.037 C 
ENDBRANCH   1   2
BRANCH   1   4
HETATM    4  C8  UNL     1     -35.392  14.941  -4.442  1.00 20.00     0.287 C 
HETATM    5  C4  UNL     1     -36.204  15.939  -3.638  1.00 20.00     0.051 C 
BRANCH   4   6
HETATM    6  C1  UNL     1     -36.295  13.884  -5.055  1.00 20.00     0.155 C 
HETATM    7  C2  UNL     1     -37.685  14.325  -5.439  1.00 20.00     0.093 C 
HETATM    8  O11 UNL     1     -35.913  12.733  -5.273  1.00 20.00    -0.296 OA
ENDBRANCH   4   6
ENDBRANCH   1   4
BRANCH   1   9
HETATM    9  C9  UNL     1     -35.098  16.974  -5.689  1.00 20.00     0.216 C 
HETATM   10  C5  UNL     1     -35.763  17.133  -7.049  1.00 20.00     0.042 C 
HETATM   11  C6  UNL     1     -33.877  17.873  -5.550  1.00 20.00     0.042 C 
ENDBRANCH   1   9
TORSDOF 4
ENDMDL
MODEL 7
REMARK VINA RESULT:      -4.3     11.776     12.623
REMARK  4 active torsions:
REMARK  status: ('A' for Active; 'I' for Inactive)
REMARK    1  A    between atoms: C1_1  and  C8_8 
REMARK    2  A    between atoms: C7_7  and  N10_10 
REMARK    3  A    between atoms: C8_8  and  N10_10 
REMARK    4  A    between atoms: C9_9  and  N10_10 
ROOT
HETATM    1  N10 UNL     1     -35.356  15.403  -4.783  1.00 20.00     0.103 N 
ENDROOT
BRANCH   1   2
HETATM    2  C7  UNL     1     -34.017  15.071  -4.272  1.00 20.00     0.269 C 
HETATM    3  C3  UNL     1     -32.955  15.510  -5.221  1.00 20.00     0.037 C 
ENDBRANCH   1   2
BRANCH   1   4
HETATM    4  C8  UNL     1     -36.168  14.225  -4.924  1.00 20.00     0.287 C 
HETATM    5  C4  UNL     1     -37.650  14.550  -4.878  1.00 20.00     0.051 C 
BRANCH   4   6
HETATM    6  C1  UNL     1     -35.802  13.578  -6.250  1.00 20.00     0.155 C 
HETATM    7  C2  UNL     1     -36.083  14.383  -7.493  1.00 20.00     0.093 C 
HETATM    8  O11 UNL     1     -35.262  12.473  -6.320  1.00 20.00    -0.296 OA
ENDBRANCH   4   6
ENDBRANCH   1   4
BRANCH   1   9
HETATM    9  C9  UNL     1     -35.991  16.388  -3.893  1.00 20.00     0.216 C 
HETATM   10  C5  UNL     1     -35.907  17.765  -4.535  1.00 20.00     0.042 C 
HETATM   11  C6  UNL     1     -35.293  16.352  -2.541  1.00 20.00     0.042 C 
ENDBRANCH   1   9
TORSDOF 4
ENDMDL
MODEL 8
REMARK VINA RESULT:      -4.2     11.452     12.407
REMARK  4 active torsions:
REMARK  status: ('A' for Active; 'I' for Inactive)
REMARK    1  A    between atoms: C1_1  and  C8_8 
REMARK    2  A    between atoms: C7_7  and  N10_10 
REMARK    3  A    between atoms: C8_8  and  N10_10 
REMARK    4  A    between atoms: C9_9  and  N10_10 
ROOT
HETATM    1  N10 UNL     1     -35.297  15.883  -4.122  1.00 20.00     0.103 N 
ENDROOT
BRANCH   1   2
HETATM    2  C7  UNL     1     -35.573  16.349  -2.755  1.00 20.00     0.269 C 
HETATM    3  C3  UNL     1     -34.333  16.845  -2.093  1.00 20.00     0.037 C 
ENDBRANCH   1   2
BRANCH   1   4
HETATM    4  C8  UNL     1     -34.884  14.506  -4.132  1.00 20.00     0.287 C 
HETATM    5  C4  UNL     1     -35.728  13.668  -5.075  1.00 20.00     0.051 C 
BRANCH   4   6
HETATM    6  C1  UNL     1     -33.423  14.473  -4.547  1.00 20.00     0.155 C 
HETATM    7  C2  UNL     1     -32.935  15.628  -5.384  1.00 20.00     0.093 C 
HETATM    8  O11 UNL     1     -32.653  13.580  -4.191  1.00 20.00    -0.296 OA
ENDBRANCH   4   6
ENDBRANCH   1   4
BRANCH   1   9
HETATM    9  C9  UNL     1     -36.486  16.092  -4.963  1.00 20.00     0.216 C 
HETATM   10  C5  UNL     1     -36.173  17.146  -6.015  1.00 20.00     0.042 C 
HETATM   11  C6  UNL     1     -37.650  16.509  -4.075  1.00 20.00     0.042 C 
ENDBRANCH   1   9
TORSDOF 4
ENDMDL
MODEL 9
REMARK VINA RESULT:      -4.1     11.416     12.664
REMARK  4 active torsions:
REMARK  status: ('A' for Active; 'I' for Inactive)
REMARK    1  A    between atoms: C1_1  and  C8_8 
REMARK    2  A    between atoms: C7_7  and  N10_10 
REMARK    3  A    between atoms: C8_8  and  N10_10 
REMARK    4  A    between atoms: C9_9  and  N10_10 
ROOT
HETATM    1  N10 UNL     1     -34.046  16.489  -4.374  1.00 20.00     0.103 N 
ENDROOT
BRANCH   1   2
HETATM    2  C7  UNL     1     -33.710  17.588  -3.456  1.00 20.00     0.269 C 
HETATM    3  C3  UNL     1     -33.540  17.091  -2.061  1.00 20.00     0.037 C 
ENDBRANCH   1   2
BRANCH   1   4
HETATM    4  C8  UNL     1     -35.003  15.591  -3.787  1.00 20.00     0.287 C 
HETATM    5  C4  UNL     1     -36.431  15.998  -4.102  1.00 20.00     0.051 C 
BRANCH   4   6
HETATM    6  C1  UNL     1     -34.710  14.201  -4.327  1.00 20.00     0.155 C 
HETATM    7  C2  UNL     1     -35.829  13.517  -5.070  1.00 20.00     0.093 C 
HETATM    8  O11 UNL     1     -33.607  13.664  -4.210  1.00 20.00    -0.296 OA
ENDBRANCH   4   6
ENDBRANCH   1   4
BRANCH   1   9
HETATM    9  C9  UNL     1     -34.542  17.044  -5.644  1.00 20.00     0.216 C 
HETATM   10  C5  UNL     1     -33.736  16.455  -6.793  1.00 20.00     0.042 C 
HETATM   11  C6  UNL     1     -34.430  18.561  -5.596  1.00 20.00     0.042 C 
ENDBRANCH   1   9
TORSDOF 4
ENDMDL
