MODEL 1
REMARK VINA RESULT:      -3.7      0.000      0.000
REMARK  3 active torsions:
REMARK  status: ('A' for Active; 'I' for Inactive)
REMARK    1  A    between atoms: C6_6  and  C8_8 
REMARK    2  A    between atoms: C7_7  and  C8_8 
REMARK    3  A    between atoms: C8_8  and  N10_10 
ROOT
HETATM    1  C1  UNL     1     -35.644  13.927  -5.014  1.00 20.00     0.102 C 
HETATM    2  C8  UNL     1     -35.406  15.360  -4.732  1.00 20.00     0.244 C 
HETATM    3  N9  UNL     1     -35.831  12.803  -5.234  1.00 20.00    -0.194 NA
ENDROOT
BRANCH   2   4
HETATM    4  C6  UNL     1     -34.501  15.505  -3.481  1.00 20.00     0.053 C 
HETATM    5  C2  UNL     1     -35.034  16.453  -2.407  1.00 20.00     0.009 C 
ENDBRANCH   2   4
BRANCH   2   6
HETATM    6  C7  UNL     1     -36.752  16.074  -4.444  1.00 20.00     0.053 C 
HETATM    7  C3  UNL     1     -37.985  15.174  -4.498  1.00 20.00     0.009 C 
ENDBRANCH   2   6
BRANCH   2   8
HETATM    8  N10 UNL     1     -34.762  15.975  -5.877  1.00 20.00     0.103 N 
HETATM    9  C4  UNL     1     -33.302  15.921  -5.747  1.00 20.00     0.311 C 
HETATM   10  C5  UNL     1     -35.199  17.366  -6.039  1.00 20.00     0.311 C 
ENDBRANCH   2   8
TORSDOF 3
ENDMDL
MODEL 2
REMARK VINA RESULT:      -3.7      1.640      3.180
REMARK  3 active torsions:
REMARK  status: ('A' for Active; 'I' for Inactive)
REMARK    1  A    between atoms: C6_6  and  C8_8 
REMARK    2  A    between atoms: C7_7  and  C8_8 
REMARK    3  A    between atoms: C8_8  and  N10_10 
ROOT
HETATM    1  C1  UNL     1     -36.893  14.316  -5.120  1.00 20.00     0.102 C 
HETATM    2  C8  UNL     1     -35.522  14.862  -5.231  1.00 20.00     0.244 C 
HETATM    3  N9  UNL     1     -37.968  13.887  -5.032  1.00 20.00    -0.194 NA
ENDROOT
BRANCH   2   4
HETATM    4  C6  UNL     1     -34.979  14.627  -6.665  1.00 20.00     0.053 C 
HETATM    5  C2  UNL     1     -35.118  13.196  -7.181  1.00 20.00     0.009 C 
ENDBRANCH   2   4
BRANCH   2   6
HETATM    6  C7  UNL     1     -34.581  14.141  -4.231  1.00 20.00     0.053 C 
HETATM    7  C3  UNL     1     -33.103  14.505  -4.359  1.00 20.00     0.009 C 
ENDBRANCH   2   6
BRANCH   2   8
HETATM    8  N10 UNL     1     -35.545  16.284  -4.942  1.00 20.00     0.103 N 
HETATM    9  C4  UNL     1     -36.128  16.539  -3.622  1.00 20.00     0.311 C 
HETATM   10  C5  UNL     1     -36.292  17.014  -5.971  1.00 20.00     0.311 C 
ENDBRANCH   2   8
TORSDOF 3
ENDMDL
MODEL 3
REMARK VINA RESULT:      -3.7      1.189      2.481
REMARK  3 active torsions:
REMARK  status: ('A' for Active; 'I' for Inactive)
REMARK    1  A    between atoms: C6_6  and  C8_8 
REMARK    2  A    between atoms: C7_7  and  C8_8 
REMARK    3  A    between atoms: C8_8  and  N10_10 
ROOT
HETATM    1  C1  UNL     1     -35.343  13.987  -4.942  1.00 20.00     0.102 C 
HETATM    2  C8  UNL     1     -34.725  15.298  -4.645  1.00 20.00     0.244 C 
HETATM    3  N9  UNL     1     -35.827  12.958  -5.173  1.00 20.00    -0.194 NA
ENDROOT
BRANCH   2   4
HETATM    4  C6  UNL     1     -33.190  15.215  -4.853  1.00 20.00     0.053 C 
HETATM    5  C2  UNL     1     -32.519  13.999  -4.215  1.00 20.00     0.009 C 
ENDBRANCH   2   4
BRANCH   2   6
HETATM    6  C7  UNL     1     -34.995  15.691  -3.170  1.00 20.00     0.053 C 
HETATM    7  C3  UNL     1     -34.083  16.784  -2.615  1.00 20.00     0.009 C 
ENDBRANCH   2   6
BRANCH   2   8
HETATM    8  N10 UNL     1     -35.285  16.305  -5.528  1.00 20.00     0.103 N 
HETATM    9  C4  UNL     1     -36.733  16.424  -5.333  1.00 20.00     0.311 C 
HETATM   10  C5  UNL     1     -34.992  15.991  -6.930  1.00 20.00     0.311 C 
ENDBRANCH   2   8
TORSDOF 3
ENDMDL
MODEL 4
REMARK VINA RESULT:      -3.6      1.429      3.174
REMARK  3 active torsions:
REMARK  status: ('A' for Active; 'I' for Inactive)
REMARK    1  A    between atoms: C6_6  and  C8_8 
REMARK    2  A    between atoms: C7_7  and  C8_8 
REMARK    3  A    between atoms: C8_8  and  N10_10 
ROOT
HETATM    1  C1  UNL     1     -35.376  13.847  -5.391  1.00 20.00     0.102 C 
HETATM    2  C8  UNL     1     -34.696  15.155  -5.515  1.00 20.00     0.244 C 
HETATM    3  N9  UNL     1     -35.909  12.821  -5.293  1.00 20.00    -0.194 NA
ENDROOT
BRANCH   2   4
HETATM    4  C6  UNL     1     -33.899  15.208  -6.845  1.00 20.00     0.053 C 
HETATM    5  C2  UNL     1     -34.225  14.093  -7.837  1.00 20.00     0.009 C 
ENDBRANCH   2   4
BRANCH   2   6
HETATM    6  C7  UNL     1     -33.699  15.349  -4.343  1.00 20.00     0.053 C 
HETATM    7  C3  UNL     1     -32.646  14.251  -4.204  1.00 20.00     0.009 C 
ENDBRANCH   2   6
BRANCH   2   8
HETATM    8  N10 UNL     1     -35.686  16.217  -5.495  1.00 20.00     0.103 N 
HETATM    9  C4  UNL     1     -35.079  17.503  -5.853  1.00 20.00     0.311 C 
HETATM   10  C5  UNL     1     -36.323  16.312  -4.178  1.00 20.00     0.311 C 
ENDBRANCH   2   8
TORSDOF 3
ENDMDL
MODEL 5
REMARK VINA RESULT:      -3.6      1.634      2.383
REMARK  3 active torsions:
REMARK  status: ('A' for Active; 'I' for Inactive)
REMARK    1  A    between atoms: C6_6  and  C8_8 
REMARK    2  A    between atoms: C7_7  and  C8_8 
REMARK    3  A    between atoms: C8_8  and  N10_10 
ROOT
HETATM    1  C1  UNL     1     -36.890  14.339  -5.066  1.00 20.00     0.102 C 
HETATM    2  C8  UNL     1     -35.529  14.911  -5.143  1.00 20.00     0.244 C 
HETATM    3  N9  UNL     1     -37.959  13.890  -5.005  1.00 20.00    -0.194 NA
ENDROOT
BRANCH   2   4
HETATM    4  C6  UNL     1     -34.552  14.058  -4.293  1.00 20.00     0.053 C 
HETATM    5  C2  UNL     1     -33.097  14.522  -4.323  1.00 20.00     0.009 C 
ENDBRANCH   2   4
BRANCH   2   6
HETATM    6  C7  UNL     1     -35.528  16.356  -4.579  1.00 20.00     0.053 C 
HETATM    7  C3  UNL     1     -36.077  16.496  -3.161  1.00 20.00     0.009 C 
ENDBRANCH   2   6
BRANCH   2   8
HETATM    8  N10 UNL     1     -35.090  14.927  -6.527  1.00 20.00     0.103 N 
HETATM    9  C4  UNL     1     -35.891  15.866  -7.318  1.00 20.00     0.311 C 
HETATM   10  C5  UNL     1     -35.164  13.585  -7.113  1.00 20.00     0.311 C 
ENDBRANCH   2   8
TORSDOF 3
ENDMDL
MODEL 6
REMARK VINA RESULT:      -3.5      1.410      3.223
REMARK  3 active torsions:
REMARK  status: ('A' for Active; 'I' for Inactive)
REMARK    1  A    between atoms: C6_6  and  C8_8 
REMARK    2  A    between atoms: C7_7  and  C8_8 
REMARK    3  A    between atoms: C8_8  and  N10_10 
ROOT
HETATM    1  C1  UNL     1     -35.677  13.948  -4.940  1.00 20.00     0.102 C 
HETATM    2  C8  UNL     1     -35.400  15.347  -4.549  1.00 20.00     0.244 C 
HETATM    3  N9  UNL     1     -35.894  12.850  -5.247  1.00 20.00    -0.194 NA
ENDROOT
BRANCH   2   4
HETATM    4  C6  UNL     1     -35.377  16.250  -5.810  1.00 20.00     0.053 C 
HETATM    5  C2  UNL     1     -34.971  15.542  -7.102  1.00 20.00     0.009 C 
ENDBRANCH   2   4
BRANCH   2   6
HETATM    6  C7  UNL     1     -34.014  15.441  -3.860  1.00 20.00     0.053 C 
HETATM    7  C3  UNL     1     -32.981  14.427  -4.347  1.00 20.00     0.009 C 
ENDBRANCH   2   6
BRANCH   2   8
HETATM    8  N10 UNL     1     -36.431  15.806  -3.637  1.00 20.00     0.103 N 
HETATM    9  C4  UNL     1     -37.501  16.499  -4.363  1.00 20.00     0.311 C 
HETATM   10  C5  UNL     1     -35.867  16.690  -2.612  1.00 20.00     0.311 C 
ENDBRANCH   2   8
TORSDOF 3
ENDMDL
MODEL 7
REMARK VINA RESULT:      -3.5      1.704      3.068
REMARK  3 active torsions:
REMARK  status: ('A' for Active; 'I' for Inactive)
REMARK    1  A    between atoms: C6_6  and  C8_8 
REMARK    2  A    between atoms: C7_7  and  C8_8 
REMARK    3  A    between atoms: C8_8  and  N10_10 
ROOT
HETATM    1  C1  UNL     1     -33.216  14.379  -4.486  1.00 20.00     0.102 C 
HETATM    2  C8  UNL     1     -34.262  15.301  -4.979  1.00 20.00     0.244 C 
HETATM    3  N9  UNL     1     -32.395  13.656  -4.097  1.00 20.00    -0.194 NA
ENDROOT
BRANCH   2   4
HETATM    4  C6  UNL     1     -33.603  16.495  -5.718  1.00 20.00     0.053 C 
HETATM    5  C2  UNL     1     -34.572  17.583  -6.177  1.00 20.00     0.009 C 
ENDBRANCH   2   4
BRANCH   2   6
HETATM    6  C7  UNL     1     -35.082  15.860  -3.788  1.00 20.00     0.053 C 
HETATM    7  C3  UNL     1     -34.250  16.456  -2.654  1.00 20.00     0.009 C 
ENDBRANCH   2   6
BRANCH   2   8
HETATM    8  N10 UNL     1     -35.143  14.589  -5.887  1.00 20.00     0.103 N 
HETATM    9  C4  UNL     1     -35.905  13.559  -5.174  1.00 20.00     0.311 C 
HETATM   10  C5  UNL     1     -34.382  13.981  -6.983  1.00 20.00     0.311 C 
ENDBRANCH   2   8
TORSDOF 3
ENDMDL
MODEL 8
REMARK VINA RESULT:      -3.5      1.655      3.046
REMARK  3 active torsions:
REMARK  status: ('A' for Active; 'I' for Inactive)
REMARK    1  A    between atoms: C6_6  and  C8_8 
REMARK    2  A    between atoms: C7_7  and  C8_8 
REMARK    3  A    between atoms: C8_8  and  N10_10 
ROOT
HETATM    1  C1  UNL     1     -35.456  13.886  -5.504  1.00 20.00     0.102 C 
HETATM    2  C8  UNL     1     -34.929  15.243  -5.769  1.00 20.00     0.244 C 
HETATM    3  N9  UNL     1     -35.869  12.821  -5.298  1.00 20.00    -0.194 NA
ENDROOT
BRANCH   2   4
HETATM    4  C6  UNL     1     -36.106  16.232  -5.972  1.00 20.00     0.053 C 
HETATM    5  C2  UNL     1     -37.251  15.704  -6.834  1.00 20.00     0.009 C 
ENDBRANCH   2   4
BRANCH   2   6
HETATM    6  C7  UNL     1     -34.072  15.236  -7.061  1.00 20.00     0.053 C 
HETATM    7  C3  UNL     1     -34.195  13.973  -7.912  1.00 20.00     0.009 C 
ENDBRANCH   2   6
BRANCH   2   8
HETATM    8  N10 UNL     1     -34.116  15.672  -4.646  1.00 20.00     0.103 N 
HETATM    9  C4  UNL     1     -33.005  14.741  -4.419  1.00 20.00     0.311 C 
HETATM   10  C5  UNL     1     -34.926  15.791  -3.430  1.00 20.00     0.311 C 
ENDBRANCH   2   8
TORSDOF 3
ENDMDL
MODEL 9
REMARK VINA RESULT:      -3.5      1.691      2.030
REMARK  3 active torsions:
REMARK  status: ('A' for Active; 'I' for Inactive)
REMARK    1  A    between atoms: C6_6  and  C8_8 
REMARK    2  A    between atoms: C7_7  and  C8_8 
REMARK    3  A    between atoms: C8_8  and  N10_10 
ROOT
HETATM    1  C1  UNL     1     -33.571  14.282  -4.617  1.00 20.00     0.102 C 
HETATM    2  C8  UNL     1     -34.842  14.819  -5.150  1.00 20.00     0.244 C 
HETATM    3  N9  UNL     1     -32.574  13.860  -4.197  1.00 20.00    -0.194 NA
ENDROOT
BRANCH   2   4
HETATM    4  C6  UNL     1     -35.224  16.116  -4.388  1.00 20.00     0.053 C 
HETATM    5  C2  UNL     1     -34.877  16.115  -2.901  1.00 20.00     0.009 C 
ENDBRANCH   2   4
BRANCH   2   6
HETATM    6  C7  UNL     1     -35.980  13.786  -4.950  1.00 20.00     0.053 C 
HETATM    7  C3  UNL     1     -37.394  14.341  -5.120  1.00 20.00     0.009 C 
ENDBRANCH   2   6
BRANCH   2   8
HETATM    8  N10 UNL     1     -34.687  15.109  -6.564  1.00 20.00     0.103 N 
HETATM    9  C4  UNL     1     -34.363  13.891  -7.314  1.00 20.00     0.311 C 
HETATM   10  C5  UNL     1     -33.650  16.122  -6.779  1.00 20.00     0.311 C 
ENDBRANCH   2   8
TORSDOF 3
ENDMDL
