MODEL 1
REMARK VINA RESULT:      -5.8      0.000      0.000
REMARK  3 active torsions:
REMARK  status: ('A' for Active; 'I' for Inactive)
REMARK    1  A    between atoms: C1_1  and  C4_4 
REMARK    2  A    between atoms: C1_1  and  C7_7 
REMARK    3  A    between atoms: C7_7  and  C8_8 
ROOT
HETATM    1  C1  UNL     1     -32.218   7.938   2.770  1.00 20.00     0.131 C 
HETATM    2  O9  UNL     1     -31.304   8.450   3.414  1.00 20.00    -0.298 OA
ENDROOT
BRANCH   1   3
HETATM    3  C4  UNL     1     -32.739   8.587   1.514  1.00 20.00     0.055 A 
HETATM    4  C2  UNL     1     -32.571  10.056   1.364  1.00 20.00     0.013 A 
HETATM    5  C3  UNL     1     -31.750   9.112   0.539  1.00 20.00     0.013 A 
ENDBRANCH   1   3
BRANCH   1   6
HETATM    6  C7  UNL     1     -32.916   6.657   3.200  1.00 20.00     0.082 C 
BRANCH   6   7
HETATM    7  C8  UNL     1     -34.127   6.888   4.115  1.00 20.00    -0.016 C 
HETATM    8  C5  UNL     1     -33.694   7.239   5.540  1.00 20.00     0.010 C 
HETATM    9  C6  UNL     1     -35.012   5.639   4.139  1.00 20.00     0.010 C 
ENDBRANCH   6   7
ENDBRANCH   1   6
TORSDOF 3
ENDMDL
MODEL 2
REMARK VINA RESULT:      -5.7      1.674      4.464
REMARK  3 active torsions:
REMARK  status: ('A' for Active; 'I' for Inactive)
REMARK    1  A    between atoms: C1_1  and  C4_4 
REMARK    2  A    between atoms: C1_1  and  C7_7 
REMARK    3  A    between atoms: C7_7  and  C8_8 
ROOT
HETATM    1  C1  UNL     1     -33.758   5.915   3.223  1.00 20.00     0.131 C 
HETATM    2  O9  UNL     1     -33.128   4.980   2.730  1.00 20.00    -0.298 OA
ENDROOT
BRANCH   1   3
HETATM    3  C4  UNL     1     -34.783   5.676   4.300  1.00 20.00     0.055 A 
HETATM    4  C2  UNL     1     -34.518   4.603   5.293  1.00 20.00     0.013 A 
HETATM    5  C3  UNL     1     -34.428   6.044   5.694  1.00 20.00     0.013 A 
ENDBRANCH   1   3
BRANCH   1   6
HETATM    6  C7  UNL     1     -33.591   7.356   2.765  1.00 20.00     0.082 C 
BRANCH   6   7
HETATM    7  C8  UNL     1     -32.137   7.748   2.466  1.00 20.00    -0.016 C 
HETATM    8  C5  UNL     1     -31.425   8.258   3.721  1.00 20.00     0.010 C 
HETATM    9  C6  UNL     1     -32.097   8.823   1.378  1.00 20.00     0.010 C 
ENDBRANCH   6   7
ENDBRANCH   1   6
TORSDOF 3
ENDMDL
MODEL 3
REMARK VINA RESULT:      -5.6      1.573      2.071
REMARK  3 active torsions:
REMARK  status: ('A' for Active; 'I' for Inactive)
REMARK    1  A    between atoms: C1_1  and  C4_4 
REMARK    2  A    between atoms: C1_1  and  C7_7 
REMARK    3  A    between atoms: C7_7  and  C8_8 
ROOT
HETATM    1  C1  UNL     1     -33.407   6.397   2.963  1.00 20.00     0.131 C 
HETATM    2  O9  UNL     1     -32.638   5.490   2.649  1.00 20.00    -0.298 OA
ENDROOT
BRANCH   1   3
HETATM    3  C4  UNL     1     -32.975   7.838   2.894  1.00 20.00     0.055 A 
HETATM    4  C2  UNL     1     -31.596   8.176   3.334  1.00 20.00     0.013 A 
HETATM    5  C3  UNL     1     -31.957   8.213   1.880  1.00 20.00     0.013 A 
ENDBRANCH   1   3
BRANCH   1   6
HETATM    6  C7  UNL     1     -34.816   6.144   3.480  1.00 20.00     0.082 C 
BRANCH   6   7
HETATM    7  C8  UNL     1     -34.873   5.768   4.967  1.00 20.00    -0.016 C 
HETATM    8  C5  UNL     1     -34.025   6.715   5.818  1.00 20.00     0.010 C 
HETATM    9  C6  UNL     1     -34.391   4.329   5.162  1.00 20.00     0.010 C 
ENDBRANCH   6   7
ENDBRANCH   1   6
TORSDOF 3
ENDMDL
MODEL 4
REMARK VINA RESULT:      -5.5      1.135      4.365
REMARK  3 active torsions:
REMARK  status: ('A' for Active; 'I' for Inactive)
REMARK    1  A    between atoms: C1_1  and  C4_4 
REMARK    2  A    between atoms: C1_1  and  C7_7 
REMARK    3  A    between atoms: C7_7  and  C8_8 
ROOT
HETATM    1  C1  UNL     1     -32.902   7.043   3.244  1.00 20.00     0.131 C 
HETATM    2  O9  UNL     1     -32.703   5.930   2.760  1.00 20.00    -0.298 OA
ENDROOT
BRANCH   1   3
HETATM    3  C4  UNL     1     -33.991   7.261   4.261  1.00 20.00     0.055 A 
HETATM    4  C2  UNL     1     -34.380   6.117   5.126  1.00 20.00     0.013 A 
HETATM    5  C3  UNL     1     -33.613   7.271   5.697  1.00 20.00     0.013 A 
ENDBRANCH   1   3
BRANCH   1   6
HETATM    6  C7  UNL     1     -32.113   8.276   2.833  1.00 20.00     0.082 C 
BRANCH   6   7
HETATM    7  C8  UNL     1     -32.457   8.795   1.430  1.00 20.00    -0.016 C 
HETATM    8  C5  UNL     1     -31.302   8.570   0.451  1.00 20.00     0.010 C 
HETATM    9  C6  UNL     1     -32.798  10.285   1.491  1.00 20.00     0.010 C 
ENDBRANCH   6   7
ENDBRANCH   1   6
TORSDOF 3
ENDMDL
MODEL 5
REMARK VINA RESULT:      -5.4      1.200      4.268
REMARK  3 active torsions:
REMARK  status: ('A' for Active; 'I' for Inactive)
REMARK    1  A    between atoms: C1_1  and  C4_4 
REMARK    2  A    between atoms: C1_1  and  C7_7 
REMARK    3  A    between atoms: C7_7  and  C8_8 
ROOT
HETATM    1  C1  UNL     1     -32.493   7.645   2.908  1.00 20.00     0.131 C 
HETATM    2  O9  UNL     1     -32.125   7.820   4.069  1.00 20.00    -0.298 OA
ENDROOT
BRANCH   1   3
HETATM    3  C4  UNL     1     -33.527   6.603   2.572  1.00 20.00     0.055 A 
HETATM    4  C2  UNL     1     -33.213   5.183   2.876  1.00 20.00     0.013 A 
HETATM    5  C3  UNL     1     -34.226   5.926   3.694  1.00 20.00     0.013 A 
ENDBRANCH   1   3
BRANCH   1   6
HETATM    6  C7  UNL     1     -31.915   8.419   1.733  1.00 20.00     0.082 C 
BRANCH   6   7
HETATM    7  C8  UNL     1     -32.907   9.397   1.086  1.00 20.00    -0.016 C 
HETATM    8  C5  UNL     1     -32.943   9.233  -0.435  1.00 20.00     0.010 C 
HETATM    9  C6  UNL     1     -32.530  10.837   1.441  1.00 20.00     0.010 C 
ENDBRANCH   6   7
ENDBRANCH   1   6
TORSDOF 3
ENDMDL
MODEL 6
REMARK VINA RESULT:      -5.3      1.420      4.577
REMARK  3 active torsions:
REMARK  status: ('A' for Active; 'I' for Inactive)
REMARK    1  A    between atoms: C1_1  and  C4_4 
REMARK    2  A    between atoms: C1_1  and  C7_7 
REMARK    3  A    between atoms: C7_7  and  C8_8 
ROOT
HETATM    1  C1  UNL     1     -33.939   6.755   4.232  1.00 20.00     0.131 C 
HETATM    2  O9  UNL     1     -33.749   7.521   5.174  1.00 20.00    -0.298 OA
ENDROOT
BRANCH   1   3
HETATM    3  C4  UNL     1     -34.836   5.554   4.378  1.00 20.00     0.055 A 
HETATM    4  C2  UNL     1     -34.215   4.206   4.313  1.00 20.00     0.013 A 
HETATM    5  C3  UNL     1     -34.720   4.744   5.618  1.00 20.00     0.013 A 
ENDBRANCH   1   3
BRANCH   1   6
HETATM    6  C7  UNL     1     -33.264   6.925   2.879  1.00 20.00     0.082 C 
BRANCH   6   7
HETATM    7  C8  UNL     1     -32.583   8.289   2.692  1.00 20.00    -0.016 C 
HETATM    8  C5  UNL     1     -32.410   8.630   1.211  1.00 20.00     0.010 C 
HETATM    9  C6  UNL     1     -31.219   8.292   3.384  1.00 20.00     0.010 C 
ENDBRANCH   6   7
ENDBRANCH   1   6
TORSDOF 3
ENDMDL
MODEL 7
REMARK VINA RESULT:      -5.1      1.501      2.282
REMARK  3 active torsions:
REMARK  status: ('A' for Active; 'I' for Inactive)
REMARK    1  A    between atoms: C1_1  and  C4_4 
REMARK    2  A    between atoms: C1_1  and  C7_7 
REMARK    3  A    between atoms: C7_7  and  C8_8 
ROOT
HETATM    1  C1  UNL     1     -33.528   7.059   4.121  1.00 20.00     0.131 C 
HETATM    2  O9  UNL     1     -33.392   7.613   5.210  1.00 20.00    -0.298 OA
ENDROOT
BRANCH   1   3
HETATM    3  C4  UNL     1     -32.473   7.180   3.053  1.00 20.00     0.055 A 
HETATM    4  C2  UNL     1     -32.552   8.333   2.119  1.00 20.00     0.013 A 
HETATM    5  C3  UNL     1     -31.486   8.283   3.170  1.00 20.00     0.013 A 
ENDBRANCH   1   3
BRANCH   1   6
HETATM    6  C7  UNL     1     -34.767   6.257   3.750  1.00 20.00     0.082 C 
BRANCH   6   7
HETATM    7  C8  UNL     1     -34.874   4.909   4.476  1.00 20.00    -0.016 C 
HETATM    8  C5  UNL     1     -34.627   5.061   5.979  1.00 20.00     0.010 C 
HETATM    9  C6  UNL     1     -33.871   3.915   3.887  1.00 20.00     0.010 C 
ENDBRANCH   6   7
ENDBRANCH   1   6
TORSDOF 3
ENDMDL
MODEL 8
REMARK VINA RESULT:      -4.1     10.237     11.281
REMARK  3 active torsions:
REMARK  status: ('A' for Active; 'I' for Inactive)
REMARK    1  A    between atoms: C1_1  and  C4_4 
REMARK    2  A    between atoms: C1_1  and  C7_7 
REMARK    3  A    between atoms: C7_7  and  C8_8 
ROOT
HETATM    1  C1  UNL     1     -35.699  13.737  -5.758  1.00 20.00     0.131 C 
HETATM    2  O9  UNL     1     -35.882  12.644  -5.224  1.00 20.00    -0.298 OA
ENDROOT
BRANCH   1   3
HETATM    3  C4  UNL     1     -35.582  13.856  -7.255  1.00 20.00     0.055 A 
HETATM    4  C2  UNL     1     -35.106  15.147  -7.818  1.00 20.00     0.013 A 
HETATM    5  C3  UNL     1     -34.221  13.938  -7.844  1.00 20.00     0.013 A 
ENDBRANCH   1   3
BRANCH   1   6
HETATM    6  C7  UNL     1     -35.535  15.026  -4.968  1.00 20.00     0.082 C 
BRANCH   6   7
HETATM    7  C8  UNL     1     -34.499  14.935  -3.840  1.00 20.00    -0.016 C 
HETATM    8  C5  UNL     1     -34.541  16.172  -2.940  1.00 20.00     0.010 C 
HETATM    9  C6  UNL     1     -33.095  14.774  -4.428  1.00 20.00     0.010 C 
ENDBRANCH   6   7
ENDBRANCH   1   6
TORSDOF 3
ENDMDL
MODEL 9
REMARK VINA RESULT:      -3.9     10.005     11.261
REMARK  3 active torsions:
REMARK  status: ('A' for Active; 'I' for Inactive)
REMARK    1  A    between atoms: C1_1  and  C4_4 
REMARK    2  A    between atoms: C1_1  and  C7_7 
REMARK    3  A    between atoms: C7_7  and  C8_8 
ROOT
HETATM    1  C1  UNL     1     -35.769  13.805  -4.910  1.00 20.00     0.131 C 
HETATM    2  O9  UNL     1     -35.863  12.646  -5.311  1.00 20.00    -0.298 OA
ENDROOT
BRANCH   1   3
HETATM    3  C4  UNL     1     -36.788  14.844  -5.299  1.00 20.00     0.055 A 
HETATM    4  C2  UNL     1     -38.221  14.452  -5.301  1.00 20.00     0.013 A 
HETATM    5  C3  UNL     1     -37.689  15.367  -4.241  1.00 20.00     0.013 A 
ENDBRANCH   1   3
BRANCH   1   6
HETATM    6  C7  UNL     1     -34.616  14.290  -4.043  1.00 20.00     0.082 C 
BRANCH   6   7
HETATM    7  C8  UNL     1     -34.144  15.711  -4.376  1.00 20.00    -0.016 C 
HETATM    8  C5  UNL     1     -33.013  15.698  -5.407  1.00 20.00     0.010 C 
HETATM    9  C6  UNL     1     -33.673  16.419  -3.104  1.00 20.00     0.010 C 
ENDBRANCH   6   7
ENDBRANCH   1   6
TORSDOF 3
ENDMDL
