MODEL 1
REMARK VINA RESULT:      -5.0      0.000      0.000
REMARK  4 active torsions:
REMARK  status: ('A' for Active; 'I' for Inactive)
REMARK    1  A    between atoms: C3_3  and  C7_7 
REMARK    2  A    between atoms: C5_5  and  C6_6 
REMARK    3  A    between atoms: C6_6  and  C7_7 
REMARK    4  A    between atoms: C7_7  and  O8_8 
ROOT
HETATM    1  C7  UNL     1     -32.625   7.339   3.587  1.00 20.00     0.122 C 
ENDROOT
BRANCH   1   2
HETATM    2  C3  UNL     1     -33.900   7.311   4.418  1.00 20.00     0.014 A 
HETATM    3  C1  UNL     1     -34.344   6.035   5.079  1.00 20.00     0.007 A 
HETATM    4  C2  UNL     1     -33.826   7.173   5.913  1.00 20.00     0.007 A 
ENDBRANCH   1   2
BRANCH   1   5
HETATM    5  C6  UNL     1     -32.896   7.818   2.156  1.00 20.00     0.032 C 
BRANCH   5   6
HETATM    6  C5  UNL     1     -31.911   8.904   1.716  1.00 20.00    -0.002 C 
HETATM    7  C4  UNL     1     -32.633  10.090   1.095  1.00 20.00     0.005 C 
ENDBRANCH   5   6
ENDBRANCH   1   5
BRANCH   1   8
HETATM    8  O8  UNL     1     -31.685   8.203   4.221  1.00 20.00    -0.395 OA
HETATM    9  H22 UNL     1     -30.866   8.148   3.704  1.00 20.00     0.210 HD
ENDBRANCH   1   8
TORSDOF 4
ENDMDL
MODEL 2
REMARK VINA RESULT:      -4.9      1.428      4.108
REMARK  4 active torsions:
REMARK  status: ('A' for Active; 'I' for Inactive)
REMARK    1  A    between atoms: C3_3  and  C7_7 
REMARK    2  A    between atoms: C5_5  and  C6_6 
REMARK    3  A    between atoms: C6_6  and  C7_7 
REMARK    4  A    between atoms: C7_7  and  O8_8 
ROOT
HETATM    1  C7  UNL     1     -33.835   7.351   3.993  1.00 20.00     0.122 C 
ENDROOT
BRANCH   1   2
HETATM    2  C3  UNL     1     -32.599   7.264   3.107  1.00 20.00     0.014 A 
HETATM    3  C1  UNL     1     -32.348   8.306   2.053  1.00 20.00     0.007 A 
HETATM    4  C2  UNL     1     -31.476   8.249   3.276  1.00 20.00     0.007 A 
ENDBRANCH   1   2
BRANCH   1   5
HETATM    5  C6  UNL     1     -34.797   6.187   3.733  1.00 20.00     0.032 C 
BRANCH   5   6
HETATM    6  C5  UNL     1     -34.794   5.171   4.877  1.00 20.00    -0.002 C 
HETATM    7  C4  UNL     1     -34.077   3.890   4.481  1.00 20.00     0.005 C 
ENDBRANCH   5   6
ENDBRANCH   1   5
BRANCH   1   8
HETATM    8  O8  UNL     1     -33.420   7.348   5.357  1.00 20.00    -0.395 OA
HETATM    9  H22 UNL     1     -34.146   6.956   5.866  1.00 20.00     0.210 HD
ENDBRANCH   1   8
TORSDOF 4
ENDMDL
MODEL 3
REMARK VINA RESULT:      -4.9      1.229      1.421
REMARK  4 active torsions:
REMARK  status: ('A' for Active; 'I' for Inactive)
REMARK    1  A    between atoms: C3_3  and  C7_7 
REMARK    2  A    between atoms: C5_5  and  C6_6 
REMARK    3  A    between atoms: C6_6  and  C7_7 
REMARK    4  A    between atoms: C7_7  and  O8_8 
ROOT
HETATM    1  C7  UNL     1     -33.164   6.668   3.978  1.00 20.00     0.122 C 
ENDROOT
BRANCH   1   2
HETATM    2  C3  UNL     1     -34.444   5.887   4.245  1.00 20.00     0.014 A 
HETATM    3  C1  UNL     1     -34.399   4.394   4.415  1.00 20.00     0.007 A 
HETATM    4  C2  UNL     1     -34.690   5.277   5.596  1.00 20.00     0.007 A 
ENDBRANCH   1   2
BRANCH   1   5
HETATM    5  C6  UNL     1     -33.219   7.395   2.629  1.00 20.00     0.032 C 
BRANCH   5   6
HETATM    6  C5  UNL     1     -31.972   8.248   2.384  1.00 20.00    -0.002 C 
HETATM    7  C4  UNL     1     -32.114   9.090   1.125  1.00 20.00     0.005 C 
ENDBRANCH   5   6
ENDBRANCH   1   5
BRANCH   1   8
HETATM    8  O8  UNL     1     -32.973   7.607   5.032  1.00 20.00    -0.395 OA
HETATM    9  H22 UNL     1     -32.130   7.382   5.454  1.00 20.00     0.210 HD
ENDBRANCH   1   8
TORSDOF 4
ENDMDL
MODEL 4
REMARK VINA RESULT:      -4.8      1.279      1.538
REMARK  4 active torsions:
REMARK  status: ('A' for Active; 'I' for Inactive)
REMARK    1  A    between atoms: C3_3  and  C7_7 
REMARK    2  A    between atoms: C5_5  and  C6_6 
REMARK    3  A    between atoms: C6_6  and  C7_7 
REMARK    4  A    between atoms: C7_7  and  O8_8 
ROOT
HETATM    1  C7  UNL     1     -32.161   7.493   3.527  1.00 20.00     0.122 C 
ENDROOT
BRANCH   1   2
HETATM    2  C3  UNL     1     -33.396   6.858   2.902  1.00 20.00     0.014 A 
HETATM    3  C1  UNL     1     -33.550   5.363   2.882  1.00 20.00     0.007 A 
HETATM    4  C2  UNL     1     -34.429   6.196   3.771  1.00 20.00     0.007 A 
ENDBRANCH   1   2
BRANCH   1   5
HETATM    5  C6  UNL     1     -31.675   8.698   2.715  1.00 20.00     0.032 C 
BRANCH   5   6
HETATM    6  C5  UNL     1     -32.395   8.813   1.368  1.00 20.00    -0.002 C 
HETATM    7  C4  UNL     1     -32.694  10.263   1.020  1.00 20.00     0.005 C 
ENDBRANCH   5   6
ENDBRANCH   1   5
BRANCH   1   8
HETATM    8  O8  UNL     1     -32.477   7.895   4.858  1.00 20.00    -0.395 OA
HETATM    9  H22 UNL     1     -33.058   8.667   4.782  1.00 20.00     0.210 HD
ENDBRANCH   1   8
TORSDOF 4
ENDMDL
MODEL 5
REMARK VINA RESULT:      -4.6      1.320      1.515
REMARK  4 active torsions:
REMARK  status: ('A' for Active; 'I' for Inactive)
REMARK    1  A    between atoms: C3_3  and  C7_7 
REMARK    2  A    between atoms: C5_5  and  C6_6 
REMARK    3  A    between atoms: C6_6  and  C7_7 
REMARK    4  A    between atoms: C7_7  and  O8_8 
ROOT
HETATM    1  C7  UNL     1     -33.353   7.386   3.335  1.00 20.00     0.122 C 
ENDROOT
BRANCH   1   2
HETATM    2  C3  UNL     1     -33.244   6.724   4.701  1.00 20.00     0.014 A 
HETATM    3  C1  UNL     1     -33.910   7.344   5.898  1.00 20.00     0.007 A 
HETATM    4  C2  UNL     1     -34.443   6.062   5.321  1.00 20.00     0.007 A 
ENDBRANCH   1   2
BRANCH   1   5
HETATM    5  C6  UNL     1     -32.054   8.102   2.950  1.00 20.00     0.032 C 
BRANCH   5   6
HETATM    6  C5  UNL     1     -32.041   8.520   1.478  1.00 20.00    -0.002 C 
HETATM    7  C4  UNL     1     -32.544   9.944   1.300  1.00 20.00     0.005 C 
ENDBRANCH   5   6
ENDBRANCH   1   5
BRANCH   1   8
HETATM    8  O8  UNL     1     -33.666   6.387   2.367  1.00 20.00    -0.395 OA
HETATM    9  H22 UNL     1     -34.317   5.797   2.778  1.00 20.00     0.210 HD
ENDBRANCH   1   8
TORSDOF 4
ENDMDL
MODEL 6
REMARK VINA RESULT:      -4.6      0.839      4.056
REMARK  4 active torsions:
REMARK  status: ('A' for Active; 'I' for Inactive)
REMARK    1  A    between atoms: C3_3  and  C7_7 
REMARK    2  A    between atoms: C5_5  and  C6_6 
REMARK    3  A    between atoms: C6_6  and  C7_7 
REMARK    4  A    between atoms: C7_7  and  O8_8 
ROOT
HETATM    1  C7  UNL     1     -32.594   8.091   2.917  1.00 20.00     0.122 C 
ENDROOT
BRANCH   1   2
HETATM    2  C3  UNL     1     -32.748   8.511   1.462  1.00 20.00     0.014 A 
HETATM    3  C1  UNL     1     -32.775   9.968   1.093  1.00 20.00     0.007 A 
HETATM    4  C2  UNL     1     -31.589   9.122   0.723  1.00 20.00     0.007 A 
ENDBRANCH   1   2
BRANCH   1   5
HETATM    5  C6  UNL     1     -33.087   6.658   3.144  1.00 20.00     0.032 C 
BRANCH   5   6
HETATM    6  C5  UNL     1     -34.208   6.593   4.184  1.00 20.00    -0.002 C 
HETATM    7  C4  UNL     1     -33.763   7.171   5.519  1.00 20.00     0.005 C 
ENDBRANCH   5   6
ENDBRANCH   1   5
BRANCH   1   8
HETATM    8  O8  UNL     1     -31.220   8.199   3.281  1.00 20.00    -0.395 OA
HETATM    9  H22 UNL     1     -31.127   9.032   3.767  1.00 20.00     0.210 HD
ENDBRANCH   1   8
TORSDOF 4
ENDMDL
MODEL 7
REMARK VINA RESULT:      -4.5      1.730      4.042
REMARK  4 active torsions:
REMARK  status: ('A' for Active; 'I' for Inactive)
REMARK    1  A    between atoms: C3_3  and  C7_7 
REMARK    2  A    between atoms: C5_5  and  C6_6 
REMARK    3  A    between atoms: C6_6  and  C7_7 
REMARK    4  A    between atoms: C7_7  and  O8_8 
ROOT
HETATM    1  C7  UNL     1     -33.161   6.218   3.349  1.00 20.00     0.122 C 
ENDROOT
BRANCH   1   2
HETATM    2  C3  UNL     1     -32.930   7.659   2.918  1.00 20.00     0.014 A 
HETATM    3  C1  UNL     1     -31.642   8.355   3.260  1.00 20.00     0.007 A 
HETATM    4  C2  UNL     1     -31.936   7.976   1.836  1.00 20.00     0.007 A 
ENDBRANCH   1   2
BRANCH   1   5
HETATM    5  C6  UNL     1     -34.574   6.017   3.908  1.00 20.00     0.032 C 
BRANCH   5   6
HETATM    6  C5  UNL     1     -34.575   5.861   5.431  1.00 20.00    -0.002 C 
HETATM    7  C4  UNL     1     -33.935   7.060   6.112  1.00 20.00     0.005 C 
ENDBRANCH   5   6
ENDBRANCH   1   5
BRANCH   1   8
HETATM    8  O8  UNL     1     -32.953   5.365   2.226  1.00 20.00    -0.395 OA
HETATM    9  H22 UNL     1     -32.264   5.782   1.686  1.00 20.00     0.210 HD
ENDBRANCH   1   8
TORSDOF 4
ENDMDL
MODEL 8
REMARK VINA RESULT:      -4.1      1.450      2.385
REMARK  4 active torsions:
REMARK  status: ('A' for Active; 'I' for Inactive)
REMARK    1  A    between atoms: C3_3  and  C7_7 
REMARK    2  A    between atoms: C5_5  and  C6_6 
REMARK    3  A    between atoms: C6_6  and  C7_7 
REMARK    4  A    between atoms: C7_7  and  O8_8 
ROOT
HETATM    1  C7  UNL     1     -32.588   7.232   4.033  1.00 20.00     0.122 C 
ENDROOT
BRANCH   1   2
HETATM    2  C3  UNL     1     -33.865   7.338   4.855  1.00 20.00     0.014 A 
HETATM    3  C1  UNL     1     -34.303   6.193   5.725  1.00 20.00     0.007 A 
HETATM    4  C2  UNL     1     -33.795   7.461   6.351  1.00 20.00     0.007 A 
ENDBRANCH   1   2
BRANCH   1   5
HETATM    5  C6  UNL     1     -32.886   7.187   2.530  1.00 20.00     0.032 C 
BRANCH   5   6
HETATM    6  C5  UNL     1     -33.721   5.963   2.145  1.00 20.00    -0.002 C 
HETATM    7  C4  UNL     1     -33.036   4.670   2.562  1.00 20.00     0.005 C 
ENDBRANCH   5   6
ENDBRANCH   1   5
BRANCH   1   8
HETATM    8  O8  UNL     1     -31.757   8.351   4.333  1.00 20.00    -0.395 OA
HETATM    9  H22 UNL     1     -31.287   8.574   3.515  1.00 20.00     0.210 HD
ENDBRANCH   1   8
TORSDOF 4
ENDMDL
MODEL 9
REMARK VINA RESULT:      -3.8      2.887      4.397
REMARK  4 active torsions:
REMARK  status: ('A' for Active; 'I' for Inactive)
REMARK    1  A    between atoms: C3_3  and  C7_7 
REMARK    2  A    between atoms: C5_5  and  C6_6 
REMARK    3  A    between atoms: C6_6  and  C7_7 
REMARK    4  A    between atoms: C7_7  and  O8_8 
ROOT
HETATM    1  C7  UNL     1     -34.654   4.921   4.275  1.00 20.00     0.122 C 
ENDROOT
BRANCH   1   2
HETATM    2  C3  UNL     1     -33.452   5.396   3.470  1.00 20.00     0.014 A 
HETATM    3  C1  UNL     1     -32.989   4.619   2.269  1.00 20.00     0.007 A 
HETATM    4  C2  UNL     1     -33.640   5.961   2.090  1.00 20.00     0.007 A 
ENDBRANCH   1   2
BRANCH   1   5
HETATM    5  C6  UNL     1     -34.410   5.053   5.782  1.00 20.00     0.032 C 
BRANCH   5   6
HETATM    6  C5  UNL     1     -34.632   6.484   6.278  1.00 20.00    -0.002 C 
HETATM    7  C4  UNL     1     -33.467   7.388   5.907  1.00 20.00     0.005 C 
ENDBRANCH   5   6
ENDBRANCH   1   5
BRANCH   1   8
HETATM    8  O8  UNL     1     -35.792   5.690   3.894  1.00 20.00    -0.395 OA
HETATM    9  H22 UNL     1     -36.321   5.816   4.696  1.00 20.00     0.210 HD
ENDBRANCH   1   8
TORSDOF 4
ENDMDL
