MODEL 1
REMARK VINA RESULT:      -4.2      0.000      0.000
REMARK  1 active torsions:
REMARK  status: ('A' for Active; 'I' for Inactive)
REMARK    1  A    between atoms: C2_2  and  C3_3 
ROOT
HETATM    1  C1  UNL     1     -33.928   6.888   5.159  1.00 20.00     0.064 C 
HETATM    2  C2  UNL     1     -34.514   5.987   4.158  1.00 20.00     0.194 C 
HETATM    3  N4  UNL     1     -33.464   7.603   5.947  1.00 20.00    -0.197 NA
ENDROOT
BRANCH   2   4
HETATM    4  C3  UNL     1     -34.779   4.611   4.740  1.00 20.00     0.366 C 
HETATM    5  F5  UNL     1     -34.269   4.522   5.992  1.00 20.00    -0.213 F 
HETATM    6  F6  UNL     1     -34.171   3.658   3.991  1.00 20.00    -0.213 F 
ENDBRANCH   2   4
TORSDOF 1
ENDMDL
MODEL 2
REMARK VINA RESULT:      -4.2      1.744      2.001
REMARK  1 active torsions:
REMARK  status: ('A' for Active; 'I' for Inactive)
REMARK    1  A    between atoms: C2_2  and  C3_3 
ROOT
HETATM    1  C1  UNL     1     -33.672   6.483   3.467  1.00 20.00     0.064 C 
HETATM    2  C2  UNL     1     -34.827   5.786   4.047  1.00 20.00     0.194 C 
HETATM    3  N4  UNL     1     -32.760   7.034   3.007  1.00 20.00    -0.197 NA
ENDROOT
BRANCH   2   4
HETATM    4  C3  UNL     1     -34.730   5.714   5.559  1.00 20.00     0.366 C 
HETATM    5  F5  UNL     1     -33.929   6.701   6.028  1.00 20.00    -0.213 F 
HETATM    6  F6  UNL     1     -34.178   4.536   5.940  1.00 20.00    -0.213 F 
ENDBRANCH   2   4
TORSDOF 1
ENDMDL
MODEL 3
REMARK VINA RESULT:      -4.1      2.422      3.033
REMARK  1 active torsions:
REMARK  status: ('A' for Active; 'I' for Inactive)
REMARK    1  A    between atoms: C2_2  and  C3_3 
ROOT
HETATM    1  C1  UNL     1     -34.301   5.044   4.183  1.00 20.00     0.064 C 
HETATM    2  C2  UNL     1     -34.158   6.490   3.971  1.00 20.00     0.194 C 
HETATM    3  N4  UNL     1     -34.414   3.900   4.348  1.00 20.00    -0.197 NA
ENDROOT
BRANCH   2   4
HETATM    4  C3  UNL     1     -34.040   7.234   5.287  1.00 20.00     0.366 C 
HETATM    5  F5  UNL     1     -32.767   7.657   5.478  1.00 20.00    -0.213 F 
HETATM    6  F6  UNL     1     -34.348   6.413   6.322  1.00 20.00    -0.213 F 
ENDBRANCH   2   4
TORSDOF 1
ENDMDL
MODEL 4
REMARK VINA RESULT:      -4.1      2.092      2.231
REMARK  1 active torsions:
REMARK  status: ('A' for Active; 'I' for Inactive)
REMARK    1  A    between atoms: C2_2  and  C3_3 
ROOT
HETATM    1  C1  UNL     1     -32.867   6.762   2.964  1.00 20.00     0.064 C 
HETATM    2  C2  UNL     1     -33.625   5.505   2.951  1.00 20.00     0.194 C 
HETATM    3  N4  UNL     1     -32.265   7.755   2.972  1.00 20.00    -0.197 NA
ENDROOT
BRANCH   2   4
HETATM    4  C3  UNL     1     -34.588   5.426   4.120  1.00 20.00     0.366 C 
HETATM    5  F5  UNL     1     -34.714   4.145   4.542  1.00 20.00    -0.213 F 
HETATM    6  F6  UNL     1     -35.821   5.846   3.745  1.00 20.00    -0.213 F 
ENDBRANCH   2   4
TORSDOF 1
ENDMDL
MODEL 5
REMARK VINA RESULT:      -4.0      1.782      2.301
REMARK  1 active torsions:
REMARK  status: ('A' for Active; 'I' for Inactive)
REMARK    1  A    between atoms: C2_2  and  C3_3 
ROOT
HETATM    1  C1  UNL     1     -34.127   6.600   5.108  1.00 20.00     0.064 C 
HETATM    2  C2  UNL     1     -34.568   5.738   4.004  1.00 20.00     0.194 C 
HETATM    3  N4  UNL     1     -33.780   7.280   5.982  1.00 20.00    -0.197 NA
ENDROOT
BRANCH   2   4
HETATM    4  C3  UNL     1     -33.597   5.787   2.840  1.00 20.00     0.366 C 
HETATM    5  F5  UNL     1     -33.072   4.559   2.612  1.00 20.00    -0.213 F 
HETATM    6  F6  UNL     1     -32.564   6.618   3.123  1.00 20.00    -0.213 F 
ENDBRANCH   2   4
TORSDOF 1
ENDMDL
MODEL 6
REMARK VINA RESULT:      -3.9      2.852      3.317
REMARK  1 active torsions:
REMARK  status: ('A' for Active; 'I' for Inactive)
REMARK    1  A    between atoms: C2_2  and  C3_3 
ROOT
HETATM    1  C1  UNL     1     -34.401   5.190   4.291  1.00 20.00     0.064 C 
HETATM    2  C2  UNL     1     -34.135   6.602   3.984  1.00 20.00     0.194 C 
HETATM    3  N4  UNL     1     -34.613   4.075   4.535  1.00 20.00    -0.197 NA
ENDROOT
BRANCH   2   4
HETATM    4  C3  UNL     1     -33.055   6.745   2.929  1.00 20.00     0.366 C 
HETATM    5  F5  UNL     1     -32.560   5.530   2.591  1.00 20.00    -0.213 F 
HETATM    6  F6  UNL     1     -32.020   7.477   3.411  1.00 20.00    -0.213 F 
ENDBRANCH   2   4
TORSDOF 1
ENDMDL
MODEL 7
REMARK VINA RESULT:      -3.9      5.777      6.197
REMARK  1 active torsions:
REMARK  status: ('A' for Active; 'I' for Inactive)
REMARK    1  A    between atoms: C2_2  and  C3_3 
ROOT
HETATM    1  C1  UNL     1     -32.258   8.061   2.356  1.00 20.00     0.064 C 
HETATM    2  C2  UNL     1     -31.848   8.907   1.228  1.00 20.00     0.194 C 
HETATM    3  N4  UNL     1     -32.580   7.390   3.247  1.00 20.00    -0.197 NA
ENDROOT
BRANCH   2   4
HETATM    4  C3  UNL     1     -32.908   9.940   0.896  1.00 20.00     0.366 C 
HETATM    5  F5  UNL     1     -33.040  10.066  -0.447  1.00 20.00    -0.213 F 
HETATM    6  F6  UNL     1     -32.549  11.155   1.378  1.00 20.00    -0.213 F 
ENDBRANCH   2   4
TORSDOF 1
ENDMDL
MODEL 8
REMARK VINA RESULT:      -3.7      3.661      4.130
REMARK  1 active torsions:
REMARK  status: ('A' for Active; 'I' for Inactive)
REMARK    1  A    between atoms: C2_2  and  C3_3 
ROOT
HETATM    1  C1  UNL     1     -33.459   7.177   4.444  1.00 20.00     0.064 C 
HETATM    2  C2  UNL     1     -33.028   7.118   3.041  1.00 20.00     0.194 C 
HETATM    3  N4  UNL     1     -33.801   7.221   5.552  1.00 20.00    -0.197 NA
ENDROOT
BRANCH   2   4
HETATM    4  C3  UNL     1     -32.071   8.247   2.707  1.00 20.00     0.366 C 
HETATM    5  F5  UNL     1     -31.584   8.096   1.451  1.00 20.00    -0.213 F 
HETATM    6  F6  UNL     1     -31.011   8.230   3.552  1.00 20.00    -0.213 F 
ENDBRANCH   2   4
TORSDOF 1
ENDMDL
MODEL 9
REMARK VINA RESULT:      -3.7      4.972      5.425
REMARK  1 active torsions:
REMARK  status: ('A' for Active; 'I' for Inactive)
REMARK    1  A    between atoms: C2_2  and  C3_3 
ROOT
HETATM    1  C1  UNL     1     -32.791   7.088   2.934  1.00 20.00     0.064 C 
HETATM    2  C2  UNL     1     -31.915   8.247   2.718  1.00 20.00     0.194 C 
HETATM    3  N4  UNL     1     -33.482   6.171   3.107  1.00 20.00    -0.197 NA
ENDROOT
BRANCH   2   4
HETATM    4  C3  UNL     1     -32.145   8.868   1.354  1.00 20.00     0.366 C 
HETATM    5  F5  UNL     1     -31.087   8.629   0.541  1.00 20.00    -0.213 F 
HETATM    6  F6  UNL     1     -32.268  10.214   1.464  1.00 20.00    -0.213 F 
ENDBRANCH   2   4
TORSDOF 1
ENDMDL
