MODEL 1
REMARK VINA RESULT:      -5.9      0.000      0.000
REMARK  5 active torsions:
REMARK  status: ('A' for Active; 'I' for Inactive)
REMARK    1  A    between atoms: C4_4  and  C6_6 
REMARK    2  A    between atoms: C4_4  and  C7_7 
REMARK    3  A    between atoms: C5_5  and  C8_8 
REMARK    4  A    between atoms: C5_5  and  N9_9 
REMARK    5  A    between atoms: C7_7  and  N9_9 
ROOT
HETATM    1  C3  UNL     1     -31.468   8.106   3.543  1.00 20.00     0.042 C 
HETATM    2  C7  UNL     1     -32.899   7.818   3.094  1.00 20.00     0.217 C 
ENDROOT
BRANCH   2   3
HETATM    3  C4  UNL     1     -33.294   6.373   3.435  1.00 20.00     0.039 C 
BRANCH   3   4
HETATM    4  C6  UNL     1     -34.360   6.231   4.542  1.00 20.00    -0.021 C 
HETATM    5  C1  UNL     1     -33.924   7.018   5.782  1.00 20.00     0.009 C 
HETATM    6  C2  UNL     1     -34.618   4.773   4.923  1.00 20.00     0.009 C 
ENDBRANCH   3   4
ENDBRANCH   2   3
BRANCH   2   7
HETATM    7  N9  UNL     1     -32.992   8.036   1.666  1.00 20.00     0.092 N 
HETATM    8  H28 UNL     1     -33.907   8.433   1.438  1.00 20.00     0.316 HD
BRANCH   7   9
HETATM    9  C5  UNL     1     -31.953   8.950   1.200  1.00 20.00     0.340 C 
BRANCH   9  10
HETATM   10  C8  UNL     1     -32.570  10.185   0.581  1.00 20.00     0.381 C 
HETATM   11  F10 UNL     1     -33.511  10.700   1.412  1.00 20.00    -0.213 F 
HETATM   12  F11 UNL     1     -33.216   9.835  -0.561  1.00 20.00    -0.213 F 
ENDBRANCH   9  10
ENDBRANCH   7   9
ENDBRANCH   2   7
TORSDOF 5
ENDMDL
MODEL 2
REMARK VINA RESULT:      -5.7      1.251      1.812
REMARK  5 active torsions:
REMARK  status: ('A' for Active; 'I' for Inactive)
REMARK    1  A    between atoms: C4_4  and  C6_6 
REMARK    2  A    between atoms: C4_4  and  C7_7 
REMARK    3  A    between atoms: C5_5  and  C8_8 
REMARK    4  A    between atoms: C5_5  and  N9_9 
REMARK    5  A    between atoms: C7_7  and  N9_9 
ROOT
HETATM    1  C3  UNL     1     -32.924   4.905   2.475  1.00 20.00     0.042 C 
HETATM    2  C7  UNL     1     -33.288   6.235   3.132  1.00 20.00     0.217 C 
ENDROOT
BRANCH   2   3
HETATM    3  C4  UNL     1     -34.699   6.173   3.738  1.00 20.00     0.039 C 
BRANCH   3   4
HETATM    4  C6  UNL     1     -34.747   6.150   5.281  1.00 20.00    -0.021 C 
HETATM    5  C1  UNL     1     -33.752   7.170   5.842  1.00 20.00     0.009 C 
HETATM    6  C2  UNL     1     -34.443   4.766   5.855  1.00 20.00     0.009 C 
ENDBRANCH   3   4
ENDBRANCH   2   3
BRANCH   2   7
HETATM    7  N9  UNL     1     -33.221   7.281   2.134  1.00 20.00     0.092 N 
HETATM    8  H28 UNL     1     -34.114   7.778   2.097  1.00 20.00     0.316 HD
BRANCH   7   9
HETATM    9  C5  UNL     1     -32.162   8.238   2.441  1.00 20.00     0.340 C 
BRANCH   9  10
HETATM   10  C8  UNL     1     -31.863   9.104   1.236  1.00 20.00     0.381 C 
HETATM   11  F10 UNL     1     -32.984   9.262   0.489  1.00 20.00    -0.213 F 
HETATM   12  F11 UNL     1     -30.959   8.470   0.446  1.00 20.00    -0.213 F 
ENDBRANCH   9  10
ENDBRANCH   7   9
ENDBRANCH   2   7
TORSDOF 5
ENDMDL
MODEL 3
REMARK VINA RESULT:      -5.5      0.484      1.107
REMARK  5 active torsions:
REMARK  status: ('A' for Active; 'I' for Inactive)
REMARK    1  A    between atoms: C4_4  and  C6_6 
REMARK    2  A    between atoms: C4_4  and  C7_7 
REMARK    3  A    between atoms: C5_5  and  C8_8 
REMARK    4  A    between atoms: C5_5  and  N9_9 
REMARK    5  A    between atoms: C7_7  and  N9_9 
ROOT
HETATM    1  C3  UNL     1     -31.404   8.201   3.486  1.00 20.00     0.042 C 
HETATM    2  C7  UNL     1     -32.802   7.771   3.049  1.00 20.00     0.217 C 
ENDROOT
BRANCH   2   3
HETATM    3  C4  UNL     1     -33.012   6.270   3.301  1.00 20.00     0.039 C 
BRANCH   3   4
HETATM    4  C6  UNL     1     -34.024   5.930   4.416  1.00 20.00    -0.021 C 
HETATM    5  C1  UNL     1     -35.438   5.874   3.829  1.00 20.00     0.009 C 
HETATM    6  C2  UNL     1     -33.986   6.935   5.567  1.00 20.00     0.009 C 
ENDBRANCH   3   4
ENDBRANCH   2   3
BRANCH   2   7
HETATM    7  N9  UNL     1     -32.962   8.066   1.641  1.00 20.00     0.092 N 
HETATM    8  H28 UNL     1     -33.866   8.519   1.485  1.00 20.00     0.316 HD
BRANCH   7   9
HETATM    9  C5  UNL     1     -31.904   8.949   1.161  1.00 20.00     0.340 C 
BRANCH   9  10
HETATM   10  C8  UNL     1     -32.494  10.181   0.509  1.00 20.00     0.381 C 
HETATM   11  F10 UNL     1     -33.185  10.905   1.425  1.00 20.00    -0.213 F 
HETATM   12  F11 UNL     1     -33.392   9.797  -0.435  1.00 20.00    -0.213 F 
ENDBRANCH   9  10
ENDBRANCH   7   9
ENDBRANCH   2   7
TORSDOF 5
ENDMDL
MODEL 4
REMARK VINA RESULT:      -5.5      2.915      5.052
REMARK  5 active torsions:
REMARK  status: ('A' for Active; 'I' for Inactive)
REMARK    1  A    between atoms: C4_4  and  C6_6 
REMARK    2  A    between atoms: C4_4  and  C7_7 
REMARK    3  A    between atoms: C5_5  and  C8_8 
REMARK    4  A    between atoms: C5_5  and  N9_9 
REMARK    5  A    between atoms: C7_7  and  N9_9 
ROOT
HETATM    1  C3  UNL     1     -31.740   8.273   4.010  1.00 20.00     0.042 C 
HETATM    2  C7  UNL     1     -32.088   7.549   2.711  1.00 20.00     0.217 C 
ENDROOT
BRANCH   2   3
HETATM    3  C4  UNL     1     -31.756   8.425   1.495  1.00 20.00     0.039 C 
BRANCH   3   4
HETATM    4  C6  UNL     1     -32.880   9.388   1.055  1.00 20.00    -0.021 C 
HETATM    5  C1  UNL     1     -33.057   9.314  -0.464  1.00 20.00     0.009 C 
HETATM    6  C2  UNL     1     -32.609  10.833   1.472  1.00 20.00     0.009 C 
ENDBRANCH   3   4
ENDBRANCH   2   3
BRANCH   2   7
HETATM    7  N9  UNL     1     -33.500   7.227   2.721  1.00 20.00     0.092 N 
HETATM    8  H28 UNL     1     -33.900   7.407   1.797  1.00 20.00     0.316 HD
BRANCH   7   9
HETATM    9  C5  UNL     1     -33.722   5.827   3.067  1.00 20.00     0.340 C 
BRANCH   9  10
HETATM   10  C8  UNL     1     -34.830   5.700   4.090  1.00 20.00     0.381 C 
HETATM   11  F10 UNL     1     -34.546   6.463   5.176  1.00 20.00    -0.213 F 
HETATM   12  F11 UNL     1     -34.887   4.416   4.527  1.00 20.00    -0.213 F 
ENDBRANCH   9  10
ENDBRANCH   7   9
ENDBRANCH   2   7
TORSDOF 5
ENDMDL
MODEL 5
REMARK VINA RESULT:      -5.4      3.426      5.443
REMARK  5 active torsions:
REMARK  status: ('A' for Active; 'I' for Inactive)
REMARK    1  A    between atoms: C4_4  and  C6_6 
REMARK    2  A    between atoms: C4_4  and  C7_7 
REMARK    3  A    between atoms: C5_5  and  C8_8 
REMARK    4  A    between atoms: C5_5  and  N9_9 
REMARK    5  A    between atoms: C7_7  and  N9_9 
ROOT
HETATM    1  C3  UNL     1     -32.807   5.538   2.547  1.00 20.00     0.042 C 
HETATM    2  C7  UNL     1     -33.509   6.886   2.700  1.00 20.00     0.217 C 
ENDROOT
BRANCH   2   3
HETATM    3  C4  UNL     1     -32.501   8.039   2.588  1.00 20.00     0.039 C 
BRANCH   3   4
HETATM    4  C6  UNL     1     -32.539   8.811   1.251  1.00 20.00    -0.021 C 
HETATM    5  C1  UNL     1     -31.191   8.671   0.537  1.00 20.00     0.009 C 
HETATM    6  C2  UNL     1     -32.869  10.292   1.440  1.00 20.00     0.009 C 
ENDBRANCH   3   4
ENDBRANCH   2   3
BRANCH   2   7
HETATM    7  N9  UNL     1     -34.167   6.924   3.989  1.00 20.00     0.092 N 
HETATM    8  H28 UNL     1     -34.693   7.797   4.080  1.00 20.00     0.316 HD
BRANCH   7   9
HETATM    9  C5  UNL     1     -35.087   5.802   4.149  1.00 20.00     0.340 C 
BRANCH   9  10
HETATM   10  C8  UNL     1     -34.799   5.057   5.435  1.00 20.00     0.381 C 
HETATM   11  F10 UNL     1     -34.028   5.821   6.249  1.00 20.00    -0.213 F 
HETATM   12  F11 UNL     1     -34.075   3.944   5.152  1.00 20.00    -0.213 F 
ENDBRANCH   9  10
ENDBRANCH   7   9
ENDBRANCH   2   7
TORSDOF 5
ENDMDL
MODEL 6
REMARK VINA RESULT:      -5.2      1.813      2.467
REMARK  5 active torsions:
REMARK  status: ('A' for Active; 'I' for Inactive)
REMARK    1  A    between atoms: C4_4  and  C6_6 
REMARK    2  A    between atoms: C4_4  and  C7_7 
REMARK    3  A    between atoms: C5_5  and  C8_8 
REMARK    4  A    between atoms: C5_5  and  N9_9 
REMARK    5  A    between atoms: C7_7  and  N9_9 
ROOT
HETATM    1  C3  UNL     1     -32.950   4.653   2.568  1.00 20.00     0.042 C 
HETATM    2  C7  UNL     1     -33.312   6.046   3.080  1.00 20.00     0.217 C 
ENDROOT
BRANCH   2   3
HETATM    3  C4  UNL     1     -34.726   6.054   3.679  1.00 20.00     0.039 C 
BRANCH   3   4
HETATM    4  C6  UNL     1     -34.782   6.077   5.222  1.00 20.00    -0.021 C 
HETATM    5  C1  UNL     1     -33.787   7.112   5.758  1.00 20.00     0.009 C 
HETATM    6  C2  UNL     1     -34.483   4.711   5.839  1.00 20.00     0.009 C 
ENDBRANCH   3   4
ENDBRANCH   2   3
BRANCH   2   7
HETATM    7  N9  UNL     1     -33.233   6.982   1.978  1.00 20.00     0.092 N 
HETATM    8  H28 UNL     1     -34.089   6.930   1.421  1.00 20.00     0.316 HD
BRANCH   7   9
HETATM    9  C5  UNL     1     -33.066   8.351   2.458  1.00 20.00     0.340 C 
BRANCH   9  10
HETATM   10  C8  UNL     1     -31.624   8.791   2.320  1.00 20.00     0.381 C 
HETATM   11  F10 UNL     1     -31.107   8.326   1.156  1.00 20.00    -0.213 F 
HETATM   12  F11 UNL     1     -30.892   8.230   3.317  1.00 20.00    -0.213 F 
ENDBRANCH   9  10
ENDBRANCH   7   9
ENDBRANCH   2   7
TORSDOF 5
ENDMDL
MODEL 7
REMARK VINA RESULT:      -5.1      3.140      5.220
REMARK  5 active torsions:
REMARK  status: ('A' for Active; 'I' for Inactive)
REMARK    1  A    between atoms: C4_4  and  C6_6 
REMARK    2  A    between atoms: C4_4  and  C7_7 
REMARK    3  A    between atoms: C5_5  and  C8_8 
REMARK    4  A    between atoms: C5_5  and  N9_9 
REMARK    5  A    between atoms: C7_7  and  N9_9 
ROOT
HETATM    1  C3  UNL     1     -32.834   6.039   2.202  1.00 20.00     0.042 C 
HETATM    2  C7  UNL     1     -33.110   7.531   2.373  1.00 20.00     0.217 C 
ENDROOT
BRANCH   2   3
HETATM    3  C4  UNL     1     -31.871   8.359   2.002  1.00 20.00     0.039 C 
BRANCH   3   4
HETATM    4  C6  UNL     1     -32.109   9.446   0.932  1.00 20.00    -0.021 C 
HETATM    5  C1  UNL     1     -32.796  10.657   1.571  1.00 20.00     0.009 C 
HETATM    6  C2  UNL     1     -32.948   8.939  -0.241  1.00 20.00     0.009 C 
ENDBRANCH   3   4
ENDBRANCH   2   3
BRANCH   2   7
HETATM    7  N9  UNL     1     -33.481   7.782   3.750  1.00 20.00     0.092 N 
HETATM    8  H28 UNL     1     -33.933   8.697   3.824  1.00 20.00     0.316 HD
BRANCH   7   9
HETATM    9  C5  UNL     1     -34.401   6.762   4.245  1.00 20.00     0.340 C 
BRANCH   9  10
HETATM   10  C8  UNL     1     -34.039   6.360   5.659  1.00 20.00     0.381 C 
HETATM   11  F10 UNL     1     -34.888   5.399   6.100  1.00 20.00    -0.213 F 
HETATM   12  F11 UNL     1     -34.206   7.428   6.481  1.00 20.00    -0.213 F 
ENDBRANCH   9  10
ENDBRANCH   7   9
ENDBRANCH   2   7
TORSDOF 5
ENDMDL
MODEL 8
REMARK VINA RESULT:      -4.2     10.264     11.236
REMARK  5 active torsions:
REMARK  status: ('A' for Active; 'I' for Inactive)
REMARK    1  A    between atoms: C4_4  and  C6_6 
REMARK    2  A    between atoms: C4_4  and  C7_7 
REMARK    3  A    between atoms: C5_5  and  C8_8 
REMARK    4  A    between atoms: C5_5  and  N9_9 
REMARK    5  A    between atoms: C7_7  and  N9_9 
ROOT
HETATM    1  C3  UNL     1     -34.401  14.100  -4.196  1.00 20.00     0.042 C 
HETATM    2  C7  UNL     1     -33.281  15.137  -4.240  1.00 20.00     0.217 C 
ENDROOT
BRANCH   2   3
HETATM    3  C4  UNL     1     -33.792  16.509  -3.777  1.00 20.00     0.039 C 
BRANCH   3   4
HETATM    4  C6  UNL     1     -33.900  16.683  -2.246  1.00 20.00    -0.021 C 
HETATM    5  C1  UNL     1     -35.370  16.850  -1.850  1.00 20.00     0.009 C 
HETATM    6  C2  UNL     1     -33.091  17.875  -1.734  1.00 20.00     0.009 C 
ENDBRANCH   3   4
ENDBRANCH   2   3
BRANCH   2   7
HETATM    7  N9  UNL     1     -32.780  15.224  -5.596  1.00 20.00     0.092 N 
HETATM    8  H28 UNL     1     -32.896  14.322  -6.064  1.00 20.00     0.316 HD
BRANCH   7   9
HETATM    9  C5  UNL     1     -33.492  16.246  -6.358  1.00 20.00     0.340 C 
BRANCH   9  10
HETATM   10  C8  UNL     1     -34.178  15.631  -7.560  1.00 20.00     0.381 C 
HETATM   11  F10 UNL     1     -35.470  15.346  -7.260  1.00 20.00    -0.213 F 
HETATM   12  F11 UNL     1     -33.581  14.447  -7.854  1.00 20.00    -0.213 F 
ENDBRANCH   9  10
ENDBRANCH   7   9
ENDBRANCH   2   7
TORSDOF 5
ENDMDL
MODEL 9
REMARK VINA RESULT:      -4.2      9.906     10.864
REMARK  5 active torsions:
REMARK  status: ('A' for Active; 'I' for Inactive)
REMARK    1  A    between atoms: C4_4  and  C6_6 
REMARK    2  A    between atoms: C4_4  and  C7_7 
REMARK    3  A    between atoms: C5_5  and  C8_8 
REMARK    4  A    between atoms: C5_5  and  N9_9 
REMARK    5  A    between atoms: C7_7  and  N9_9 
ROOT
HETATM    1  C3  UNL     1     -32.707  14.230  -4.179  1.00 20.00     0.042 C 
HETATM    2  C7  UNL     1     -32.985  15.375  -5.151  1.00 20.00     0.217 C 
ENDROOT
BRANCH   2   3
HETATM    3  C4  UNL     1     -33.874  16.442  -4.495  1.00 20.00     0.039 C 
BRANCH   3   4
HETATM    4  C6  UNL     1     -34.138  16.234  -2.987  1.00 20.00    -0.021 C 
HETATM    5  C1  UNL     1     -35.644  16.293  -2.715  1.00 20.00     0.009 C 
HETATM    6  C2  UNL     1     -33.418  17.267  -2.120  1.00 20.00     0.009 C 
ENDBRANCH   3   4
ENDBRANCH   2   3
BRANCH   2   7
HETATM    7  N9  UNL     1     -33.638  14.839  -6.327  1.00 20.00     0.092 N 
HETATM    8  H28 UNL     1     -33.418  13.844  -6.419  1.00 20.00     0.316 HD
BRANCH   7   9
HETATM    9  C5  UNL     1     -35.087  14.995  -6.246  1.00 20.00     0.340 C 
BRANCH   9  10
HETATM   10  C8  UNL     1     -35.766  13.643  -6.207  1.00 20.00     0.381 C 
HETATM   11  F10 UNL     1     -35.770  13.162  -4.938  1.00 20.00    -0.213 F 
HETATM   12  F11 UNL     1     -35.047  12.762  -6.950  1.00 20.00    -0.213 F 
ENDBRANCH   9  10
ENDBRANCH   7   9
ENDBRANCH   2   7
TORSDOF 5
ENDMDL
