MODEL 1
REMARK VINA RESULT:      -4.4      0.000      0.000
REMARK  1 active torsions:
REMARK  status: ('A' for Active; 'I' for Inactive)
REMARK    1  A    between atoms: C3_3  and  C6_6 
ROOT
HETATM    1  C1  UNL     1     -32.938   6.412   2.132  1.00 20.00     0.019 A 
HETATM    2  C2  UNL     1     -33.636   5.483   2.957  1.00 20.00     0.028 A 
HETATM    3  C3  UNL     1     -32.640   7.578   2.802  1.00 20.00     0.015 A 
HETATM    4  C4  UNL     1     -33.842   5.974   4.228  1.00 20.00     0.051 A 
HETATM    5  S8  UNL     1     -33.199   7.549   4.421  1.00 20.00    -0.085 SA
HETATM    6 BR9  UNL     1     -34.731   5.026   5.614  1.00 20.00    -0.043 Br
ENDROOT
BRANCH   3   7
HETATM    7  C6  UNL     1     -31.895   8.763   2.182  1.00 20.00     0.185 A 
HETATM    8  C5  UNL     1     -32.632   9.646   1.197  1.00 20.00     0.206 A 
HETATM    9  O7  UNL     1     -31.546   8.816   0.782  1.00 20.00    -0.376 OA
ENDBRANCH   3   7
TORSDOF 1
ENDMDL
MODEL 2
REMARK VINA RESULT:      -4.2      1.124      1.573
REMARK  1 active torsions:
REMARK  status: ('A' for Active; 'I' for Inactive)
REMARK    1  A    between atoms: C3_3  and  C6_6 
ROOT
HETATM    1  C1  UNL     1     -32.520   8.212   4.349  1.00 20.00     0.019 A 
HETATM    2  C2  UNL     1     -33.242   7.305   5.177  1.00 20.00     0.028 A 
HETATM    3  C3  UNL     1     -32.528   7.825   3.027  1.00 20.00     0.015 A 
HETATM    4  C4  UNL     1     -33.777   6.260   4.456  1.00 20.00     0.051 A 
HETATM    5  S8  UNL     1     -33.407   6.373   2.788  1.00 20.00    -0.085 SA
HETATM    6 BR9  UNL     1     -34.809   4.853   5.208  1.00 20.00    -0.043 Br
ENDROOT
BRANCH   3   7
HETATM    7  C6  UNL     1     -31.839   8.596   1.898  1.00 20.00     0.185 A 
HETATM    8  C5  UNL     1     -32.503   9.851   1.369  1.00 20.00     0.206 A 
HETATM    9  O7  UNL     1     -32.386   8.676   0.564  1.00 20.00    -0.376 OA
ENDBRANCH   3   7
TORSDOF 1
ENDMDL
MODEL 3
REMARK VINA RESULT:      -4.0      3.463      4.714
REMARK  1 active torsions:
REMARK  status: ('A' for Active; 'I' for Inactive)
REMARK    1  A    between atoms: C3_3  and  C6_6 
ROOT
HETATM    1  C1  UNL     1     -33.166   7.351   4.615  1.00 20.00     0.019 A 
HETATM    2  C2  UNL     1     -32.331   8.156   3.788  1.00 20.00     0.028 A 
HETATM    3  C3  UNL     1     -33.924   6.466   3.881  1.00 20.00     0.015 A 
HETATM    4  C4  UNL     1     -32.482   7.855   2.452  1.00 20.00     0.051 A 
HETATM    5  S8  UNL     1     -33.627   6.608   2.200  1.00 20.00    -0.085 SA
HETATM    6 BR9  UNL     1     -31.536   8.712   1.045  1.00 20.00    -0.043 Br
ENDROOT
BRANCH   3   7
HETATM    7  C6  UNL     1     -34.915   5.469   4.488  1.00 20.00     0.185 A 
HETATM    8  C5  UNL     1     -34.510   4.715   5.737  1.00 20.00     0.206 A 
HETATM    9  O7  UNL     1     -34.683   4.044   4.487  1.00 20.00    -0.376 OA
ENDBRANCH   3   7
TORSDOF 1
ENDMDL
MODEL 4
REMARK VINA RESULT:      -4.0     11.328     11.877
REMARK  1 active torsions:
REMARK  status: ('A' for Active; 'I' for Inactive)
REMARK    1  A    between atoms: C3_3  and  C6_6 
ROOT
HETATM    1  C1  UNL     1     -33.443  15.859  -6.164  1.00 20.00     0.019 A 
HETATM    2  C2  UNL     1     -33.387  16.678  -4.998  1.00 20.00     0.028 A 
HETATM    3  C3  UNL     1     -34.099  14.671  -5.932  1.00 20.00     0.015 A 
HETATM    4  C4  UNL     1     -34.003  16.083  -3.919  1.00 20.00     0.051 A 
HETATM    5  S8  UNL     1     -34.645  14.545  -4.313  1.00 20.00    -0.085 SA
HETATM    6 BR9  UNL     1     -34.137  16.865  -2.194  1.00 20.00    -0.043 Br
ENDROOT
BRANCH   3   7
HETATM    7  C6  UNL     1     -34.321  13.587  -6.990  1.00 20.00     0.185 A 
HETATM    8  C5  UNL     1     -35.706  13.422  -7.579  1.00 20.00     0.206 A 
HETATM    9  O7  UNL     1     -35.128  12.416  -6.746  1.00 20.00    -0.376 OA
ENDBRANCH   3   7
TORSDOF 1
ENDMDL
MODEL 5
REMARK VINA RESULT:      -3.8     11.080     11.517
REMARK  1 active torsions:
REMARK  status: ('A' for Active; 'I' for Inactive)
REMARK    1  A    between atoms: C3_3  and  C6_6 
ROOT
HETATM    1  C1  UNL     1     -34.254  14.432  -4.700  1.00 20.00     0.019 A 
HETATM    2  C2  UNL     1     -33.447  15.293  -3.901  1.00 20.00     0.028 A 
HETATM    3  C3  UNL     1     -35.598  14.686  -4.540  1.00 20.00     0.015 A 
HETATM    4  C4  UNL     1     -34.205  16.174  -3.162  1.00 20.00     0.051 A 
HETATM    5  S8  UNL     1     -35.883  15.961  -3.431  1.00 20.00    -0.085 SA
HETATM    6 BR9  UNL     1     -33.489  17.479  -1.982  1.00 20.00    -0.043 Br
ENDROOT
BRANCH   3   7
HETATM    7  C6  UNL     1     -36.712  13.927  -5.266  1.00 20.00     0.185 A 
HETATM    8  C5  UNL     1     -37.725  14.719  -6.067  1.00 20.00     0.206 A 
HETATM    9  O7  UNL     1     -38.099  14.023  -4.877  1.00 20.00    -0.376 OA
ENDBRANCH   3   7
TORSDOF 1
ENDMDL
MODEL 6
REMARK VINA RESULT:      -3.8     11.266     11.929
REMARK  1 active torsions:
REMARK  status: ('A' for Active; 'I' for Inactive)
REMARK    1  A    between atoms: C3_3  and  C6_6 
ROOT
HETATM    1  C1  UNL     1     -34.679  14.362  -4.354  1.00 20.00     0.019 A 
HETATM    2  C2  UNL     1     -34.485  15.468  -3.477  1.00 20.00     0.028 A 
HETATM    3  C3  UNL     1     -34.239  14.630  -5.631  1.00 20.00     0.015 A 
HETATM    4  C4  UNL     1     -33.903  16.540  -4.118  1.00 20.00     0.051 A 
HETATM    5  S8  UNL     1     -33.595  16.211  -5.769  1.00 20.00    -0.085 SA
HETATM    6 BR9  UNL     1     -33.483  18.192  -3.280  1.00 20.00    -0.043 Br
ENDROOT
BRANCH   3   7
HETATM    7  C6  UNL     1     -34.312  13.638  -6.795  1.00 20.00     0.185 A 
HETATM    8  C5  UNL     1     -35.618  13.502  -7.549  1.00 20.00     0.206 A 
HETATM    9  O7  UNL     1     -35.111  12.436  -6.743  1.00 20.00    -0.376 OA
ENDBRANCH   3   7
TORSDOF 1
ENDMDL
MODEL 7
REMARK VINA RESULT:      -3.6     11.037     11.330
REMARK  1 active torsions:
REMARK  status: ('A' for Active; 'I' for Inactive)
REMARK    1  A    between atoms: C3_3  and  C6_6 
ROOT
HETATM    1  C1  UNL     1     -33.649  15.773  -3.878  1.00 20.00     0.019 A 
HETATM    2  C2  UNL     1     -33.741  16.468  -2.637  1.00 20.00     0.028 A 
HETATM    3  C3  UNL     1     -34.889  15.501  -4.412  1.00 20.00     0.015 A 
HETATM    4  C4  UNL     1     -35.049  16.701  -2.271  1.00 20.00     0.051 A 
HETATM    5  S8  UNL     1     -36.158  16.083  -3.419  1.00 20.00    -0.085 SA
HETATM    6 BR9  UNL     1     -35.575  17.604  -0.685  1.00 20.00    -0.043 Br
ENDROOT
BRANCH   3   7
HETATM    7  C6  UNL     1     -35.115  14.767  -5.737  1.00 20.00     0.185 A 
HETATM    8  C5  UNL     1     -35.796  13.415  -5.709  1.00 20.00     0.206 A 
HETATM    9  O7  UNL     1     -34.422  13.548  -6.079  1.00 20.00    -0.376 OA
ENDBRANCH   3   7
TORSDOF 1
ENDMDL
MODEL 8
REMARK VINA RESULT:      -3.5     11.029     11.384
REMARK  1 active torsions:
REMARK  status: ('A' for Active; 'I' for Inactive)
REMARK    1  A    between atoms: C3_3  and  C6_6 
ROOT
HETATM    1  C1  UNL     1     -35.516  16.638  -1.937  1.00 20.00     0.019 A 
HETATM    2  C2  UNL     1     -35.344  17.261  -0.666  1.00 20.00     0.028 A 
HETATM    3  C3  UNL     1     -34.406  16.783  -2.739  1.00 20.00     0.015 A 
HETATM    4  C4  UNL     1     -34.108  17.858  -0.546  1.00 20.00     0.051 A 
HETATM    5  S8  UNL     1     -33.162  17.668  -1.961  1.00 20.00    -0.085 SA
HETATM    6 BR9  UNL     1     -33.509  18.784   1.000  1.00 20.00    -0.043 Br
ENDROOT
BRANCH   3   7
HETATM    7  C6  UNL     1     -34.289  16.222  -4.159  1.00 20.00     0.185 A 
HETATM    8  C5  UNL     1     -33.673  14.851  -4.347  1.00 20.00     0.206 A 
HETATM    9  O7  UNL     1     -33.018  16.031  -4.816  1.00 20.00    -0.376 OA
ENDBRANCH   3   7
TORSDOF 1
ENDMDL
MODEL 9
REMARK VINA RESULT:      -3.4     11.154     11.514
REMARK  1 active torsions:
REMARK  status: ('A' for Active; 'I' for Inactive)
REMARK    1  A    between atoms: C3_3  and  C6_6 
ROOT
HETATM    1  C1  UNL     1     -36.191  15.739  -3.322  1.00 20.00     0.019 A 
HETATM    2  C2  UNL     1     -35.567  16.721  -2.501  1.00 20.00     0.028 A 
HETATM    3  C3  UNL     1     -35.280  15.052  -4.092  1.00 20.00     0.015 A 
HETATM    4  C4  UNL     1     -34.200  16.748  -2.675  1.00 20.00     0.051 A 
HETATM    5  S8  UNL     1     -33.676  15.592  -3.824  1.00 20.00    -0.085 SA
HETATM    6 BR9  UNL     1     -33.022  17.919  -1.753  1.00 20.00    -0.043 Br
ENDROOT
BRANCH   3   7
HETATM    7  C6  UNL     1     -35.647  13.935  -5.073  1.00 20.00     0.185 A 
HETATM    8  C5  UNL     1     -36.373  14.303  -6.350  1.00 20.00     0.206 A 
HETATM    9  O7  UNL     1     -37.012  13.539  -5.325  1.00 20.00    -0.376 OA
ENDBRANCH   3   7
TORSDOF 1
ENDMDL
