MODEL 1
REMARK VINA RESULT:      -6.3      0.000      0.000
REMARK  2 active torsions:
REMARK  status: ('A' for Active; 'I' for Inactive)
REMARK    1  A    between atoms: C7_7  and  C10_10 
REMARK    2  A    between atoms: C8_8  and  C9_9 
ROOT
HETATM    1  C1  UNL     1     -33.067   7.376   1.838  1.00 20.00    -0.019 A 
HETATM    2  C3  UNL     1     -32.175   8.362   1.687  1.00 20.00    -0.087 A 
HETATM    3  C5  UNL     1     -31.427   8.673   2.951  1.00 20.00     0.039 A 
HETATM    4  C8  UNL     1     -33.084   6.839   3.230  1.00 20.00     0.021 A 
HETATM    5  C10 UNL     1     -32.020   7.705   3.980  1.00 20.00     0.005 A 
HETATM    6  C11 UNL     1     -31.897   9.119   0.438  1.00 20.00     0.043 C 
ENDROOT
BRANCH   4   7
HETATM    7  C9  UNL     1     -34.366   7.057   4.077  1.00 20.00     0.022 C 
HETATM    8  C4  UNL     1     -34.171   6.516   5.480  1.00 20.00    -0.082 C 
HETATM    9  C2  UNL     1     -34.096   5.180   5.387  1.00 20.00    -0.019 C 
HETATM   10  C12 UNL     1     -34.054   7.380   6.677  1.00 20.00     0.043 C 
HETATM   11  C7  UNL     1     -34.245   4.822   3.926  1.00 20.00     0.014 C 
HETATM   12  C6  UNL     1     -35.247   5.921   3.532  1.00 20.00     0.018 C 
ENDBRANCH   4   7
TORSDOF 2
ENDMDL
MODEL 2
REMARK VINA RESULT:      -5.2     11.108     12.045
REMARK  2 active torsions:
REMARK  status: ('A' for Active; 'I' for Inactive)
REMARK    1  A    between atoms: C7_7  and  C10_10 
REMARK    2  A    between atoms: C8_8  and  C9_9 
ROOT
HETATM    1  C1  UNL     1     -33.089  17.503  -1.890  1.00 20.00    -0.019 A 
HETATM    2  C3  UNL     1     -33.485  18.212  -0.825  1.00 20.00    -0.087 A 
HETATM    3  C5  UNL     1     -34.867  17.851  -0.363  1.00 20.00     0.039 A 
HETATM    4  C8  UNL     1     -34.130  16.534  -2.341  1.00 20.00     0.021 A 
HETATM    5  C10 UNL     1     -35.319  16.772  -1.353  1.00 20.00     0.005 A 
HETATM    6  C11 UNL     1     -32.701  19.260  -0.121  1.00 20.00     0.043 C 
ENDROOT
BRANCH   4   7
HETATM    7  C9  UNL     1     -34.785  16.765  -3.730  1.00 20.00     0.022 C 
HETATM    8  C4  UNL     1     -35.623  15.566  -4.125  1.00 20.00    -0.082 C 
HETATM    9  C2  UNL     1     -34.782  14.546  -4.354  1.00 20.00    -0.019 C 
HETATM   10  C12 UNL     1     -37.103  15.590  -4.181  1.00 20.00     0.043 C 
HETATM   11  C7  UNL     1     -33.380  15.060  -4.120  1.00 20.00     0.014 C 
HETATM   12  C6  UNL     1     -33.579  16.492  -4.645  1.00 20.00     0.018 C 
ENDBRANCH   4   7
TORSDOF 2
ENDMDL
MODEL 3
REMARK VINA RESULT:      -4.8     10.959     12.038
REMARK  2 active torsions:
REMARK  status: ('A' for Active; 'I' for Inactive)
REMARK    1  A    between atoms: C7_7  and  C10_10 
REMARK    2  A    between atoms: C8_8  and  C9_9 
ROOT
HETATM    1  C1  UNL     1     -35.884  16.903  -2.018  1.00 20.00    -0.019 A 
HETATM    2  C3  UNL     1     -35.238  17.348  -0.934  1.00 20.00    -0.087 A 
HETATM    3  C5  UNL     1     -33.751  17.420  -1.126  1.00 20.00     0.039 A 
HETATM    4  C8  UNL     1     -34.952  16.594  -3.142  1.00 20.00     0.021 A 
HETATM    5  C10 UNL     1     -33.537  16.911  -2.555  1.00 20.00     0.005 A 
HETATM    6  C11 UNL     1     -35.854  17.746   0.360  1.00 20.00     0.043 C 
ENDROOT
BRANCH   4   7
HETATM    7  C9  UNL     1     -34.817  15.114  -3.588  1.00 20.00     0.022 C 
HETATM    8  C4  UNL     1     -33.774  14.983  -4.680  1.00 20.00    -0.082 C 
HETATM    9  C2  UNL     1     -34.263  15.584  -5.775  1.00 20.00    -0.019 C 
HETATM   10  C12 UNL     1     -32.460  14.331  -4.477  1.00 20.00     0.043 C 
HETATM   11  C7  UNL     1     -35.634  16.112  -5.423  1.00 20.00     0.014 C 
HETATM   12  C6  UNL     1     -36.068  14.983  -4.473  1.00 20.00     0.018 C 
ENDBRANCH   4   7
TORSDOF 2
ENDMDL
MODEL 4
REMARK VINA RESULT:      -4.7     10.948     12.706
REMARK  2 active torsions:
REMARK  status: ('A' for Active; 'I' for Inactive)
REMARK    1  A    between atoms: C7_7  and  C10_10 
REMARK    2  A    between atoms: C8_8  and  C9_9 
ROOT
HETATM    1  C1  UNL     1     -33.549  16.654  -2.629  1.00 20.00    -0.019 A 
HETATM    2  C3  UNL     1     -33.190  17.899  -2.292  1.00 20.00    -0.087 A 
HETATM    3  C5  UNL     1     -33.358  18.881  -3.414  1.00 20.00     0.039 A 
HETATM    4  C8  UNL     1     -34.027  16.569  -4.039  1.00 20.00     0.021 A 
HETATM    5  C10 UNL     1     -33.883  18.031  -4.575  1.00 20.00     0.005 A 
HETATM    6  C11 UNL     1     -32.670  18.340  -0.971  1.00 20.00     0.043 C 
ENDROOT
BRANCH   4   7
HETATM    7  C9  UNL     1     -33.177  15.747  -5.046  1.00 20.00     0.022 C 
HETATM    8  C4  UNL     1     -34.024  15.319  -6.228  1.00 20.00    -0.082 C 
HETATM    9  C2  UNL     1     -34.912  14.418  -5.779  1.00 20.00    -0.019 C 
HETATM   10  C12 UNL     1     -33.861  15.875  -7.590  1.00 20.00     0.043 C 
HETATM   11  C7  UNL     1     -34.658  14.237  -4.300  1.00 20.00     0.014 C 
HETATM   12  C6  UNL     1     -33.128  14.394  -4.317  1.00 20.00     0.018 C 
ENDBRANCH   4   7
TORSDOF 2
ENDMDL
MODEL 5
REMARK VINA RESULT:      -4.6     11.316     12.474
REMARK  2 active torsions:
REMARK  status: ('A' for Active; 'I' for Inactive)
REMARK    1  A    between atoms: C7_7  and  C10_10 
REMARK    2  A    between atoms: C8_8  and  C9_9 
ROOT
HETATM    1  C1  UNL     1     -36.116  16.226  -3.314  1.00 20.00    -0.019 A 
HETATM    2  C3  UNL     1     -35.029  16.452  -2.566  1.00 20.00    -0.087 A 
HETATM    3  C5  UNL     1     -33.750  16.122  -3.279  1.00 20.00     0.039 A 
HETATM    4  C8  UNL     1     -35.771  15.706  -4.668  1.00 20.00     0.021 A 
HETATM    5  C10 UNL     1     -34.209  15.611  -4.648  1.00 20.00     0.005 A 
HETATM    6  C11 UNL     1     -35.008  16.969  -1.172  1.00 20.00     0.043 C 
ENDROOT
BRANCH   4   7
HETATM    7  C9  UNL     1     -36.200  14.256  -5.021  1.00 20.00     0.022 C 
HETATM    8  C4  UNL     1     -36.026  13.998  -6.504  1.00 20.00    -0.082 C 
HETATM    9  C2  UNL     1     -36.933  14.746  -7.150  1.00 20.00    -0.019 C 
HETATM   10  C12 UNL     1     -34.987  13.099  -7.058  1.00 20.00     0.043 C 
HETATM   11  C7  UNL     1     -37.720  15.500  -6.103  1.00 20.00     0.014 C 
HETATM   12  C6  UNL     1     -37.729  14.417  -5.011  1.00 20.00     0.018 C 
ENDBRANCH   4   7
TORSDOF 2
ENDMDL
MODEL 6
REMARK VINA RESULT:      -4.5      1.028      4.846
REMARK  2 active torsions:
REMARK  status: ('A' for Active; 'I' for Inactive)
REMARK    1  A    between atoms: C7_7  and  C10_10 
REMARK    2  A    between atoms: C8_8  and  C9_9 
ROOT
HETATM    1  C1  UNL     1     -33.061   7.090   4.206  1.00 20.00    -0.019 A 
HETATM    2  C3  UNL     1     -34.130   6.356   4.540  1.00 20.00    -0.087 A 
HETATM    3  C5  UNL     1     -34.946   5.937   3.352  1.00 20.00     0.039 A 
HETATM    4  C8  UNL     1     -32.959   7.299   2.733  1.00 20.00     0.021 A 
HETATM    5  C10 UNL     1     -34.214   6.561   2.160  1.00 20.00     0.005 A 
HETATM    6  C11 UNL     1     -34.533   5.959   5.915  1.00 20.00     0.043 C 
ENDROOT
BRANCH   4   7
HETATM    7  C9  UNL     1     -33.131   8.743   2.190  1.00 20.00     0.022 C 
HETATM    8  C4  UNL     1     -32.539   8.861   0.800  1.00 20.00    -0.082 C 
HETATM    9  C2  UNL     1     -31.209   8.741   0.920  1.00 20.00    -0.019 C 
HETATM   10  C12 UNL     1     -33.359   9.033  -0.422  1.00 20.00     0.043 C 
HETATM   11  C7  UNL     1     -30.906   8.550   2.388  1.00 20.00     0.014 C 
HETATM   12  C6  UNL     1     -32.008   9.457   2.961  1.00 20.00     0.018 C 
ENDBRANCH   4   7
TORSDOF 2
ENDMDL
MODEL 7
REMARK VINA RESULT:      -4.5     11.301     12.146
REMARK  2 active torsions:
REMARK  status: ('A' for Active; 'I' for Inactive)
REMARK    1  A    between atoms: C7_7  and  C10_10 
REMARK    2  A    between atoms: C8_8  and  C9_9 
ROOT
HETATM    1  C1  UNL     1     -33.890  16.281  -3.873  1.00 20.00    -0.019 A 
HETATM    2  C3  UNL     1     -34.720  15.371  -4.397  1.00 20.00    -0.087 A 
HETATM    3  C5  UNL     1     -36.113  15.462  -3.844  1.00 20.00     0.039 A 
HETATM    4  C8  UNL     1     -34.570  17.153  -2.872  1.00 20.00     0.021 A 
HETATM    5  C10 UNL     1     -36.034  16.605  -2.828  1.00 20.00     0.005 A 
HETATM    6  C11 UNL     1     -34.376  14.347  -5.419  1.00 20.00     0.043 C 
ENDROOT
BRANCH   4   7
HETATM    7  C9  UNL     1     -34.118  17.048  -1.390  1.00 20.00     0.022 C 
HETATM    8  C4  UNL     1     -34.894  18.025  -0.529  1.00 20.00    -0.082 C 
HETATM    9  C2  UNL     1     -34.505  19.261  -0.875  1.00 20.00    -0.019 C 
HETATM   10  C12 UNL     1     -35.912  17.606   0.462  1.00 20.00     0.043 C 
HETATM   11  C7  UNL     1     -33.465  19.116  -1.962  1.00 20.00     0.014 C 
HETATM   12  C6  UNL     1     -32.794  17.828  -1.456  1.00 20.00     0.018 C 
ENDBRANCH   4   7
TORSDOF 2
ENDMDL
MODEL 8
REMARK VINA RESULT:      -4.4     11.171     11.879
REMARK  2 active torsions:
REMARK  status: ('A' for Active; 'I' for Inactive)
REMARK    1  A    between atoms: C7_7  and  C10_10 
REMARK    2  A    between atoms: C8_8  and  C9_9 
ROOT
HETATM    1  C1  UNL     1     -35.889  16.607  -2.419  1.00 20.00    -0.019 A 
HETATM    2  C3  UNL     1     -35.282  16.167  -3.529  1.00 20.00    -0.087 A 
HETATM    3  C5  UNL     1     -33.786  16.162  -3.415  1.00 20.00     0.039 A 
HETATM    4  C8  UNL     1     -34.915  16.977  -1.353  1.00 20.00     0.021 A 
HETATM    5  C10 UNL     1     -33.520  16.709  -2.008  1.00 20.00     0.005 A 
HETATM    6  C11 UNL     1     -35.948  15.717  -4.780  1.00 20.00     0.043 C 
ENDROOT
BRANCH   4   7
HETATM    7  C9  UNL     1     -34.821  18.471  -0.941  1.00 20.00     0.022 C 
HETATM    8  C4  UNL     1     -33.942  18.628   0.284  1.00 20.00    -0.082 C 
HETATM    9  C2  UNL     1     -34.591  18.071   1.317  1.00 20.00    -0.019 C 
HETATM   10  C12 UNL     1     -32.602  19.258   0.249  1.00 20.00     0.043 C 
HETATM   11  C7  UNL     1     -35.906  17.546   0.790  1.00 20.00     0.014 C 
HETATM   12  C6  UNL     1     -36.183  18.646  -0.248  1.00 20.00     0.018 C 
ENDBRANCH   4   7
TORSDOF 2
ENDMDL
MODEL 9
REMARK VINA RESULT:      -4.4     11.227     12.101
REMARK  2 active torsions:
REMARK  status: ('A' for Active; 'I' for Inactive)
REMARK    1  A    between atoms: C7_7  and  C10_10 
REMARK    2  A    between atoms: C8_8  and  C9_9 
ROOT
HETATM    1  C1  UNL     1     -35.749  15.063  -3.766  1.00 20.00    -0.019 A 
HETATM    2  C3  UNL     1     -35.170  14.441  -4.800  1.00 20.00    -0.087 A 
HETATM    3  C5  UNL     1     -33.728  14.816  -4.976  1.00 20.00     0.039 A 
HETATM    4  C8  UNL     1     -34.804  15.971  -3.054  1.00 20.00     0.021 A 
HETATM    5  C10 UNL     1     -33.471  15.834  -3.860  1.00 20.00     0.005 A 
HETATM    6  C11 UNL     1     -35.818  13.471  -5.721  1.00 20.00     0.043 C 
ENDROOT
BRANCH   4   7
HETATM    7  C9  UNL     1     -35.083  17.498  -3.107  1.00 20.00     0.022 C 
HETATM    8  C4  UNL     1     -34.038  18.255  -2.314  1.00 20.00    -0.082 C 
HETATM    9  C2  UNL     1     -34.225  17.961  -1.019  1.00 20.00    -0.019 C 
HETATM   10  C12 UNL     1     -33.004  19.112  -2.940  1.00 20.00     0.043 C 
HETATM   11  C7  UNL     1     -35.399  17.012  -0.941  1.00 20.00     0.014 C 
HETATM   12  C6  UNL     1     -36.234  17.597  -2.092  1.00 20.00     0.018 C 
ENDBRANCH   4   7
TORSDOF 2
ENDMDL
