MODEL 1
REMARK VINA RESULT:      -5.1      0.000      0.000
REMARK  0 active torsions:
REMARK  status: ('A' for Active; 'I' for Inactive)
ROOT
HETATM    1  C1  UNL     1     -32.543  10.988   1.826  1.00 20.00     0.015 C 
HETATM    2  C2  UNL     1     -32.705   9.800   1.767  1.00 20.00    -0.082 C 
HETATM    3  C3  UNL     1     -34.042   6.634   5.291  1.00 20.00     0.000 C 
HETATM    4  C4  UNL     1     -33.385   8.013   5.207  1.00 20.00     0.003 C 
HETATM    5  C5  UNL     1     -34.465   6.124   3.912  1.00 20.00     0.003 C 
HETATM    6  C6  UNL     1     -32.209   8.013   4.230  1.00 20.00     0.042 C 
HETATM    7  C7  UNL     1     -33.293   6.123   2.931  1.00 20.00     0.042 C 
HETATM    8  C8  UNL     1     -32.900   8.387   1.695  1.00 20.00     0.235 A 
HETATM    9  C9  UNL     1     -32.656   7.486   2.893  1.00 20.00     0.099 A 
HETATM   10  O10 UNL     1     -31.682   7.643   1.854  1.00 20.00    -0.356 OA
ENDROOT
TORSDOF 0
ENDMDL
MODEL 2
REMARK VINA RESULT:      -4.8      1.771      2.904
REMARK  0 active torsions:
REMARK  status: ('A' for Active; 'I' for Inactive)
ROOT
HETATM    1  C1  UNL     1     -31.408   8.300   2.081  1.00 20.00     0.015 C 
HETATM    2  C2  UNL     1     -32.065   8.068   3.059  1.00 20.00    -0.082 C 
HETATM    3  C3  UNL     1     -34.260   3.887   4.448  1.00 20.00     0.000 C 
HETATM    4  C4  UNL     1     -33.778   4.526   3.144  1.00 20.00     0.003 C 
HETATM    5  C5  UNL     1     -33.904   4.745   5.664  1.00 20.00     0.003 C 
HETATM    6  C6  UNL     1     -34.306   5.953   2.992  1.00 20.00     0.042 C 
HETATM    7  C7  UNL     1     -34.430   6.173   5.515  1.00 20.00     0.042 C 
HETATM    8  C8  UNL     1     -32.844   7.793   4.224  1.00 20.00     0.235 A 
HETATM    9  C9  UNL     1     -33.957   6.760   4.213  1.00 20.00     0.099 A 
HETATM   10  O10 UNL     1     -34.225   8.161   4.077  1.00 20.00    -0.356 OA
ENDROOT
TORSDOF 0
ENDMDL
MODEL 3
REMARK VINA RESULT:      -4.5      1.449      4.327
REMARK  0 active torsions:
REMARK  status: ('A' for Active; 'I' for Inactive)
ROOT
HETATM    1  C1  UNL     1     -33.200   5.159   2.682  1.00 20.00     0.015 C 
HETATM    2  C2  UNL     1     -33.016   6.319   2.931  1.00 20.00    -0.082 C 
HETATM    3  C3  UNL     1     -32.724  10.176  -0.114  1.00 20.00     0.000 C 
HETATM    4  C4  UNL     1     -32.524   8.661  -0.193  1.00 20.00     0.003 C 
HETATM    5  C5  UNL     1     -33.217  10.610   1.269  1.00 20.00     0.003 C 
HETATM    6  C6  UNL     1     -31.592   8.162   0.911  1.00 20.00     0.042 C 
HETATM    7  C7  UNL     1     -32.287  10.111   2.376  1.00 20.00     0.042 C 
HETATM    8  C8  UNL     1     -32.798   7.699   3.228  1.00 20.00     0.235 A 
HETATM    9  C9  UNL     1     -32.095   8.624   2.252  1.00 20.00     0.099 A 
HETATM   10  O10 UNL     1     -31.408   8.033   3.362  1.00 20.00    -0.356 OA
ENDROOT
TORSDOF 0
ENDMDL
MODEL 4
REMARK VINA RESULT:      -4.3     10.351     11.471
REMARK  0 active torsions:
REMARK  status: ('A' for Active; 'I' for Inactive)
ROOT
HETATM    1  C1  UNL     1     -34.948  16.487  -2.383  1.00 20.00     0.015 C 
HETATM    2  C2  UNL     1     -34.552  15.779  -3.268  1.00 20.00    -0.082 C 
HETATM    3  C3  UNL     1     -36.698  14.588  -7.536  1.00 20.00     0.000 C 
HETATM    4  C4  UNL     1     -37.136  15.070  -6.151  1.00 20.00     0.003 C 
HETATM    5  C5  UNL     1     -35.173  14.522  -7.656  1.00 20.00     0.003 C 
HETATM    6  C6  UNL     1     -36.528  14.212  -5.042  1.00 20.00     0.042 C 
HETATM    7  C7  UNL     1     -34.561  13.665  -6.547  1.00 20.00     0.042 C 
HETATM    8  C8  UNL     1     -34.079  14.938  -4.321  1.00 20.00     0.235 A 
HETATM    9  C9  UNL     1     -35.033  14.152  -5.204  1.00 20.00     0.099 A 
HETATM   10  O10 UNL     1     -34.355  13.546  -4.096  1.00 20.00    -0.356 OA
ENDROOT
TORSDOF 0
ENDMDL
MODEL 5
REMARK VINA RESULT:      -4.2     10.092     11.285
REMARK  0 active torsions:
REMARK  status: ('A' for Active; 'I' for Inactive)
ROOT
HETATM    1  C1  UNL     1     -34.393  13.765  -7.886  1.00 20.00     0.015 C 
HETATM    2  C2  UNL     1     -35.237  14.129  -7.114  1.00 20.00    -0.082 C 
HETATM    3  C3  UNL     1     -34.753  16.356  -2.751  1.00 20.00     0.000 C 
HETATM    4  C4  UNL     1     -33.907  15.459  -3.657  1.00 20.00     0.003 C 
HETATM    5  C5  UNL     1     -36.089  16.722  -3.403  1.00 20.00     0.003 C 
HETATM    6  C6  UNL     1     -34.678  14.210  -4.083  1.00 20.00     0.042 C 
HETATM    7  C7  UNL     1     -36.862  15.474  -3.832  1.00 20.00     0.042 C 
HETATM    8  C8  UNL     1     -36.243  14.563  -6.197  1.00 20.00     0.235 A 
HETATM    9  C9  UNL     1     -35.992  14.606  -4.700  1.00 20.00     0.099 A 
HETATM   10  O10 UNL     1     -36.691  13.519  -5.319  1.00 20.00    -0.356 OA
ENDROOT
TORSDOF 0
ENDMDL
MODEL 6
REMARK VINA RESULT:      -4.2     10.447     11.201
REMARK  0 active torsions:
REMARK  status: ('A' for Active; 'I' for Inactive)
ROOT
HETATM    1  C1  UNL     1     -32.727  18.014  -1.192  1.00 20.00     0.015 C 
HETATM    2  C2  UNL     1     -33.667  17.411  -1.630  1.00 20.00    -0.082 C 
HETATM    3  C3  UNL     1     -33.950  14.458  -5.559  1.00 20.00     0.000 C 
HETATM    4  C4  UNL     1     -33.063  15.607  -5.075  1.00 20.00     0.003 C 
HETATM    5  C5  UNL     1     -34.995  14.070  -4.510  1.00 20.00     0.003 C 
HETATM    6  C6  UNL     1     -33.896  16.815  -4.646  1.00 20.00     0.042 C 
HETATM    7  C7  UNL     1     -35.829  15.276  -4.077  1.00 20.00     0.042 C 
HETATM    8  C8  UNL     1     -34.787  16.692  -2.150  1.00 20.00     0.235 A 
HETATM    9  C9  UNL     1     -34.924  16.392  -3.632  1.00 20.00     0.099 A 
HETATM   10  O10 UNL     1     -35.613  17.487  -3.016  1.00 20.00    -0.356 OA
ENDROOT
TORSDOF 0
ENDMDL
MODEL 7
REMARK VINA RESULT:      -4.1     10.358     11.248
REMARK  0 active torsions:
REMARK  status: ('A' for Active; 'I' for Inactive)
ROOT
HETATM    1  C1  UNL     1     -35.109  13.939  -4.520  1.00 20.00     0.015 C 
HETATM    2  C2  UNL     1     -34.446  14.925  -4.349  1.00 20.00    -0.082 C 
HETATM    3  C3  UNL     1     -34.235  17.931  -0.456  1.00 20.00     0.000 C 
HETATM    4  C4  UNL     1     -35.233  16.943  -1.063  1.00 20.00     0.003 C 
HETATM    5  C5  UNL     1     -32.912  17.942  -1.225  1.00 20.00     0.003 C 
HETATM    6  C6  UNL     1     -35.457  17.216  -2.550  1.00 20.00     0.042 C 
HETATM    7  C7  UNL     1     -33.131  18.214  -2.713  1.00 20.00     0.042 C 
HETATM    8  C8  UNL     1     -33.655  16.097  -4.146  1.00 20.00     0.235 A 
HETATM    9  C9  UNL     1     -34.135  17.241  -3.269  1.00 20.00     0.099 A 
HETATM   10  O10 UNL     1     -34.254  17.281  -4.697  1.00 20.00    -0.356 OA
ENDROOT
TORSDOF 0
ENDMDL
MODEL 8
REMARK VINA RESULT:      -4.1     10.154     11.330
REMARK  0 active torsions:
REMARK  status: ('A' for Active; 'I' for Inactive)
ROOT
HETATM    1  C1  UNL     1     -34.853  16.639  -1.833  1.00 20.00     0.015 C 
HETATM    2  C2  UNL     1     -34.378  16.417  -2.913  1.00 20.00    -0.082 C 
HETATM    3  C3  UNL     1     -36.324  14.081  -6.784  1.00 20.00     0.000 C 
HETATM    4  C4  UNL     1     -36.527  14.110  -5.267  1.00 20.00     0.003 C 
HETATM    5  C5  UNL     1     -35.281  15.106  -7.235  1.00 20.00     0.003 C 
HETATM    6  C6  UNL     1     -35.205  13.922  -4.523  1.00 20.00     0.042 C 
HETATM    7  C7  UNL     1     -33.957  14.922  -6.491  1.00 20.00     0.042 C 
HETATM    8  C8  UNL     1     -33.811  16.156  -4.198  1.00 20.00     0.235 A 
HETATM    9  C9  UNL     1     -34.198  14.931  -5.006  1.00 20.00     0.099 A 
HETATM   10  O10 UNL     1     -32.999  14.972  -4.224  1.00 20.00    -0.356 OA
ENDROOT
TORSDOF 0
ENDMDL
MODEL 9
REMARK VINA RESULT:      -4.1      9.895     11.678
REMARK  0 active torsions:
REMARK  status: ('A' for Active; 'I' for Inactive)
ROOT
HETATM    1  C1  UNL     1     -38.496  15.316  -6.675  1.00 20.00     0.015 C 
HETATM    2  C2  UNL     1     -37.734  14.881  -5.856  1.00 20.00    -0.082 C 
HETATM    3  C3  UNL     1     -32.892  15.623  -5.366  1.00 20.00     0.000 C 
HETATM    4  C4  UNL     1     -33.934  15.691  -6.484  1.00 20.00     0.003 C 
HETATM    5  C5  UNL     1     -33.534  15.305  -4.013  1.00 20.00     0.003 C 
HETATM    6  C6  UNL     1     -34.767  14.411  -6.551  1.00 20.00     0.042 C 
HETATM    7  C7  UNL     1     -34.369  14.026  -4.076  1.00 20.00     0.042 C 
HETATM    8  C8  UNL     1     -36.828  14.364  -4.880  1.00 20.00     0.235 A 
HETATM    9  C9  UNL     1     -35.364  14.119  -5.201  1.00 20.00     0.099 A 
HETATM   10  O10 UNL     1     -36.328  13.059  -5.212  1.00 20.00    -0.356 OA
ENDROOT
TORSDOF 0
ENDMDL
