MODEL 1
REMARK VINA RESULT:      -6.3      0.000      0.000
REMARK  3 active torsions:
REMARK  status: ('A' for Active; 'I' for Inactive)
REMARK    1  A    between atoms: C1_1  and  C4_4 
REMARK    2  A    between atoms: C2_2  and  C9_9 
REMARK    3  A    between atoms: C9_9  and  O10_10 
ROOT
HETATM    1  C3  UNL     1     -34.046   5.349   3.540  1.00 20.00    -0.011 C 
HETATM    2  C4  UNL     1     -33.620   6.586   3.821  1.00 20.00    -0.008 C 
HETATM    3  C5  UNL     1     -34.759   4.736   4.699  1.00 20.00     0.028 C 
HETATM    4  C6  UNL     1     -33.981   6.995   5.213  1.00 20.00     0.048 C 
HETATM    5  C7  UNL     1     -34.396   5.669   5.853  1.00 20.00     0.009 C 
ENDROOT
BRANCH   2   6
HETATM    6  C1  UNL     1     -32.928   7.409   2.902  1.00 20.00    -0.069 C 
HETATM    7  C2  UNL     1     -32.341   8.108   2.122  1.00 20.00    -0.075 C 
BRANCH   7   8
HETATM    8  C9  UNL     1     -31.624   8.959   1.173  1.00 20.00     0.261 C 
BRANCH   8   9
HETATM    9  O10 UNL     1     -32.511   9.926   0.630  1.00 20.00    -0.384 OA
HETATM   10  C8  UNL     1     -33.202   9.421  -0.506  1.00 20.00     0.202 C 
ENDBRANCH   8   9
ENDBRANCH   7   8
ENDBRANCH   2   6
TORSDOF 3
ENDMDL
MODEL 2
REMARK VINA RESULT:      -4.7      2.355      5.294
REMARK  3 active torsions:
REMARK  status: ('A' for Active; 'I' for Inactive)
REMARK    1  A    between atoms: C1_1  and  C4_4 
REMARK    2  A    between atoms: C2_2  and  C9_9 
REMARK    3  A    between atoms: C9_9  and  O10_10 
ROOT
HETATM    1  C3  UNL     1     -31.725   8.046   1.512  1.00 20.00    -0.011 C 
HETATM    2  C4  UNL     1     -32.703   8.491   2.307  1.00 20.00    -0.008 C 
HETATM    3  C5  UNL     1     -31.410   9.022   0.427  1.00 20.00     0.028 C 
HETATM    4  C6  UNL     1     -33.199   9.835   1.879  1.00 20.00     0.048 C 
HETATM    5  C7  UNL     1     -32.596   9.984   0.482  1.00 20.00     0.009 C 
ENDROOT
BRANCH   2   6
HETATM    6  C1  UNL     1     -33.195   7.779   3.427  1.00 20.00    -0.069 C 
HETATM    7  C2  UNL     1     -33.611   7.175   4.377  1.00 20.00    -0.075 C 
BRANCH   7   8
HETATM    8  C9  UNL     1     -34.121   6.440   5.535  1.00 20.00     0.261 C 
BRANCH   8   9
HETATM    9  O10 UNL     1     -35.046   5.451   5.105  1.00 20.00    -0.384 OA
HETATM   10  C8  UNL     1     -34.385   4.346   4.501  1.00 20.00     0.202 C 
ENDBRANCH   8   9
ENDBRANCH   7   8
ENDBRANCH   2   6
TORSDOF 3
ENDMDL
MODEL 3
REMARK VINA RESULT:      -4.6     10.744     11.136
REMARK  3 active torsions:
REMARK  status: ('A' for Active; 'I' for Inactive)
REMARK    1  A    between atoms: C1_1  and  C4_4 
REMARK    2  A    between atoms: C2_2  and  C9_9 
REMARK    3  A    between atoms: C9_9  and  O10_10 
ROOT
HETATM    1  C3  UNL     1     -35.082  17.102  -0.957  1.00 20.00    -0.011 C 
HETATM    2  C4  UNL     1     -34.077  17.006  -1.834  1.00 20.00    -0.008 C 
HETATM    3  C5  UNL     1     -34.803  18.128   0.091  1.00 20.00     0.028 C 
HETATM    4  C6  UNL     1     -32.965  17.952  -1.511  1.00 20.00     0.048 C 
HETATM    5  C7  UNL     1     -33.310  18.398  -0.088  1.00 20.00     0.009 C 
ENDROOT
BRANCH   2   6
HETATM    6  C1  UNL     1     -34.077  16.127  -2.942  1.00 20.00    -0.069 C 
HETATM    7  C2  UNL     1     -34.079  15.379  -3.882  1.00 20.00    -0.075 C 
BRANCH   7   8
HETATM    8  C9  UNL     1     -34.078  14.470  -5.028  1.00 20.00     0.261 C 
BRANCH   8   9
HETATM    9  O10 UNL     1     -34.938  13.370  -4.767  1.00 20.00    -0.384 OA
HETATM   10  C8  UNL     1     -36.251  13.605  -5.260  1.00 20.00     0.202 C 
ENDBRANCH   8   9
ENDBRANCH   7   8
ENDBRANCH   2   6
TORSDOF 3
ENDMDL
MODEL 4
REMARK VINA RESULT:      -4.5     10.919     11.358
REMARK  3 active torsions:
REMARK  status: ('A' for Active; 'I' for Inactive)
REMARK    1  A    between atoms: C1_1  and  C4_4 
REMARK    2  A    between atoms: C2_2  and  C9_9 
REMARK    3  A    between atoms: C9_9  and  O10_10 
ROOT
HETATM    1  C3  UNL     1     -33.484  16.848  -2.927  1.00 20.00    -0.011 C 
HETATM    2  C4  UNL     1     -34.704  16.325  -2.766  1.00 20.00    -0.008 C 
HETATM    3  C5  UNL     1     -33.115  17.743  -1.791  1.00 20.00     0.028 C 
HETATM    4  C6  UNL     1     -35.345  16.788  -1.498  1.00 20.00     0.048 C 
HETATM    5  C7  UNL     1     -34.450  17.955  -1.079  1.00 20.00     0.009 C 
ENDROOT
BRANCH   2   6
HETATM    6  C1  UNL     1     -35.305  15.429  -3.682  1.00 20.00    -0.069 C 
HETATM    7  C2  UNL     1     -35.814  14.668  -4.459  1.00 20.00    -0.075 C 
BRANCH   7   8
HETATM    8  C9  UNL     1     -36.436  13.741  -5.405  1.00 20.00     0.261 C 
BRANCH   8   9
HETATM    9  O10 UNL     1     -35.460  12.836  -5.901  1.00 20.00    -0.384 OA
HETATM   10  C8  UNL     1     -34.690  13.419  -6.944  1.00 20.00     0.202 C 
ENDBRANCH   8   9
ENDBRANCH   7   8
ENDBRANCH   2   6
TORSDOF 3
ENDMDL
MODEL 5
REMARK VINA RESULT:      -4.3     10.879     11.482
REMARK  3 active torsions:
REMARK  status: ('A' for Active; 'I' for Inactive)
REMARK    1  A    between atoms: C1_1  and  C4_4 
REMARK    2  A    between atoms: C2_2  and  C9_9 
REMARK    3  A    between atoms: C9_9  and  O10_10 
ROOT
HETATM    1  C3  UNL     1     -33.254  15.240  -4.092  1.00 20.00    -0.011 C 
HETATM    2  C4  UNL     1     -34.032  16.014  -3.329  1.00 20.00    -0.008 C 
HETATM    3  C5  UNL     1     -34.061  14.362  -4.989  1.00 20.00     0.028 C 
HETATM    4  C6  UNL     1     -35.484  15.777  -3.595  1.00 20.00     0.048 C 
HETATM    5  C7  UNL     1     -35.467  14.478  -4.403  1.00 20.00     0.009 C 
ENDROOT
BRANCH   2   6
HETATM    6  C1  UNL     1     -33.536  16.955  -2.396  1.00 20.00    -0.069 C 
HETATM    7  C2  UNL     1     -33.115  17.755  -1.605  1.00 20.00    -0.075 C 
BRANCH   7   8
HETATM    8  C9  UNL     1     -32.603  18.727  -0.639  1.00 20.00     0.261 C 
BRANCH   8   9
HETATM    9  O10 UNL     1     -31.279  18.376  -0.262  1.00 20.00    -0.384 OA
HETATM   10  C8  UNL     1     -31.025  18.688   1.102  1.00 20.00     0.202 C 
ENDBRANCH   8   9
ENDBRANCH   7   8
ENDBRANCH   2   6
TORSDOF 3
ENDMDL
MODEL 6
REMARK VINA RESULT:      -4.3     10.865     11.365
REMARK  3 active torsions:
REMARK  status: ('A' for Active; 'I' for Inactive)
REMARK    1  A    between atoms: C1_1  and  C4_4 
REMARK    2  A    between atoms: C2_2  and  C9_9 
REMARK    3  A    between atoms: C9_9  and  O10_10 
ROOT
HETATM    1  C3  UNL     1     -33.296  17.385  -2.028  1.00 20.00    -0.011 C 
HETATM    2  C4  UNL     1     -34.479  16.763  -2.043  1.00 20.00    -0.008 C 
HETATM    3  C5  UNL     1     -33.142  18.244  -0.816  1.00 20.00     0.028 C 
HETATM    4  C6  UNL     1     -35.305  17.108  -0.846  1.00 20.00     0.048 C 
HETATM    5  C7  UNL     1     -34.565  18.316  -0.268  1.00 20.00     0.009 C 
ENDROOT
BRANCH   2   6
HETATM    6  C1  UNL     1     -34.889  15.873  -3.064  1.00 20.00    -0.069 C 
HETATM    7  C2  UNL     1     -35.236  15.117  -3.930  1.00 20.00    -0.075 C 
BRANCH   7   8
HETATM    8  C9  UNL     1     -35.660  14.199  -4.987  1.00 20.00     0.261 C 
BRANCH   8   9
HETATM    9  O10 UNL     1     -36.981  13.745  -4.725  1.00 20.00    -0.384 OA
HETATM   10  C8  UNL     1     -37.947  14.519  -5.426  1.00 20.00     0.202 C 
ENDBRANCH   8   9
ENDBRANCH   7   8
ENDBRANCH   2   6
TORSDOF 3
ENDMDL
MODEL 7
REMARK VINA RESULT:      -4.2     10.526     11.322
REMARK  3 active torsions:
REMARK  status: ('A' for Active; 'I' for Inactive)
REMARK    1  A    between atoms: C1_1  and  C4_4 
REMARK    2  A    between atoms: C2_2  and  C9_9 
REMARK    3  A    between atoms: C9_9  and  O10_10 
ROOT
HETATM    1  C3  UNL     1     -32.693  18.115  -1.223  1.00 20.00    -0.011 C 
HETATM    2  C4  UNL     1     -33.889  17.515  -1.212  1.00 20.00    -0.008 C 
HETATM    3  C5  UNL     1     -32.485  18.950  -0.004  1.00 20.00     0.028 C 
HETATM    4  C6  UNL     1     -34.670  17.856   0.016  1.00 20.00     0.048 C 
HETATM    5  C7  UNL     1     -33.890  19.040   0.589  1.00 20.00     0.009 C 
ENDROOT
BRANCH   2   6
HETATM    6  C1  UNL     1     -34.347  16.650  -2.234  1.00 20.00    -0.069 C 
HETATM    7  C2  UNL     1     -34.736  15.916  -3.101  1.00 20.00    -0.075 C 
BRANCH   7   8
HETATM    8  C9  UNL     1     -35.209  15.023  -4.158  1.00 20.00     0.261 C 
BRANCH   8   9
HETATM    9  O10 UNL     1     -34.356  13.890  -4.245  1.00 20.00    -0.384 OA
HETATM   10  C8  UNL     1     -33.006  14.269  -4.485  1.00 20.00     0.202 C 
ENDBRANCH   8   9
ENDBRANCH   7   8
ENDBRANCH   2   6
TORSDOF 3
ENDMDL
MODEL 8
REMARK VINA RESULT:      -4.1     11.016     11.533
REMARK  3 active torsions:
REMARK  status: ('A' for Active; 'I' for Inactive)
REMARK    1  A    between atoms: C1_1  and  C4_4 
REMARK    2  A    between atoms: C2_2  and  C9_9 
REMARK    3  A    between atoms: C9_9  and  O10_10 
ROOT
HETATM    1  C3  UNL     1     -32.989  17.869  -1.198  1.00 20.00    -0.011 C 
HETATM    2  C4  UNL     1     -33.957  17.101  -1.711  1.00 20.00    -0.008 C 
HETATM    3  C5  UNL     1     -33.423  18.526   0.071  1.00 20.00     0.028 C 
HETATM    4  C6  UNL     1     -35.191  17.124  -0.868  1.00 20.00     0.048 C 
HETATM    5  C7  UNL     1     -34.935  18.309   0.066  1.00 20.00     0.009 C 
ENDROOT
BRANCH   2   6
HETATM    6  C1  UNL     1     -33.818  16.347  -2.900  1.00 20.00    -0.069 C 
HETATM    7  C2  UNL     1     -33.699  15.707  -3.909  1.00 20.00    -0.075 C 
BRANCH   7   8
HETATM    8  C9  UNL     1     -33.557  14.928  -5.139  1.00 20.00     0.261 C 
BRANCH   8   9
HETATM    9  O10 UNL     1     -32.959  15.730  -6.148  1.00 20.00    -0.384 OA
HETATM   10  C8  UNL     1     -33.866  16.706  -6.645  1.00 20.00     0.202 C 
ENDBRANCH   8   9
ENDBRANCH   7   8
ENDBRANCH   2   6
TORSDOF 3
ENDMDL
MODEL 9
REMARK VINA RESULT:      -4.0     11.061     11.868
REMARK  3 active torsions:
REMARK  status: ('A' for Active; 'I' for Inactive)
REMARK    1  A    between atoms: C1_1  and  C4_4 
REMARK    2  A    between atoms: C2_2  and  C9_9 
REMARK    3  A    between atoms: C9_9  and  O10_10 
ROOT
HETATM    1  C3  UNL     1     -33.232  17.751  -1.526  1.00 20.00    -0.011 C 
HETATM    2  C4  UNL     1     -34.277  17.610  -0.703  1.00 20.00    -0.008 C 
HETATM    3  C5  UNL     1     -33.514  17.178  -2.876  1.00 20.00     0.028 C 
HETATM    4  C6  UNL     1     -35.422  16.919  -1.371  1.00 20.00     0.048 C 
HETATM    5  C7  UNL     1     -34.777  16.352  -2.637  1.00 20.00     0.009 C 
ENDROOT
BRANCH   2   6
HETATM    6  C1  UNL     1     -34.296  18.075   0.633  1.00 20.00    -0.069 C 
HETATM    7  C2  UNL     1     -34.313  18.469   1.767  1.00 20.00    -0.075 C 
BRANCH   7   8
HETATM    8  C9  UNL     1     -34.332  18.951   3.148  1.00 20.00     0.261 C 
BRANCH   8   9
HETATM    9  O10 UNL     1     -33.516  18.117   3.958  1.00 20.00    -0.384 OA
HETATM   10  C8  UNL     1     -32.972  18.832   5.061  1.00 20.00     0.202 C 
ENDBRANCH   8   9
ENDBRANCH   7   8
ENDBRANCH   2   6
TORSDOF 3
ENDMDL
