MODEL 1
REMARK VINA RESULT:      -6.1      0.000      0.000
REMARK  1 active torsions:
REMARK  status: ('A' for Active; 'I' for Inactive)
REMARK    1  A    between atoms: C2_2  and  C3_3 
ROOT
HETATM    1  C1  UNL     1     -33.557   6.664   3.460  1.00 20.00    -0.077 C 
HETATM    2  C2  UNL     1     -32.580   7.004   2.608  1.00 20.00     0.044 C 
HETATM    3  C4  UNL     1     -34.368   5.405   3.299  1.00 20.00     0.034 C 
HETATM    4  C5  UNL     1     -33.911   7.502   4.662  1.00 20.00     0.034 C 
HETATM    5  C6  UNL     1     -34.335   4.572   4.582  1.00 20.00     0.004 C 
HETATM    6  C7  UNL     1     -33.881   6.659   5.938  1.00 20.00     0.004 C 
HETATM    7  C8  UNL     1     -34.736   5.398   5.806  1.00 20.00     0.001 C 
ENDROOT
BRANCH   2   8
HETATM    8  C3  UNL     1     -31.856   8.261   2.867  1.00 20.00     0.259 C 
HETATM    9  O9  UNL     1     -31.917   9.215   2.102  1.00 20.00    -0.302 OA
ENDBRANCH   2   8
TORSDOF 1
ENDMDL
MODEL 2
REMARK VINA RESULT:      -5.5      1.071      2.119
REMARK  1 active torsions:
REMARK  status: ('A' for Active; 'I' for Inactive)
REMARK    1  A    between atoms: C2_2  and  C3_3 
ROOT
HETATM    1  C1  UNL     1     -32.731   7.510   3.514  1.00 20.00    -0.077 C 
HETATM    2  C2  UNL     1     -32.347   8.576   2.798  1.00 20.00     0.044 C 
HETATM    3  C4  UNL     1     -32.765   7.519   5.020  1.00 20.00     0.034 C 
HETATM    4  C5  UNL     1     -33.180   6.223   2.873  1.00 20.00     0.034 C 
HETATM    5  C6  UNL     1     -34.144   7.098   5.532  1.00 20.00     0.004 C 
HETATM    6  C7  UNL     1     -34.557   5.809   3.395  1.00 20.00     0.004 C 
HETATM    7  C8  UNL     1     -34.595   5.769   4.924  1.00 20.00     0.001 C 
ENDROOT
BRANCH   2   8
HETATM    8  C3  UNL     1     -32.352   8.449   1.330  1.00 20.00     0.259 C 
HETATM    9  O9  UNL     1     -31.411   8.823   0.642  1.00 20.00    -0.302 OA
ENDBRANCH   2   8
TORSDOF 1
ENDMDL
MODEL 3
REMARK VINA RESULT:      -5.0      2.286      4.142
REMARK  1 active torsions:
REMARK  status: ('A' for Active; 'I' for Inactive)
REMARK    1  A    between atoms: C2_2  and  C3_3 
ROOT
HETATM    1  C1  UNL     1     -33.841   6.761   4.708  1.00 20.00    -0.077 C 
HETATM    2  C2  UNL     1     -34.165   5.832   5.618  1.00 20.00     0.044 C 
HETATM    3  C4  UNL     1     -33.097   8.020   5.069  1.00 20.00     0.034 C 
HETATM    4  C5  UNL     1     -34.175   6.614   3.246  1.00 20.00     0.034 C 
HETATM    5  C6  UNL     1     -31.849   8.180   4.198  1.00 20.00     0.004 C 
HETATM    6  C7  UNL     1     -32.922   6.780   2.385  1.00 20.00     0.004 C 
HETATM    7  C8  UNL     1     -32.179   8.077   2.708  1.00 20.00     0.001 C 
ENDROOT
BRANCH   2   8
HETATM    8  C3  UNL     1     -34.894   4.642   5.147  1.00 20.00     0.259 C 
HETATM    9  O9  UNL     1     -34.343   3.748   4.516  1.00 20.00    -0.302 OA
ENDBRANCH   2   8
TORSDOF 1
ENDMDL
MODEL 4
REMARK VINA RESULT:      -4.3     11.451     11.999
REMARK  1 active torsions:
REMARK  status: ('A' for Active; 'I' for Inactive)
REMARK    1  A    between atoms: C2_2  and  C3_3 
ROOT
HETATM    1  C1  UNL     1     -34.592  16.390  -2.912  1.00 20.00    -0.077 C 
HETATM    2  C2  UNL     1     -34.552  15.223  -3.569  1.00 20.00     0.044 C 
HETATM    3  C4  UNL     1     -35.786  16.821  -2.101  1.00 20.00     0.034 C 
HETATM    4  C5  UNL     1     -33.437  17.358  -2.911  1.00 20.00     0.034 C 
HETATM    5  C6  UNL     1     -35.370  17.183  -0.674  1.00 20.00     0.004 C 
HETATM    6  C7  UNL     1     -33.033  17.718  -1.480  1.00 20.00     0.004 C 
HETATM    7  C8  UNL     1     -34.228  18.201  -0.656  1.00 20.00     0.001 C 
ENDROOT
BRANCH   2   8
HETATM    8  C3  UNL     1     -33.330  14.910  -4.330  1.00 20.00     0.259 C 
HETATM    9  O9  UNL     1     -32.874  13.775  -4.390  1.00 20.00    -0.302 OA
ENDBRANCH   2   8
TORSDOF 1
ENDMDL
MODEL 5
REMARK VINA RESULT:      -4.3     11.827     12.356
REMARK  1 active torsions:
REMARK  status: ('A' for Active; 'I' for Inactive)
REMARK    1  A    between atoms: C2_2  and  C3_3 
ROOT
HETATM    1  C1  UNL     1     -32.977  18.259  -0.892  1.00 20.00    -0.077 C 
HETATM    2  C2  UNL     1     -31.729  18.334  -0.411  1.00 20.00     0.044 C 
HETATM    3  C4  UNL     1     -33.277  17.770  -2.285  1.00 20.00     0.034 C 
HETATM    4  C5  UNL     1     -34.184  18.636  -0.074  1.00 20.00     0.034 C 
HETATM    5  C6  UNL     1     -34.299  16.632  -2.251  1.00 20.00     0.004 C 
HETATM    6  C7  UNL     1     -35.202  17.494  -0.051  1.00 20.00     0.004 C 
HETATM    7  C8  UNL     1     -35.551  17.016  -1.461  1.00 20.00     0.001 C 
ENDROOT
BRANCH   2   8
HETATM    8  C3  UNL     1     -31.558  18.829   0.967  1.00 20.00     0.259 C 
HETATM    9  O9  UNL     1     -30.453  19.052   1.445  1.00 20.00    -0.302 OA
ENDBRANCH   2   8
TORSDOF 1
ENDMDL
MODEL 6
REMARK VINA RESULT:      -4.2     11.823     12.339
REMARK  1 active torsions:
REMARK  status: ('A' for Active; 'I' for Inactive)
REMARK    1  A    between atoms: C2_2  and  C3_3 
ROOT
HETATM    1  C1  UNL     1     -35.935  15.707  -4.098  1.00 20.00    -0.077 C 
HETATM    2  C2  UNL     1     -36.791  14.761  -4.508  1.00 20.00     0.044 C 
HETATM    3  C4  UNL     1     -36.296  16.721  -3.043  1.00 20.00     0.034 C 
HETATM    4  C5  UNL     1     -34.534  15.822  -4.640  1.00 20.00     0.034 C 
HETATM    5  C6  UNL     1     -35.264  16.719  -1.914  1.00 20.00     0.004 C 
HETATM    6  C7  UNL     1     -33.511  15.824  -3.504  1.00 20.00     0.004 C 
HETATM    7  C8  UNL     1     -33.839  16.880  -2.446  1.00 20.00     0.001 C 
ENDROOT
BRANCH   2   8
HETATM    8  C3  UNL     1     -36.326  13.825  -5.546  1.00 20.00     0.259 C 
HETATM    9  O9  UNL     1     -35.931  12.698  -5.276  1.00 20.00    -0.302 OA
ENDBRANCH   2   8
TORSDOF 1
ENDMDL
MODEL 7
REMARK VINA RESULT:      -4.0     11.510     12.653
REMARK  1 active torsions:
REMARK  status: ('A' for Active; 'I' for Inactive)
REMARK    1  A    between atoms: C2_2  and  C3_3 
ROOT
HETATM    1  C1  UNL     1     -33.985  14.719  -5.568  1.00 20.00    -0.077 C 
HETATM    2  C2  UNL     1     -34.360  14.261  -6.770  1.00 20.00     0.044 C 
HETATM    3  C4  UNL     1     -32.922  15.773  -5.400  1.00 20.00     0.034 C 
HETATM    4  C5  UNL     1     -34.610  14.234  -4.286  1.00 20.00     0.034 C 
HETATM    5  C6  UNL     1     -33.446  16.942  -4.564  1.00 20.00     0.004 C 
HETATM    6  C7  UNL     1     -35.125  15.410  -3.455  1.00 20.00     0.004 C 
HETATM    7  C8  UNL     1     -34.044  16.469  -3.238  1.00 20.00     0.001 C 
ENDROOT
BRANCH   2   8
HETATM    8  C3  UNL     1     -35.410  13.228  -6.809  1.00 20.00     0.259 C 
HETATM    9  O9  UNL     1     -35.146  12.037  -6.921  1.00 20.00    -0.302 OA
ENDBRANCH   2   8
TORSDOF 1
ENDMDL
MODEL 8
REMARK VINA RESULT:      -3.8     11.552     12.537
REMARK  1 active torsions:
REMARK  status: ('A' for Active; 'I' for Inactive)
REMARK    1  A    between atoms: C2_2  and  C3_3 
ROOT
HETATM    1  C1  UNL     1     -34.286  15.161  -4.126  1.00 20.00    -0.077 C 
HETATM    2  C2  UNL     1     -34.598  15.903  -3.054  1.00 20.00     0.044 C 
HETATM    3  C4  UNL     1     -35.151  14.022  -4.599  1.00 20.00     0.034 C 
HETATM    4  C5  UNL     1     -33.058  15.419  -4.959  1.00 20.00     0.034 C 
HETATM    5  C6  UNL     1     -35.511  14.193  -6.076  1.00 20.00     0.004 C 
HETATM    6  C7  UNL     1     -33.428  15.582  -6.434  1.00 20.00     0.004 C 
HETATM    7  C8  UNL     1     -34.269  14.410  -6.942  1.00 20.00     0.001 C 
ENDROOT
BRANCH   2   8
HETATM    8  C3  UNL     1     -33.675  16.990  -2.686  1.00 20.00     0.259 C 
HETATM    9  O9  UNL     1     -33.472  17.304  -1.519  1.00 20.00    -0.302 OA
ENDBRANCH   2   8
TORSDOF 1
ENDMDL
MODEL 9
REMARK VINA RESULT:      -3.8     11.663     12.839
REMARK  1 active torsions:
REMARK  status: ('A' for Active; 'I' for Inactive)
REMARK    1  A    between atoms: C2_2  and  C3_3 
ROOT
HETATM    1  C1  UNL     1     -35.208  15.280  -4.441  1.00 20.00    -0.077 C 
HETATM    2  C2  UNL     1     -35.483  13.986  -4.654  1.00 20.00     0.044 C 
HETATM    3  C4  UNL     1     -35.037  15.853  -3.058  1.00 20.00     0.034 C 
HETATM    4  C5  UNL     1     -35.024  16.264  -5.567  1.00 20.00     0.034 C 
HETATM    5  C6  UNL     1     -33.700  16.587  -2.938  1.00 20.00     0.004 C 
HETATM    6  C7  UNL     1     -33.688  16.996  -5.435  1.00 20.00     0.004 C 
HETATM    7  C8  UNL     1     -33.519  17.623  -4.049  1.00 20.00     0.001 C 
ENDROOT
BRANCH   2   8
HETATM    8  C3  UNL     1     -35.629  13.540  -6.051  1.00 20.00     0.259 C 
HETATM    9  O9  UNL     1     -35.181  12.470  -6.442  1.00 20.00    -0.302 OA
ENDBRANCH   2   8
TORSDOF 1
ENDMDL
