MODEL 1
REMARK VINA RESULT:      -5.0      0.000      0.000
REMARK  1 active torsions:
REMARK  status: ('A' for Active; 'I' for Inactive)
REMARK    1  A    between atoms: C7_7  and  C8_8 
ROOT
HETATM    1  C1  UNL     1     -33.778   7.271   5.144  1.00 20.00     0.066 C 
HETATM    2  C4  UNL     1     -34.560   5.992   3.187  1.00 20.00     0.048 C 
HETATM    3  C5  UNL     1     -33.323   5.148   2.965  1.00 20.00     0.169 C 
HETATM    4  C6  UNL     1     -33.988   7.304   3.686  1.00 20.00     0.124 C 
HETATM    5  C8  UNL     1     -32.655   7.391   2.938  1.00 20.00     0.143 C 
HETATM    6  N9  UNL     1     -33.612   7.245   6.292  1.00 20.00    -0.197 NA
HETATM    7  O10 UNL     1     -32.275   6.047   2.586  1.00 20.00    -0.384 OA
ENDROOT
BRANCH   5   8
HETATM    8  C7  UNL     1     -32.753   8.205   1.679  1.00 20.00     0.016 A 
HETATM    9  C2  UNL     1     -32.362   9.657   1.684  1.00 20.00     0.007 A 
HETATM   10  C3  UNL     1     -31.506   8.650   0.967  1.00 20.00     0.007 A 
ENDBRANCH   5   8
TORSDOF 1
ENDMDL
MODEL 2
REMARK VINA RESULT:      -4.7     10.837     11.480
REMARK  1 active torsions:
REMARK  status: ('A' for Active; 'I' for Inactive)
REMARK    1  A    between atoms: C7_7  and  C8_8 
ROOT
HETATM    1  C1  UNL     1     -35.663  13.969  -5.070  1.00 20.00     0.066 C 
HETATM    2  C4  UNL     1     -34.345  15.902  -5.847  1.00 20.00     0.048 C 
HETATM    3  C5  UNL     1     -33.005  15.506  -5.265  1.00 20.00     0.169 C 
HETATM    4  C6  UNL     1     -35.328  15.382  -4.817  1.00 20.00     0.124 C 
HETATM    5  C8  UNL     1     -34.550  15.538  -3.508  1.00 20.00     0.143 C 
HETATM    6  N9  UNL     1     -35.925  12.856  -5.268  1.00 20.00    -0.197 NA
HETATM    7  O10 UNL     1     -33.148  15.541  -3.841  1.00 20.00    -0.384 OA
ENDROOT
BRANCH   5   8
HETATM    8  C7  UNL     1     -34.874  16.821  -2.795  1.00 20.00     0.016 A 
HETATM    9  C2  UNL     1     -35.276  16.802  -1.346  1.00 20.00     0.007 A 
HETATM   10  C3  UNL     1     -33.940  17.362  -1.749  1.00 20.00     0.007 A 
ENDBRANCH   5   8
TORSDOF 1
ENDMDL
MODEL 3
REMARK VINA RESULT:      -4.2     10.854     11.572
REMARK  1 active torsions:
REMARK  status: ('A' for Active; 'I' for Inactive)
REMARK    1  A    between atoms: C7_7  and  C8_8 
ROOT
HETATM    1  C1  UNL     1     -37.058  14.580  -5.040  1.00 20.00     0.066 C 
HETATM    2  C4  UNL     1     -35.182  15.297  -6.470  1.00 20.00     0.048 C 
HETATM    3  C5  UNL     1     -34.383  14.011  -6.449  1.00 20.00     0.169 C 
HETATM    4  C6  UNL     1     -35.794  15.337  -5.084  1.00 20.00     0.124 C 
HETATM    5  C8  UNL     1     -34.719  14.664  -4.227  1.00 20.00     0.143 C 
HETATM    6  N9  UNL     1     -38.052  13.983  -5.006  1.00 20.00    -0.197 NA
HETATM    7  O10 UNL     1     -33.939  13.825  -5.101  1.00 20.00    -0.384 OA
ENDROOT
BRANCH   5   8
HETATM    8  C7  UNL     1     -33.800  15.656  -3.572  1.00 20.00     0.016 A 
HETATM    9  C2  UNL     1     -33.990  17.130  -3.802  1.00 20.00     0.007 A 
HETATM   10  C3  UNL     1     -34.303  16.532  -2.458  1.00 20.00     0.007 A 
ENDBRANCH   5   8
TORSDOF 1
ENDMDL
MODEL 4
REMARK VINA RESULT:      -4.2      2.135      3.871
REMARK  1 active torsions:
REMARK  status: ('A' for Active; 'I' for Inactive)
REMARK    1  A    between atoms: C7_7  and  C8_8 
ROOT
HETATM    1  C1  UNL     1     -32.347   8.250   2.054  1.00 20.00     0.066 C 
HETATM    2  C4  UNL     1     -32.756   5.837   2.347  1.00 20.00     0.048 C 
HETATM    3  C5  UNL     1     -34.267   5.854   2.251  1.00 20.00     0.169 C 
HETATM    4  C6  UNL     1     -32.446   7.152   3.033  1.00 20.00     0.124 C 
HETATM    5  C8  UNL     1     -33.656   7.341   3.952  1.00 20.00     0.143 C 
HETATM    6  N9  UNL     1     -32.270   9.114   1.284  1.00 20.00    -0.197 NA
HETATM    7  O10 UNL     1     -34.743   6.581   3.388  1.00 20.00    -0.384 OA
ENDROOT
BRANCH   5   8
HETATM    8  C7  UNL     1     -33.401   6.846   5.348  1.00 20.00     0.016 A 
HETATM    9  C2  UNL     1     -34.306   7.260   6.475  1.00 20.00     0.007 A 
HETATM   10  C3  UNL     1     -34.328   5.842   5.976  1.00 20.00     0.007 A 
ENDBRANCH   5   8
TORSDOF 1
ENDMDL
MODEL 5
REMARK VINA RESULT:      -4.1     11.051     11.560
REMARK  1 active torsions:
REMARK  status: ('A' for Active; 'I' for Inactive)
REMARK    1  A    between atoms: C7_7  and  C8_8 
ROOT
HETATM    1  C1  UNL     1     -37.313  14.820  -4.822  1.00 20.00     0.066 C 
HETATM    2  C4  UNL     1     -35.225  15.708  -5.786  1.00 20.00     0.048 C 
HETATM    3  C5  UNL     1     -34.265  14.686  -5.217  1.00 20.00     0.169 C 
HETATM    4  C6  UNL     1     -36.262  15.845  -4.690  1.00 20.00     0.124 C 
HETATM    5  C8  UNL     1     -35.434  15.626  -3.421  1.00 20.00     0.143 C 
HETATM    6  N9  UNL     1     -38.139  14.012  -4.925  1.00 20.00    -0.197 NA
HETATM    7  O10 UNL     1     -34.272  14.862  -3.796  1.00 20.00    -0.384 OA
ENDROOT
BRANCH   5   8
HETATM    8  C7  UNL     1     -34.979  16.916  -2.800  1.00 20.00     0.016 A 
HETATM    9  C2  UNL     1     -34.853  17.036  -1.307  1.00 20.00     0.007 A 
HETATM   10  C3  UNL     1     -33.619  17.012  -2.165  1.00 20.00     0.007 A 
ENDBRANCH   5   8
TORSDOF 1
ENDMDL
MODEL 6
REMARK VINA RESULT:      -4.1     11.025     12.148
REMARK  1 active torsions:
REMARK  status: ('A' for Active; 'I' for Inactive)
REMARK    1  A    between atoms: C7_7  and  C8_8 
ROOT
HETATM    1  C1  UNL     1     -36.534  15.545  -7.044  1.00 20.00     0.066 C 
HETATM    2  C4  UNL     1     -34.534  14.144  -7.388  1.00 20.00     0.048 C 
HETATM    3  C5  UNL     1     -35.158  12.794  -7.107  1.00 20.00     0.169 C 
HETATM    4  C6  UNL     1     -35.278  15.063  -6.440  1.00 20.00     0.124 C 
HETATM    5  C8  UNL     1     -35.557  14.150  -5.243  1.00 20.00     0.143 C 
HETATM    6  N9  UNL     1     -37.522  15.922  -7.520  1.00 20.00    -0.197 NA
HETATM    7  O10 UNL     1     -35.534  12.793  -5.726  1.00 20.00    -0.384 OA
ENDROOT
BRANCH   5   8
HETATM    8  C7  UNL     1     -34.524  14.289  -4.160  1.00 20.00     0.016 A 
HETATM    9  C2  UNL     1     -33.320  15.165  -4.370  1.00 20.00     0.007 A 
HETATM   10  C3  UNL     1     -34.392  15.580  -3.401  1.00 20.00     0.007 A 
ENDBRANCH   5   8
TORSDOF 1
ENDMDL
MODEL 7
REMARK VINA RESULT:      -4.1     11.157     12.020
REMARK  1 active torsions:
REMARK  status: ('A' for Active; 'I' for Inactive)
REMARK    1  A    between atoms: C7_7  and  C8_8 
ROOT
HETATM    1  C1  UNL     1     -35.973  13.944  -4.909  1.00 20.00     0.066 C 
HETATM    2  C4  UNL     1     -36.842  16.161  -5.547  1.00 20.00     0.048 C 
HETATM    3  C5  UNL     1     -35.703  16.596  -6.443  1.00 20.00     0.169 C 
HETATM    4  C6  UNL     1     -36.140  15.344  -4.480  1.00 20.00     0.124 C 
HETATM    5  C8  UNL     1     -34.786  16.049  -4.361  1.00 20.00     0.143 C 
HETATM    6  N9  UNL     1     -35.841  12.842  -5.246  1.00 20.00    -0.197 NA
HETATM    7  O10 UNL     1     -34.550  16.736  -5.605  1.00 20.00    -0.384 OA
ENDROOT
BRANCH   5   8
HETATM    8  C7  UNL     1     -34.758  17.057  -3.247  1.00 20.00     0.016 A 
HETATM    9  C2  UNL     1     -35.149  16.654  -1.852  1.00 20.00     0.007 A 
HETATM   10  C3  UNL     1     -33.713  16.966  -2.170  1.00 20.00     0.007 A 
ENDBRANCH   5   8
TORSDOF 1
ENDMDL
MODEL 8
REMARK VINA RESULT:      -4.0     11.084     11.937
REMARK  1 active torsions:
REMARK  status: ('A' for Active; 'I' for Inactive)
REMARK    1  A    between atoms: C7_7  and  C8_8 
ROOT
HETATM    1  C1  UNL     1     -33.563  16.427  -6.060  1.00 20.00     0.066 C 
HETATM    2  C4  UNL     1     -33.348  14.440  -4.617  1.00 20.00     0.048 C 
HETATM    3  C5  UNL     1     -34.814  14.236  -4.300  1.00 20.00     0.169 C 
HETATM    4  C6  UNL     1     -33.228  15.948  -4.707  1.00 20.00     0.124 C 
HETATM    5  C8  UNL     1     -34.261  16.425  -3.682  1.00 20.00     0.143 C 
HETATM    6  N9  UNL     1     -33.827  16.804  -7.125  1.00 20.00    -0.197 NA
HETATM    7  O10 UNL     1     -35.229  15.369  -3.529  1.00 20.00    -0.384 OA
ENDROOT
BRANCH   5   8
HETATM    8  C7  UNL     1     -33.650  16.711  -2.340  1.00 20.00     0.016 A 
HETATM    9  C2  UNL     1     -33.286  18.119  -1.959  1.00 20.00     0.007 A 
HETATM   10  C3  UNL     1     -34.443  17.435  -1.286  1.00 20.00     0.007 A 
ENDBRANCH   5   8
TORSDOF 1
ENDMDL
MODEL 9
REMARK VINA RESULT:      -3.8     10.885     11.722
REMARK  1 active torsions:
REMARK  status: ('A' for Active; 'I' for Inactive)
REMARK    1  A    between atoms: C7_7  and  C8_8 
ROOT
HETATM    1  C1  UNL     1     -34.900  15.754  -3.093  1.00 20.00     0.066 C 
HETATM    2  C4  UNL     1     -33.122  14.681  -4.421  1.00 20.00     0.048 C 
HETATM    3  C5  UNL     1     -32.989  15.730  -5.504  1.00 20.00     0.169 C 
HETATM    4  C6  UNL     1     -34.602  14.716  -4.096  1.00 20.00     0.124 C 
HETATM    5  C8  UNL     1     -35.231  15.060  -5.449  1.00 20.00     0.143 C 
HETATM    6  N9  UNL     1     -35.135  16.572  -2.305  1.00 20.00    -0.197 NA
HETATM    7  O10 UNL     1     -34.223  15.729  -6.231  1.00 20.00    -0.384 OA
ENDROOT
BRANCH   5   8
HETATM    8  C7  UNL     1     -35.684  13.839  -6.199  1.00 20.00     0.016 A 
HETATM    9  C2  UNL     1     -36.172  13.960  -7.616  1.00 20.00     0.007 A 
HETATM   10  C3  UNL     1     -34.855  13.293  -7.329  1.00 20.00     0.007 A 
ENDBRANCH   5   8
TORSDOF 1
ENDMDL
