MODEL 1
REMARK VINA RESULT:      -4.5      0.000      0.000
REMARK  1 active torsions:
REMARK  status: ('A' for Active; 'I' for Inactive)
REMARK    1  A    between atoms: C2_2  and  C7_7 
ROOT
HETATM    1  C1  UNL     1     -33.559   7.096   4.730  1.00 20.00     0.141 C 
HETATM    2  C3  UNL     1     -34.734   6.145   4.644  1.00 20.00     0.079 C 
HETATM    3  C4  UNL     1     -34.304   4.814   4.046  1.00 20.00     0.007 C 
HETATM    4  C5  UNL     1     -33.600   5.003   2.707  1.00 20.00     0.002 C 
HETATM    5  C6  UNL     1     -32.387   5.924   2.849  1.00 20.00     0.024 C 
HETATM    6  C7  UNL     1     -32.743   7.297   3.449  1.00 20.00     0.070 C 
HETATM    7  C8  UNL     1     -31.454   8.071   3.749  1.00 20.00     0.031 C 
HETATM    8  O9  UNL     1     -33.342   7.731   5.762  1.00 20.00    -0.297 OA
ENDROOT
BRANCH   6   9
HETATM    9  C2  UNL     1     -33.509   8.115   2.441  1.00 20.00     0.248 C 
HETATM   10  O10 UNL     1     -32.980   8.919   1.681  1.00 20.00    -0.306 OA
ENDBRANCH   6   9
TORSDOF 1
ENDMDL
MODEL 2
REMARK VINA RESULT:      -4.3      2.016      3.563
REMARK  1 active torsions:
REMARK  status: ('A' for Active; 'I' for Inactive)
REMARK    1  A    between atoms: C2_2  and  C7_7 
ROOT
HETATM    1  C1  UNL     1     -33.189   5.755   3.187  1.00 20.00     0.141 C 
HETATM    2  C3  UNL     1     -32.780   7.184   2.898  1.00 20.00     0.079 C 
HETATM    3  C4  UNL     1     -32.337   7.884   4.174  1.00 20.00     0.007 C 
HETATM    4  C5  UNL     1     -33.398   7.784   5.265  1.00 20.00     0.002 C 
HETATM    5  C6  UNL     1     -33.741   6.324   5.566  1.00 20.00     0.024 C 
HETATM    6  C7  UNL     1     -34.201   5.545   4.319  1.00 20.00     0.070 C 
HETATM    7  C8  UNL     1     -34.320   4.056   4.664  1.00 20.00     0.031 C 
HETATM    8  O9  UNL     1     -32.785   4.832   2.480  1.00 20.00    -0.297 OA
ENDROOT
BRANCH   6   9
HETATM    9  C2  UNL     1     -35.577   6.001   3.908  1.00 20.00     0.248 C 
HETATM   10  O10 UNL     1     -35.866   6.328   2.762  1.00 20.00    -0.306 OA
ENDBRANCH   6   9
TORSDOF 1
ENDMDL
MODEL 3
REMARK VINA RESULT:      -4.3     10.991     12.522
REMARK  1 active torsions:
REMARK  status: ('A' for Active; 'I' for Inactive)
REMARK    1  A    between atoms: C2_2  and  C7_7 
ROOT
HETATM    1  C1  UNL     1     -35.897  14.091  -5.115  1.00 20.00     0.141 C 
HETATM    2  C3  UNL     1     -34.753  14.050  -4.123  1.00 20.00     0.079 C 
HETATM    3  C4  UNL     1     -33.923  15.321  -4.209  1.00 20.00     0.007 C 
HETATM    4  C5  UNL     1     -33.457  15.591  -5.635  1.00 20.00     0.002 C 
HETATM    5  C6  UNL     1     -34.646  15.681  -6.594  1.00 20.00     0.024 C 
HETATM    6  C7  UNL     1     -35.537  14.425  -6.566  1.00 20.00     0.070 C 
HETATM    7  C8  UNL     1     -36.805  14.683  -7.388  1.00 20.00     0.031 C 
HETATM    8  O9  UNL     1     -37.037  13.781  -4.768  1.00 20.00    -0.297 OA
ENDROOT
BRANCH   6   9
HETATM    9  C2  UNL     1     -34.823  13.274  -7.227  1.00 20.00     0.248 C 
HETATM   10  O10 UNL     1     -35.049  12.098  -6.963  1.00 20.00    -0.306 OA
ENDBRANCH   6   9
TORSDOF 1
ENDMDL
MODEL 4
REMARK VINA RESULT:      -4.2      1.793      2.991
REMARK  1 active torsions:
REMARK  status: ('A' for Active; 'I' for Inactive)
REMARK    1  A    between atoms: C2_2  and  C7_7 
ROOT
HETATM    1  C1  UNL     1     -32.979   7.012   3.816  1.00 20.00     0.141 C 
HETATM    2  C3  UNL     1     -33.490   7.872   4.953  1.00 20.00     0.079 C 
HETATM    3  C4  UNL     1     -33.727   7.030   6.197  1.00 20.00     0.007 C 
HETATM    4  C5  UNL     1     -34.636   5.841   5.904  1.00 20.00     0.002 C 
HETATM    5  C6  UNL     1     -34.056   4.968   4.790  1.00 20.00     0.024 C 
HETATM    6  C7  UNL     1     -33.788   5.752   3.491  1.00 20.00     0.070 C 
HETATM    7  C8  UNL     1     -33.021   4.860   2.507  1.00 20.00     0.031 C 
HETATM    8  O9  UNL     1     -32.013   7.372   3.143  1.00 20.00    -0.297 OA
ENDROOT
BRANCH   6   9
HETATM    9  C2  UNL     1     -35.093   6.101   2.824  1.00 20.00     0.248 C 
HETATM   10  O10 UNL     1     -36.171   6.108   3.409  1.00 20.00    -0.306 OA
ENDBRANCH   6   9
TORSDOF 1
ENDMDL
MODEL 5
REMARK VINA RESULT:      -4.1     11.104     12.117
REMARK  1 active torsions:
REMARK  status: ('A' for Active; 'I' for Inactive)
REMARK    1  A    between atoms: C2_2  and  C7_7 
ROOT
HETATM    1  C1  UNL     1     -34.248  14.698  -4.150  1.00 20.00     0.141 C 
HETATM    2  C3  UNL     1     -33.767  15.923  -3.402  1.00 20.00     0.079 C 
HETATM    3  C4  UNL     1     -34.857  16.455  -2.485  1.00 20.00     0.007 C 
HETATM    4  C5  UNL     1     -36.157  16.701  -3.244  1.00 20.00     0.002 C 
HETATM    5  C6  UNL     1     -36.638  15.425  -3.937  1.00 20.00     0.024 C 
HETATM    6  C7  UNL     1     -35.585  14.825  -4.888  1.00 20.00     0.070 C 
HETATM    7  C8  UNL     1     -36.063  13.451  -5.374  1.00 20.00     0.031 C 
HETATM    8  O9  UNL     1     -33.544  13.691  -4.222  1.00 20.00    -0.297 OA
ENDROOT
BRANCH   6   9
HETATM    9  C2  UNL     1     -35.448  15.689  -6.115  1.00 20.00     0.248 C 
HETATM   10  O10 UNL     1     -34.577  15.527  -6.962  1.00 20.00    -0.306 OA
ENDBRANCH   6   9
TORSDOF 1
ENDMDL
MODEL 6
REMARK VINA RESULT:      -4.1     11.388     12.395
REMARK  1 active torsions:
REMARK  status: ('A' for Active; 'I' for Inactive)
REMARK    1  A    between atoms: C2_2  and  C7_7 
ROOT
HETATM    1  C1  UNL     1     -35.906  16.130  -4.558  1.00 20.00     0.141 C 
HETATM    2  C3  UNL     1     -35.204  16.126  -3.217  1.00 20.00     0.079 C 
HETATM    3  C4  UNL     1     -33.695  16.093  -3.401  1.00 20.00     0.007 C 
HETATM    4  C5  UNL     1     -33.265  14.934  -4.294  1.00 20.00     0.002 C 
HETATM    5  C6  UNL     1     -33.954  15.007  -5.659  1.00 20.00     0.024 C 
HETATM    6  C7  UNL     1     -35.490  15.043  -5.555  1.00 20.00     0.070 C 
HETATM    7  C8  UNL     1     -36.087  15.326  -6.939  1.00 20.00     0.031 C 
HETATM    8  O9  UNL     1     -36.824  16.920  -4.783  1.00 20.00    -0.297 OA
ENDROOT
BRANCH   6   9
HETATM    9  C2  UNL     1     -36.008  13.693  -5.132  1.00 20.00     0.248 C 
HETATM   10  O10 UNL     1     -35.609  12.636  -5.610  1.00 20.00    -0.306 OA
ENDBRANCH   6   9
TORSDOF 1
ENDMDL
MODEL 7
REMARK VINA RESULT:      -4.0      2.189      3.128
REMARK  1 active torsions:
REMARK  status: ('A' for Active; 'I' for Inactive)
REMARK    1  A    between atoms: C2_2  and  C7_7 
ROOT
HETATM    1  C1  UNL     1     -34.793   5.866   4.244  1.00 20.00     0.141 C 
HETATM    2  C3  UNL     1     -34.279   6.026   5.659  1.00 20.00     0.079 C 
HETATM    3  C4  UNL     1     -33.703   7.418   5.867  1.00 20.00     0.007 C 
HETATM    4  C5  UNL     1     -32.649   7.750   4.816  1.00 20.00     0.002 C 
HETATM    5  C6  UNL     1     -33.224   7.632   3.404  1.00 20.00     0.024 C 
HETATM    6  C7  UNL     1     -33.827   6.244   3.115  1.00 20.00     0.070 C 
HETATM    7  C8  UNL     1     -34.561   6.278   1.769  1.00 20.00     0.031 C 
HETATM    8  O9  UNL     1     -35.900   5.372   4.031  1.00 20.00    -0.297 OA
ENDROOT
BRANCH   6   9
HETATM    9  C2  UNL     1     -32.727   5.224   2.979  1.00 20.00     0.248 C 
HETATM   10  O10 UNL     1     -32.821   4.217   2.285  1.00 20.00    -0.306 OA
ENDBRANCH   6   9
TORSDOF 1
ENDMDL
MODEL 8
REMARK VINA RESULT:      -4.0     10.806     12.267
REMARK  1 active torsions:
REMARK  status: ('A' for Active; 'I' for Inactive)
REMARK    1  A    between atoms: C2_2  and  C7_7 
ROOT
HETATM    1  C1  UNL     1     -35.574  16.213  -4.797  1.00 20.00     0.141 C 
HETATM    2  C3  UNL     1     -36.640  16.369  -3.732  1.00 20.00     0.079 C 
HETATM    3  C4  UNL     1     -36.105  17.162  -2.550  1.00 20.00     0.007 C 
HETATM    4  C5  UNL     1     -34.814  16.558  -2.008  1.00 20.00     0.002 C 
HETATM    5  C6  UNL     1     -33.747  16.471  -3.101  1.00 20.00     0.024 C 
HETATM    6  C7  UNL     1     -34.215  15.678  -4.335  1.00 20.00     0.070 C 
HETATM    7  C8  UNL     1     -33.175  15.818  -5.454  1.00 20.00     0.031 C 
HETATM    8  O9  UNL     1     -35.836  16.427  -5.981  1.00 20.00    -0.297 OA
ENDROOT
BRANCH   6   9
HETATM    9  C2  UNL     1     -34.294  14.210  -4.004  1.00 20.00     0.248 C 
HETATM   10  O10 UNL     1     -34.998  13.416  -4.617  1.00 20.00    -0.306 OA
ENDBRANCH   6   9
TORSDOF 1
ENDMDL
MODEL 9
REMARK VINA RESULT:      -4.0     11.257     12.476
REMARK  1 active torsions:
REMARK  status: ('A' for Active; 'I' for Inactive)
REMARK    1  A    between atoms: C2_2  and  C7_7 
ROOT
HETATM    1  C1  UNL     1     -35.695  13.931  -4.991  1.00 20.00     0.141 C 
HETATM    2  C3  UNL     1     -34.280  14.391  -4.708  1.00 20.00     0.079 C 
HETATM    3  C4  UNL     1     -34.248  15.317  -3.502  1.00 20.00     0.007 C 
HETATM    4  C5  UNL     1     -35.224  16.478  -3.661  1.00 20.00     0.002 C 
HETATM    5  C6  UNL     1     -36.649  15.969  -3.887  1.00 20.00     0.024 C 
HETATM    6  C7  UNL     1     -36.764  15.023  -5.097  1.00 20.00     0.070 C 
HETATM    7  C8  UNL     1     -38.166  14.402  -5.126  1.00 20.00     0.031 C 
HETATM    8  O9  UNL     1     -35.936  12.743  -5.208  1.00 20.00    -0.297 OA
ENDROOT
BRANCH   6   9
HETATM    9  C2  UNL     1     -36.616  15.805  -6.377  1.00 20.00     0.248 C 
HETATM   10  O10 UNL     1     -36.516  15.281  -7.481  1.00 20.00    -0.306 OA
ENDBRANCH   6   9
TORSDOF 1
ENDMDL
