MODEL 1
REMARK VINA RESULT:      -3.7      0.000      0.000
REMARK  2 active torsions:
REMARK  status: ('A' for Active; 'I' for Inactive)
REMARK    1  A    between atoms: C1_1  and  C4_4 
REMARK    2  A    between atoms: C4_4  and  N5_5 
ROOT
HETATM    1  C4  UNL     1     -34.221   6.874   3.919  1.00 20.00     0.367 C 
ENDROOT
BRANCH   1   2
HETATM    2  C1  UNL     1     -34.130   6.587   5.403  1.00 20.00     0.247 C 
HETATM    3  O6  UNL     1     -33.761   7.411   6.234  1.00 20.00    -0.278 OA
HETATM    4 CL7  UNL     1     -34.616   4.950   5.759  1.00 20.00    -0.042 Cl
ENDBRANCH   1   2
BRANCH   1   5
HETATM    5  N5  UNL     1     -32.938   6.566   3.290  1.00 20.00     0.088 N 
HETATM    6  C2  UNL     1     -32.521   7.660   2.413  1.00 20.00     0.310 C 
HETATM    7  C3  UNL     1     -33.024   5.313   2.539  1.00 20.00     0.310 C 
ENDBRANCH   1   5
TORSDOF 2
ENDMDL
MODEL 2
REMARK VINA RESULT:      -3.7      1.492      1.492
REMARK  2 active torsions:
REMARK  status: ('A' for Active; 'I' for Inactive)
REMARK    1  A    between atoms: C1_1  and  C4_4 
REMARK    2  A    between atoms: C4_4  and  N5_5 
ROOT
HETATM    1  C4  UNL     1     -34.496   6.214   3.811  1.00 20.00     0.367 C 
ENDROOT
BRANCH   1   2
HETATM    2  C1  UNL     1     -34.442   5.993   5.307  1.00 20.00     0.247 C 
HETATM    3  O6  UNL     1     -34.816   4.961   5.856  1.00 20.00    -0.278 OA
HETATM    4 CL7  UNL     1     -33.784   7.386   6.127  1.00 20.00    -0.042 Cl
ENDBRANCH   1   2
BRANCH   1   5
HETATM    5  N5  UNL     1     -33.141   6.147   3.266  1.00 20.00     0.088 N 
HETATM    6  C2  UNL     1     -32.843   7.346   2.483  1.00 20.00     0.310 C 
HETATM    7  C3  UNL     1     -32.979   4.947   2.444  1.00 20.00     0.310 C 
ENDBRANCH   1   5
TORSDOF 2
ENDMDL
MODEL 3
REMARK VINA RESULT:      -3.5      2.879      3.466
REMARK  2 active torsions:
REMARK  status: ('A' for Active; 'I' for Inactive)
REMARK    1  A    between atoms: C1_1  and  C4_4 
REMARK    2  A    between atoms: C4_4  and  N5_5 
ROOT
HETATM    1  C4  UNL     1     -32.875   6.677   3.117  1.00 20.00     0.367 C 
ENDROOT
BRANCH   1   2
HETATM    2  C1  UNL     1     -32.111   7.962   2.878  1.00 20.00     0.247 C 
HETATM    3  O6  UNL     1     -31.247   8.390   3.637  1.00 20.00    -0.278 OA
HETATM    4 CL7  UNL     1     -32.621   8.732   1.398  1.00 20.00    -0.042 Cl
ENDBRANCH   1   2
BRANCH   1   5
HETATM    5  N5  UNL     1     -34.066   6.967   3.914  1.00 20.00     0.088 N 
HETATM    6  C2  UNL     1     -33.708   7.152   5.320  1.00 20.00     0.310 C 
HETATM    7  C3  UNL     1     -35.050   5.893   3.774  1.00 20.00     0.310 C 
ENDBRANCH   1   5
TORSDOF 2
ENDMDL
MODEL 4
REMARK VINA RESULT:      -3.5      2.392      3.417
REMARK  2 active torsions:
REMARK  status: ('A' for Active; 'I' for Inactive)
REMARK    1  A    between atoms: C1_1  and  C4_4 
REMARK    2  A    between atoms: C4_4  and  N5_5 
ROOT
HETATM    1  C4  UNL     1     -34.364   6.500   3.820  1.00 20.00     0.367 C 
ENDROOT
BRANCH   1   2
HETATM    2  C1  UNL     1     -33.232   6.401   2.819  1.00 20.00     0.247 C 
HETATM    3  O6  UNL     1     -32.652   7.375   2.350  1.00 20.00    -0.278 OA
HETATM    4 CL7  UNL     1     -32.876   4.737   2.435  1.00 20.00    -0.042 Cl
ENDBRANCH   1   2
BRANCH   1   5
HETATM    5  N5  UNL     1     -33.865   6.142   5.147  1.00 20.00     0.088 N 
HETATM    6  C2  UNL     1     -34.689   5.087   5.736  1.00 20.00     0.310 C 
HETATM    7  C3  UNL     1     -33.839   7.317   6.018  1.00 20.00     0.310 C 
ENDBRANCH   1   5
TORSDOF 2
ENDMDL
MODEL 5
REMARK VINA RESULT:      -3.4      1.764      2.156
REMARK  2 active torsions:
REMARK  status: ('A' for Active; 'I' for Inactive)
REMARK    1  A    between atoms: C1_1  and  C4_4 
REMARK    2  A    between atoms: C4_4  and  N5_5 
ROOT
HETATM    1  C4  UNL     1     -33.375   6.031   3.002  1.00 20.00     0.367 C 
ENDROOT
BRANCH   1   2
HETATM    2  C1  UNL     1     -34.584   5.473   3.723  1.00 20.00     0.247 C 
HETATM    3  O6  UNL     1     -35.693   5.997   3.696  1.00 20.00    -0.278 OA
HETATM    4 CL7  UNL     1     -34.185   4.006   4.579  1.00 20.00    -0.042 Cl
ENDBRANCH   1   2
BRANCH   1   5
HETATM    5  N5  UNL     1     -33.240   7.452   3.318  1.00 20.00     0.088 N 
HETATM    6  C2  UNL     1     -32.214   8.068   2.478  1.00 20.00     0.310 C 
HETATM    7  C3  UNL     1     -32.919   7.633   4.734  1.00 20.00     0.310 C 
ENDBRANCH   1   5
TORSDOF 2
ENDMDL
MODEL 6
REMARK VINA RESULT:      -3.4      2.122      2.501
REMARK  2 active torsions:
REMARK  status: ('A' for Active; 'I' for Inactive)
REMARK    1  A    between atoms: C1_1  and  C4_4 
REMARK    2  A    between atoms: C4_4  and  N5_5 
ROOT
HETATM    1  C4  UNL     1     -33.584   7.258   3.338  1.00 20.00     0.367 C 
ENDROOT
BRANCH   1   2
HETATM    2  C1  UNL     1     -33.708   5.749   3.349  1.00 20.00     0.247 C 
HETATM    3  O6  UNL     1     -33.045   5.007   2.631  1.00 20.00    -0.278 OA
HETATM    4 CL7  UNL     1     -34.904   5.224   4.507  1.00 20.00    -0.042 Cl
ENDBRANCH   1   2
BRANCH   1   5
HETATM    5  N5  UNL     1     -32.310   7.631   2.725  1.00 20.00     0.088 N 
HETATM    6  C2  UNL     1     -31.413   8.211   3.724  1.00 20.00     0.310 C 
HETATM    7  C3  UNL     1     -32.527   8.571   1.625  1.00 20.00     0.310 C 
ENDBRANCH   1   5
TORSDOF 2
ENDMDL
MODEL 7
REMARK VINA RESULT:      -3.4      2.780      3.714
REMARK  2 active torsions:
REMARK  status: ('A' for Active; 'I' for Inactive)
REMARK    1  A    between atoms: C1_1  and  C4_4 
REMARK    2  A    between atoms: C4_4  and  N5_5 
ROOT
HETATM    1  C4  UNL     1     -34.360   6.227   3.809  1.00 20.00     0.367 C 
ENDROOT
BRANCH   1   2
HETATM    2  C1  UNL     1     -33.219   6.002   2.840  1.00 20.00     0.247 C 
HETATM    3  O6  UNL     1     -32.884   4.896   2.429  1.00 20.00    -0.278 OA
HETATM    4 CL7  UNL     1     -32.463   7.511   2.397  1.00 20.00    -0.042 Cl
ENDBRANCH   1   2
BRANCH   1   5
HETATM    5  N5  UNL     1     -33.879   6.023   5.174  1.00 20.00     0.088 N 
HETATM    6  C2  UNL     1     -34.705   5.034   5.866  1.00 20.00     0.310 C 
HETATM    7  C3  UNL     1     -33.872   7.288   5.909  1.00 20.00     0.310 C 
ENDBRANCH   1   5
TORSDOF 2
ENDMDL
MODEL 8
REMARK VINA RESULT:      -3.4      4.101      4.718
REMARK  2 active torsions:
REMARK  status: ('A' for Active; 'I' for Inactive)
REMARK    1  A    between atoms: C1_1  and  C4_4 
REMARK    2  A    between atoms: C4_4  and  N5_5 
ROOT
HETATM    1  C4  UNL     1     -31.851   8.530   1.419  1.00 20.00     0.367 C 
ENDROOT
BRANCH   1   2
HETATM    2  C1  UNL     1     -32.575   9.726   0.837  1.00 20.00     0.247 C 
HETATM    3  O6  UNL     1     -32.657  10.812   1.402  1.00 20.00    -0.278 OA
HETATM    4 CL7  UNL     1     -33.264   9.348  -0.721  1.00 20.00    -0.042 Cl
ENDBRANCH   1   2
BRANCH   1   5
HETATM    5  N5  UNL     1     -32.457   8.178   2.702  1.00 20.00     0.088 N 
HETATM    6  C2  UNL     1     -31.466   8.255   3.775  1.00 20.00     0.310 C 
HETATM    7  C3  UNL     1     -33.041   6.838   2.641  1.00 20.00     0.310 C 
ENDBRANCH   1   5
TORSDOF 2
ENDMDL
MODEL 9
REMARK VINA RESULT:      -3.4      2.329      2.896
REMARK  2 active torsions:
REMARK  status: ('A' for Active; 'I' for Inactive)
REMARK    1  A    between atoms: C1_1  and  C4_4 
REMARK    2  A    between atoms: C4_4  and  N5_5 
ROOT
HETATM    1  C4  UNL     1     -34.362   6.256   3.915  1.00 20.00     0.367 C 
ENDROOT
BRANCH   1   2
HETATM    2  C1  UNL     1     -34.090   4.776   3.752  1.00 20.00     0.247 C 
HETATM    3  O6  UNL     1     -34.620   3.908   4.438  1.00 20.00    -0.278 OA
HETATM    4 CL7  UNL     1     -32.940   4.484   2.473  1.00 20.00    -0.042 Cl
ENDBRANCH   1   2
BRANCH   1   5
HETATM    5  N5  UNL     1     -33.202   6.892   4.538  1.00 20.00     0.088 N 
HETATM    6  C2  UNL     1     -33.583   7.529   5.799  1.00 20.00     0.310 C 
HETATM    7  C3  UNL     1     -32.607   7.873   3.630  1.00 20.00     0.310 C 
ENDBRANCH   1   5
TORSDOF 2
ENDMDL
