MODEL 1
REMARK VINA RESULT:      -6.6      0.000      0.000
REMARK  2 active torsions:
REMARK  status: ('A' for Active; 'I' for Inactive)
REMARK    1  A    between atoms: C2_2  and  C3_3 
REMARK    2  A    between atoms: C3_3  and  O11_11 
ROOT
HETATM    1  C1  UNL     1     -33.592   6.455   3.411  1.00 20.00    -0.074 C 
HETATM    2  C2  UNL     1     -32.614   6.867   2.591  1.00 20.00     0.085 C 
HETATM    3  C4  UNL     1     -34.265   5.117   3.258  1.00 20.00     0.034 C 
HETATM    4  C5  UNL     1     -34.081   7.288   4.568  1.00 20.00     0.034 C 
HETATM    5  C6  UNL     1     -34.210   4.329   4.567  1.00 20.00     0.004 C 
HETATM    6  C7  UNL     1     -34.028   6.489   5.870  1.00 20.00     0.004 C 
HETATM    7  C8  UNL     1     -34.746   5.145   5.744  1.00 20.00     0.001 C 
ENDROOT
BRANCH   2   8
HETATM    8  C3  UNL     1     -31.994   8.190   2.794  1.00 20.00     0.282 C 
HETATM    9  O10 UNL     1     -31.153   8.458   3.638  1.00 20.00    -0.260 OA
BRANCH   8  10
HETATM   10  O11 UNL     1     -32.528   9.037   1.872  1.00 20.00    -0.323 OA
HETATM   11  C9  UNL     1     -31.833   9.104   0.623  1.00 20.00     0.213 C 
ENDBRANCH   8  10
ENDBRANCH   2   8
TORSDOF 2
ENDMDL
MODEL 2
REMARK VINA RESULT:      -5.7      1.270      2.256
REMARK  2 active torsions:
REMARK  status: ('A' for Active; 'I' for Inactive)
REMARK    1  A    between atoms: C2_2  and  C3_3 
REMARK    2  A    between atoms: C3_3  and  O11_11 
ROOT
HETATM    1  C1  UNL     1     -32.581   7.646   3.491  1.00 20.00    -0.074 C 
HETATM    2  C2  UNL     1     -32.157   8.774   2.905  1.00 20.00     0.085 C 
HETATM    3  C4  UNL     1     -32.774   7.530   4.979  1.00 20.00     0.034 C 
HETATM    4  C5  UNL     1     -32.924   6.407   2.704  1.00 20.00     0.034 C 
HETATM    5  C6  UNL     1     -34.186   7.040   5.307  1.00 20.00     0.004 C 
HETATM    6  C7  UNL     1     -34.334   5.922   3.043  1.00 20.00     0.004 C 
HETATM    7  C8  UNL     1     -34.532   5.757   4.551  1.00 20.00     0.001 C 
ENDROOT
BRANCH   2   8
HETATM    8  C3  UNL     1     -31.987   8.824   1.441  1.00 20.00     0.282 C 
HETATM    9  O10 UNL     1     -31.069   8.317   0.815  1.00 20.00    -0.260 OA
BRANCH   8  10
HETATM   10  O11 UNL     1     -33.034   9.529   0.931  1.00 20.00    -0.323 OA
HETATM   11  C9  UNL     1     -33.207   9.435  -0.486  1.00 20.00     0.213 C 
ENDBRANCH   8  10
ENDBRANCH   2   8
TORSDOF 2
ENDMDL
MODEL 3
REMARK VINA RESULT:      -4.6     11.073     11.790
REMARK  2 active torsions:
REMARK  status: ('A' for Active; 'I' for Inactive)
REMARK    1  A    between atoms: C2_2  and  C3_3 
REMARK    2  A    between atoms: C3_3  and  O11_11 
ROOT
HETATM    1  C1  UNL     1     -34.713  16.085  -3.262  1.00 20.00    -0.074 C 
HETATM    2  C2  UNL     1     -34.724  14.889  -3.866  1.00 20.00     0.085 C 
HETATM    3  C4  UNL     1     -35.878  16.596  -2.457  1.00 20.00     0.034 C 
HETATM    4  C5  UNL     1     -33.522  17.008  -3.318  1.00 20.00     0.034 C 
HETATM    5  C6  UNL     1     -35.431  17.007  -1.054  1.00 20.00     0.004 C 
HETATM    6  C7  UNL     1     -33.087  17.417  -1.911  1.00 20.00     0.004 C 
HETATM    7  C8  UNL     1     -34.251  17.979  -1.095  1.00 20.00     0.001 C 
ENDROOT
BRANCH   2   8
HETATM    8  C3  UNL     1     -33.550  14.445  -4.641  1.00 20.00     0.282 C 
HETATM    9  O10 UNL     1     -32.596  13.828  -4.192  1.00 20.00    -0.260 OA
BRANCH   8  10
HETATM   10  O11 UNL     1     -33.734  14.845  -5.928  1.00 20.00    -0.323 OA
HETATM   11  C9  UNL     1     -34.437  13.921  -6.765  1.00 20.00     0.213 C 
ENDBRANCH   8  10
ENDBRANCH   2   8
TORSDOF 2
ENDMDL
MODEL 4
REMARK VINA RESULT:      -4.6     11.506     12.286
REMARK  2 active torsions:
REMARK  status: ('A' for Active; 'I' for Inactive)
REMARK    1  A    between atoms: C2_2  and  C3_3 
REMARK    2  A    between atoms: C3_3  and  O11_11 
ROOT
HETATM    1  C1  UNL     1     -35.948  15.691  -4.102  1.00 20.00    -0.074 C 
HETATM    2  C2  UNL     1     -36.827  14.760  -4.500  1.00 20.00     0.085 C 
HETATM    3  C4  UNL     1     -36.283  16.730  -3.066  1.00 20.00     0.034 C 
HETATM    4  C5  UNL     1     -34.543  15.758  -4.643  1.00 20.00     0.034 C 
HETATM    5  C6  UNL     1     -35.255  16.720  -1.934  1.00 20.00     0.004 C 
HETATM    6  C7  UNL     1     -33.523  15.753  -3.503  1.00 20.00     0.004 C 
HETATM    7  C8  UNL     1     -33.825  16.833  -2.464  1.00 20.00     0.001 C 
ENDROOT
BRANCH   2   8
HETATM    8  C3  UNL     1     -36.438  13.769  -5.520  1.00 20.00     0.282 C 
HETATM    9  O10 UNL     1     -35.894  12.699  -5.297  1.00 20.00    -0.260 OA
BRANCH   8  10
HETATM   10  O11 UNL     1     -36.799  14.267  -6.733  1.00 20.00    -0.323 OA
HETATM   11  C9  UNL     1     -36.002  13.831  -7.839  1.00 20.00     0.213 C 
ENDBRANCH   8  10
ENDBRANCH   2   8
TORSDOF 2
ENDMDL
MODEL 5
REMARK VINA RESULT:      -4.4     11.364     12.684
REMARK  2 active torsions:
REMARK  status: ('A' for Active; 'I' for Inactive)
REMARK    1  A    between atoms: C2_2  and  C3_3 
REMARK    2  A    between atoms: C3_3  and  O11_11 
ROOT
HETATM    1  C1  UNL     1     -34.790  15.602  -5.131  1.00 20.00    -0.074 C 
HETATM    2  C2  UNL     1     -35.750  14.953  -5.805  1.00 20.00     0.085 C 
HETATM    3  C4  UNL     1     -34.138  16.853  -5.656  1.00 20.00     0.034 C 
HETATM    4  C5  UNL     1     -34.300  15.145  -3.781  1.00 20.00     0.034 C 
HETATM    5  C6  UNL     1     -34.222  17.982  -4.628  1.00 20.00     0.004 C 
HETATM    6  C7  UNL     1     -34.383  16.281  -2.762  1.00 20.00     0.004 C 
HETATM    7  C8  UNL     1     -33.686  17.547  -3.263  1.00 20.00     0.001 C 
ENDROOT
BRANCH   2   8
HETATM    8  C3  UNL     1     -36.350  13.731  -5.236  1.00 20.00     0.282 C 
HETATM    9  O10 UNL     1     -35.867  12.611  -5.293  1.00 20.00    -0.260 OA
BRANCH   8  10
HETATM   10  O11 UNL     1     -37.522  14.087  -4.645  1.00 20.00    -0.323 OA
HETATM   11  C9  UNL     1     -38.459  14.761  -5.491  1.00 20.00     0.213 C 
ENDBRANCH   8  10
ENDBRANCH   2   8
TORSDOF 2
ENDMDL
MODEL 6
REMARK VINA RESULT:      -4.2     11.002     12.575
REMARK  2 active torsions:
REMARK  status: ('A' for Active; 'I' for Inactive)
REMARK    1  A    between atoms: C2_2  and  C3_3 
REMARK    2  A    between atoms: C3_3  and  O11_11 
ROOT
HETATM    1  C1  UNL     1     -34.829  15.526  -3.862  1.00 20.00    -0.074 C 
HETATM    2  C2  UNL     1     -34.480  14.245  -4.045  1.00 20.00     0.085 C 
HETATM    3  C4  UNL     1     -34.307  16.351  -2.716  1.00 20.00     0.034 C 
HETATM    4  C5  UNL     1     -35.753  16.254  -4.805  1.00 20.00     0.034 C 
HETATM    5  C6  UNL     1     -33.670  17.646  -3.225  1.00 20.00     0.004 C 
HETATM    6  C7  UNL     1     -35.110  17.549  -5.302  1.00 20.00     0.004 C 
HETATM    7  C8  UNL     1     -34.614  18.419  -4.147  1.00 20.00     0.001 C 
ENDROOT
BRANCH   2   8
HETATM    8  C3  UNL     1     -35.026  13.490  -5.188  1.00 20.00     0.282 C 
HETATM    9  O10 UNL     1     -36.070  12.856  -5.186  1.00 20.00    -0.260 OA
BRANCH   8  10
HETATM   10  O11 UNL     1     -34.159  13.636  -6.226  1.00 20.00    -0.323 OA
HETATM   11  C9  UNL     1     -34.751  13.622  -7.529  1.00 20.00     0.213 C 
ENDBRANCH   8  10
ENDBRANCH   2   8
TORSDOF 2
ENDMDL
MODEL 7
REMARK VINA RESULT:      -4.2      1.740      4.752
REMARK  2 active torsions:
REMARK  status: ('A' for Active; 'I' for Inactive)
REMARK    1  A    between atoms: C2_2  and  C3_3 
REMARK    2  A    between atoms: C3_3  and  O11_11 
ROOT
HETATM    1  C1  UNL     1     -32.217   8.188   2.107  1.00 20.00    -0.074 C 
HETATM    2  C2  UNL     1     -32.596   7.072   2.747  1.00 20.00     0.085 C 
HETATM    3  C4  UNL     1     -31.478   8.157   0.796  1.00 20.00     0.034 C 
HETATM    4  C5  UNL     1     -32.522   9.566   2.636  1.00 20.00     0.034 C 
HETATM    5  C6  UNL     1     -32.198   9.004  -0.253  1.00 20.00     0.004 C 
HETATM    6  C7  UNL     1     -33.237  10.406   1.578  1.00 20.00     0.004 C 
HETATM    7  C8  UNL     1     -32.474  10.421   0.252  1.00 20.00     0.001 C 
ENDROOT
BRANCH   2   8
HETATM    8  C3  UNL     1     -33.318   7.169   4.030  1.00 20.00     0.282 C 
HETATM    9  O10 UNL     1     -32.855   7.603   5.073  1.00 20.00    -0.260 OA
BRANCH   8  10
HETATM   10  O11 UNL     1     -34.576   6.693   3.827  1.00 20.00    -0.323 OA
HETATM   11  C9  UNL     1     -34.852   5.415   4.408  1.00 20.00     0.213 C 
ENDBRANCH   8  10
ENDBRANCH   2   8
TORSDOF 2
ENDMDL
MODEL 8
REMARK VINA RESULT:      -4.1      2.084      4.421
REMARK  2 active torsions:
REMARK  status: ('A' for Active; 'I' for Inactive)
REMARK    1  A    between atoms: C2_2  and  C3_3 
REMARK    2  A    between atoms: C3_3  and  O11_11 
ROOT
HETATM    1  C1  UNL     1     -33.312   7.035   3.139  1.00 20.00    -0.074 C 
HETATM    2  C2  UNL     1     -34.322   6.644   3.928  1.00 20.00     0.085 C 
HETATM    3  C4  UNL     1     -33.444   7.130   1.643  1.00 20.00     0.034 C 
HETATM    4  C5  UNL     1     -31.967   7.436   3.689  1.00 20.00     0.034 C 
HETATM    5  C6  UNL     1     -33.037   8.520   1.149  1.00 20.00     0.004 C 
HETATM    6  C7  UNL     1     -31.567   8.823   3.185  1.00 20.00     0.004 C 
HETATM    7  C8  UNL     1     -31.654   8.922   1.661  1.00 20.00     0.001 C 
ENDROOT
BRANCH   2   8
HETATM    8  C3  UNL     1     -34.130   6.571   5.389  1.00 20.00     0.282 C 
HETATM    9  O10 UNL     1     -33.766   7.492   6.103  1.00 20.00    -0.260 OA
BRANCH   8  10
HETATM   10  O11 UNL     1     -34.435   5.304   5.779  1.00 20.00    -0.323 OA
HETATM   11  C9  UNL     1     -34.494   4.334   4.728  1.00 20.00     0.213 C 
ENDBRANCH   8  10
ENDBRANCH   2   8
TORSDOF 2
ENDMDL
MODEL 9
REMARK VINA RESULT:      -4.0     10.829     11.889
REMARK  2 active torsions:
REMARK  status: ('A' for Active; 'I' for Inactive)
REMARK    1  A    between atoms: C2_2  and  C3_3 
REMARK    2  A    between atoms: C3_3  and  O11_11 
ROOT
HETATM    1  C1  UNL     1     -35.092  16.538  -3.016  1.00 20.00    -0.074 C 
HETATM    2  C2  UNL     1     -35.408  15.459  -3.746  1.00 20.00     0.085 C 
HETATM    3  C4  UNL     1     -35.989  17.071  -1.931  1.00 20.00     0.034 C 
HETATM    4  C5  UNL     1     -33.800  17.290  -3.204  1.00 20.00     0.034 C 
HETATM    5  C6  UNL     1     -35.228  17.201  -0.611  1.00 20.00     0.004 C 
HETATM    6  C7  UNL     1     -33.050  17.419  -1.878  1.00 20.00     0.004 C 
HETATM    7  C8  UNL     1     -33.936  18.002  -0.777  1.00 20.00     0.001 C 
ENDROOT
BRANCH   2   8
HETATM    8  C3  UNL     1     -34.486  14.985  -4.795  1.00 20.00     0.282 C 
HETATM    9  O10 UNL     1     -34.351  15.486  -5.901  1.00 20.00    -0.260 OA
BRANCH   8  10
HETATM   10  O11 UNL     1     -33.824  13.904  -4.301  1.00 20.00    -0.323 OA
HETATM   11  C9  UNL     1     -32.404  14.042  -4.205  1.00 20.00     0.213 C 
ENDBRANCH   8  10
ENDBRANCH   2   8
TORSDOF 2
ENDMDL
