MODEL 1
REMARK VINA RESULT:      -5.0      0.000      0.000
REMARK  0 active torsions:
REMARK  status: ('A' for Active; 'I' for Inactive)
ROOT
HETATM    1  C1  UNL     1     -33.953   6.733   5.153  1.00 20.00     0.092 C 
HETATM    2  C2  UNL     1     -32.871   7.206   2.643  1.00 20.00     0.023 C 
HETATM    3  C3  UNL     1     -33.320   5.779   2.907  1.00 20.00     0.016 C 
HETATM    4  C4  UNL     1     -32.213   7.760   3.894  1.00 20.00     0.148 C 
HETATM    5  C5  UNL     1     -34.318   5.732   4.071  1.00 20.00    -0.014 C 
HETATM    6  C6  UNL     1     -34.332   4.329   4.691  1.00 20.00     0.020 C 
HETATM    7  C7  UNL     1     -35.735   6.083   3.591  1.00 20.00     0.020 C 
HETATM    8  N8  UNL     1     -33.049   7.646   5.086  1.00 20.00    -0.305 NA
ENDROOT
TORSDOF 0
ENDMDL
MODEL 2
REMARK VINA RESULT:      -4.7      1.049      2.544
REMARK  0 active torsions:
REMARK  status: ('A' for Active; 'I' for Inactive)
ROOT
HETATM    1  C1  UNL     1     -33.048   7.049   3.690  1.00 20.00     0.092 C 
HETATM    2  C2  UNL     1     -34.419   5.645   5.651  1.00 20.00     0.023 C 
HETATM    3  C3  UNL     1     -34.998   5.552   4.249  1.00 20.00     0.016 C 
HETATM    4  C4  UNL     1     -33.940   7.065   5.897  1.00 20.00     0.148 C 
HETATM    5  C5  UNL     1     -33.941   5.921   3.201  1.00 20.00    -0.014 C 
HETATM    6  C6  UNL     1     -34.625   6.371   1.904  1.00 20.00     0.020 C 
HETATM    7  C7  UNL     1     -33.028   4.722   2.898  1.00 20.00     0.020 C 
HETATM    8  N8  UNL     1     -33.016   7.549   4.875  1.00 20.00    -0.305 NA
ENDROOT
TORSDOF 0
ENDMDL
MODEL 3
REMARK VINA RESULT:      -4.1      1.406      2.182
REMARK  0 active torsions:
REMARK  status: ('A' for Active; 'I' for Inactive)
ROOT
HETATM    1  C1  UNL     1     -34.594   5.079   4.349  1.00 20.00     0.092 C 
HETATM    2  C2  UNL     1     -33.681   7.652   4.834  1.00 20.00     0.023 C 
HETATM    3  C3  UNL     1     -32.951   6.891   3.741  1.00 20.00     0.016 C 
HETATM    4  C4  UNL     1     -33.990   6.704   5.979  1.00 20.00     0.148 C 
HETATM    5  C5  UNL     1     -33.810   5.730   3.224  1.00 20.00    -0.014 C 
HETATM    6  C6  UNL     1     -32.915   4.666   2.576  1.00 20.00     0.020 C 
HETATM    7  C7  UNL     1     -34.832   6.225   2.188  1.00 20.00     0.020 C 
HETATM    8  N8  UNL     1     -34.706   5.503   5.559  1.00 20.00    -0.305 NA
ENDROOT
TORSDOF 0
ENDMDL
MODEL 4
REMARK VINA RESULT:      -3.9      1.075      2.180
REMARK  0 active torsions:
REMARK  status: ('A' for Active; 'I' for Inactive)
ROOT
HETATM    1  C1  UNL     1     -33.504   5.886   3.008  1.00 20.00     0.092 C 
HETATM    2  C2  UNL     1     -32.827   7.594   5.086  1.00 20.00     0.023 C 
HETATM    3  C3  UNL     1     -34.302   7.246   4.975  1.00 20.00     0.016 C 
HETATM    4  C4  UNL     1     -32.258   7.795   3.692  1.00 20.00     0.148 C 
HETATM    5  C5  UNL     1     -34.496   5.964   4.156  1.00 20.00    -0.014 C 
HETATM    6  C6  UNL     1     -35.915   5.923   3.576  1.00 20.00     0.020 C 
HETATM    7  C7  UNL     1     -34.273   4.718   5.029  1.00 20.00     0.020 C 
HETATM    8  N8  UNL     1     -32.502   6.665   2.799  1.00 20.00    -0.305 NA
ENDROOT
TORSDOF 0
ENDMDL
MODEL 5
REMARK VINA RESULT:      -3.9      1.454      3.214
REMARK  0 active torsions:
REMARK  status: ('A' for Active; 'I' for Inactive)
ROOT
HETATM    1  C1  UNL     1     -32.821   5.931   2.719  1.00 20.00     0.092 C 
HETATM    2  C2  UNL     1     -34.851   5.971   4.608  1.00 20.00     0.023 C 
HETATM    3  C3  UNL     1     -33.792   7.050   4.758  1.00 20.00     0.016 C 
HETATM    4  C4  UNL     1     -34.180   4.668   4.209  1.00 20.00     0.148 C 
HETATM    5  C5  UNL     1     -33.033   7.251   3.440  1.00 20.00    -0.014 C 
HETATM    6  C6  UNL     1     -31.661   7.879   3.718  1.00 20.00     0.020 C 
HETATM    7  C7  UNL     1     -33.821   8.164   2.488  1.00 20.00     0.020 C 
HETATM    8  N8  UNL     1     -33.333   4.792   3.026  1.00 20.00    -0.305 NA
ENDROOT
TORSDOF 0
ENDMDL
MODEL 6
REMARK VINA RESULT:      -3.8     11.583     12.715
REMARK  0 active torsions:
REMARK  status: ('A' for Active; 'I' for Inactive)
ROOT
HETATM    1  C1  UNL     1     -35.260  13.729  -4.614  1.00 20.00     0.092 C 
HETATM    2  C2  UNL     1     -34.297  13.776  -7.215  1.00 20.00     0.023 C 
HETATM    3  C3  UNL     1     -34.251  15.101  -6.473  1.00 20.00     0.016 C 
HETATM    4  C4  UNL     1     -35.593  13.060  -6.874  1.00 20.00     0.148 C 
HETATM    5  C5  UNL     1     -34.325  14.876  -4.957  1.00 20.00    -0.014 C 
HETATM    6  C6  UNL     1     -34.837  16.144  -4.264  1.00 20.00     0.020 C 
HETATM    7  C7  UNL     1     -32.943  14.515  -4.390  1.00 20.00     0.020 C 
HETATM    8  N8  UNL     1     -35.808  12.907  -5.438  1.00 20.00    -0.305 NA
ENDROOT
TORSDOF 0
ENDMDL
MODEL 7
REMARK VINA RESULT:      -3.6      8.691      9.650
REMARK  0 active torsions:
REMARK  status: ('A' for Active; 'I' for Inactive)
ROOT
HETATM    1  C1  UNL     1     -43.320   7.371  -0.386  1.00 20.00     0.092 C 
HETATM    2  C2  UNL     1     -40.634   6.748  -0.688  1.00 20.00     0.023 C 
HETATM    3  C3  UNL     1     -41.253   6.360   0.644  1.00 20.00     0.016 C 
HETATM    4  C4  UNL     1     -41.174   8.103  -1.110  1.00 20.00     0.148 C 
HETATM    5  C5  UNL     1     -42.781   6.286   0.530  1.00 20.00    -0.014 C 
HETATM    6  C6  UNL     1     -43.417   6.457   1.915  1.00 20.00     0.020 C 
HETATM    7  C7  UNL     1     -43.220   4.937  -0.062  1.00 20.00     0.020 C 
HETATM    8  N8  UNL     1     -42.633   8.163  -1.131  1.00 20.00    -0.305 NA
ENDROOT
TORSDOF 0
ENDMDL
MODEL 8
REMARK VINA RESULT:      -3.5     11.437     12.702
REMARK  0 active torsions:
REMARK  status: ('A' for Active; 'I' for Inactive)
ROOT
HETATM    1  C1  UNL     1     -34.420  14.172  -4.162  1.00 20.00     0.092 C 
HETATM    2  C2  UNL     1     -36.176  15.165  -6.065  1.00 20.00     0.023 C 
HETATM    3  C3  UNL     1     -35.823  16.118  -4.936  1.00 20.00     0.016 C 
HETATM    4  C4  UNL     1     -36.347  13.766  -5.499  1.00 20.00     0.148 C 
HETATM    5  C5  UNL     1     -34.521  15.685  -4.249  1.00 20.00    -0.014 C 
HETATM    6  C6  UNL     1     -34.463  16.259  -2.829  1.00 20.00     0.020 C 
HETATM    7  C7  UNL     1     -33.297  16.173  -5.040  1.00 20.00     0.020 C 
HETATM    8  N8  UNL     1     -35.196  13.312  -4.722  1.00 20.00    -0.305 NA
ENDROOT
TORSDOF 0
ENDMDL
MODEL 9
REMARK VINA RESULT:      -3.4     11.754     12.917
REMARK  0 active torsions:
REMARK  status: ('A' for Active; 'I' for Inactive)
ROOT
HETATM    1  C1  UNL     1     -35.264  13.790  -5.159  1.00 20.00     0.092 C 
HETATM    2  C2  UNL     1     -33.252  15.678  -5.436  1.00 20.00     0.023 C 
HETATM    3  C3  UNL     1     -33.792  15.099  -6.732  1.00 20.00     0.016 C 
HETATM    4  C4  UNL     1     -33.147  14.571  -4.402  1.00 20.00     0.148 C 
HETATM    5  C5  UNL     1     -35.177  14.476  -6.511  1.00 20.00    -0.014 C 
HETATM    6  C6  UNL     1     -35.463  13.438  -7.602  1.00 20.00     0.020 C 
HETATM    7  C7  UNL     1     -36.272  15.553  -6.541  1.00 20.00     0.020 C 
HETATM    8  N8  UNL     1     -34.396  13.838  -4.211  1.00 20.00    -0.305 NA
ENDROOT
TORSDOF 0
ENDMDL
