MODEL 1
REMARK VINA RESULT:      -5.1      0.000      0.000
REMARK  3 active torsions:
REMARK  status: ('A' for Active; 'I' for Inactive)
REMARK    1  A    between atoms: C2_2  and  C8_8 
REMARK    2  A    between atoms: C6_6  and  C7_7 
REMARK    3  A    between atoms: C6_6  and  C8_8 
ROOT
HETATM    1  C1  UNL     1     -32.430   9.249   1.299  1.00 20.00     0.063 C 
HETATM    2  C4  UNL     1     -31.397   8.309   3.317  1.00 20.00     0.025 C 
HETATM    3  C7  UNL     1     -32.694   8.465   2.521  1.00 20.00     0.089 C 
HETATM    4  N9  UNL     1     -32.225   9.866   0.339  1.00 20.00    -0.197 NA
ENDROOT
BRANCH   3   5
HETATM    5  C6  UNL     1     -33.276   7.078   2.182  1.00 20.00     0.030 C 
BRANCH   5   6
HETATM    6  C8  UNL     1     -33.159   6.049   3.324  1.00 20.00     0.052 C 
HETATM    7  C5  UNL     1     -33.158   4.627   2.770  1.00 20.00     0.018 C 
BRANCH   6   8
HETATM    8  C2  UNL     1     -34.309   6.177   4.318  1.00 20.00     0.127 C 
HETATM    9  C3  UNL     1     -33.996   6.845   5.632  1.00 20.00     0.091 C 
HETATM   10  O10 UNL     1     -35.432   5.730   4.086  1.00 20.00    -0.298 OA
ENDBRANCH   6   8
ENDBRANCH   5   6
ENDBRANCH   3   5
TORSDOF 3
ENDMDL
MODEL 2
REMARK VINA RESULT:      -5.1      3.139      4.586
REMARK  3 active torsions:
REMARK  status: ('A' for Active; 'I' for Inactive)
REMARK    1  A    between atoms: C2_2  and  C8_8 
REMARK    2  A    between atoms: C6_6  and  C7_7 
REMARK    3  A    between atoms: C6_6  and  C8_8 
ROOT
HETATM    1  C1  UNL     1     -34.429   5.687   4.497  1.00 20.00     0.063 C 
HETATM    2  C4  UNL     1     -32.992   5.134   2.586  1.00 20.00     0.025 C 
HETATM    3  C7  UNL     1     -34.108   6.044   3.102  1.00 20.00     0.089 C 
HETATM    4  N9  UNL     1     -34.684   5.405   5.594  1.00 20.00    -0.197 NA
ENDROOT
BRANCH   3   5
HETATM    5  C6  UNL     1     -33.682   7.522   2.987  1.00 20.00     0.030 C 
BRANCH   5   6
HETATM    6  C8  UNL     1     -32.196   7.722   2.630  1.00 20.00     0.052 C 
HETATM    7  C5  UNL     1     -31.425   8.282   3.823  1.00 20.00     0.018 C 
BRANCH   6   8
HETATM    8  C2  UNL     1     -32.022   8.679   1.454  1.00 20.00     0.127 C 
HETATM    9  C3  UNL     1     -32.960   9.857   1.395  1.00 20.00     0.091 C 
HETATM   10  O10 UNL     1     -31.185   8.491   0.572  1.00 20.00    -0.298 OA
ENDBRANCH   6   8
ENDBRANCH   5   6
ENDBRANCH   3   5
TORSDOF 3
ENDMDL
MODEL 3
REMARK VINA RESULT:      -5.0      1.104      1.660
REMARK  3 active torsions:
REMARK  status: ('A' for Active; 'I' for Inactive)
REMARK    1  A    between atoms: C2_2  and  C8_8 
REMARK    2  A    between atoms: C6_6  and  C7_7 
REMARK    3  A    between atoms: C6_6  and  C8_8 
ROOT
HETATM    1  C1  UNL     1     -32.542   8.800   1.412  1.00 20.00     0.063 C 
HETATM    2  C4  UNL     1     -31.127   8.304   3.356  1.00 20.00     0.025 C 
HETATM    3  C7  UNL     1     -32.549   8.275   2.791  1.00 20.00     0.089 C 
HETATM    4  N9  UNL     1     -32.537   9.215   0.329  1.00 20.00    -0.197 NA
ENDROOT
BRANCH   3   5
HETATM    5  C6  UNL     1     -33.108   6.839   2.840  1.00 20.00     0.030 C 
BRANCH   5   6
HETATM    6  C8  UNL     1     -34.133   6.600   3.966  1.00 20.00     0.052 C 
HETATM    7  C5  UNL     1     -33.741   7.370   5.224  1.00 20.00     0.018 C 
BRANCH   6   8
HETATM    8  C2  UNL     1     -34.246   5.121   4.323  1.00 20.00     0.127 C 
HETATM    9  C3  UNL     1     -34.684   4.795   5.727  1.00 20.00     0.091 C 
HETATM   10  O10 UNL     1     -33.963   4.228   3.524  1.00 20.00    -0.298 OA
ENDBRANCH   6   8
ENDBRANCH   5   6
ENDBRANCH   3   5
TORSDOF 3
ENDMDL
MODEL 4
REMARK VINA RESULT:      -4.7      3.017      4.589
REMARK  3 active torsions:
REMARK  status: ('A' for Active; 'I' for Inactive)
REMARK    1  A    between atoms: C2_2  and  C8_8 
REMARK    2  A    between atoms: C6_6  and  C7_7 
REMARK    3  A    between atoms: C6_6  and  C8_8 
ROOT
HETATM    1  C1  UNL     1     -34.207   5.287   4.522  1.00 20.00     0.063 C 
HETATM    2  C4  UNL     1     -33.937   7.315   5.877  1.00 20.00     0.025 C 
HETATM    3  C7  UNL     1     -33.457   6.552   4.641  1.00 20.00     0.089 C 
HETATM    4  N9  UNL     1     -34.795   4.291   4.428  1.00 20.00    -0.197 NA
ENDROOT
BRANCH   3   5
HETATM    5  C6  UNL     1     -33.628   7.425   3.381  1.00 20.00     0.030 C 
BRANCH   5   6
HETATM    6  C8  UNL     1     -32.304   7.782   2.679  1.00 20.00     0.052 C 
HETATM    7  C5  UNL     1     -31.270   8.268   3.691  1.00 20.00     0.018 C 
BRANCH   6   8
HETATM    8  C2  UNL     1     -32.498   8.873   1.630  1.00 20.00     0.127 C 
HETATM    9  C3  UNL     1     -31.573   8.840   0.440  1.00 20.00     0.091 C 
HETATM   10  O10 UNL     1     -33.340   9.762   1.753  1.00 20.00    -0.298 OA
ENDBRANCH   6   8
ENDBRANCH   5   6
ENDBRANCH   3   5
TORSDOF 3
ENDMDL
MODEL 5
REMARK VINA RESULT:      -4.5      2.898      4.464
REMARK  3 active torsions:
REMARK  status: ('A' for Active; 'I' for Inactive)
REMARK    1  A    between atoms: C2_2  and  C8_8 
REMARK    2  A    between atoms: C6_6  and  C7_7 
REMARK    3  A    between atoms: C6_6  and  C8_8 
ROOT
HETATM    1  C1  UNL     1     -33.209   5.123   2.899  1.00 20.00     0.063 C 
HETATM    2  C4  UNL     1     -35.274   6.021   3.876  1.00 20.00     0.025 C 
HETATM    3  C7  UNL     1     -33.785   6.269   3.628  1.00 20.00     0.089 C 
HETATM    4  N9  UNL     1     -32.755   4.221   2.328  1.00 20.00    -0.197 NA
ENDROOT
BRANCH   3   5
HETATM    5  C6  UNL     1     -33.592   7.584   2.846  1.00 20.00     0.030 C 
BRANCH   5   6
HETATM    6  C8  UNL     1     -32.129   7.877   2.457  1.00 20.00     0.052 C 
HETATM    7  C5  UNL     1     -31.347   8.401   3.658  1.00 20.00     0.018 C 
BRANCH   6   8
HETATM    8  C2  UNL     1     -32.038   8.909   1.337  1.00 20.00     0.127 C 
HETATM    9  C3  UNL     1     -32.927  10.120   1.458  1.00 20.00     0.091 C 
HETATM   10  O10 UNL     1     -31.306   8.755   0.360  1.00 20.00    -0.298 OA
ENDBRANCH   6   8
ENDBRANCH   5   6
ENDBRANCH   3   5
TORSDOF 3
ENDMDL
MODEL 6
REMARK VINA RESULT:      -4.5      1.378      1.762
REMARK  3 active torsions:
REMARK  status: ('A' for Active; 'I' for Inactive)
REMARK    1  A    between atoms: C2_2  and  C8_8 
REMARK    2  A    between atoms: C6_6  and  C7_7 
REMARK    3  A    between atoms: C6_6  and  C8_8 
ROOT
HETATM    1  C1  UNL     1     -31.559   8.457   3.253  1.00 20.00     0.063 C 
HETATM    2  C4  UNL     1     -32.567   9.381   1.215  1.00 20.00     0.025 C 
HETATM    3  C7  UNL     1     -32.158   8.105   1.952  1.00 20.00     0.089 C 
HETATM    4  N9  UNL     1     -31.086   8.734   4.276  1.00 20.00    -0.197 NA
ENDROOT
BRANCH   3   5
HETATM    5  C6  UNL     1     -33.381   7.183   2.130  1.00 20.00     0.030 C 
BRANCH   5   6
HETATM    6  C8  UNL     1     -33.217   6.126   3.240  1.00 20.00     0.052 C 
HETATM    7  C5  UNL     1     -33.192   4.720   2.647  1.00 20.00     0.018 C 
BRANCH   6   8
HETATM    8  C2  UNL     1     -34.350   6.197   4.259  1.00 20.00     0.127 C 
HETATM    9  C3  UNL     1     -34.031   6.841   5.583  1.00 20.00     0.091 C 
HETATM   10  O10 UNL     1     -35.465   5.723   4.038  1.00 20.00    -0.298 OA
ENDBRANCH   6   8
ENDBRANCH   5   6
ENDBRANCH   3   5
TORSDOF 3
ENDMDL
MODEL 7
REMARK VINA RESULT:      -4.1     10.544     11.094
REMARK  3 active torsions:
REMARK  status: ('A' for Active; 'I' for Inactive)
REMARK    1  A    between atoms: C2_2  and  C8_8 
REMARK    2  A    between atoms: C6_6  and  C7_7 
REMARK    3  A    between atoms: C6_6  and  C8_8 
ROOT
HETATM    1  C1  UNL     1     -35.017  16.972  -1.305  1.00 20.00     0.063 C 
HETATM    2  C4  UNL     1     -33.461  17.812  -3.007  1.00 20.00     0.025 C 
HETATM    3  C7  UNL     1     -34.203  16.586  -2.474  1.00 20.00     0.089 C 
HETATM    4  N9  UNL     1     -35.655  17.275  -0.385  1.00 20.00    -0.197 NA
ENDROOT
BRANCH   3   5
HETATM    5  C6  UNL     1     -35.077  15.972  -3.586  1.00 20.00     0.030 C 
BRANCH   5   6
HETATM    6  C8  UNL     1     -34.683  14.534  -3.976  1.00 20.00     0.052 C 
HETATM    7  C5  UNL     1     -33.379  14.530  -4.770  1.00 20.00     0.018 C 
BRANCH   6   8
HETATM    8  C2  UNL     1     -35.761  13.862  -4.820  1.00 20.00     0.127 C 
HETATM    9  C3  UNL     1     -37.071  14.594  -4.953  1.00 20.00     0.091 C 
HETATM   10  O10 UNL     1     -35.595  12.760  -5.342  1.00 20.00    -0.298 OA
ENDBRANCH   6   8
ENDBRANCH   5   6
ENDBRANCH   3   5
TORSDOF 3
ENDMDL
MODEL 8
REMARK VINA RESULT:      -4.1      1.464      2.416
REMARK  3 active torsions:
REMARK  status: ('A' for Active; 'I' for Inactive)
REMARK    1  A    between atoms: C2_2  and  C8_8 
REMARK    2  A    between atoms: C6_6  and  C7_7 
REMARK    3  A    between atoms: C6_6  and  C8_8 
ROOT
HETATM    1  C1  UNL     1     -32.551  10.347   1.356  1.00 20.00     0.063 C 
HETATM    2  C4  UNL     1     -32.995   9.060  -0.686  1.00 20.00     0.025 C 
HETATM    3  C7  UNL     1     -32.205   9.114   0.623  1.00 20.00     0.089 C 
HETATM    4  N9  UNL     1     -32.821  11.317   1.932  1.00 20.00    -0.197 NA
ENDROOT
BRANCH   3   5
HETATM    5  C6  UNL     1     -32.497   7.859   1.469  1.00 20.00     0.030 C 
BRANCH   5   6
HETATM    6  C8  UNL     1     -32.685   8.142   2.972  1.00 20.00     0.052 C 
HETATM    7  C5  UNL     1     -31.337   8.185   3.686  1.00 20.00     0.018 C 
BRANCH   6   8
HETATM    8  C2  UNL     1     -33.551   7.080   3.644  1.00 20.00     0.127 C 
HETATM    9  C3  UNL     1     -33.706   7.180   5.139  1.00 20.00     0.091 C 
HETATM   10  O10 UNL     1     -34.074   6.163   3.012  1.00 20.00    -0.298 OA
ENDBRANCH   6   8
ENDBRANCH   5   6
ENDBRANCH   3   5
TORSDOF 3
ENDMDL
MODEL 9
REMARK VINA RESULT:      -4.1     10.601     11.619
REMARK  3 active torsions:
REMARK  status: ('A' for Active; 'I' for Inactive)
REMARK    1  A    between atoms: C2_2  and  C8_8 
REMARK    2  A    between atoms: C6_6  and  C7_7 
REMARK    3  A    between atoms: C6_6  and  C8_8 
ROOT
HETATM    1  C1  UNL     1     -34.926  16.170  -2.879  1.00 20.00     0.063 C 
HETATM    2  C4  UNL     1     -33.444  16.396  -4.823  1.00 20.00     0.025 C 
HETATM    3  C7  UNL     1     -33.923  15.469  -3.704  1.00 20.00     0.089 C 
HETATM    4  N9  UNL     1     -35.713  16.721  -2.229  1.00 20.00    -0.197 NA
ENDROOT
BRANCH   3   5
HETATM    5  C6  UNL     1     -34.500  14.171  -4.304  1.00 20.00     0.030 C 
BRANCH   5   6
HETATM    6  C8  UNL     1     -35.338  14.385  -5.580  1.00 20.00     0.052 C 
HETATM    7  C5  UNL     1     -36.811  14.087  -5.315  1.00 20.00     0.018 C 
BRANCH   6   8
HETATM    8  C2  UNL     1     -34.865  13.490  -6.722  1.00 20.00     0.127 C 
HETATM    9  C3  UNL     1     -34.172  14.171  -7.873  1.00 20.00     0.091 C 
HETATM   10  O10 UNL     1     -35.065  12.276  -6.732  1.00 20.00    -0.298 OA
ENDBRANCH   6   8
ENDBRANCH   5   6
ENDBRANCH   3   5
TORSDOF 3
ENDMDL
