MODEL 1
REMARK VINA RESULT:      -5.4      0.000      0.000
REMARK  4 active torsions:
REMARK  status: ('A' for Active; 'I' for Inactive)
REMARK    1  A    between atoms: C2_2  and  C6_6 
REMARK    2  A    between atoms: C3_3  and  C7_7 
REMARK    3  A    between atoms: C3_3  and  O9_9 
REMARK    4  A    between atoms: C6_6  and  C8_8 
ROOT
HETATM    1  C1  UNL     1     -32.948   5.621   2.900  1.00 20.00     0.045 A 
HETATM    2  C2  UNL     1     -33.230   7.024   2.427  1.00 20.00     0.023 A 
HETATM    3  C3  UNL     1     -34.004   6.446   3.592  1.00 20.00     0.062 A 
ENDROOT
BRANCH   3   4
HETATM    4  C7  UNL     1     -33.792   6.904   4.997  1.00 20.00     0.034 C 
HETATM    5  C4  UNL     1     -34.453   6.007   6.012  1.00 20.00     0.008 C 
ENDBRANCH   3   4
BRANCH   3   6
HETATM    6  O9  UNL     1     -35.368   6.084   3.309  1.00 20.00    -0.389 OA
HETATM    7  H25 UNL     1     -35.536   6.383   2.405  1.00 20.00     0.210 HD
ENDBRANCH   3   6
BRANCH   2   8
HETATM    8  C6  UNL     1     -32.208   8.095   2.601  1.00 20.00     0.007 C 
BRANCH   8   9
HETATM    9  C8  UNL     1     -31.867   8.805   1.279  1.00 20.00    -0.004 C 
HETATM   10  C5  UNL     1     -32.650  10.095   1.092  1.00 20.00     0.005 C 
ENDBRANCH   8   9
ENDBRANCH   2   8
TORSDOF 4
ENDMDL
MODEL 2
REMARK VINA RESULT:      -5.1      1.387      1.961
REMARK  4 active torsions:
REMARK  status: ('A' for Active; 'I' for Inactive)
REMARK    1  A    between atoms: C2_2  and  C6_6 
REMARK    2  A    between atoms: C3_3  and  C7_7 
REMARK    3  A    between atoms: C3_3  and  O9_9 
REMARK    4  A    between atoms: C6_6  and  C8_8 
ROOT
HETATM    1  C1  UNL     1     -31.458   7.987   3.471  1.00 20.00     0.045 A 
HETATM    2  C2  UNL     1     -32.189   8.259   2.181  1.00 20.00     0.023 A 
HETATM    3  C3  UNL     1     -32.725   7.232   3.155  1.00 20.00     0.062 A 
ENDROOT
BRANCH   3   4
HETATM    4  C7  UNL     1     -33.957   7.468   3.965  1.00 20.00     0.034 C 
HETATM    5  C4  UNL     1     -33.745   7.230   5.438  1.00 20.00     0.008 C 
ENDBRANCH   3   4
BRANCH   3   6
HETATM    6  O9  UNL     1     -32.555   5.858   2.761  1.00 20.00    -0.389 OA
HETATM    7  H25 UNL     1     -31.646   5.630   2.994  1.00 20.00     0.210 HD
ENDBRANCH   3   6
BRANCH   2   8
HETATM    8  C6  UNL     1     -32.857   9.572   1.958  1.00 20.00     0.007 C 
BRANCH   8   9
HETATM    9  C8  UNL     1     -32.539  10.167   0.575  1.00 20.00    -0.004 C 
HETATM   10  C5  UNL     1     -33.157   9.365  -0.560  1.00 20.00     0.005 C 
ENDBRANCH   8   9
ENDBRANCH   2   8
TORSDOF 4
ENDMDL
MODEL 3
REMARK VINA RESULT:      -4.6      1.909      4.427
REMARK  4 active torsions:
REMARK  status: ('A' for Active; 'I' for Inactive)
REMARK    1  A    between atoms: C2_2  and  C6_6 
REMARK    2  A    between atoms: C3_3  and  C7_7 
REMARK    3  A    between atoms: C3_3  and  O9_9 
REMARK    4  A    between atoms: C6_6  and  C8_8 
ROOT
HETATM    1  C1  UNL     1     -32.411   6.325   2.732  1.00 20.00     0.045 A 
HETATM    2  C2  UNL     1     -33.058   7.027   3.898  1.00 20.00     0.023 A 
HETATM    3  C3  UNL     1     -32.331   7.827   2.839  1.00 20.00     0.062 A 
ENDROOT
BRANCH   3   4
HETATM    4  C7  UNL     1     -33.051   8.686   1.853  1.00 20.00     0.034 C 
HETATM    5  C4  UNL     1     -32.123   9.370   0.883  1.00 20.00     0.008 C 
ENDBRANCH   3   4
BRANCH   3   6
HETATM    6  O9  UNL     1     -31.054   8.360   3.235  1.00 20.00    -0.389 OA
HETATM    7  H25 UNL     1     -31.003   8.233   4.192  1.00 20.00     0.210 HD
ENDBRANCH   3   6
BRANCH   2   8
HETATM    8  C6  UNL     1     -34.542   7.047   4.035  1.00 20.00     0.007 C 
BRANCH   8   9
HETATM    9  C8  UNL     1     -35.134   5.641   4.229  1.00 20.00    -0.004 C 
HETATM   10  C5  UNL     1     -34.634   4.967   5.498  1.00 20.00     0.005 C 
ENDBRANCH   8   9
ENDBRANCH   2   8
TORSDOF 4
ENDMDL
MODEL 4
REMARK VINA RESULT:      -4.6      1.940      4.510
REMARK  4 active torsions:
REMARK  status: ('A' for Active; 'I' for Inactive)
REMARK    1  A    between atoms: C2_2  and  C6_6 
REMARK    2  A    between atoms: C3_3  and  C7_7 
REMARK    3  A    between atoms: C3_3  and  O9_9 
REMARK    4  A    between atoms: C6_6  and  C8_8 
ROOT
HETATM    1  C1  UNL     1     -31.350   8.371   3.034  1.00 20.00     0.045 A 
HETATM    2  C2  UNL     1     -32.809   8.004   2.962  1.00 20.00     0.023 A 
HETATM    3  C3  UNL     1     -32.211   8.942   1.936  1.00 20.00     0.062 A 
ENDROOT
BRANCH   3   4
HETATM    4  C7  UNL     1     -31.983   8.533   0.518  1.00 20.00     0.034 C 
HETATM    5  C4  UNL     1     -32.897   9.238  -0.450  1.00 20.00     0.008 C 
ENDBRANCH   3   4
BRANCH   3   6
HETATM    6  O9  UNL     1     -32.574  10.328   2.079  1.00 20.00    -0.389 OA
HETATM    7  H25 UNL     1     -31.758  10.827   1.943  1.00 20.00     0.210 HD
ENDBRANCH   3   6
BRANCH   2   8
HETATM    8  C6  UNL     1     -33.218   6.611   2.627  1.00 20.00     0.007 C 
BRANCH   8   9
HETATM    9  C8  UNL     1     -34.247   6.044   3.620  1.00 20.00    -0.004 C 
HETATM   10  C5  UNL     1     -34.106   6.643   5.011  1.00 20.00     0.005 C 
ENDBRANCH   8   9
ENDBRANCH   2   8
TORSDOF 4
ENDMDL
MODEL 5
REMARK VINA RESULT:      -4.4      2.002      3.637
REMARK  4 active torsions:
REMARK  status: ('A' for Active; 'I' for Inactive)
REMARK    1  A    between atoms: C2_2  and  C6_6 
REMARK    2  A    between atoms: C3_3  and  C7_7 
REMARK    3  A    between atoms: C3_3  and  O9_9 
REMARK    4  A    between atoms: C6_6  and  C8_8 
ROOT
HETATM    1  C1  UNL     1     -32.855   8.027   2.241  1.00 20.00     0.045 A 
HETATM    2  C2  UNL     1     -32.608   6.607   2.683  1.00 20.00     0.023 A 
HETATM    3  C3  UNL     1     -32.714   7.714   3.710  1.00 20.00     0.062 A 
ENDROOT
BRANCH   3   4
HETATM    4  C7  UNL     1     -33.890   7.849   4.619  1.00 20.00     0.034 C 
HETATM    5  C4  UNL     1     -33.599   7.396   6.026  1.00 20.00     0.008 C 
ENDBRANCH   3   4
BRANCH   3   6
HETATM    6  O9  UNL     1     -31.472   8.113   4.319  1.00 20.00    -0.389 OA
HETATM    7  H25 UNL     1     -31.715   8.695   5.051  1.00 20.00     0.210 HD
ENDBRANCH   3   6
BRANCH   2   8
HETATM    8  C6  UNL     1     -33.666   5.572   2.514  1.00 20.00     0.007 C 
BRANCH   8   9
HETATM    9  C8  UNL     1     -33.420   4.330   3.387  1.00 20.00    -0.004 C 
HETATM   10  C5  UNL     1     -34.416   4.214   4.530  1.00 20.00     0.005 C 
ENDBRANCH   8   9
ENDBRANCH   2   8
TORSDOF 4
ENDMDL
MODEL 6
REMARK VINA RESULT:      -4.4      1.601      1.987
REMARK  4 active torsions:
REMARK  status: ('A' for Active; 'I' for Inactive)
REMARK    1  A    between atoms: C2_2  and  C6_6 
REMARK    2  A    between atoms: C3_3  and  C7_7 
REMARK    3  A    between atoms: C3_3  and  O9_9 
REMARK    4  A    between atoms: C6_6  and  C8_8 
ROOT
HETATM    1  C1  UNL     1     -34.394   7.966   4.157  1.00 20.00     0.045 A 
HETATM    2  C2  UNL     1     -32.979   7.454   4.070  1.00 20.00     0.023 A 
HETATM    3  C3  UNL     1     -34.079   6.559   4.599  1.00 20.00     0.062 A 
ENDROOT
BRANCH   3   4
HETATM    4  C7  UNL     1     -34.604   5.397   3.822  1.00 20.00     0.034 C 
HETATM    5  C4  UNL     1     -34.300   4.072   4.473  1.00 20.00     0.008 C 
ENDBRANCH   3   4
BRANCH   3   6
HETATM    6  O9  UNL     1     -34.065   6.337   6.021  1.00 20.00    -0.389 OA
HETATM    7  H25 UNL     1     -33.342   6.878   6.363  1.00 20.00     0.210 HD
ENDBRANCH   3   6
BRANCH   2   8
HETATM    8  C6  UNL     1     -32.340   7.233   2.742  1.00 20.00     0.007 C 
BRANCH   8   9
HETATM    9  C8  UNL     1     -31.711   8.516   2.171  1.00 20.00    -0.004 C 
HETATM   10  C5  UNL     1     -32.471   9.052   0.967  1.00 20.00     0.005 C 
ENDBRANCH   8   9
ENDBRANCH   2   8
TORSDOF 4
ENDMDL
MODEL 7
REMARK VINA RESULT:      -4.2     10.511     11.410
REMARK  4 active torsions:
REMARK  status: ('A' for Active; 'I' for Inactive)
REMARK    1  A    between atoms: C2_2  and  C6_6 
REMARK    2  A    between atoms: C3_3  and  C7_7 
REMARK    3  A    between atoms: C3_3  and  O9_9 
REMARK    4  A    between atoms: C6_6  and  C8_8 
ROOT
HETATM    1  C1  UNL     1     -35.983  15.155  -4.628  1.00 20.00     0.045 A 
HETATM    2  C2  UNL     1     -34.748  14.632  -3.941  1.00 20.00     0.023 A 
HETATM    3  C3  UNL     1     -35.274  13.946  -5.183  1.00 20.00     0.062 A 
ENDROOT
BRANCH   3   4
HETATM    4  C7  UNL     1     -34.572  14.029  -6.498  1.00 20.00     0.034 C 
HETATM    5  C4  UNL     1     -35.233  13.200  -7.569  1.00 20.00     0.008 C 
ENDBRANCH   3   4
BRANCH   3   6
HETATM    6  O9  UNL     1     -35.925  12.681  -4.962  1.00 20.00    -0.389 OA
HETATM    7  H25 UNL     1     -35.804  12.179  -5.778  1.00 20.00     0.210 HD
ENDBRANCH   3   6
BRANCH   2   8
HETATM    8  C6  UNL     1     -33.491  15.432  -3.943  1.00 20.00     0.007 C 
BRANCH   8   9
HETATM    9  C8  UNL     1     -33.707  16.870  -3.442  1.00 20.00    -0.004 C 
HETATM   10  C5  UNL     1     -33.994  16.931  -1.950  1.00 20.00     0.005 C 
ENDBRANCH   8   9
ENDBRANCH   2   8
TORSDOF 4
ENDMDL
MODEL 8
REMARK VINA RESULT:      -4.1      1.667      2.773
REMARK  4 active torsions:
REMARK  status: ('A' for Active; 'I' for Inactive)
REMARK    1  A    between atoms: C2_2  and  C6_6 
REMARK    2  A    between atoms: C3_3  and  C7_7 
REMARK    3  A    between atoms: C3_3  and  O9_9 
REMARK    4  A    between atoms: C6_6  and  C8_8 
ROOT
HETATM    1  C1  UNL     1     -35.206   6.084   3.663  1.00 20.00     0.045 A 
HETATM    2  C2  UNL     1     -34.387   6.484   4.863  1.00 20.00     0.023 A 
HETATM    3  C3  UNL     1     -34.425   5.038   4.418  1.00 20.00     0.062 A 
ENDROOT
BRANCH   3   4
HETATM    4  C7  UNL     1     -33.255   4.371   3.775  1.00 20.00     0.034 C 
HETATM    5  C4  UNL     1     -33.179   4.621   2.291  1.00 20.00     0.008 C 
ENDBRANCH   3   4
BRANCH   3   6
HETATM    6  O9  UNL     1     -35.201   4.155   5.249  1.00 20.00    -0.389 OA
HETATM    7  H25 UNL     1     -34.910   3.262   5.024  1.00 20.00     0.210 HD
ENDBRANCH   3   6
BRANCH   2   8
HETATM    8  C6  UNL     1     -33.178   7.339   4.697  1.00 20.00     0.007 C 
BRANCH   8   9
HETATM    9  C8  UNL     1     -33.121   8.019   3.318  1.00 20.00    -0.004 C 
HETATM   10  C5  UNL     1     -31.700   8.164   2.798  1.00 20.00     0.005 C 
ENDBRANCH   8   9
ENDBRANCH   2   8
TORSDOF 4
ENDMDL
MODEL 9
REMARK VINA RESULT:      -4.1     10.536     11.595
REMARK  4 active torsions:
REMARK  status: ('A' for Active; 'I' for Inactive)
REMARK    1  A    between atoms: C2_2  and  C6_6 
REMARK    2  A    between atoms: C3_3  and  C7_7 
REMARK    3  A    between atoms: C3_3  and  O9_9 
REMARK    4  A    between atoms: C6_6  and  C8_8 
ROOT
HETATM    1  C1  UNL     1     -34.979  14.059  -4.922  1.00 20.00     0.045 A 
HETATM    2  C2  UNL     1     -34.630  14.825  -3.672  1.00 20.00     0.023 A 
HETATM    3  C3  UNL     1     -33.600  14.649  -4.767  1.00 20.00     0.062 A 
ENDROOT
BRANCH   3   4
HETATM    4  C7  UNL     1     -33.168  15.777  -5.645  1.00 20.00     0.034 C 
HETATM    5  C4  UNL     1     -33.639  15.626  -7.068  1.00 20.00     0.008 C 
ENDBRANCH   3   4
BRANCH   3   6
HETATM    6  O9  UNL     1     -32.545  13.713  -4.479  1.00 20.00    -0.389 OA
HETATM    7  H25 UNL     1     -31.833  13.925  -5.096  1.00 20.00     0.210 HD
ENDBRANCH   3   6
BRANCH   2   8
HETATM    8  C6  UNL     1     -35.278  16.137  -3.390  1.00 20.00     0.007 C 
BRANCH   8   9
HETATM    9  C8  UNL     1     -34.918  16.684  -1.997  1.00 20.00    -0.004 C 
HETATM   10  C5  UNL     1     -33.495  17.217  -1.930  1.00 20.00     0.005 C 
ENDBRANCH   8   9
ENDBRANCH   2   8
TORSDOF 4
ENDMDL
