MODEL 1
REMARK VINA RESULT:      -3.6      0.000      0.000
REMARK  2 active torsions:
REMARK  status: ('A' for Active; 'I' for Inactive)
REMARK    1  A    between atoms: C4_4  and  O6_6 
REMARK    2  A    between atoms: C4_4  and  O7_7 
ROOT
HETATM    1  C1  UNL     1     -33.888   7.060   5.091  1.00 20.00     0.120 C 
HETATM    2  C4  UNL     1     -34.339   6.552   3.788  1.00 20.00     0.369 C 
HETATM    3  N5  UNL     1     -33.533   7.462   6.120  1.00 20.00    -0.192 NA
ENDROOT
BRANCH   2   4
HETATM    4  O6  UNL     1     -35.126   5.373   3.982  1.00 20.00    -0.354 OA
HETATM    5  C2  UNL     1     -34.367   4.279   4.480  1.00 20.00     0.206 C 
ENDBRANCH   2   4
BRANCH   2   6
HETATM    6  O7  UNL     1     -33.177   6.266   3.000  1.00 20.00    -0.354 OA
HETATM    7  C3  UNL     1     -32.457   7.441   2.650  1.00 20.00     0.206 C 
ENDBRANCH   2   6
TORSDOF 2
ENDMDL
MODEL 2
REMARK VINA RESULT:      -3.6      1.882      3.038
REMARK  2 active torsions:
REMARK  status: ('A' for Active; 'I' for Inactive)
REMARK    1  A    between atoms: C4_4  and  O6_6 
REMARK    2  A    between atoms: C4_4  and  O7_7 
ROOT
HETATM    1  C1  UNL     1     -34.287   5.212   4.115  1.00 20.00     0.120 C 
HETATM    2  C4  UNL     1     -34.038   6.615   3.750  1.00 20.00     0.369 C 
HETATM    3  N5  UNL     1     -34.485   4.106   4.402  1.00 20.00    -0.192 NA
ENDROOT
BRANCH   2   4
HETATM    4  O6  UNL     1     -33.358   6.667   2.493  1.00 20.00    -0.354 OA
HETATM    5  C2  UNL     1     -32.451   7.760   2.401  1.00 20.00     0.206 C 
ENDBRANCH   2   4
BRANCH   2   6
HETATM    6  O7  UNL     1     -33.243   7.205   4.786  1.00 20.00    -0.354 OA
HETATM    7  C3  UNL     1     -33.905   7.203   6.045  1.00 20.00     0.206 C 
ENDBRANCH   2   6
TORSDOF 2
ENDMDL
MODEL 3
REMARK VINA RESULT:      -3.4      2.256      3.466
REMARK  2 active torsions:
REMARK  status: ('A' for Active; 'I' for Inactive)
REMARK    1  A    between atoms: C4_4  and  O6_6 
REMARK    2  A    between atoms: C4_4  and  O7_7 
ROOT
HETATM    1  C1  UNL     1     -33.281   5.655   2.964  1.00 20.00     0.120 C 
HETATM    2  C4  UNL     1     -33.630   6.944   3.578  1.00 20.00     0.369 C 
HETATM    3  N5  UNL     1     -33.005   4.639   2.478  1.00 20.00    -0.192 NA
ENDROOT
BRANCH   2   4
HETATM    4  O6  UNL     1     -32.438   7.694   3.825  1.00 20.00    -0.354 OA
HETATM    5  C2  UNL     1     -31.874   8.242   2.639  1.00 20.00     0.206 C 
ENDBRANCH   2   4
BRANCH   2   6
HETATM    6  O7  UNL     1     -34.326   6.675   4.802  1.00 20.00    -0.354 OA
HETATM    7  C3  UNL     1     -33.715   7.303   5.922  1.00 20.00     0.206 C 
ENDBRANCH   2   6
TORSDOF 2
ENDMDL
MODEL 4
REMARK VINA RESULT:      -3.4      2.523      3.714
REMARK  2 active torsions:
REMARK  status: ('A' for Active; 'I' for Inactive)
REMARK    1  A    between atoms: C4_4  and  O6_6 
REMARK    2  A    between atoms: C4_4  and  O7_7 
ROOT
HETATM    1  C1  UNL     1     -33.108   6.078   2.986  1.00 20.00     0.120 C 
HETATM    2  C4  UNL     1     -32.979   7.506   3.310  1.00 20.00     0.369 C 
HETATM    3  N5  UNL     1     -33.211   4.951   2.729  1.00 20.00    -0.192 NA
ENDROOT
BRANCH   2   4
HETATM    4  O6  UNL     1     -31.906   8.072   2.552  1.00 20.00    -0.354 OA
HETATM    5  C2  UNL     1     -32.349   9.026   1.595  1.00 20.00     0.206 C 
ENDBRANCH   2   4
BRANCH   2   6
HETATM    6  O7  UNL     1     -32.724   7.617   4.716  1.00 20.00    -0.354 OA
HETATM    7  C3  UNL     1     -33.816   7.159   5.503  1.00 20.00     0.206 C 
ENDBRANCH   2   6
TORSDOF 2
ENDMDL
MODEL 5
REMARK VINA RESULT:      -3.3      1.820      2.398
REMARK  2 active torsions:
REMARK  status: ('A' for Active; 'I' for Inactive)
REMARK    1  A    between atoms: C4_4  and  O6_6 
REMARK    2  A    between atoms: C4_4  and  O7_7 
ROOT
HETATM    1  C1  UNL     1     -32.542   7.643   3.434  1.00 20.00     0.120 C 
HETATM    2  C4  UNL     1     -33.846   6.976   3.563  1.00 20.00     0.369 C 
HETATM    3  N5  UNL     1     -31.514   8.170   3.333  1.00 20.00    -0.192 NA
ENDROOT
BRANCH   2   4
HETATM    4  O6  UNL     1     -33.945   6.367   4.853  1.00 20.00    -0.354 OA
HETATM    5  C2  UNL     1     -33.762   7.294   5.917  1.00 20.00     0.206 C 
ENDBRANCH   2   4
BRANCH   2   6
HETATM    6  O7  UNL     1     -33.942   5.992   2.526  1.00 20.00    -0.354 OA
HETATM    7  C3  UNL     1     -33.095   4.874   2.759  1.00 20.00     0.206 C 
ENDBRANCH   2   6
TORSDOF 2
ENDMDL
MODEL 6
REMARK VINA RESULT:      -3.3      0.779      2.738
REMARK  2 active torsions:
REMARK  status: ('A' for Active; 'I' for Inactive)
REMARK    1  A    between atoms: C4_4  and  O6_6 
REMARK    2  A    between atoms: C4_4  and  O7_7 
ROOT
HETATM    1  C1  UNL     1     -33.560   7.058   5.011  1.00 20.00     0.120 C 
HETATM    2  C4  UNL     1     -33.361   6.448   3.688  1.00 20.00     0.369 C 
HETATM    3  N5  UNL     1     -33.715   7.539   6.055  1.00 20.00    -0.192 NA
ENDROOT
BRANCH   2   4
HETATM    4  O6  UNL     1     -33.289   7.475   2.696  1.00 20.00    -0.354 OA
HETATM    5  C2  UNL     1     -32.042   8.159   2.697  1.00 20.00     0.206 C 
ENDBRANCH   2   4
BRANCH   2   6
HETATM    6  O7  UNL     1     -34.467   5.572   3.437  1.00 20.00    -0.354 OA
HETATM    7  C3  UNL     1     -34.535   4.503   4.372  1.00 20.00     0.206 C 
ENDBRANCH   2   6
TORSDOF 2
ENDMDL
MODEL 7
REMARK VINA RESULT:      -3.3     11.791     12.543
REMARK  2 active torsions:
REMARK  status: ('A' for Active; 'I' for Inactive)
REMARK    1  A    between atoms: C4_4  and  O6_6 
REMARK    2  A    between atoms: C4_4  and  O7_7 
ROOT
HETATM    1  C1  UNL     1     -36.692  13.934  -5.224  1.00 20.00     0.120 C 
HETATM    2  C4  UNL     1     -35.250  14.010  -5.503  1.00 20.00     0.369 C 
HETATM    3  N5  UNL     1     -37.829  13.875  -5.004  1.00 20.00    -0.192 NA
ENDROOT
BRANCH   2   4
HETATM    4  O6  UNL     1     -34.914  13.077  -6.533  1.00 20.00    -0.354 OA
HETATM    5  C2  UNL     1     -34.415  13.706  -7.707  1.00 20.00     0.206 C 
ENDBRANCH   2   4
BRANCH   2   6
HETATM    6  O7  UNL     1     -34.550  13.706  -4.291  1.00 20.00    -0.354 OA
HETATM    7  C3  UNL     1     -33.312  14.398  -4.191  1.00 20.00     0.206 C 
ENDBRANCH   2   6
TORSDOF 2
ENDMDL
MODEL 8
REMARK VINA RESULT:      -3.2      2.383      2.705
REMARK  2 active torsions:
REMARK  status: ('A' for Active; 'I' for Inactive)
REMARK    1  A    between atoms: C4_4  and  O6_6 
REMARK    2  A    between atoms: C4_4  and  O7_7 
ROOT
HETATM    1  C1  UNL     1     -33.015   5.843   2.987  1.00 20.00     0.120 C 
HETATM    2  C4  UNL     1     -32.997   7.210   3.527  1.00 20.00     0.369 C 
HETATM    3  N5  UNL     1     -33.027   4.764   2.562  1.00 20.00    -0.192 NA
ENDROOT
BRANCH   2   4
HETATM    4  O6  UNL     1     -34.091   7.379   4.433  1.00 20.00    -0.354 OA
HETATM    5  C2  UNL     1     -33.705   7.244   5.796  1.00 20.00     0.206 C 
ENDBRANCH   2   4
BRANCH   2   6
HETATM    6  O7  UNL     1     -33.102   8.121   2.426  1.00 20.00    -0.354 OA
HETATM    7  C3  UNL     1     -31.834   8.456   1.876  1.00 20.00     0.206 C 
ENDBRANCH   2   6
TORSDOF 2
ENDMDL
MODEL 9
REMARK VINA RESULT:      -3.1      2.270      2.895
REMARK  2 active torsions:
REMARK  status: ('A' for Active; 'I' for Inactive)
REMARK    1  A    between atoms: C4_4  and  O6_6 
REMARK    2  A    between atoms: C4_4  and  O7_7 
ROOT
HETATM    1  C1  UNL     1     -32.511   8.090   2.448  1.00 20.00     0.120 C 
HETATM    2  C4  UNL     1     -33.006   7.011   3.315  1.00 20.00     0.369 C 
HETATM    3  N5  UNL     1     -32.118   8.941   1.765  1.00 20.00    -0.192 NA
ENDROOT
BRANCH   2   4
HETATM    4  O6  UNL     1     -33.625   6.002   2.512  1.00 20.00    -0.354 OA
HETATM    5  C2  UNL     1     -33.127   4.697   2.784  1.00 20.00     0.206 C 
ENDBRANCH   2   4
BRANCH   2   6
HETATM    6  O7  UNL     1     -33.946   7.580   4.234  1.00 20.00    -0.354 OA
HETATM    7  C3  UNL     1     -33.664   7.231   5.583  1.00 20.00     0.206 C 
ENDBRANCH   2   6
TORSDOF 2
ENDMDL
