MODEL 1
REMARK VINA RESULT:      -6.6      0.000      0.000
REMARK  1 active torsions:
REMARK  status: ('A' for Active; 'I' for Inactive)
REMARK    1  A    between atoms: C3_3  and  C6_6 
ROOT
HETATM    1  C1  UNL     1     -32.314   8.455   2.163  1.00 20.00    -0.154 C 
HETATM    2  C5  UNL     1     -32.605   9.073   1.059  1.00 20.00     0.096 C 
HETATM    3  C6  UNL     1     -32.016   7.842   3.267  1.00 20.00     0.058 C 
ENDROOT
BRANCH   3   4
HETATM    4  C3  UNL     1     -32.951   6.986   3.940  1.00 20.00    -0.041 A 
HETATM    5  C2  UNL     1     -33.375   5.787   3.520  1.00 20.00    -0.009 A 
HETATM    6  C4  UNL     1     -34.321   5.321   4.555  1.00 20.00     0.156 A 
HETATM    7  C9  UNL     1     -33.062   4.978   2.318  1.00 20.00     0.052 C 
HETATM    8  C8  UNL     1     -34.469   6.315   5.669  1.00 20.00     0.088 A 
HETATM    9  O10 UNL     1     -34.908   4.251   4.503  1.00 20.00    -0.293 OA
HETATM   10  C7  UNL     1     -33.536   7.442   5.244  1.00 20.00     0.047 A 
ENDBRANCH   3   4
TORSDOF 1
ENDMDL
MODEL 2
REMARK VINA RESULT:      -6.4      0.795      2.077
REMARK  1 active torsions:
REMARK  status: ('A' for Active; 'I' for Inactive)
REMARK    1  A    between atoms: C3_3  and  C6_6 
ROOT
HETATM    1  C1  UNL     1     -32.164   8.609   2.012  1.00 20.00    -0.154 C 
HETATM    2  C5  UNL     1     -32.220   9.134   0.826  1.00 20.00     0.096 C 
HETATM    3  C6  UNL     1     -32.103   8.089   3.200  1.00 20.00     0.058 C 
ENDROOT
BRANCH   3   4
HETATM    4  C3  UNL     1     -32.911   6.967   3.583  1.00 20.00    -0.041 A 
HETATM    5  C2  UNL     1     -33.530   6.798   4.758  1.00 20.00    -0.009 A 
HETATM    6  C4  UNL     1     -34.221   5.497   4.654  1.00 20.00     0.156 A 
HETATM    7  C9  UNL     1     -33.601   7.632   5.982  1.00 20.00     0.052 C 
HETATM    8  C8  UNL     1     -33.996   4.847   3.321  1.00 20.00     0.088 A 
HETATM    9  O10 UNL     1     -34.895   5.015   5.552  1.00 20.00    -0.293 OA
HETATM   10  C7  UNL     1     -33.106   5.850   2.600  1.00 20.00     0.047 A 
ENDBRANCH   3   4
TORSDOF 1
ENDMDL
MODEL 3
REMARK VINA RESULT:      -5.0     11.045     11.697
REMARK  1 active torsions:
REMARK  status: ('A' for Active; 'I' for Inactive)
REMARK    1  A    between atoms: C3_3  and  C6_6 
ROOT
HETATM    1  C1  UNL     1     -34.763  16.966  -1.612  1.00 20.00    -0.154 C 
HETATM    2  C5  UNL     1     -35.195  17.336  -0.446  1.00 20.00     0.096 C 
HETATM    3  C6  UNL     1     -34.324  16.599  -2.777  1.00 20.00     0.058 C 
ENDROOT
BRANCH   3   4
HETATM    4  C3  UNL     1     -35.010  15.628  -3.580  1.00 20.00    -0.041 A 
HETATM    5  C2  UNL     1     -34.460  14.572  -4.193  1.00 20.00    -0.009 A 
HETATM    6  C4  UNL     1     -35.577  13.893  -4.881  1.00 20.00     0.156 A 
HETATM    7  C9  UNL     1     -33.068  14.066  -4.262  1.00 20.00     0.052 C 
HETATM    8  C8  UNL     1     -36.883  14.596  -4.660  1.00 20.00     0.088 A 
HETATM    9  O10 UNL     1     -35.443  12.878  -5.550  1.00 20.00    -0.293 OA
HETATM   10  C7  UNL     1     -36.491  15.772  -3.776  1.00 20.00     0.047 A 
ENDBRANCH   3   4
TORSDOF 1
ENDMDL
MODEL 4
REMARK VINA RESULT:      -4.6      2.104      3.949
REMARK  1 active torsions:
REMARK  status: ('A' for Active; 'I' for Inactive)
REMARK    1  A    between atoms: C3_3  and  C6_6 
ROOT
HETATM    1  C1  UNL     1     -34.394   5.659   5.539  1.00 20.00    -0.154 C 
HETATM    2  C5  UNL     1     -34.774   4.418   5.553  1.00 20.00     0.096 C 
HETATM    3  C6  UNL     1     -34.017   6.901   5.532  1.00 20.00     0.058 C 
ENDROOT
BRANCH   3   4
HETATM    4  C3  UNL     1     -33.175   7.436   4.500  1.00 20.00    -0.041 A 
HETATM    5  C2  UNL     1     -33.228   7.138   3.196  1.00 20.00    -0.009 A 
HETATM    6  C4  UNL     1     -32.163   7.944   2.565  1.00 20.00     0.156 A 
HETATM    7  C9  UNL     1     -34.096   6.228   2.411  1.00 20.00     0.052 C 
HETATM    8  C8  UNL     1     -31.425   8.781   3.568  1.00 20.00     0.088 A 
HETATM    9  O10 UNL     1     -31.919   7.925   1.368  1.00 20.00    -0.293 OA
HETATM   10  C7  UNL     1     -32.117   8.431   4.878  1.00 20.00     0.047 A 
ENDBRANCH   3   4
TORSDOF 1
ENDMDL
MODEL 5
REMARK VINA RESULT:      -4.6     11.682     12.120
REMARK  1 active torsions:
REMARK  status: ('A' for Active; 'I' for Inactive)
REMARK    1  A    between atoms: C3_3  and  C6_6 
ROOT
HETATM    1  C1  UNL     1     -34.174  15.882  -3.375  1.00 20.00    -0.154 C 
HETATM    2  C5  UNL     1     -34.759  14.955  -4.069  1.00 20.00     0.096 C 
HETATM    3  C6  UNL     1     -33.584  16.811  -2.686  1.00 20.00     0.058 C 
ENDROOT
BRANCH   3   4
HETATM    4  C3  UNL     1     -34.114  17.290  -1.441  1.00 20.00    -0.041 A 
HETATM    5  C2  UNL     1     -33.463  18.025  -0.531  1.00 20.00    -0.009 A 
HETATM    6  C4  UNL     1     -34.436  18.254   0.557  1.00 20.00     0.156 A 
HETATM    7  C9  UNL     1     -32.083  18.564  -0.479  1.00 20.00     0.052 C 
HETATM    8  C8  UNL     1     -35.760  17.608   0.271  1.00 20.00     0.088 A 
HETATM    9  O10 UNL     1     -34.185  18.895   1.566  1.00 20.00    -0.293 OA
HETATM   10  C7  UNL     1     -35.533  16.957  -1.086  1.00 20.00     0.047 A 
ENDBRANCH   3   4
TORSDOF 1
ENDMDL
MODEL 6
REMARK VINA RESULT:      -4.6     11.610     12.027
REMARK  1 active torsions:
REMARK  status: ('A' for Active; 'I' for Inactive)
REMARK    1  A    between atoms: C3_3  and  C6_6 
ROOT
HETATM    1  C1  UNL     1     -35.521  16.932  -1.590  1.00 20.00    -0.154 C 
HETATM    2  C5  UNL     1     -35.125  17.331  -0.420  1.00 20.00     0.096 C 
HETATM    3  C6  UNL     1     -35.924  16.538  -2.759  1.00 20.00     0.058 C 
ENDROOT
BRANCH   3   4
HETATM    4  C3  UNL     1     -35.096  15.746  -3.624  1.00 20.00    -0.041 A 
HETATM    5  C2  UNL     1     -35.517  14.846  -4.521  1.00 20.00    -0.009 A 
HETATM    6  C4  UNL     1     -34.290  14.312  -5.146  1.00 20.00     0.156 A 
HETATM    7  C9  UNL     1     -36.868  14.379  -4.914  1.00 20.00     0.052 C 
HETATM    8  C8  UNL     1     -33.052  14.941  -4.578  1.00 20.00     0.088 A 
HETATM    9  O10 UNL     1     -34.291  13.459  -6.021  1.00 20.00    -0.293 OA
HETATM   10  C7  UNL     1     -33.607  15.913  -3.546  1.00 20.00     0.047 A 
ENDBRANCH   3   4
TORSDOF 1
ENDMDL
MODEL 7
REMARK VINA RESULT:      -4.6     11.755     12.301
REMARK  1 active torsions:
REMARK  status: ('A' for Active; 'I' for Inactive)
REMARK    1  A    between atoms: C3_3  and  C6_6 
ROOT
HETATM    1  C1  UNL     1     -34.378  16.165  -2.881  1.00 20.00    -0.154 C 
HETATM    2  C5  UNL     1     -33.822  15.531  -3.867  1.00 20.00     0.096 C 
HETATM    3  C6  UNL     1     -34.942  16.797  -1.897  1.00 20.00     0.058 C 
ENDROOT
BRANCH   3   4
HETATM    4  C3  UNL     1     -34.183  17.559  -0.946  1.00 20.00    -0.041 A 
HETATM    5  C2  UNL     1     -34.584  17.929   0.276  1.00 20.00    -0.009 A 
HETATM    6  C4  UNL     1     -33.452  18.687   0.848  1.00 20.00     0.156 A 
HETATM    7  C9  UNL     1     -35.843  17.708   1.028  1.00 20.00     0.052 C 
HETATM    8  C8  UNL     1     -32.296  18.772  -0.105  1.00 20.00     0.088 A 
HETATM    9  O10 UNL     1     -33.464  19.181   1.965  1.00 20.00    -0.293 OA
HETATM   10  C7  UNL     1     -32.800  18.005  -1.319  1.00 20.00     0.047 A 
ENDBRANCH   3   4
TORSDOF 1
ENDMDL
MODEL 8
REMARK VINA RESULT:      -4.6      2.266      4.353
REMARK  1 active torsions:
REMARK  status: ('A' for Active; 'I' for Inactive)
REMARK    1  A    between atoms: C3_3  and  C6_6 
ROOT
HETATM    1  C1  UNL     1     -34.738   5.096   4.387  1.00 20.00    -0.154 C 
HETATM    2  C5  UNL     1     -34.847   4.235   5.352  1.00 20.00     0.096 C 
HETATM    3  C6  UNL     1     -34.637   5.955   3.419  1.00 20.00     0.058 C 
ENDROOT
BRANCH   3   4
HETATM    4  C3  UNL     1     -33.531   6.864   3.319  1.00 20.00    -0.041 A 
HETATM    5  C2  UNL     1     -32.964   7.539   4.327  1.00 20.00    -0.009 A 
HETATM    6  C4  UNL     1     -31.880   8.330   3.710  1.00 20.00     0.156 A 
HETATM    7  C9  UNL     1     -33.244   7.588   5.782  1.00 20.00     0.052 C 
HETATM    8  C8  UNL     1     -31.799   8.108   2.228  1.00 20.00     0.088 A 
HETATM    9  O10 UNL     1     -31.142   9.073   4.338  1.00 20.00    -0.293 OA
HETATM   10  C7  UNL     1     -32.922   7.113   1.971  1.00 20.00     0.047 A 
ENDBRANCH   3   4
TORSDOF 1
ENDMDL
MODEL 9
REMARK VINA RESULT:      -4.4     11.309     12.127
REMARK  1 active torsions:
REMARK  status: ('A' for Active; 'I' for Inactive)
REMARK    1  A    between atoms: C3_3  and  C6_6 
ROOT
HETATM    1  C1  UNL     1     -34.842  16.758  -1.906  1.00 20.00    -0.154 C 
HETATM    2  C5  UNL     1     -35.168  17.146  -0.712  1.00 20.00     0.096 C 
HETATM    3  C6  UNL     1     -34.510  16.373  -3.101  1.00 20.00     0.058 C 
ENDROOT
BRANCH   3   4
HETATM    4  C3  UNL     1     -35.294  15.427  -3.842  1.00 20.00    -0.041 A 
HETATM    5  C2  UNL     1     -36.580  15.559  -4.189  1.00 20.00    -0.009 A 
HETATM    6  C4  UNL     1     -36.915  14.327  -4.933  1.00 20.00     0.156 A 
HETATM    7  C9  UNL     1     -37.576  16.632  -3.956  1.00 20.00     0.052 C 
HETATM    8  C8  UNL     1     -35.741  13.397  -5.034  1.00 20.00     0.088 A 
HETATM    9  O10 UNL     1     -38.018  14.100  -5.406  1.00 20.00    -0.293 OA
HETATM   10  C7  UNL     1     -34.646  14.150  -4.292  1.00 20.00     0.047 A 
ENDBRANCH   3   4
TORSDOF 1
ENDMDL
