MODEL 1
REMARK VINA RESULT:      -4.7      0.000      0.000
REMARK  1 active torsions:
REMARK  status: ('A' for Active; 'I' for Inactive)
REMARK    1  A    between atoms: C1_1  and  C6_6 
ROOT
HETATM    1  C1  UNL     1     -32.723   7.088   3.460  1.00 20.00     0.149 C 
HETATM    2  C2  UNL     1     -33.449   5.033   3.248  1.00 20.00     0.209 C 
HETATM    3  C3  UNL     1     -34.335   5.828   4.201  1.00 20.00     0.070 C 
HETATM    4  C4  UNL     1     -35.694   6.157   3.576  1.00 20.00     0.042 C 
HETATM    5  C5  UNL     1     -34.519   5.121   5.539  1.00 20.00     0.042 C 
HETATM    6  N7  UNL     1     -33.603   7.093   4.410  1.00 20.00    -0.257 NA
HETATM    7  O8  UNL     1     -32.623   6.018   2.640  1.00 20.00    -0.335 OA
ENDROOT
BRANCH   1   8
HETATM    8  C6  UNL     1     -31.766   8.186   3.174  1.00 20.00     0.200 C 
HETATM    9 CL9  UNL     1     -32.000   8.664   1.489  1.00 20.00    -0.122 Cl
ENDBRANCH   1   8
TORSDOF 1
ENDMDL
MODEL 2
REMARK VINA RESULT:      -4.2      1.347      1.860
REMARK  1 active torsions:
REMARK  status: ('A' for Active; 'I' for Inactive)
REMARK    1  A    between atoms: C1_1  and  C6_6 
ROOT
HETATM    1  C1  UNL     1     -32.666   7.510   3.078  1.00 20.00     0.149 C 
HETATM    2  C2  UNL     1     -33.697   6.955   4.928  1.00 20.00     0.209 C 
HETATM    3  C3  UNL     1     -34.151   6.077   3.766  1.00 20.00     0.070 C 
HETATM    4  C4  UNL     1     -33.605   4.651   3.882  1.00 20.00     0.042 C 
HETATM    5  C5  UNL     1     -35.669   6.059   3.620  1.00 20.00     0.042 C 
HETATM    6  N7  UNL     1     -33.549   6.708   2.575  1.00 20.00    -0.257 NA
HETATM    7  O8  UNL     1     -32.561   7.642   4.419  1.00 20.00    -0.335 OA
ENDROOT
BRANCH   1   8
HETATM    8  C6  UNL     1     -31.720   8.342   2.293  1.00 20.00     0.200 C 
HETATM    9 CL9  UNL     1     -32.679   9.513   1.380  1.00 20.00    -0.122 Cl
ENDBRANCH   1   8
TORSDOF 1
ENDMDL
MODEL 3
REMARK VINA RESULT:      -4.1      2.454      4.152
REMARK  1 active torsions:
REMARK  status: ('A' for Active; 'I' for Inactive)
REMARK    1  A    between atoms: C1_1  and  C6_6 
ROOT
HETATM    1  C1  UNL     1     -33.130   7.408   3.251  1.00 20.00     0.149 C 
HETATM    2  C2  UNL     1     -31.293   8.588   3.090  1.00 20.00     0.209 C 
HETATM    3  C3  UNL     1     -32.149   8.739   1.836  1.00 20.00     0.070 C 
HETATM    4  C4  UNL     1     -32.802  10.121   1.755  1.00 20.00     0.042 C 
HETATM    5  C5  UNL     1     -31.361   8.444   0.565  1.00 20.00     0.042 C 
HETATM    6  N7  UNL     1     -33.215   7.731   2.000  1.00 20.00    -0.257 NA
HETATM    7  O8  UNL     1     -32.150   7.935   4.018  1.00 20.00    -0.335 OA
ENDROOT
BRANCH   1   8
HETATM    8  C6  UNL     1     -34.039   6.469   3.956  1.00 20.00     0.200 C 
HETATM    9 CL9  UNL     1     -34.000   6.887   5.672  1.00 20.00    -0.122 Cl
ENDBRANCH   1   8
TORSDOF 1
ENDMDL
MODEL 4
REMARK VINA RESULT:      -4.1      2.008      2.720
REMARK  1 active torsions:
REMARK  status: ('A' for Active; 'I' for Inactive)
REMARK    1  A    between atoms: C1_1  and  C6_6 
ROOT
HETATM    1  C1  UNL     1     -32.471   8.891   1.927  1.00 20.00     0.149 C 
HETATM    2  C2  UNL     1     -31.599   7.868   3.655  1.00 20.00     0.209 C 
HETATM    3  C3  UNL     1     -32.964   7.284   3.308  1.00 20.00     0.070 C 
HETATM    4  C4  UNL     1     -32.845   5.892   2.680  1.00 20.00     0.042 C 
HETATM    5  C5  UNL     1     -33.898   7.250   4.513  1.00 20.00     0.042 C 
HETATM    6  N7  UNL     1     -33.507   8.206   2.290  1.00 20.00    -0.257 NA
HETATM    7  O8  UNL     1     -31.283   8.697   2.544  1.00 20.00    -0.335 OA
ENDROOT
BRANCH   1   8
HETATM    8  C6  UNL     1     -32.457   9.921   0.857  1.00 20.00     0.200 C 
HETATM    9 CL9  UNL     1     -33.168   9.191  -0.586  1.00 20.00    -0.122 Cl
ENDBRANCH   1   8
TORSDOF 1
ENDMDL
MODEL 5
REMARK VINA RESULT:      -3.9      2.330      3.772
REMARK  1 active torsions:
REMARK  status: ('A' for Active; 'I' for Inactive)
REMARK    1  A    between atoms: C1_1  and  C6_6 
ROOT
HETATM    1  C1  UNL     1     -34.048   6.387   3.595  1.00 20.00     0.149 C 
HETATM    2  C2  UNL     1     -32.329   6.367   2.238  1.00 20.00     0.209 C 
HETATM    3  C3  UNL     1     -32.568   7.767   2.794  1.00 20.00     0.070 C 
HETATM    4  C4  UNL     1     -31.499   8.165   3.816  1.00 20.00     0.042 C 
HETATM    5  C5  UNL     1     -32.668   8.814   1.690  1.00 20.00     0.042 C 
HETATM    6  N7  UNL     1     -33.863   7.665   3.495  1.00 20.00    -0.257 NA
HETATM    7  O8  UNL     1     -33.166   5.533   3.029  1.00 20.00    -0.335 OA
ENDROOT
BRANCH   1   8
HETATM    8  C6  UNL     1     -35.186   5.738   4.293  1.00 20.00     0.200 C 
HETATM    9 CL9  UNL     1     -34.513   4.761   5.602  1.00 20.00    -0.122 Cl
ENDBRANCH   1   8
TORSDOF 1
ENDMDL
MODEL 6
REMARK VINA RESULT:      -3.6     11.598     12.363
REMARK  1 active torsions:
REMARK  status: ('A' for Active; 'I' for Inactive)
REMARK    1  A    between atoms: C1_1  and  C6_6 
ROOT
HETATM    1  C1  UNL     1     -34.477  14.897  -4.725  1.00 20.00     0.149 C 
HETATM    2  C2  UNL     1     -35.871  13.299  -5.271  1.00 20.00     0.209 C 
HETATM    3  C3  UNL     1     -35.596  14.212  -6.461  1.00 20.00     0.070 C 
HETATM    4  C4  UNL     1     -34.719  13.529  -7.514  1.00 20.00     0.042 C 
HETATM    5  C5  UNL     1     -36.883  14.733  -7.093  1.00 20.00     0.042 C 
HETATM    6  N7  UNL     1     -34.838  15.341  -5.887  1.00 20.00    -0.257 NA
HETATM    7  O8  UNL     1     -34.896  13.681  -4.309  1.00 20.00    -0.335 OA
ENDROOT
BRANCH   1   8
HETATM    8  C6  UNL     1     -33.618  15.627  -3.759  1.00 20.00     0.200 C 
HETATM    9 CL9  UNL     1     -34.678  16.310  -2.522  1.00 20.00    -0.122 Cl
ENDBRANCH   1   8
TORSDOF 1
ENDMDL
MODEL 7
REMARK VINA RESULT:      -3.6     11.766     12.322
REMARK  1 active torsions:
REMARK  status: ('A' for Active; 'I' for Inactive)
REMARK    1  A    between atoms: C1_1  and  C6_6 
ROOT
HETATM    1  C1  UNL     1     -35.007  14.345  -5.013  1.00 20.00     0.149 C 
HETATM    2  C2  UNL     1     -33.034  14.959  -4.286  1.00 20.00     0.209 C 
HETATM    3  C3  UNL     1     -34.038  16.101  -4.168  1.00 20.00     0.070 C 
HETATM    4  C4  UNL     1     -34.433  16.365  -2.712  1.00 20.00     0.042 C 
HETATM    5  C5  UNL     1     -33.532  17.380  -4.826  1.00 20.00     0.042 C 
HETATM    6  N7  UNL     1     -35.231  15.614  -4.890  1.00 20.00    -0.257 NA
HETATM    7  O8  UNL     1     -33.836  13.822  -4.584  1.00 20.00    -0.335 OA
ENDROOT
BRANCH   1   8
HETATM    8  C6  UNL     1     -35.946  13.364  -5.613  1.00 20.00     0.200 C 
HETATM    9 CL9  UNL     1     -35.282  12.887  -7.179  1.00 20.00    -0.122 Cl
ENDBRANCH   1   8
TORSDOF 1
ENDMDL
MODEL 8
REMARK VINA RESULT:      -3.4      9.557     10.824
REMARK  1 active torsions:
REMARK  status: ('A' for Active; 'I' for Inactive)
REMARK    1  A    between atoms: C1_1  and  C6_6 
ROOT
HETATM    1  C1  UNL     1     -43.169   4.728  -1.268  1.00 20.00     0.149 C 
HETATM    2  C2  UNL     1     -43.344   6.879  -0.898  1.00 20.00     0.209 C 
HETATM    3  C3  UNL     1     -42.596   6.190   0.239  1.00 20.00     0.070 C 
HETATM    4  C4  UNL     1     -41.101   6.521   0.220  1.00 20.00     0.042 C 
HETATM    5  C5  UNL     1     -43.199   6.512   1.602  1.00 20.00     0.042 C 
HETATM    6  N7  UNL     1     -42.755   4.749  -0.042  1.00 20.00    -0.257 NA
HETATM    7  O8  UNL     1     -43.417   5.889  -1.916  1.00 20.00    -0.335 OA
ENDROOT
BRANCH   1   8
HETATM    8  C6  UNL     1     -43.416   3.502  -2.068  1.00 20.00     0.200 C 
HETATM    9 CL9  UNL     1     -41.973   3.209  -3.044  1.00 20.00    -0.122 Cl
ENDBRANCH   1   8
TORSDOF 1
ENDMDL
MODEL 9
REMARK VINA RESULT:      -3.4     11.607     12.000
REMARK  1 active torsions:
REMARK  status: ('A' for Active; 'I' for Inactive)
REMARK    1  A    between atoms: C1_1  and  C6_6 
ROOT
HETATM    1  C1  UNL     1     -34.848  15.866  -3.267  1.00 20.00     0.149 C 
HETATM    2  C2  UNL     1     -33.804  14.535  -4.657  1.00 20.00     0.209 C 
HETATM    3  C3  UNL     1     -35.254  14.741  -5.085  1.00 20.00     0.070 C 
HETATM    4  C4  UNL     1     -35.360  15.625  -6.331  1.00 20.00     0.042 C 
HETATM    5  C5  UNL     1     -35.982  13.419  -5.303  1.00 20.00     0.042 C 
HETATM    6  N7  UNL     1     -35.869  15.460  -3.952  1.00 20.00    -0.257 NA
HETATM    7  O8  UNL     1     -33.599  15.512  -3.645  1.00 20.00    -0.335 OA
ENDROOT
BRANCH   1   8
HETATM    8  C6  UNL     1     -34.916  16.713  -2.050  1.00 20.00     0.200 C 
HETATM    9 CL9  UNL     1     -33.296  17.356  -1.763  1.00 20.00    -0.122 Cl
ENDBRANCH   1   8
TORSDOF 1
ENDMDL
