MODEL 1
REMARK VINA RESULT:      -4.7      0.000      0.000
REMARK  2 active torsions:
REMARK  status: ('A' for Active; 'I' for Inactive)
REMARK    1  A    between atoms: C6_6  and  C7_7 
REMARK    2  A    between atoms: C7_7  and  N8_8 
ROOT
HETATM    1  C7  UNL     1     -33.522   7.200   4.225  1.00 20.00     0.443 C 
HETATM    2  F9  UNL     1     -34.497   8.145   4.053  1.00 20.00    -0.172 F 
HETATM    3  F10 UNL     1     -33.052   7.404   5.489  1.00 20.00    -0.172 F 
ENDROOT
BRANCH   1   4
HETATM    4  C6  UNL     1     -34.208   5.806   4.155  1.00 20.00     0.046 C 
HETATM    5  C1  UNL     1     -34.366   5.168   5.545  1.00 20.00     0.023 C 
HETATM    6  C2  UNL     1     -35.614   5.974   3.543  1.00 20.00     0.023 C 
HETATM    7  C3  UNL     1     -33.399   4.850   3.257  1.00 20.00     0.023 C 
ENDBRANCH   1   4
BRANCH   1   8
HETATM    8  N8  UNL     1     -32.446   7.393   3.235  1.00 20.00     0.152 N 
HETATM    9  C4  UNL     1     -32.921   8.056   2.020  1.00 20.00     0.317 C 
HETATM   10  C5  UNL     1     -31.308   8.137   3.780  1.00 20.00     0.317 C 
ENDBRANCH   1   8
TORSDOF 2
ENDMDL
MODEL 2
REMARK VINA RESULT:      -4.6      1.656      2.193
REMARK  2 active torsions:
REMARK  status: ('A' for Active; 'I' for Inactive)
REMARK    1  A    between atoms: C6_6  and  C7_7 
REMARK    2  A    between atoms: C7_7  and  N8_8 
ROOT
HETATM    1  C7  UNL     1     -33.373   6.360   2.940  1.00 20.00     0.443 C 
HETATM    2  F9  UNL     1     -32.285   5.530   2.938  1.00 20.00    -0.172 F 
HETATM    3  F10 UNL     1     -33.992   6.132   1.746  1.00 20.00    -0.172 F 
ENDROOT
BRANCH   1   4
HETATM    4  C6  UNL     1     -34.308   5.898   4.094  1.00 20.00     0.046 C 
HETATM    5  C1  UNL     1     -34.056   6.681   5.393  1.00 20.00     0.023 C 
HETATM    6  C2  UNL     1     -35.773   6.131   3.671  1.00 20.00     0.023 C 
HETATM    7  C3  UNL     1     -34.117   4.394   4.374  1.00 20.00     0.023 C 
ENDBRANCH   1   4
BRANCH   1   8
HETATM    8  N8  UNL     1     -32.941   7.767   3.040  1.00 20.00     0.152 N 
HETATM    9  C4  UNL     1     -31.596   7.895   3.600  1.00 20.00     0.317 C 
HETATM   10  C5  UNL     1     -32.999   8.464   1.753  1.00 20.00     0.317 C 
ENDBRANCH   1   8
TORSDOF 2
ENDMDL
MODEL 3
REMARK VINA RESULT:      -4.0      1.689      3.015
REMARK  2 active torsions:
REMARK  status: ('A' for Active; 'I' for Inactive)
REMARK    1  A    between atoms: C6_6  and  C7_7 
REMARK    2  A    between atoms: C7_7  and  N8_8 
ROOT
HETATM    1  C7  UNL     1     -34.451   6.484   3.929  1.00 20.00     0.443 C 
HETATM    2  F9  UNL     1     -34.719   7.826   3.914  1.00 20.00    -0.172 F 
HETATM    3  F10 UNL     1     -35.659   5.881   3.730  1.00 20.00    -0.172 F 
ENDROOT
BRANCH   1   4
HETATM    4  C6  UNL     1     -33.526   6.181   2.715  1.00 20.00     0.046 C 
HETATM    5  C1  UNL     1     -32.920   4.770   2.787  1.00 20.00     0.023 C 
HETATM    6  C2  UNL     1     -34.357   6.280   1.419  1.00 20.00     0.023 C 
HETATM    7  C3  UNL     1     -32.382   7.211   2.638  1.00 20.00     0.023 C 
ENDBRANCH   1   4
BRANCH   1   8
HETATM    8  N8  UNL     1     -33.884   6.092   5.232  1.00 20.00     0.152 N 
HETATM    9  C4  UNL     1     -33.737   7.231   6.139  1.00 20.00     0.317 C 
HETATM   10  C5  UNL     1     -34.666   5.044   5.892  1.00 20.00     0.317 C 
ENDBRANCH   1   8
TORSDOF 2
ENDMDL
MODEL 4
REMARK VINA RESULT:      -3.6     11.499     12.475
REMARK  2 active torsions:
REMARK  status: ('A' for Active; 'I' for Inactive)
REMARK    1  A    between atoms: C6_6  and  C7_7 
REMARK    2  A    between atoms: C7_7  and  N8_8 
ROOT
HETATM    1  C7  UNL     1     -35.430  14.558  -4.781  1.00 20.00     0.443 C 
HETATM    2  F9  UNL     1     -35.223  13.280  -4.338  1.00 20.00    -0.172 F 
HETATM    3  F10 UNL     1     -36.487  15.017  -4.052  1.00 20.00    -0.172 F 
ENDROOT
BRANCH   1   4
HETATM    4  C6  UNL     1     -34.164  15.386  -4.419  1.00 20.00     0.046 C 
HETATM    5  C1  UNL     1     -33.862  16.471  -5.466  1.00 20.00     0.023 C 
HETATM    6  C2  UNL     1     -34.396  16.083  -3.062  1.00 20.00     0.023 C 
HETATM    7  C3  UNL     1     -32.936  14.465  -4.288  1.00 20.00     0.023 C 
ENDBRANCH   1   4
BRANCH   1   8
HETATM    8  N8  UNL     1     -35.756  14.553  -6.220  1.00 20.00     0.152 N 
HETATM    9  C4  UNL     1     -35.321  13.323  -6.882  1.00 20.00     0.317 C 
HETATM   10  C5  UNL     1     -37.184  14.760  -6.472  1.00 20.00     0.317 C 
ENDBRANCH   1   8
TORSDOF 2
ENDMDL
MODEL 5
REMARK VINA RESULT:      -3.6     11.513     12.477
REMARK  2 active torsions:
REMARK  status: ('A' for Active; 'I' for Inactive)
REMARK    1  A    between atoms: C6_6  and  C7_7 
REMARK    2  A    between atoms: C7_7  and  N8_8 
ROOT
HETATM    1  C7  UNL     1     -35.436  14.579  -4.760  1.00 20.00     0.443 C 
HETATM    2  F9  UNL     1     -35.210  13.305  -4.316  1.00 20.00    -0.172 F 
HETATM    3  F10 UNL     1     -36.507  15.019  -4.040  1.00 20.00    -0.172 F 
ENDROOT
BRANCH   1   4
HETATM    4  C6  UNL     1     -34.188  15.429  -4.387  1.00 20.00     0.046 C 
HETATM    5  C1  UNL     1     -34.354  16.139  -3.033  1.00 20.00     0.023 C 
HETATM    6  C2  UNL     1     -32.962  14.497  -4.291  1.00 20.00     0.023 C 
HETATM    7  C3  UNL     1     -33.910  16.486  -5.473  1.00 20.00     0.023 C 
ENDBRANCH   1   4
BRANCH   1   8
HETATM    8  N8  UNL     1     -35.749  14.568  -6.202  1.00 20.00     0.152 N 
HETATM    9  C4  UNL     1     -35.342  13.321  -6.849  1.00 20.00     0.317 C 
HETATM   10  C5  UNL     1     -37.168  14.813  -6.469  1.00 20.00     0.317 C 
ENDBRANCH   1   8
TORSDOF 2
ENDMDL
MODEL 6
REMARK VINA RESULT:      -3.5     11.638     12.430
REMARK  2 active torsions:
REMARK  status: ('A' for Active; 'I' for Inactive)
REMARK    1  A    between atoms: C6_6  and  C7_7 
REMARK    2  A    between atoms: C7_7  and  N8_8 
ROOT
HETATM    1  C7  UNL     1     -34.309  14.769  -4.644  1.00 20.00     0.443 C 
HETATM    2  F9  UNL     1     -32.972  14.774  -4.937  1.00 20.00    -0.172 F 
HETATM    3  F10 UNL     1     -34.458  13.798  -3.697  1.00 20.00    -0.172 F 
ENDROOT
BRANCH   1   4
HETATM    4  C6  UNL     1     -34.652  16.150  -4.015  1.00 20.00     0.046 C 
HETATM    5  C1  UNL     1     -34.725  17.265  -5.070  1.00 20.00     0.023 C 
HETATM    6  C2  UNL     1     -36.028  16.054  -3.324  1.00 20.00     0.023 C 
HETATM    7  C3  UNL     1     -33.602  16.535  -2.954  1.00 20.00     0.023 C 
ENDBRANCH   1   4
BRANCH   1   8
HETATM    8  N8  UNL     1     -35.095  14.443  -5.849  1.00 20.00     0.152 N 
HETATM    9  C4  UNL     1     -34.244  14.116  -6.993  1.00 20.00     0.317 C 
HETATM   10  C5  UNL     1     -36.043  13.351  -5.621  1.00 20.00     0.317 C 
ENDBRANCH   1   8
TORSDOF 2
ENDMDL
MODEL 7
REMARK VINA RESULT:      -3.5     11.616     12.654
REMARK  2 active torsions:
REMARK  status: ('A' for Active; 'I' for Inactive)
REMARK    1  A    between atoms: C6_6  and  C7_7 
REMARK    2  A    between atoms: C7_7  and  N8_8 
ROOT
HETATM    1  C7  UNL     1     -34.043  15.037  -5.090  1.00 20.00     0.443 C 
HETATM    2  F9  UNL     1     -33.724  14.089  -4.156  1.00 20.00    -0.172 F 
HETATM    3  F10 UNL     1     -32.883  15.263  -5.773  1.00 20.00    -0.172 F 
ENDROOT
BRANCH   1   4
HETATM    4  C6  UNL     1     -35.086  14.405  -6.056  1.00 20.00     0.046 C 
HETATM    5  C1  UNL     1     -34.419  13.647  -7.215  1.00 20.00     0.023 C 
HETATM    6  C2  UNL     1     -35.953  13.404  -5.265  1.00 20.00     0.023 C 
HETATM    7  C3  UNL     1     -36.011  15.493  -6.638  1.00 20.00     0.023 C 
ENDBRANCH   1   4
BRANCH   1   8
HETATM    8  N8  UNL     1     -34.503  16.271  -4.428  1.00 20.00     0.152 N 
HETATM    9  C4  UNL     1     -34.726  16.082  -2.994  1.00 20.00     0.317 C 
HETATM   10  C5  UNL     1     -33.584  17.393  -4.631  1.00 20.00     0.317 C 
ENDBRANCH   1   8
TORSDOF 2
ENDMDL
MODEL 8
REMARK VINA RESULT:      -3.5     11.806     12.700
REMARK  2 active torsions:
REMARK  status: ('A' for Active; 'I' for Inactive)
REMARK    1  A    between atoms: C6_6  and  C7_7 
REMARK    2  A    between atoms: C7_7  and  N8_8 
ROOT
HETATM    1  C7  UNL     1     -34.371  16.178  -3.513  1.00 20.00     0.443 C 
HETATM    2  F9  UNL     1     -33.114  15.646  -3.412  1.00 20.00    -0.172 F 
HETATM    3  F10 UNL     1     -35.213  15.156  -3.187  1.00 20.00    -0.172 F 
ENDROOT
BRANCH   1   4
HETATM    4  C6  UNL     1     -34.489  17.297  -2.439  1.00 20.00     0.046 C 
HETATM    5  C1  UNL     1     -35.431  16.900  -1.290  1.00 20.00     0.023 C 
HETATM    6  C2  UNL     1     -33.092  17.564  -1.842  1.00 20.00     0.023 C 
HETATM    7  C3  UNL     1     -35.002  18.604  -3.075  1.00 20.00     0.023 C 
ENDBRANCH   1   4
BRANCH   1   8
HETATM    8  N8  UNL     1     -34.621  16.637  -4.892  1.00 20.00     0.152 N 
HETATM    9  C4  UNL     1     -33.448  16.478  -5.751  1.00 20.00     0.317 C 
HETATM   10  C5  UNL     1     -35.768  15.964  -5.507  1.00 20.00     0.317 C 
ENDBRANCH   1   8
TORSDOF 2
ENDMDL
MODEL 9
REMARK VINA RESULT:      -3.5      1.112      3.396
REMARK  2 active torsions:
REMARK  status: ('A' for Active; 'I' for Inactive)
REMARK    1  A    between atoms: C6_6  and  C7_7 
REMARK    2  A    between atoms: C7_7  and  N8_8 
ROOT
HETATM    1  C7  UNL     1     -33.654   7.284   4.343  1.00 20.00     0.443 C 
HETATM    2  F9  UNL     1     -33.004   7.604   5.504  1.00 20.00    -0.172 F 
HETATM    3  F10 UNL     1     -34.628   8.230   4.212  1.00 20.00    -0.172 F 
ENDROOT
BRANCH   1   4
HETATM    4  C6  UNL     1     -32.632   7.441   3.180  1.00 20.00     0.046 C 
HETATM    5  C1  UNL     1     -31.311   8.071   3.650  1.00 20.00     0.023 C 
HETATM    6  C2  UNL     1     -32.318   6.045   2.602  1.00 20.00     0.023 C 
HETATM    7  C3  UNL     1     -33.226   8.309   2.054  1.00 20.00     0.023 C 
ENDBRANCH   1   4
BRANCH   1   8
HETATM    8  N8  UNL     1     -34.248   5.938   4.446  1.00 20.00     0.152 N 
HETATM    9  C4  UNL     1     -34.425   5.515   5.836  1.00 20.00     0.317 C 
HETATM   10  C5  UNL     1     -35.528   5.835   3.741  1.00 20.00     0.317 C 
ENDBRANCH   1   8
TORSDOF 2
ENDMDL
