MODEL 1
REMARK VINA RESULT:      -5.4      0.000      0.000
REMARK  0 active torsions:
REMARK  status: ('A' for Active; 'I' for Inactive)
ROOT
HETATM    1  C1  UNL     1     -31.791   8.317   1.651  1.00 20.00     0.097 C 
HETATM    2  C2  UNL     1     -34.403   5.678   5.443  1.00 20.00     0.008 C 
HETATM    3  C3  UNL     1     -34.014   6.883   5.884  1.00 20.00     0.029 C 
HETATM    4  C4  UNL     1     -33.560   5.989   3.178  1.00 20.00    -0.004 C 
HETATM    5  C5  UNL     1     -31.642   8.758   4.042  1.00 20.00     0.136 C 
HETATM    6  C6  UNL     1     -32.224   8.174   2.988  1.00 20.00     0.053 C 
HETATM    7  C7  UNL     1     -34.037   5.157   4.128  1.00 20.00    -0.065 C 
HETATM    8  C8  UNL     1     -33.199   7.656   4.928  1.00 20.00     0.047 C 
HETATM    9  C9  UNL     1     -33.450   7.457   3.439  1.00 20.00     0.106 C 
HETATM   10  C10 UNL     1     -34.231   3.690   3.901  1.00 20.00     0.048 C 
HETATM   11  N11 UNL     1     -31.436   8.433   0.552  1.00 20.00    -0.192 NA
HETATM   12  N12 UNL     1     -32.236   8.466   5.243  1.00 20.00    -0.263 NA
ENDROOT
TORSDOF 0
ENDMDL
MODEL 2
REMARK VINA RESULT:      -5.3     11.402     12.275
REMARK  0 active torsions:
REMARK  status: ('A' for Active; 'I' for Inactive)
ROOT
HETATM    1  C1  UNL     1     -38.110  14.438  -5.134  1.00 20.00     0.097 C 
HETATM    2  C2  UNL     1     -33.706  16.338  -2.861  1.00 20.00     0.008 C 
HETATM    3  C3  UNL     1     -33.401  15.530  -3.887  1.00 20.00     0.029 C 
HETATM    4  C4  UNL     1     -36.118  16.190  -3.173  1.00 20.00    -0.004 C 
HETATM    5  C5  UNL     1     -35.891  13.444  -5.294  1.00 20.00     0.136 C 
HETATM    6  C6  UNL     1     -36.706  14.455  -4.974  1.00 20.00     0.053 C 
HETATM    7  C7  UNL     1     -35.075  16.548  -2.396  1.00 20.00    -0.065 C 
HETATM    8  C8  UNL     1     -34.561  14.880  -4.525  1.00 20.00     0.047 C 
HETATM    9  C9  UNL     1     -35.890  15.623  -4.537  1.00 20.00     0.106 C 
HETATM   10  C10 UNL     1     -35.244  17.180  -1.049  1.00 20.00     0.048 C 
HETATM   11  N11 UNL     1     -39.262  14.424  -5.265  1.00 20.00    -0.192 NA
HETATM   12  N12 UNL     1     -34.566  13.689  -5.042  1.00 20.00    -0.263 NA
ENDROOT
TORSDOF 0
ENDMDL
MODEL 3
REMARK VINA RESULT:      -5.3     11.315     12.020
REMARK  0 active torsions:
REMARK  status: ('A' for Active; 'I' for Inactive)
ROOT
HETATM    1  C1  UNL     1     -36.850  14.562  -4.645  1.00 20.00     0.097 C 
HETATM    2  C2  UNL     1     -33.815  17.551  -1.479  1.00 20.00     0.008 C 
HETATM    3  C3  UNL     1     -33.110  17.103  -2.529  1.00 20.00     0.029 C 
HETATM    4  C4  UNL     1     -35.926  16.569  -2.195  1.00 20.00    -0.004 C 
HETATM    5  C5  UNL     1     -34.416  14.511  -4.556  1.00 20.00     0.136 C 
HETATM    6  C6  UNL     1     -35.592  15.075  -4.257  1.00 20.00     0.053 C 
HETATM    7  C7  UNL     1     -35.197  17.152  -1.222  1.00 20.00    -0.065 C 
HETATM    8  C8  UNL     1     -33.847  16.186  -3.419  1.00 20.00     0.047 C 
HETATM    9  C9  UNL     1     -35.351  16.370  -3.560  1.00 20.00     0.106 C 
HETATM   10  C10 UNL     1     -35.741  17.435   0.144  1.00 20.00     0.048 C 
HETATM   11  N11 UNL     1     -37.883  14.141  -4.963  1.00 20.00    -0.192 NA
HETATM   12  N12 UNL     1     -33.329  15.187  -4.065  1.00 20.00    -0.263 NA
ENDROOT
TORSDOF 0
ENDMDL
MODEL 4
REMARK VINA RESULT:      -5.1     11.479     11.926
REMARK  0 active torsions:
REMARK  status: ('A' for Active; 'I' for Inactive)
ROOT
HETATM    1  C1  UNL     1     -31.432  18.990   1.358  1.00 20.00     0.097 C 
HETATM    2  C2  UNL     1     -35.522  17.187  -1.504  1.00 20.00     0.008 C 
HETATM    3  C3  UNL     1     -35.946  17.709  -0.343  1.00 20.00     0.029 C 
HETATM    4  C4  UNL     1     -33.174  17.731  -1.144  1.00 20.00    -0.004 C 
HETATM    5  C5  UNL     1     -33.625  18.398   2.239  1.00 20.00     0.136 C 
HETATM    6  C6  UNL     1     -32.799  18.663   1.220  1.00 20.00     0.053 C 
HETATM    7  C7  UNL     1     -34.107  17.051  -1.843  1.00 20.00    -0.065 C 
HETATM    8  C8  UNL     1     -34.871  18.154   0.562  1.00 20.00     0.047 C 
HETATM    9  C9  UNL     1     -33.576  18.669  -0.052  1.00 20.00     0.106 C 
HETATM   10  C10 UNL     1     -33.768  16.149  -2.989  1.00 20.00     0.048 C 
HETATM   11  N11 UNL     1     -30.309  19.259   1.470  1.00 20.00    -0.192 NA
HETATM   12  N12 UNL     1     -34.907  18.098   1.858  1.00 20.00    -0.263 NA
ENDROOT
TORSDOF 0
ENDMDL
MODEL 5
REMARK VINA RESULT:      -5.0     11.402     11.905
REMARK  0 active torsions:
REMARK  status: ('A' for Active; 'I' for Inactive)
ROOT
HETATM    1  C1  UNL     1     -32.337  18.223  -0.534  1.00 20.00     0.097 C 
HETATM    2  C2  UNL     1     -35.720  15.747  -3.789  1.00 20.00     0.008 C 
HETATM    3  C3  UNL     1     -36.378  16.553  -2.943  1.00 20.00     0.029 C 
HETATM    4  C4  UNL     1     -33.499  16.360  -2.996  1.00 20.00    -0.004 C 
HETATM    5  C5  UNL     1     -34.713  17.885  -0.116  1.00 20.00     0.136 C 
HETATM    6  C6  UNL     1     -33.648  17.874  -0.926  1.00 20.00     0.053 C 
HETATM    7  C7  UNL     1     -34.278  15.524  -3.714  1.00 20.00    -0.065 C 
HETATM    8  C8  UNL     1     -35.527  17.216  -1.937  1.00 20.00     0.047 C 
HETATM    9  C9  UNL     1     -34.090  17.551  -2.313  1.00 20.00     0.106 C 
HETATM   10  C10 UNL     1     -33.732  14.355  -4.472  1.00 20.00     0.048 C 
HETATM   11  N11 UNL     1     -31.260  18.509  -0.212  1.00 20.00    -0.192 NA
HETATM   12  N12 UNL     1     -35.882  17.500  -0.721  1.00 20.00    -0.263 NA
ENDROOT
TORSDOF 0
ENDMDL
MODEL 6
REMARK VINA RESULT:      -5.0     11.767     12.369
REMARK  0 active torsions:
REMARK  status: ('A' for Active; 'I' for Inactive)
ROOT
HETATM    1  C1  UNL     1     -33.818  16.081  -5.264  1.00 20.00     0.097 C 
HETATM    2  C2  UNL     1     -34.631  17.716  -0.280  1.00 20.00     0.008 C 
HETATM    3  C3  UNL     1     -35.769  17.255  -0.821  1.00 20.00     0.029 C 
HETATM    4  C4  UNL     1     -33.242  17.200  -2.214  1.00 20.00    -0.004 C 
HETATM    5  C5  UNL     1     -35.971  16.712  -4.313  1.00 20.00     0.136 C 
HETATM    6  C6  UNL     1     -34.677  16.396  -4.187  1.00 20.00     0.053 C 
HETATM    7  C7  UNL     1     -33.386  17.839  -1.034  1.00 20.00    -0.065 C 
HETATM    8  C8  UNL     1     -35.662  16.862  -2.239  1.00 20.00     0.047 C 
HETATM    9  C9  UNL     1     -34.330  16.320  -2.739  1.00 20.00     0.106 C 
HETATM   10  C10 UNL     1     -32.306  18.680  -0.428  1.00 20.00     0.048 C 
HETATM   11  N11 UNL     1     -33.112  15.823  -6.147  1.00 20.00    -0.192 NA
HETATM   12  N12 UNL     1     -36.600  16.986  -3.127  1.00 20.00    -0.263 NA
ENDROOT
TORSDOF 0
ENDMDL
MODEL 7
REMARK VINA RESULT:      -4.9     11.456     12.246
REMARK  0 active torsions:
REMARK  status: ('A' for Active; 'I' for Inactive)
ROOT
HETATM    1  C1  UNL     1     -35.052  17.914  -0.945  1.00 20.00     0.097 C 
HETATM    2  C2  UNL     1     -31.511  19.128   2.817  1.00 20.00     0.008 C 
HETATM    3  C3  UNL     1     -30.973  19.263   1.596  1.00 20.00     0.029 C 
HETATM    4  C4  UNL     1     -33.733  18.534   2.015  1.00 20.00    -0.004 C 
HETATM    5  C5  UNL     1     -32.632  17.913  -1.225  1.00 20.00     0.136 C 
HETATM    6  C6  UNL     1     -33.736  18.222  -0.535  1.00 20.00     0.053 C 
HETATM    7  C7  UNL     1     -32.857  18.606   3.038  1.00 20.00    -0.065 C 
HETATM    8  C8  UNL     1     -31.855  18.858   0.486  1.00 20.00     0.047 C 
HETATM    9  C9  UNL     1     -33.358  19.034   0.657  1.00 20.00     0.106 C 
HETATM   10  C10 UNL     1     -33.199  18.182   4.433  1.00 20.00     0.048 C 
HETATM   11  N11 UNL     1     -36.133  17.661  -1.280  1.00 20.00    -0.192 NA
HETATM   12  N12 UNL     1     -31.466  18.309  -0.623  1.00 20.00    -0.263 NA
ENDROOT
TORSDOF 0
ENDMDL
MODEL 8
REMARK VINA RESULT:      -4.8     11.370     12.495
REMARK  0 active torsions:
REMARK  status: ('A' for Active; 'I' for Inactive)
ROOT
HETATM    1  C1  UNL     1     -34.483  17.299  -1.450  1.00 20.00     0.097 C 
HETATM    2  C2  UNL     1     -34.049  14.753  -6.087  1.00 20.00     0.008 C 
HETATM    3  C3  UNL     1     -33.278  15.851  -6.073  1.00 20.00     0.029 C 
HETATM    4  C4  UNL     1     -34.826  15.000  -3.791  1.00 20.00    -0.004 C 
HETATM    5  C5  UNL     1     -33.717  18.286  -3.542  1.00 20.00     0.136 C 
HETATM    6  C6  UNL     1     -34.033  17.227  -2.787  1.00 20.00     0.053 C 
HETATM    7  C7  UNL     1     -34.956  14.406  -4.996  1.00 20.00    -0.065 C 
HETATM    8  C8  UNL     1     -33.403  16.676  -4.857  1.00 20.00     0.047 C 
HETATM    9  C9  UNL     1     -33.725  15.979  -3.542  1.00 20.00     0.106 C 
HETATM   10  C10 UNL     1     -35.999  13.371  -5.284  1.00 20.00     0.048 C 
HETATM   11  N11 UNL     1     -34.853  17.357  -0.352  1.00 20.00    -0.192 NA
HETATM   12  N12 UNL     1     -33.312  17.969  -4.812  1.00 20.00    -0.263 NA
ENDROOT
TORSDOF 0
ENDMDL
MODEL 9
REMARK VINA RESULT:      -4.6     11.525     12.401
REMARK  0 active torsions:
REMARK  status: ('A' for Active; 'I' for Inactive)
ROOT
HETATM    1  C1  UNL     1     -33.919  16.634  -2.563  1.00 20.00     0.097 C 
HETATM    2  C2  UNL     1     -36.444  13.851  -6.311  1.00 20.00     0.008 C 
HETATM    3  C3  UNL     1     -35.136  13.952  -6.593  1.00 20.00     0.029 C 
HETATM    4  C4  UNL     1     -36.302  15.025  -4.181  1.00 20.00    -0.004 C 
HETATM    5  C5  UNL     1     -33.123  16.275  -4.837  1.00 20.00     0.136 C 
HETATM    6  C6  UNL     1     -33.951  15.997  -3.823  1.00 20.00     0.053 C 
HETATM    7  C7  UNL     1     -37.066  14.529  -5.176  1.00 20.00    -0.065 C 
HETATM    8  C8  UNL     1     -34.366  14.787  -5.653  1.00 20.00     0.047 C 
HETATM    9  C9  UNL     1     -34.818  14.844  -4.200  1.00 20.00     0.106 C 
HETATM   10  C10 UNL     1     -38.560  14.623  -5.178  1.00 20.00     0.048 C 
HETATM   11  N11 UNL     1     -33.894  17.156  -1.527  1.00 20.00    -0.192 NA
HETATM   12  N12 UNL     1     -33.350  15.532  -5.966  1.00 20.00    -0.263 NA
ENDROOT
TORSDOF 0
ENDMDL
