MODEL 1
REMARK VINA RESULT:      -5.2      0.000      0.000
REMARK  1 active torsions:
REMARK  status: ('A' for Active; 'I' for Inactive)
REMARK    1  A    between atoms: C4_4  and  C6_6 
ROOT
HETATM    1  C1  UNL     1     -31.799   8.273   3.138  1.00 20.00     0.135 A 
HETATM    2  C2  UNL     1     -32.147   8.267   4.470  1.00 20.00     0.136 A 
HETATM    3  C3  UNL     1     -33.296   6.591   2.739  1.00 20.00     0.149 A 
HETATM    4  C4  UNL     1     -33.643   6.584   4.073  1.00 20.00     0.122 A 
HETATM    5  N7  UNL     1     -32.368   7.435   2.248  1.00 20.00    -0.269 NA
HETATM    6  N8  UNL     1     -33.075   7.422   4.962  1.00 20.00    -0.256 NA
ENDROOT
BRANCH   4   7
HETATM    7  C6  UNL     1     -34.673   5.636   4.581  1.00 20.00     0.285 C 
HETATM    8  C5  UNL     1     -34.270   4.179   4.361  1.00 20.00     0.097 C 
HETATM    9  F9  UNL     1     -35.900   5.805   3.988  1.00 20.00    -0.200 F 
HETATM   10  F10 UNL     1     -34.925   5.783   5.922  1.00 20.00    -0.200 F 
ENDBRANCH   4   7
TORSDOF 1
ENDMDL
MODEL 2
REMARK VINA RESULT:      -5.2      0.859      1.507
REMARK  1 active torsions:
REMARK  status: ('A' for Active; 'I' for Inactive)
REMARK    1  A    between atoms: C4_4  and  C6_6 
ROOT
HETATM    1  C1  UNL     1     -31.836   8.250   3.058  1.00 20.00     0.135 A 
HETATM    2  C2  UNL     1     -32.519   7.395   2.221  1.00 20.00     0.136 A 
HETATM    3  C3  UNL     1     -33.001   7.430   4.847  1.00 20.00     0.149 A 
HETATM    4  C4  UNL     1     -33.686   6.576   4.010  1.00 20.00     0.122 A 
HETATM    5  N7  UNL     1     -32.065   8.282   4.386  1.00 20.00    -0.269 NA
HETATM    6  N8  UNL     1     -33.457   6.543   2.682  1.00 20.00    -0.256 NA
ENDROOT
BRANCH   4   7
HETATM    7  C6  UNL     1     -34.715   5.648   4.554  1.00 20.00     0.285 C 
HETATM    8  C5  UNL     1     -34.311   4.184   4.391  1.00 20.00     0.097 C 
HETATM    9  F9  UNL     1     -35.941   5.792   3.955  1.00 20.00    -0.200 F 
HETATM   10  F10 UNL     1     -34.967   5.846   5.889  1.00 20.00    -0.200 F 
ENDBRANCH   4   7
TORSDOF 1
ENDMDL
MODEL 3
REMARK VINA RESULT:      -5.0      2.358      3.913
REMARK  1 active torsions:
REMARK  status: ('A' for Active; 'I' for Inactive)
REMARK    1  A    between atoms: C4_4  and  C6_6 
ROOT
HETATM    1  C1  UNL     1     -34.703   5.277   5.517  1.00 20.00     0.135 A 
HETATM    2  C2  UNL     1     -34.486   4.881   4.216  1.00 20.00     0.136 A 
HETATM    3  C3  UNL     1     -33.590   7.233   5.107  1.00 20.00     0.149 A 
HETATM    4  C4  UNL     1     -33.372   6.835   3.806  1.00 20.00     0.122 A 
HETATM    5  N7  UNL     1     -34.259   6.461   5.985  1.00 20.00    -0.269 NA
HETATM    6  N8  UNL     1     -33.816   5.652   3.337  1.00 20.00    -0.256 NA
ENDROOT
BRANCH   4   7
HETATM    7  C6  UNL     1     -32.629   7.714   2.861  1.00 20.00     0.285 C 
HETATM    8  C5  UNL     1     -31.405   8.355   3.516  1.00 20.00     0.097 C 
HETATM    9  F9  UNL     1     -33.394   8.738   2.361  1.00 20.00    -0.200 F 
HETATM   10  F10 UNL     1     -32.182   7.051   1.745  1.00 20.00    -0.200 F 
ENDBRANCH   4   7
TORSDOF 1
ENDMDL
MODEL 4
REMARK VINA RESULT:      -4.9      2.449      3.644
REMARK  1 active torsions:
REMARK  status: ('A' for Active; 'I' for Inactive)
REMARK    1  A    between atoms: C4_4  and  C6_6 
ROOT
HETATM    1  C1  UNL     1     -34.747   5.431   5.488  1.00 20.00     0.135 A 
HETATM    2  C2  UNL     1     -34.135   6.593   5.902  1.00 20.00     0.136 A 
HETATM    3  C3  UNL     1     -33.978   5.781   3.363  1.00 20.00     0.149 A 
HETATM    4  C4  UNL     1     -33.366   6.944   3.777  1.00 20.00     0.122 A 
HETATM    5  N7  UNL     1     -34.679   5.004   4.211  1.00 20.00    -0.269 NA
HETATM    6  N8  UNL     1     -33.434   7.371   5.053  1.00 20.00    -0.256 NA
ENDROOT
BRANCH   4   7
HETATM    7  C6  UNL     1     -32.599   7.779   2.812  1.00 20.00     0.285 C 
HETATM    8  C5  UNL     1     -31.357   8.399   3.450  1.00 20.00     0.097 C 
HETATM    9  F9  UNL     1     -33.336   8.813   2.288  1.00 20.00    -0.200 F 
HETATM   10  F10 UNL     1     -32.174   7.077   1.711  1.00 20.00    -0.200 F 
ENDBRANCH   4   7
TORSDOF 1
ENDMDL
MODEL 5
REMARK VINA RESULT:      -4.0     11.784     12.744
REMARK  1 active torsions:
REMARK  status: ('A' for Active; 'I' for Inactive)
REMARK    1  A    between atoms: C4_4  and  C6_6 
ROOT
HETATM    1  C1  UNL     1     -35.562  12.936  -6.864  1.00 20.00     0.135 A 
HETATM    2  C2  UNL     1     -34.595  13.798  -7.331  1.00 20.00     0.136 A 
HETATM    3  C3  UNL     1     -35.261  13.746  -4.746  1.00 20.00     0.149 A 
HETATM    4  C4  UNL     1     -34.293  14.609  -5.214  1.00 20.00     0.122 A 
HETATM    5  N7  UNL     1     -35.912  12.895  -5.563  1.00 20.00    -0.269 NA
HETATM    6  N8  UNL     1     -33.943  14.650  -6.515  1.00 20.00    -0.256 NA
ENDROOT
BRANCH   4   7
HETATM    7  C6  UNL     1     -33.594  15.536  -4.283  1.00 20.00     0.285 C 
HETATM    8  C5  UNL     1     -34.511  16.024  -3.162  1.00 20.00     0.097 C 
HETATM    9  F9  UNL     1     -33.098  16.654  -4.907  1.00 20.00    -0.200 F 
HETATM   10  F10 UNL     1     -32.496  14.971  -3.683  1.00 20.00    -0.200 F 
ENDBRANCH   4   7
TORSDOF 1
ENDMDL
MODEL 6
REMARK VINA RESULT:      -4.0     11.498     12.330
REMARK  1 active torsions:
REMARK  status: ('A' for Active; 'I' for Inactive)
REMARK    1  A    between atoms: C4_4  and  C6_6 
ROOT
HETATM    1  C1  UNL     1     -36.257  13.607  -5.274  1.00 20.00     0.135 A 
HETATM    2  C2  UNL     1     -37.038  14.648  -4.823  1.00 20.00     0.136 A 
HETATM    3  C3  UNL     1     -34.482  14.422  -4.085  1.00 20.00     0.149 A 
HETATM    4  C4  UNL     1     -35.263  15.464  -3.635  1.00 20.00     0.122 A 
HETATM    5  N7  UNL     1     -34.966  13.475  -4.913  1.00 20.00    -0.269 NA
HETATM    6  N8  UNL     1     -36.555  15.596  -3.996  1.00 20.00    -0.256 NA
ENDROOT
BRANCH   4   7
HETATM    7  C6  UNL     1     -34.695  16.494  -2.721  1.00 20.00     0.285 C 
HETATM    8  C5  UNL     1     -34.983  17.914  -3.207  1.00 20.00     0.097 C 
HETATM    9  F9  UNL     1     -33.334  16.392  -2.573  1.00 20.00    -0.200 F 
HETATM   10  F10 UNL     1     -35.181  16.404  -1.440  1.00 20.00    -0.200 F 
ENDBRANCH   4   7
TORSDOF 1
ENDMDL
MODEL 7
REMARK VINA RESULT:      -4.0      2.107      3.351
REMARK  1 active torsions:
REMARK  status: ('A' for Active; 'I' for Inactive)
REMARK    1  A    between atoms: C4_4  and  C6_6 
ROOT
HETATM    1  C1  UNL     1     -34.520   6.230   6.423  1.00 20.00     0.135 A 
HETATM    2  C2  UNL     1     -33.815   7.282   5.883  1.00 20.00     0.136 A 
HETATM    3  C3  UNL     1     -34.479   5.163   4.400  1.00 20.00     0.149 A 
HETATM    4  C4  UNL     1     -33.775   6.217   3.860  1.00 20.00     0.122 A 
HETATM    5  N7  UNL     1     -34.864   5.151   5.691  1.00 20.00    -0.269 NA
HETATM    6  N8  UNL     1     -33.430   7.295   4.591  1.00 20.00    -0.256 NA
ENDROOT
BRANCH   4   7
HETATM    7  C6  UNL     1     -33.365   6.197   2.428  1.00 20.00     0.285 C 
HETATM    8  C5  UNL     1     -32.576   7.446   2.039  1.00 20.00     0.097 C 
HETATM    9  F9  UNL     1     -34.429   6.112   1.564  1.00 20.00    -0.200 F 
HETATM   10  F10 UNL     1     -32.583   5.115   2.106  1.00 20.00    -0.200 F 
ENDBRANCH   4   7
TORSDOF 1
ENDMDL
MODEL 8
REMARK VINA RESULT:      -4.0     11.852     12.515
REMARK  1 active torsions:
REMARK  status: ('A' for Active; 'I' for Inactive)
REMARK    1  A    between atoms: C4_4  and  C6_6 
ROOT
HETATM    1  C1  UNL     1     -37.923  14.687  -4.744  1.00 20.00     0.135 A 
HETATM    2  C2  UNL     1     -37.387  15.846  -4.228  1.00 20.00     0.136 A 
HETATM    3  C3  UNL     1     -35.823  13.801  -4.935  1.00 20.00     0.149 A 
HETATM    4  C4  UNL     1     -35.287  14.962  -4.420  1.00 20.00     0.122 A 
HETATM    5  N7  UNL     1     -37.150  13.644  -5.106  1.00 20.00    -0.269 NA
HETATM    6  N8  UNL     1     -36.059  16.005  -4.057  1.00 20.00    -0.256 NA
ENDROOT
BRANCH   4   7
HETATM    7  C6  UNL     1     -33.815  15.101  -4.245  1.00 20.00     0.285 C 
HETATM    8  C5  UNL     1     -33.156  15.779  -5.446  1.00 20.00     0.097 C 
HETATM    9  F9  UNL     1     -33.177  13.899  -4.066  1.00 20.00    -0.200 F 
HETATM   10  F10 UNL     1     -33.471  15.834  -3.136  1.00 20.00    -0.200 F 
ENDBRANCH   4   7
TORSDOF 1
ENDMDL
MODEL 9
REMARK VINA RESULT:      -4.0      2.319      3.543
REMARK  1 active torsions:
REMARK  status: ('A' for Active; 'I' for Inactive)
REMARK    1  A    between atoms: C4_4  and  C6_6 
ROOT
HETATM    1  C1  UNL     1     -34.577   6.089   6.400  1.00 20.00     0.135 A 
HETATM    2  C2  UNL     1     -34.779   5.009   5.570  1.00 20.00     0.136 A 
HETATM    3  C3  UNL     1     -33.599   7.231   4.677  1.00 20.00     0.149 A 
HETATM    4  C4  UNL     1     -33.800   6.150   3.847  1.00 20.00     0.122 A 
HETATM    5  N7  UNL     1     -33.984   7.220   5.968  1.00 20.00    -0.269 NA
HETATM    6  N8  UNL     1     -34.393   5.019   4.278  1.00 20.00    -0.256 NA
ENDROOT
BRANCH   4   7
HETATM    7  C6  UNL     1     -33.362   6.197   2.425  1.00 20.00     0.285 C 
HETATM    8  C5  UNL     1     -32.579   7.471   2.108  1.00 20.00     0.097 C 
HETATM    9  F9  UNL     1     -34.406   6.140   1.536  1.00 20.00    -0.200 F 
HETATM   10  F10 UNL     1     -32.561   5.139   2.072  1.00 20.00    -0.200 F 
ENDBRANCH   4   7
TORSDOF 1
ENDMDL
