MODEL 1
REMARK VINA RESULT:      -4.2      0.000      0.000
REMARK  2 active torsions:
REMARK  status: ('A' for Active; 'I' for Inactive)
REMARK    1  A    between atoms: C1_1  and  C4_4 
REMARK    2  A    between atoms: C2_2  and  C3_3 
ROOT
HETATM    1  C1  UNL     1     -33.083   7.138   2.833  1.00 20.00     0.015 C 
HETATM    2  C3  UNL     1     -33.781   6.785   3.922  1.00 20.00     0.069 C 
HETATM    3 CL6  UNL     1     -35.104   5.690   3.914  1.00 20.00    -0.081 Cl
ENDROOT
BRANCH   2   4
HETATM    4  C2  UNL     1     -33.392   7.367   5.229  1.00 20.00     0.282 C 
HETATM    5  O5  UNL     1     -34.055   7.236   6.251  1.00 20.00    -0.301 OA
ENDBRANCH   2   4
BRANCH   1   6
HETATM    6  C4  UNL     1     -31.920   8.078   2.778  1.00 20.00     0.143 C 
HETATM    7 CL7  UNL     1     -31.789   8.777   1.150  1.00 20.00    -0.126 Cl
ENDBRANCH   1   6
TORSDOF 2
ENDMDL
MODEL 2
REMARK VINA RESULT:      -4.2      1.330      1.349
REMARK  2 active torsions:
REMARK  status: ('A' for Active; 'I' for Inactive)
REMARK    1  A    between atoms: C1_1  and  C4_4 
REMARK    2  A    between atoms: C2_2  and  C3_3 
ROOT
HETATM    1  C1  UNL     1     -33.315   6.289   2.889  1.00 20.00     0.015 C 
HETATM    2  C3  UNL     1     -33.923   5.871   4.009  1.00 20.00     0.069 C 
HETATM    3 CL6  UNL     1     -34.315   4.233   4.349  1.00 20.00    -0.081 Cl
ENDROOT
BRANCH   2   4
HETATM    4  C2  UNL     1     -34.279   6.879   5.035  1.00 20.00     0.282 C 
HETATM    5  O5  UNL     1     -33.546   7.181   5.969  1.00 20.00    -0.301 OA
ENDBRANCH   2   4
BRANCH   1   6
HETATM    6  C4  UNL     1     -32.942   7.695   2.541  1.00 20.00     0.143 C 
HETATM    7 CL7  UNL     1     -31.443   8.145   3.384  1.00 20.00    -0.126 Cl
ENDBRANCH   1   6
TORSDOF 2
ENDMDL
MODEL 3
REMARK VINA RESULT:      -4.1      1.777      1.942
REMARK  2 active torsions:
REMARK  status: ('A' for Active; 'I' for Inactive)
REMARK    1  A    between atoms: C1_1  and  C4_4 
REMARK    2  A    between atoms: C2_2  and  C3_3 
ROOT
HETATM    1  C1  UNL     1     -32.556   7.814   3.683  1.00 20.00     0.015 C 
HETATM    2  C3  UNL     1     -33.493   7.097   4.320  1.00 20.00     0.069 C 
HETATM    3 CL6  UNL     1     -33.818   7.200   6.003  1.00 20.00    -0.081 Cl
ENDROOT
BRANCH   2   4
HETATM    4  C2  UNL     1     -34.317   6.152   3.528  1.00 20.00     0.282 C 
HETATM    5  O5  UNL     1     -35.426   5.767   3.878  1.00 20.00    -0.301 OA
ENDBRANCH   2   4
BRANCH   1   6
HETATM    6  C4  UNL     1     -32.233   7.774   2.222  1.00 20.00     0.143 C 
HETATM    7 CL7  UNL     1     -32.418   9.396   1.521  1.00 20.00    -0.126 Cl
ENDBRANCH   1   6
TORSDOF 2
ENDMDL
MODEL 4
REMARK VINA RESULT:      -4.0      1.365      3.318
REMARK  2 active torsions:
REMARK  status: ('A' for Active; 'I' for Inactive)
REMARK    1  A    between atoms: C1_1  and  C4_4 
REMARK    2  A    between atoms: C2_2  and  C3_3 
ROOT
HETATM    1  C1  UNL     1     -33.777   6.396   3.209  1.00 20.00     0.015 C 
HETATM    2  C3  UNL     1     -33.080   7.347   3.848  1.00 20.00     0.069 C 
HETATM    3 CL6  UNL     1     -31.675   8.111   3.219  1.00 20.00    -0.081 Cl
ENDROOT
BRANCH   2   4
HETATM    4  C2  UNL     1     -33.547   7.785   5.186  1.00 20.00     0.282 C 
HETATM    5  O5  UNL     1     -33.353   7.144   6.212  1.00 20.00    -0.301 OA
ENDBRANCH   2   4
BRANCH   1   6
HETATM    6  C4  UNL     1     -35.008   5.703   3.700  1.00 20.00     0.143 C 
HETATM    7 CL7  UNL     1     -34.553   4.293   4.682  1.00 20.00    -0.126 Cl
ENDBRANCH   1   6
TORSDOF 2
ENDMDL
MODEL 5
REMARK VINA RESULT:      -3.9      2.510      2.831
REMARK  2 active torsions:
REMARK  status: ('A' for Active; 'I' for Inactive)
REMARK    1  A    between atoms: C1_1  and  C4_4 
REMARK    2  A    between atoms: C2_2  and  C3_3 
ROOT
HETATM    1  C1  UNL     1     -33.523   6.883   3.650  1.00 20.00     0.015 C 
HETATM    2  C3  UNL     1     -33.956   6.689   4.904  1.00 20.00     0.069 C 
HETATM    3 CL6  UNL     1     -33.553   7.695   6.237  1.00 20.00    -0.081 Cl
ENDROOT
BRANCH   2   4
HETATM    4  C2  UNL     1     -34.850   5.537   5.172  1.00 20.00     0.282 C 
HETATM    5  O5  UNL     1     -34.448   4.447   5.560  1.00 20.00    -0.301 OA
ENDBRANCH   2   4
BRANCH   1   6
HETATM    6  C4  UNL     1     -33.846   6.049   2.450  1.00 20.00     0.143 C 
HETATM    7 CL7  UNL     1     -32.856   4.573   2.460  1.00 20.00    -0.126 Cl
ENDBRANCH   1   6
TORSDOF 2
ENDMDL
MODEL 6
REMARK VINA RESULT:      -3.8      2.254      4.026
REMARK  2 active torsions:
REMARK  status: ('A' for Active; 'I' for Inactive)
REMARK    1  A    between atoms: C1_1  and  C4_4 
REMARK    2  A    between atoms: C2_2  and  C3_3 
ROOT
HETATM    1  C1  UNL     1     -33.691   7.103   4.836  1.00 20.00     0.015 C 
HETATM    2  C3  UNL     1     -32.977   7.101   3.701  1.00 20.00     0.069 C 
HETATM    3 CL6  UNL     1     -31.645   8.139   3.390  1.00 20.00    -0.081 Cl
ENDROOT
BRANCH   2   4
HETATM    4  C2  UNL     1     -33.348   6.138   2.636  1.00 20.00     0.282 C 
HETATM    5  O5  UNL     1     -32.917   4.993   2.582  1.00 20.00    -0.301 OA
ENDBRANCH   2   4
BRANCH   1   6
HETATM    6  C4  UNL     1     -34.853   6.221   5.167  1.00 20.00     0.143 C 
HETATM    7 CL7  UNL     1     -34.266   4.642   5.736  1.00 20.00    -0.126 Cl
ENDBRANCH   1   6
TORSDOF 2
ENDMDL
MODEL 7
REMARK VINA RESULT:      -3.6      2.520      3.937
REMARK  2 active torsions:
REMARK  status: ('A' for Active; 'I' for Inactive)
REMARK    1  A    between atoms: C1_1  and  C4_4 
REMARK    2  A    between atoms: C2_2  and  C3_3 
ROOT
HETATM    1  C1  UNL     1     -34.130   6.636   4.889  1.00 20.00     0.015 C 
HETATM    2  C3  UNL     1     -33.175   7.325   4.249  1.00 20.00     0.069 C 
HETATM    3 CL6  UNL     1     -32.151   8.487   4.993  1.00 20.00    -0.081 Cl
ENDROOT
BRANCH   2   4
HETATM    4  C2  UNL     1     -32.973   7.073   2.802  1.00 20.00     0.282 C 
HETATM    5  O5  UNL     1     -32.386   7.849   2.057  1.00 20.00    -0.301 OA
ENDBRANCH   2   4
BRANCH   1   6
HETATM    6  C4  UNL     1     -35.045   5.609   4.299  1.00 20.00     0.143 C 
HETATM    7 CL7  UNL     1     -34.278   4.007   4.375  1.00 20.00    -0.126 Cl
ENDBRANCH   1   6
TORSDOF 2
ENDMDL
MODEL 8
REMARK VINA RESULT:      -3.6      2.587      3.043
REMARK  2 active torsions:
REMARK  status: ('A' for Active; 'I' for Inactive)
REMARK    1  A    between atoms: C1_1  and  C4_4 
REMARK    2  A    between atoms: C2_2  and  C3_3 
ROOT
HETATM    1  C1  UNL     1     -34.232   6.128   3.988  1.00 20.00     0.015 C 
HETATM    2  C3  UNL     1     -33.489   7.125   4.490  1.00 20.00     0.069 C 
HETATM    3 CL6  UNL     1     -33.549   7.653   6.124  1.00 20.00    -0.081 Cl
ENDROOT
BRANCH   2   4
HETATM    4  C2  UNL     1     -32.542   7.823   3.588  1.00 20.00     0.282 C 
HETATM    5  O5  UNL     1     -31.454   8.253   3.952  1.00 20.00    -0.301 OA
ENDBRANCH   2   4
BRANCH   1   6
HETATM    6  C4  UNL     1     -34.218   5.619   2.581  1.00 20.00     0.143 C 
HETATM    7 CL7  UNL     1     -32.890   4.456   2.375  1.00 20.00    -0.126 Cl
ENDBRANCH   1   6
TORSDOF 2
ENDMDL
MODEL 9
REMARK VINA RESULT:      -3.5      2.691      3.104
REMARK  2 active torsions:
REMARK  status: ('A' for Active; 'I' for Inactive)
REMARK    1  A    between atoms: C1_1  and  C4_4 
REMARK    2  A    between atoms: C2_2  and  C3_3 
ROOT
HETATM    1  C1  UNL     1     -33.204   6.714   3.335  1.00 20.00     0.015 C 
HETATM    2  C3  UNL     1     -33.577   5.431   3.235  1.00 20.00     0.069 C 
HETATM    3 CL6  UNL     1     -32.828   4.277   2.207  1.00 20.00    -0.081 Cl
ENDROOT
BRANCH   2   4
HETATM    4  C2  UNL     1     -34.709   4.959   4.070  1.00 20.00     0.282 C 
HETATM    5  O5  UNL     1     -34.616   4.043   4.878  1.00 20.00    -0.301 OA
ENDBRANCH   2   4
BRANCH   1   6
HETATM    6  C4  UNL     1     -33.810   7.761   4.216  1.00 20.00     0.143 C 
HETATM    7 CL7  UNL     1     -33.473   7.382   5.919  1.00 20.00    -0.126 Cl
ENDBRANCH   1   6
TORSDOF 2
ENDMDL
