MODEL 1
REMARK VINA RESULT:      -4.6      0.000      0.000
REMARK  3 active torsions:
REMARK  status: ('A' for Active; 'I' for Inactive)
REMARK    1  A    between atoms: C6_6  and  C8_8 
REMARK    2  A    between atoms: C7_7  and  O11_11 
REMARK    3  A    between atoms: C9_9  and  C10_10 
ROOT
HETATM    1  C1  UNL     1     -34.313  13.989  -7.917  1.00 20.00    -0.023 C 
HETATM    2  C2  UNL     1     -35.009  13.021  -7.275  1.00 20.00     0.001 C 
HETATM    3  C6  UNL     1     -34.829  15.292  -7.430  1.00 20.00     0.019 C 
HETATM    4  C7  UNL     1     -35.897  13.608  -6.177  1.00 20.00     0.145 C 
HETATM    5  C10 UNL     1     -35.090  14.870  -5.978  1.00 20.00     0.030 C 
ENDROOT
BRANCH   4   6
HETATM    6  O11 UNL     1     -35.876  12.796  -5.022  1.00 20.00    -0.391 OA
HETATM    7  H25 UNL     1     -34.946  12.567  -4.846  1.00 20.00     0.210 HD
ENDBRANCH   4   6
BRANCH   5   8
HETATM    8  C9  UNL     1     -35.404  16.209  -5.288  1.00 20.00    -0.007 C 
HETATM    9  C4  UNL     1     -35.451  15.865  -3.775  1.00 20.00     0.005 C 
HETATM   10  C3  UNL     1     -34.007  15.361  -3.509  1.00 20.00     0.005 C 
HETATM   11  C8  UNL     1     -33.244  15.740  -4.796  1.00 20.00    -0.006 C 
HETATM   12  C5  UNL     1     -34.065  16.970  -5.271  1.00 20.00     0.010 C 
ENDBRANCH   5   8
TORSDOF 3
ENDMDL
MODEL 2
REMARK VINA RESULT:      -4.4     11.853     13.288
REMARK  3 active torsions:
REMARK  status: ('A' for Active; 'I' for Inactive)
REMARK    1  A    between atoms: C6_6  and  C8_8 
REMARK    2  A    between atoms: C7_7  and  O11_11 
REMARK    3  A    between atoms: C9_9  and  C10_10 
ROOT
HETATM    1  C1  UNL     1     -34.765   4.736   5.408  1.00 20.00    -0.023 C 
HETATM    2  C2  UNL     1     -34.246   5.617   6.293  1.00 20.00     0.001 C 
HETATM    3  C6  UNL     1     -35.195   5.514   4.219  1.00 20.00     0.019 C 
HETATM    4  C7  UNL     1     -34.115   7.013   5.680  1.00 20.00     0.145 C 
HETATM    5  C10 UNL     1     -34.063   6.550   4.243  1.00 20.00     0.030 C 
ENDROOT
BRANCH   4   6
HETATM    6  O11 UNL     1     -32.902   7.624   6.068  1.00 20.00    -0.391 OA
HETATM    7  H25 UNL     1     -33.052   8.040   6.935  1.00 20.00     0.210 HD
ENDBRANCH   4   6
BRANCH   5   8
HETATM    8  C9  UNL     1     -34.251   7.285   2.904  1.00 20.00    -0.007 C 
HETATM    9  C4  UNL     1     -32.978   8.162   2.761  1.00 20.00     0.005 C 
HETATM   10  C3  UNL     1     -31.849   7.097   2.723  1.00 20.00     0.005 C 
HETATM   11  C8  UNL     1     -32.610   5.764   2.560  1.00 20.00    -0.006 C 
HETATM   12  C5  UNL     1     -33.892   6.246   1.826  1.00 20.00     0.010 C 
ENDBRANCH   5   8
TORSDOF 3
ENDMDL
MODEL 3
REMARK VINA RESULT:      -4.4      1.482      2.337
REMARK  3 active torsions:
REMARK  status: ('A' for Active; 'I' for Inactive)
REMARK    1  A    between atoms: C6_6  and  C8_8 
REMARK    2  A    between atoms: C7_7  and  O11_11 
REMARK    3  A    between atoms: C9_9  and  C10_10 
ROOT
HETATM    1  C1  UNL     1     -37.120  14.453  -6.724  1.00 20.00    -0.023 C 
HETATM    2  C2  UNL     1     -36.207  13.975  -7.600  1.00 20.00     0.001 C 
HETATM    3  C6  UNL     1     -36.640  14.111  -5.363  1.00 20.00     0.019 C 
HETATM    4  C7  UNL     1     -34.962  13.454  -6.880  1.00 20.00     0.145 C 
HETATM    5  C10 UNL     1     -35.139  14.290  -5.633  1.00 20.00     0.030 C 
ENDROOT
BRANCH   4   6
HETATM    6  O11 UNL     1     -33.787  13.814  -7.577  1.00 20.00    -0.391 OA
HETATM    7  H25 UNL     1     -33.281  12.997  -7.731  1.00 20.00     0.210 HD
ENDBRANCH   4   6
BRANCH   5   8
HETATM    8  C9  UNL     1     -34.529  14.201  -4.224  1.00 20.00    -0.007 C 
HETATM    9  C4  UNL     1     -33.022  14.507  -4.433  1.00 20.00     0.005 C 
HETATM   10  C3  UNL     1     -33.057  15.953  -4.997  1.00 20.00     0.005 C 
HETATM   11  C8  UNL     1     -34.518  16.396  -4.775  1.00 20.00    -0.006 C 
HETATM   12  C5  UNL     1     -34.904  15.531  -3.544  1.00 20.00     0.010 C 
ENDBRANCH   5   8
TORSDOF 3
ENDMDL
MODEL 4
REMARK VINA RESULT:      -4.3      2.659      4.717
REMARK  3 active torsions:
REMARK  status: ('A' for Active; 'I' for Inactive)
REMARK    1  A    between atoms: C6_6  and  C8_8 
REMARK    2  A    between atoms: C7_7  and  O11_11 
REMARK    3  A    between atoms: C9_9  and  C10_10 
ROOT
HETATM    1  C1  UNL     1     -33.490  17.389  -1.525  1.00 20.00    -0.023 C 
HETATM    2  C2  UNL     1     -33.123  18.390  -2.358  1.00 20.00     0.001 C 
HETATM    3  C6  UNL     1     -34.611  16.668  -2.177  1.00 20.00     0.019 C 
HETATM    4  C7  UNL     1     -33.841  18.287  -3.705  1.00 20.00     0.145 C 
HETATM    5  C10 UNL     1     -34.117  16.804  -3.624  1.00 20.00     0.030 C 
ENDROOT
BRANCH   4   6
HETATM    6  O11 UNL     1     -32.963  18.590  -4.769  1.00 20.00    -0.391 OA
HETATM    7  H25 UNL     1     -32.551  19.448  -4.569  1.00 20.00     0.210 HD
ENDBRANCH   4   6
BRANCH   5   8
HETATM    8  C9  UNL     1     -35.074  15.878  -4.395  1.00 20.00    -0.007 C 
HETATM    9  C4  UNL     1     -34.620  15.997  -5.875  1.00 20.00     0.005 C 
HETATM   10  C3  UNL     1     -33.163  15.461  -5.814  1.00 20.00     0.005 C 
HETATM   11  C8  UNL     1     -33.059  14.845  -4.403  1.00 20.00    -0.006 C 
HETATM   12  C5  UNL     1     -34.540  14.456  -4.143  1.00 20.00     0.010 C 
ENDBRANCH   5   8
TORSDOF 3
ENDMDL
MODEL 5
REMARK VINA RESULT:      -4.3      1.674      2.587
REMARK  3 active torsions:
REMARK  status: ('A' for Active; 'I' for Inactive)
REMARK    1  A    between atoms: C6_6  and  C8_8 
REMARK    2  A    between atoms: C7_7  and  O11_11 
REMARK    3  A    between atoms: C9_9  and  C10_10 
ROOT
HETATM    1  C1  UNL     1     -37.634  15.409  -5.039  1.00 20.00    -0.023 C 
HETATM    2  C2  UNL     1     -37.399  14.184  -5.563  1.00 20.00     0.001 C 
HETATM    3  C6  UNL     1     -36.648  15.613  -3.948  1.00 20.00     0.019 C 
HETATM    4  C7  UNL     1     -36.120  13.569  -4.992  1.00 20.00     0.145 C 
HETATM    5  C10 UNL     1     -35.472  14.878  -4.607  1.00 20.00     0.030 C 
ENDROOT
BRANCH   4   6
HETATM    6  O11 UNL     1     -35.384  12.907  -6.000  1.00 20.00    -0.391 OA
HETATM    7  H25 UNL     1     -35.506  13.410  -6.824  1.00 20.00     0.210 HD
ENDBRANCH   4   6
BRANCH   5   8
HETATM    8  C9  UNL     1     -34.295  15.225  -3.678  1.00 20.00    -0.007 C 
HETATM    9  C4  UNL     1     -33.044  14.678  -4.417  1.00 20.00     0.005 C 
HETATM   10  C3  UNL     1     -33.053  15.503  -5.732  1.00 20.00     0.005 C 
HETATM   11  C8  UNL     1     -34.108  16.598  -5.469  1.00 20.00    -0.006 C 
HETATM   12  C5  UNL     1     -34.024  16.721  -3.923  1.00 20.00     0.010 C 
ENDBRANCH   5   8
TORSDOF 3
ENDMDL
MODEL 6
REMARK VINA RESULT:      -4.2      1.149      3.657
REMARK  3 active torsions:
REMARK  status: ('A' for Active; 'I' for Inactive)
REMARK    1  A    between atoms: C6_6  and  C8_8 
REMARK    2  A    between atoms: C7_7  and  O11_11 
REMARK    3  A    between atoms: C9_9  and  C10_10 
ROOT
HETATM    1  C1  UNL     1     -35.077  16.307  -3.841  1.00 20.00    -0.023 C 
HETATM    2  C2  UNL     1     -33.999  15.538  -3.561  1.00 20.00     0.001 C 
HETATM    3  C6  UNL     1     -35.003  16.653  -5.282  1.00 20.00     0.019 C 
HETATM    4  C7  UNL     1     -33.239  15.158  -4.833  1.00 20.00     0.145 C 
HETATM    5  C10 UNL     1     -34.410  15.325  -5.773  1.00 20.00     0.030 C 
ENDROOT
BRANCH   4   6
HETATM    6  O11 UNL     1     -32.809  13.813  -4.781  1.00 20.00    -0.391 OA
HETATM    7  H25 UNL     1     -32.264  13.653  -5.571  1.00 20.00     0.210 HD
ENDBRANCH   4   6
BRANCH   5   8
HETATM    8  C9  UNL     1     -34.507  15.457  -7.302  1.00 20.00    -0.007 C 
HETATM    9  C4  UNL     1     -34.046  14.076  -7.841  1.00 20.00     0.005 C 
HETATM   10  C3  UNL     1     -35.109  13.118  -7.239  1.00 20.00     0.005 C 
HETATM   11  C8  UNL     1     -36.188  14.072  -6.684  1.00 20.00    -0.006 C 
HETATM   12  C5  UNL     1     -36.006  15.297  -7.621  1.00 20.00     0.010 C 
ENDBRANCH   5   8
TORSDOF 3
ENDMDL
MODEL 7
REMARK VINA RESULT:      -4.2      5.166      7.430
REMARK  3 active torsions:
REMARK  status: ('A' for Active; 'I' for Inactive)
REMARK    1  A    between atoms: C6_6  and  C8_8 
REMARK    2  A    between atoms: C7_7  and  O11_11 
REMARK    3  A    between atoms: C9_9  and  C10_10 
ROOT
HETATM    1  C1  UNL     1     -33.786  18.587   1.982  1.00 20.00    -0.023 C 
HETATM    2  C2  UNL     1     -32.454  18.571   1.747  1.00 20.00     0.001 C 
HETATM    3  C6  UNL     1     -34.425  19.263   0.825  1.00 20.00     0.019 C 
HETATM    4  C7  UNL     1     -32.131  19.058   0.333  1.00 20.00     0.145 C 
HETATM    5  C10 UNL     1     -33.481  18.729  -0.261  1.00 20.00     0.030 C 
ENDROOT
BRANCH   4   6
HETATM    6  O11 UNL     1     -31.108  18.276  -0.249  1.00 20.00    -0.391 OA
HETATM    7  H25 UNL     1     -30.668  18.828  -0.919  1.00 20.00     0.210 HD
ENDBRANCH   4   6
BRANCH   5   8
HETATM    8  C9  UNL     1     -34.181  19.162  -1.560  1.00 20.00    -0.007 C 
HETATM    9  C4  UNL     1     -33.366  18.474  -2.688  1.00 20.00     0.005 C 
HETATM   10  C3  UNL     1     -33.558  16.969  -2.360  1.00 20.00     0.005 C 
HETATM   11  C8  UNL     1     -34.667  16.967  -1.286  1.00 20.00    -0.006 C 
HETATM   12  C5  UNL     1     -35.432  18.269  -1.654  1.00 20.00     0.010 C 
ENDBRANCH   5   8
TORSDOF 3
ENDMDL
MODEL 8
REMARK VINA RESULT:      -4.1      2.207      3.373
REMARK  3 active torsions:
REMARK  status: ('A' for Active; 'I' for Inactive)
REMARK    1  A    between atoms: C6_6  and  C8_8 
REMARK    2  A    between atoms: C7_7  and  O11_11 
REMARK    3  A    between atoms: C9_9  and  C10_10 
ROOT
HETATM    1  C1  UNL     1     -34.865  14.231  -5.287  1.00 20.00    -0.023 C 
HETATM    2  C2  UNL     1     -34.162  14.977  -6.170  1.00 20.00     0.001 C 
HETATM    3  C6  UNL     1     -34.330  14.535  -3.936  1.00 20.00     0.019 C 
HETATM    4  C7  UNL     1     -33.244  15.971  -5.455  1.00 20.00     0.145 C 
HETATM    5  C10 UNL     1     -34.038  16.023  -4.170  1.00 20.00     0.030 C 
ENDROOT
BRANCH   4   6
HETATM    6  O11 UNL     1     -33.245  17.221  -6.112  1.00 20.00    -0.391 OA
HETATM    7  H25 UNL     1     -33.901  17.783  -5.664  1.00 20.00     0.210 HD
ENDBRANCH   4   6
BRANCH   5   8
HETATM    8  C9  UNL     1     -33.700  16.527  -2.757  1.00 20.00    -0.007 C 
HETATM    9  C4  UNL     1     -33.471  18.052  -2.933  1.00 20.00     0.005 C 
HETATM   10  C3  UNL     1     -34.857  18.535  -3.441  1.00 20.00     0.005 C 
HETATM   11  C8  UNL     1     -35.772  17.311  -3.224  1.00 20.00    -0.006 C 
HETATM   12  C5  UNL     1     -35.056  16.618  -2.032  1.00 20.00     0.010 C 
ENDBRANCH   5   8
TORSDOF 3
ENDMDL
MODEL 9
REMARK VINA RESULT:      -4.0      2.280      3.158
REMARK  3 active torsions:
REMARK  status: ('A' for Active; 'I' for Inactive)
REMARK    1  A    between atoms: C6_6  and  C8_8 
REMARK    2  A    between atoms: C7_7  and  O11_11 
REMARK    3  A    between atoms: C9_9  and  C10_10 
ROOT
HETATM    1  C1  UNL     1     -33.732  14.412  -4.256  1.00 20.00    -0.023 C 
HETATM    2  C2  UNL     1     -35.068  14.232  -4.366  1.00 20.00     0.001 C 
HETATM    3  C6  UNL     1     -33.474  15.866  -4.400  1.00 20.00     0.019 C 
HETATM    4  C7  UNL     1     -35.810  15.570  -4.395  1.00 20.00     0.145 C 
HETATM    5  C10 UNL     1     -34.738  16.362  -3.684  1.00 20.00     0.030 C 
ENDROOT
BRANCH   4   6
HETATM    6  O11 UNL     1     -36.996  15.506  -3.629  1.00 20.00    -0.391 OA
HETATM    7  H25 UNL     1     -37.260  16.421  -3.429  1.00 20.00     0.210 HD
ENDBRANCH   4   6
BRANCH   5   8
HETATM    8  C9  UNL     1     -34.477  17.871  -3.545  1.00 20.00    -0.007 C 
HETATM    9  C4  UNL     1     -35.700  18.406  -2.753  1.00 20.00     0.005 C 
HETATM   10  C3  UNL     1     -35.582  17.636  -1.410  1.00 20.00     0.005 C 
HETATM   11  C8  UNL     1     -34.182  16.991  -1.480  1.00 20.00    -0.006 C 
HETATM   12  C5  UNL     1     -33.444  17.993  -2.410  1.00 20.00     0.010 C 
ENDBRANCH   5   8
TORSDOF 3
ENDMDL
