MODEL 1
REMARK VINA RESULT:      -5.0      0.000      0.000
REMARK  4 active torsions:
REMARK  status: ('A' for Active; 'I' for Inactive)
REMARK    1  A    between atoms: C7_7  and  C9_9 
REMARK    2  A    between atoms: C9_9  and  C11_11 
REMARK    3  A    between atoms: C10_10  and  C12_12 
REMARK    4  A    between atoms: C11_11  and  C12_12 
ROOT
HETATM    1  C1  UNL     1     -34.622   6.130   5.918  1.00 20.00     0.004 C 
HETATM    2  C2  UNL     1     -34.063   4.918   5.180  1.00 20.00     0.008 C 
HETATM    3  C3  UNL     1     -33.623   7.235   5.610  1.00 20.00     0.038 C 
HETATM    4  C4  UNL     1     -33.981   5.281   2.647  1.00 20.00     0.034 C 
HETATM    5  C5  UNL     1     -34.928   6.455   2.588  1.00 20.00     0.169 C 
HETATM    6  C6  UNL     1     -33.279   5.466   3.974  1.00 20.00     0.022 C 
HETATM    7  C7  UNL     1     -33.260   6.989   4.147  1.00 20.00     0.064 C 
HETATM    8  O13 UNL     1     -34.294   7.526   3.296  1.00 20.00    -0.380 OA
ENDROOT
BRANCH   7   9
HETATM    9  C9  UNL     1     -31.944   7.640   3.749  1.00 20.00     0.038 C 
BRANCH   9  10
HETATM   10  C11 UNL     1     -32.172   8.865   2.864  1.00 20.00     0.003 C 
BRANCH  10  11
HETATM   11  C12 UNL     1     -31.740   8.595   1.422  1.00 20.00    -0.000 C 
BRANCH  11  12
HETATM   12  C10 UNL     1     -32.138   9.747   0.498  1.00 20.00    -0.005 C 
HETATM   13  C8  UNL     1     -33.210   9.322  -0.492  1.00 20.00     0.005 C 
ENDBRANCH  11  12
ENDBRANCH  10  11
ENDBRANCH   9  10
ENDBRANCH   7   9
TORSDOF 4
ENDMDL
MODEL 2
REMARK VINA RESULT:      -5.0      1.197      2.160
REMARK  4 active torsions:
REMARK  status: ('A' for Active; 'I' for Inactive)
REMARK    1  A    between atoms: C7_7  and  C9_9 
REMARK    2  A    between atoms: C9_9  and  C11_11 
REMARK    3  A    between atoms: C10_10  and  C12_12 
REMARK    4  A    between atoms: C11_11  and  C12_12 
ROOT
HETATM    1  C1  UNL     1     -33.666   4.226   3.996  1.00 20.00     0.004 C 
HETATM    2  C2  UNL     1     -34.969   4.958   4.301  1.00 20.00     0.008 C 
HETATM    3  C3  UNL     1     -33.025   5.067   2.902  1.00 20.00     0.038 C 
HETATM    4  C4  UNL     1     -34.563   7.321   5.199  1.00 20.00     0.034 C 
HETATM    5  C5  UNL     1     -33.112   7.140   5.573  1.00 20.00     0.169 C 
HETATM    6  C6  UNL     1     -34.720   6.442   3.978  1.00 20.00     0.022 C 
HETATM    7  C7  UNL     1     -33.333   6.500   3.329  1.00 20.00     0.064 C 
HETATM    8  O13 UNL     1     -32.402   6.911   4.351  1.00 20.00    -0.380 OA
ENDROOT
BRANCH   7   9
HETATM    9  C9  UNL     1     -33.229   7.492   2.179  1.00 20.00     0.038 C 
BRANCH   9  10
HETATM   10  C11 UNL     1     -31.945   8.315   2.267  1.00 20.00     0.003 C 
BRANCH  10  11
HETATM   11  C12 UNL     1     -31.583   8.924   0.911  1.00 20.00    -0.000 C 
BRANCH  11  12
HETATM   12  C10 UNL     1     -32.542  10.056   0.537  1.00 20.00    -0.005 C 
HETATM   13  C8  UNL     1     -33.371   9.702  -0.687  1.00 20.00     0.005 C 
ENDBRANCH  11  12
ENDBRANCH  10  11
ENDBRANCH   9  10
ENDBRANCH   7   9
TORSDOF 4
ENDMDL
MODEL 3
REMARK VINA RESULT:      -4.9     10.777     12.410
REMARK  4 active torsions:
REMARK  status: ('A' for Active; 'I' for Inactive)
REMARK    1  A    between atoms: C7_7  and  C9_9 
REMARK    2  A    between atoms: C9_9  and  C11_11 
REMARK    3  A    between atoms: C10_10  and  C12_12 
REMARK    4  A    between atoms: C11_11  and  C12_12 
ROOT
HETATM    1  C1  UNL     1     -33.978  16.274  -7.464  1.00 20.00     0.004 C 
HETATM    2  C2  UNL     1     -35.469  16.347  -7.154  1.00 20.00     0.008 C 
HETATM    3  C3  UNL     1     -33.354  15.827  -6.149  1.00 20.00     0.038 C 
HETATM    4  C4  UNL     1     -36.435  14.065  -6.511  1.00 20.00     0.034 C 
HETATM    5  C5  UNL     1     -35.309  13.218  -7.051  1.00 20.00     0.169 C 
HETATM    6  C6  UNL     1     -35.733  15.319  -6.040  1.00 20.00     0.022 C 
HETATM    7  C7  UNL     1     -34.353  14.803  -5.614  1.00 20.00     0.064 C 
HETATM    8  O13 UNL     1     -34.150  13.538  -6.276  1.00 20.00    -0.380 OA
ENDROOT
BRANCH   7   9
HETATM    9  C9  UNL     1     -34.214  14.573  -4.116  1.00 20.00     0.038 C 
BRANCH   9  10
HETATM   10  C11 UNL     1     -33.827  15.859  -3.388  1.00 20.00     0.003 C 
BRANCH  10  11
HETATM   11  C12 UNL     1     -34.982  16.382  -2.533  1.00 20.00    -0.000 C 
BRANCH  11  12
HETATM   12  C10 UNL     1     -34.468  17.150  -1.314  1.00 20.00    -0.005 C 
HETATM   13  C8  UNL     1     -33.094  17.748  -1.572  1.00 20.00     0.005 C 
ENDBRANCH  11  12
ENDBRANCH  10  11
ENDBRANCH   9  10
ENDBRANCH   7   9
TORSDOF 4
ENDMDL
MODEL 4
REMARK VINA RESULT:      -4.8     10.945     11.977
REMARK  4 active torsions:
REMARK  status: ('A' for Active; 'I' for Inactive)
REMARK    1  A    between atoms: C7_7  and  C9_9 
REMARK    2  A    between atoms: C9_9  and  C11_11 
REMARK    3  A    between atoms: C10_10  and  C12_12 
REMARK    4  A    between atoms: C11_11  and  C12_12 
ROOT
HETATM    1  C1  UNL     1     -36.249  14.453  -6.034  1.00 20.00     0.004 C 
HETATM    2  C2  UNL     1     -35.522  13.690  -4.933  1.00 20.00     0.008 C 
HETATM    3  C3  UNL     1     -36.453  15.840  -5.443  1.00 20.00     0.038 C 
HETATM    4  C4  UNL     1     -33.235  14.709  -4.399  1.00 20.00     0.034 C 
HETATM    5  C5  UNL     1     -33.091  15.533  -5.655  1.00 20.00     0.169 C 
HETATM    6  C6  UNL     1     -34.723  14.735  -4.133  1.00 20.00     0.022 C 
HETATM    7  C7  UNL     1     -35.150  16.099  -4.689  1.00 20.00     0.064 C 
HETATM    8  O13 UNL     1     -34.129  16.518  -5.618  1.00 20.00    -0.380 OA
ENDROOT
BRANCH   7   9
HETATM    9  C9  UNL     1     -35.288  17.182  -3.630  1.00 20.00     0.038 C 
BRANCH   9  10
HETATM   10  C11 UNL     1     -35.570  16.584  -2.253  1.00 20.00     0.003 C 
BRANCH  10  11
HETATM   11  C12 UNL     1     -34.665  17.199  -1.184  1.00 20.00    -0.000 C 
BRANCH  11  12
HETATM   12  C10 UNL     1     -33.271  17.493  -1.740  1.00 20.00    -0.005 C 
HETATM   13  C8  UNL     1     -32.487  18.413  -0.818  1.00 20.00     0.005 C 
ENDBRANCH  11  12
ENDBRANCH  10  11
ENDBRANCH   9  10
ENDBRANCH   7   9
TORSDOF 4
ENDMDL
MODEL 5
REMARK VINA RESULT:      -4.7     10.992     12.213
REMARK  4 active torsions:
REMARK  status: ('A' for Active; 'I' for Inactive)
REMARK    1  A    between atoms: C7_7  and  C9_9 
REMARK    2  A    between atoms: C9_9  and  C11_11 
REMARK    3  A    between atoms: C10_10  and  C12_12 
REMARK    4  A    between atoms: C11_11  and  C12_12 
ROOT
HETATM    1  C1  UNL     1     -35.652  13.460  -6.409  1.00 20.00     0.004 C 
HETATM    2  C2  UNL     1     -34.287  13.927  -6.903  1.00 20.00     0.008 C 
HETATM    3  C3  UNL     1     -35.639  13.803  -4.926  1.00 20.00     0.038 C 
HETATM    4  C4  UNL     1     -33.973  16.454  -6.638  1.00 20.00     0.034 C 
HETATM    5  C5  UNL     1     -35.429  16.812  -6.458  1.00 20.00     0.169 C 
HETATM    6  C6  UNL     1     -33.868  15.092  -5.988  1.00 20.00     0.022 C 
HETATM    7  C7  UNL     1     -34.926  15.153  -4.880  1.00 20.00     0.064 C 
HETATM    8  O13 UNL     1     -35.851  16.201  -5.235  1.00 20.00    -0.380 OA
ENDROOT
BRANCH   7   9
HETATM    9  C9  UNL     1     -34.362  15.475  -3.504  1.00 20.00     0.038 C 
BRANCH   9  10
HETATM   10  C11 UNL     1     -35.318  16.356  -2.702  1.00 20.00     0.003 C 
BRANCH  10  11
HETATM   11  C12 UNL     1     -34.611  16.995  -1.506  1.00 20.00    -0.000 C 
BRANCH  11  12
HETATM   12  C10 UNL     1     -33.206  17.469  -1.879  1.00 20.00    -0.005 C 
HETATM   13  C8  UNL     1     -32.615  18.363  -0.800  1.00 20.00     0.005 C 
ENDBRANCH  11  12
ENDBRANCH  10  11
ENDBRANCH   9  10
ENDBRANCH   7   9
TORSDOF 4
ENDMDL
MODEL 6
REMARK VINA RESULT:      -4.6     10.730     11.990
REMARK  4 active torsions:
REMARK  status: ('A' for Active; 'I' for Inactive)
REMARK    1  A    between atoms: C7_7  and  C9_9 
REMARK    2  A    between atoms: C9_9  and  C11_11 
REMARK    3  A    between atoms: C10_10  and  C12_12 
REMARK    4  A    between atoms: C11_11  and  C12_12 
ROOT
HETATM    1  C1  UNL     1     -36.118  14.763  -4.500  1.00 20.00     0.004 C 
HETATM    2  C2  UNL     1     -34.748  14.151  -4.227  1.00 20.00     0.008 C 
HETATM    3  C3  UNL     1     -36.029  16.148  -3.877  1.00 20.00     0.038 C 
HETATM    4  C4  UNL     1     -32.863  15.455  -5.368  1.00 20.00     0.034 C 
HETATM    5  C5  UNL     1     -33.720  16.218  -6.349  1.00 20.00     0.169 C 
HETATM    6  C6  UNL     1     -33.755  15.325  -4.153  1.00 20.00     0.022 C 
HETATM    7  C7  UNL     1     -34.608  16.597  -4.213  1.00 20.00     0.064 C 
HETATM    8  O13 UNL     1     -34.561  17.077  -5.572  1.00 20.00    -0.380 OA
ENDROOT
BRANCH   7   9
HETATM    9  C9  UNL     1     -34.115  17.715  -3.307  1.00 20.00     0.038 C 
BRANCH   9  10
HETATM   10  C11 UNL     1     -33.460  17.162  -2.042  1.00 20.00     0.003 C 
BRANCH  10  11
HETATM   11  C12 UNL     1     -34.047  17.805  -0.786  1.00 20.00    -0.000 C 
BRANCH  11  12
HETATM   12  C10 UNL     1     -35.415  17.214  -0.445  1.00 20.00    -0.005 C 
HETATM   13  C8  UNL     1     -35.868  17.623   0.947  1.00 20.00     0.005 C 
ENDBRANCH  11  12
ENDBRANCH  10  11
ENDBRANCH   9  10
ENDBRANCH   7   9
TORSDOF 4
ENDMDL
MODEL 7
REMARK VINA RESULT:      -4.6     10.480     12.174
REMARK  4 active torsions:
REMARK  status: ('A' for Active; 'I' for Inactive)
REMARK    1  A    between atoms: C7_7  and  C9_9 
REMARK    2  A    between atoms: C9_9  and  C11_11 
REMARK    3  A    between atoms: C10_10  and  C12_12 
REMARK    4  A    between atoms: C11_11  and  C12_12 
ROOT
HETATM    1  C1  UNL     1     -32.930  14.433  -4.451  1.00 20.00     0.004 C 
HETATM    2  C2  UNL     1     -33.037  15.638  -5.379  1.00 20.00     0.008 C 
HETATM    3  C3  UNL     1     -34.371  14.156  -4.048  1.00 20.00     0.038 C 
HETATM    4  C4  UNL     1     -34.402  15.120  -7.482  1.00 20.00     0.034 C 
HETATM    5  C5  UNL     1     -34.342  13.615  -7.387  1.00 20.00     0.169 C 
HETATM    6  C6  UNL     1     -34.427  15.560  -6.035  1.00 20.00     0.022 C 
HETATM    7  C7  UNL     1     -35.154  14.406  -5.335  1.00 20.00     0.064 C 
HETATM    8  O13 UNL     1     -35.049  13.253  -6.196  1.00 20.00    -0.380 OA
ENDROOT
BRANCH   7   9
HETATM    9  C9  UNL     1     -36.631  14.668  -5.084  1.00 20.00     0.038 C 
BRANCH   9  10
HETATM   10  C11 UNL     1     -36.928  16.164  -5.006  1.00 20.00     0.003 C 
BRANCH  10  11
HETATM   11  C12 UNL     1     -37.083  16.625  -3.556  1.00 20.00    -0.000 C 
BRANCH  11  12
HETATM   12  C10 UNL     1     -35.849  17.395  -3.083  1.00 20.00    -0.005 C 
HETATM   13  C8  UNL     1     -35.283  16.806  -1.801  1.00 20.00     0.005 C 
ENDBRANCH  11  12
ENDBRANCH  10  11
ENDBRANCH   9  10
ENDBRANCH   7   9
TORSDOF 4
ENDMDL
MODEL 8
REMARK VINA RESULT:      -4.5     10.669     12.457
REMARK  4 active torsions:
REMARK  status: ('A' for Active; 'I' for Inactive)
REMARK    1  A    between atoms: C7_7  and  C9_9 
REMARK    2  A    between atoms: C9_9  and  C11_11 
REMARK    3  A    between atoms: C10_10  and  C12_12 
REMARK    4  A    between atoms: C11_11  and  C12_12 
ROOT
HETATM    1  C1  UNL     1     -34.087  14.095  -7.604  1.00 20.00     0.004 C 
HETATM    2  C2  UNL     1     -35.164  13.706  -6.597  1.00 20.00     0.008 C 
HETATM    3  C3  UNL     1     -33.963  15.602  -7.441  1.00 20.00     0.038 C 
HETATM    4  C4  UNL     1     -34.468  14.226  -4.189  1.00 20.00     0.034 C 
HETATM    5  C5  UNL     1     -32.988  14.377  -4.442  1.00 20.00     0.169 C 
HETATM    6  C6  UNL     1     -35.095  14.745  -5.464  1.00 20.00     0.022 C 
HETATM    7  C7  UNL     1     -34.094  15.808  -5.933  1.00 20.00     0.064 C 
HETATM    8  O13 UNL     1     -32.834  15.517  -5.294  1.00 20.00    -0.380 OA
ENDROOT
BRANCH   7   9
HETATM    9  C9  UNL     1     -34.486  17.231  -5.565  1.00 20.00     0.038 C 
BRANCH   9  10
HETATM   10  C11 UNL     1     -33.450  17.876  -4.646  1.00 20.00     0.003 C 
BRANCH  10  11
HETATM   11  C12 UNL     1     -34.067  18.268  -3.303  1.00 20.00    -0.000 C 
BRANCH  11  12
HETATM   12  C10 UNL     1     -33.784  17.213  -2.232  1.00 20.00    -0.005 C 
HETATM   13  C8  UNL     1     -35.056  16.796  -1.512  1.00 20.00     0.005 C 
ENDBRANCH  11  12
ENDBRANCH  10  11
ENDBRANCH   9  10
ENDBRANCH   7   9
TORSDOF 4
ENDMDL
MODEL 9
REMARK VINA RESULT:      -4.5     11.029     12.144
REMARK  4 active torsions:
REMARK  status: ('A' for Active; 'I' for Inactive)
REMARK    1  A    between atoms: C7_7  and  C9_9 
REMARK    2  A    between atoms: C9_9  and  C11_11 
REMARK    3  A    between atoms: C10_10  and  C12_12 
REMARK    4  A    between atoms: C11_11  and  C12_12 
ROOT
HETATM    1  C1  UNL     1     -37.450  16.415  -5.555  1.00 20.00     0.004 C 
HETATM    2  C2  UNL     1     -37.367  15.345  -4.471  1.00 20.00     0.008 C 
HETATM    3  C3  UNL     1     -36.023  16.931  -5.666  1.00 20.00     0.038 C 
HETATM    4  C4  UNL     1     -35.833  13.408  -5.139  1.00 20.00     0.034 C 
HETATM    5  C5  UNL     1     -35.793  13.694  -6.621  1.00 20.00     0.169 C 
HETATM    6  C6  UNL     1     -35.935  14.785  -4.521  1.00 20.00     0.022 C 
HETATM    7  C7  UNL     1     -35.176  15.669  -5.519  1.00 20.00     0.064 C 
HETATM    8  O13 UNL     1     -35.142  14.960  -6.774  1.00 20.00    -0.380 OA
ENDROOT
BRANCH   7   9
HETATM    9  C9  UNL     1     -33.741  15.967  -5.113  1.00 20.00     0.038 C 
BRANCH   9  10
HETATM   10  C11 UNL     1     -33.557  15.873  -3.599  1.00 20.00     0.003 C 
BRANCH  10  11
HETATM   11  C12 UNL     1     -33.489  17.262  -2.961  1.00 20.00    -0.000 C 
BRANCH  11  12
HETATM   12  C10 UNL     1     -34.005  17.237  -1.522  1.00 20.00    -0.005 C 
HETATM   13  C8  UNL     1     -35.478  16.868  -1.464  1.00 20.00     0.005 C 
ENDBRANCH  11  12
ENDBRANCH  10  11
ENDBRANCH   9  10
ENDBRANCH   7   9
TORSDOF 4
ENDMDL
