MODEL 1
REMARK VINA RESULT:      -6.1      0.000      0.000
REMARK  3 active torsions:
REMARK  status: ('A' for Active; 'I' for Inactive)
REMARK    1  A    between atoms: C3_3  and  C7_7 
REMARK    2  A    between atoms: C7_7  and  C8_8 
REMARK    3  A    between atoms: C8_8  and  C9_9 
ROOT
HETATM    1  C1  UNL     1     -34.235   6.184   5.202  1.00 20.00     0.088 C 
HETATM    2  C2  UNL     1     -33.507   7.296   4.698  1.00 20.00     0.096 C 
HETATM    3  C3  UNL     1     -32.912   7.323   3.491  1.00 20.00    -0.074 C 
HETATM    4  C4  UNL     1     -32.993   6.126   2.580  1.00 20.00     0.044 C 
HETATM    5  N10 UNL     1     -34.828   5.279   5.620  1.00 20.00    -0.192 NA
ENDROOT
BRANCH   3   6
HETATM    6  C7  UNL     1     -32.111   8.494   2.957  1.00 20.00     0.034 C 
BRANCH   6   7
HETATM    7  C8  UNL     1     -31.800   8.347   1.462  1.00 20.00     0.008 C 
BRANCH   7   8
HETATM    8  C9  UNL     1     -32.156   9.600   0.639  1.00 20.00    -0.023 C 
HETATM    9  C5  UNL     1     -32.714  10.686   1.563  1.00 20.00     0.009 C 
HETATM   10  C6  UNL     1     -33.161   9.301  -0.474  1.00 20.00     0.009 C 
ENDBRANCH   7   8
ENDBRANCH   6   7
ENDBRANCH   3   6
TORSDOF 3
ENDMDL
MODEL 2
REMARK VINA RESULT:      -6.0      0.832      1.371
REMARK  3 active torsions:
REMARK  status: ('A' for Active; 'I' for Inactive)
REMARK    1  A    between atoms: C3_3  and  C7_7 
REMARK    2  A    between atoms: C7_7  and  C8_8 
REMARK    3  A    between atoms: C8_8  and  C9_9 
ROOT
HETATM    1  C1  UNL     1     -34.035   5.088   3.790  1.00 20.00     0.088 C 
HETATM    2  C2  UNL     1     -33.296   6.101   3.122  1.00 20.00     0.096 C 
HETATM    3  C3  UNL     1     -32.919   7.260   3.693  1.00 20.00    -0.074 C 
HETATM    4  C4  UNL     1     -33.278   7.549   5.127  1.00 20.00     0.044 C 
HETATM    5  N10 UNL     1     -34.640   4.258   4.329  1.00 20.00    -0.192 NA
ENDROOT
BRANCH   3   6
HETATM    6  C7  UNL     1     -32.154   8.358   2.980  1.00 20.00     0.034 C 
BRANCH   6   7
HETATM    7  C8  UNL     1     -32.114   8.141   1.462  1.00 20.00     0.008 C 
BRANCH   7   8
HETATM    8  C9  UNL     1     -32.228   9.449   0.656  1.00 20.00    -0.023 C 
HETATM    9  C5  UNL     1     -32.764  10.567   1.554  1.00 20.00     0.009 C 
HETATM   10  C6  UNL     1     -33.124   9.300  -0.574  1.00 20.00     0.009 C 
ENDBRANCH   7   8
ENDBRANCH   6   7
ENDBRANCH   3   6
TORSDOF 3
ENDMDL
MODEL 3
REMARK VINA RESULT:      -6.0      2.642      5.114
REMARK  3 active torsions:
REMARK  status: ('A' for Active; 'I' for Inactive)
REMARK    1  A    between atoms: C3_3  and  C7_7 
REMARK    2  A    between atoms: C7_7  and  C8_8 
REMARK    3  A    between atoms: C8_8  and  C9_9 
ROOT
HETATM    1  C1  UNL     1     -32.579   9.578   1.146  1.00 20.00     0.088 C 
HETATM    2  C2  UNL     1     -32.993   8.274   1.530  1.00 20.00     0.096 C 
HETATM    3  C3  UNL     1     -32.531   7.626   2.616  1.00 20.00    -0.074 C 
HETATM    4  C4  UNL     1     -31.512   8.281   3.511  1.00 20.00     0.044 C 
HETATM    5  N10 UNL     1     -32.244  10.642   0.825  1.00 20.00    -0.192 NA
ENDROOT
BRANCH   3   6
HETATM    6  C7  UNL     1     -32.946   6.225   3.019  1.00 20.00     0.034 C 
BRANCH   6   7
HETATM    7  C8  UNL     1     -34.453   6.122   3.280  1.00 20.00     0.008 C 
BRANCH   7   8
HETATM    8  C9  UNL     1     -34.796   5.716   4.726  1.00 20.00    -0.023 C 
HETATM    9  C5  UNL     1     -34.102   6.663   5.709  1.00 20.00     0.009 C 
HETATM   10  C6  UNL     1     -34.402   4.271   5.036  1.00 20.00     0.009 C 
ENDBRANCH   7   8
ENDBRANCH   6   7
ENDBRANCH   3   6
TORSDOF 3
ENDMDL
MODEL 4
REMARK VINA RESULT:      -5.0      0.827      1.479
REMARK  3 active torsions:
REMARK  status: ('A' for Active; 'I' for Inactive)
REMARK    1  A    between atoms: C3_3  and  C7_7 
REMARK    2  A    between atoms: C7_7  and  C8_8 
REMARK    3  A    between atoms: C8_8  and  C9_9 
ROOT
HETATM    1  C1  UNL     1     -34.328   6.005   5.112  1.00 20.00     0.088 C 
HETATM    2  C2  UNL     1     -33.789   6.836   4.092  1.00 20.00     0.096 C 
HETATM    3  C3  UNL     1     -33.244   6.372   2.952  1.00 20.00    -0.074 C 
HETATM    4  C4  UNL     1     -33.176   4.890   2.693  1.00 20.00     0.044 C 
HETATM    5  N10 UNL     1     -34.767   5.332   5.949  1.00 20.00    -0.192 NA
ENDROOT
BRANCH   3   6
HETATM    6  C7  UNL     1     -32.643   7.250   1.871  1.00 20.00     0.034 C 
BRANCH   6   7
HETATM    7  C8  UNL     1     -32.495   8.706   2.327  1.00 20.00     0.008 C 
BRANCH   7   8
HETATM    8  C9  UNL     1     -32.996   9.725   1.286  1.00 20.00    -0.023 C 
HETATM    9  C5  UNL     1     -32.757   9.184  -0.126  1.00 20.00     0.009 C 
HETATM   10  C6  UNL     1     -32.326  11.091   1.436  1.00 20.00     0.009 C 
ENDBRANCH   7   8
ENDBRANCH   6   7
ENDBRANCH   3   6
TORSDOF 3
ENDMDL
MODEL 5
REMARK VINA RESULT:      -4.6     10.109     10.630
REMARK  3 active torsions:
REMARK  status: ('A' for Active; 'I' for Inactive)
REMARK    1  A    between atoms: C3_3  and  C7_7 
REMARK    2  A    between atoms: C7_7  and  C8_8 
REMARK    3  A    between atoms: C8_8  and  C9_9 
ROOT
HETATM    1  C1  UNL     1     -35.652  13.728  -4.877  1.00 20.00     0.088 C 
HETATM    2  C2  UNL     1     -35.412  14.851  -4.039  1.00 20.00     0.096 C 
HETATM    3  C3  UNL     1     -34.189  15.349  -3.779  1.00 20.00    -0.074 C 
HETATM    4  C4  UNL     1     -32.967  14.714  -4.388  1.00 20.00     0.044 C 
HETATM    5  N10 UNL     1     -35.854  12.811  -5.558  1.00 20.00    -0.192 NA
ENDROOT
BRANCH   3   6
HETATM    6  C7  UNL     1     -33.922  16.529  -2.864  1.00 20.00     0.034 C 
BRANCH   6   7
HETATM    7  C8  UNL     1     -35.033  16.717  -1.825  1.00 20.00     0.008 C 
BRANCH   7   8
HETATM    8  C9  UNL     1     -34.783  17.900  -0.870  1.00 20.00    -0.023 C 
HETATM    9  C5  UNL     1     -33.278  18.151  -0.739  1.00 20.00     0.009 C 
HETATM   10  C6  UNL     1     -35.391  17.673   0.514  1.00 20.00     0.009 C 
ENDBRANCH   7   8
ENDBRANCH   6   7
ENDBRANCH   3   6
TORSDOF 3
ENDMDL
MODEL 6
REMARK VINA RESULT:      -4.4     10.197     10.822
REMARK  3 active torsions:
REMARK  status: ('A' for Active; 'I' for Inactive)
REMARK    1  A    between atoms: C3_3  and  C7_7 
REMARK    2  A    between atoms: C7_7  and  C8_8 
REMARK    3  A    between atoms: C8_8  and  C9_9 
ROOT
HETATM    1  C1  UNL     1     -32.532  18.058  -1.122  1.00 20.00     0.088 C 
HETATM    2  C2  UNL     1     -33.449  17.416  -1.998  1.00 20.00     0.096 C 
HETATM    3  C3  UNL     1     -34.713  17.097  -1.664  1.00 20.00    -0.074 C 
HETATM    4  C4  UNL     1     -35.237  17.419  -0.289  1.00 20.00     0.044 C 
HETATM    5  N10 UNL     1     -31.778  18.579  -0.411  1.00 20.00    -0.192 NA
ENDROOT
BRANCH   3   6
HETATM    6  C7  UNL     1     -35.689  16.388  -2.582  1.00 20.00     0.034 C 
BRANCH   6   7
HETATM    7  C8  UNL     1     -35.049  16.009  -3.923  1.00 20.00     0.008 C 
BRANCH   7   8
HETATM    8  C9  UNL     1     -34.630  14.528  -4.001  1.00 20.00    -0.023 C 
HETATM    9  C5  UNL     1     -33.164  14.426  -4.432  1.00 20.00     0.009 C 
HETATM   10  C6  UNL     1     -35.508  13.723  -4.960  1.00 20.00     0.009 C 
ENDBRANCH   7   8
ENDBRANCH   6   7
ENDBRANCH   3   6
TORSDOF 3
ENDMDL
MODEL 7
REMARK VINA RESULT:      -4.3      2.797      4.887
REMARK  3 active torsions:
REMARK  status: ('A' for Active; 'I' for Inactive)
REMARK    1  A    between atoms: C3_3  and  C7_7 
REMARK    2  A    between atoms: C7_7  and  C8_8 
REMARK    3  A    between atoms: C8_8  and  C9_9 
ROOT
HETATM    1  C1  UNL     1     -33.400   9.576  -0.029  1.00 20.00     0.088 C 
HETATM    2  C2  UNL     1     -33.244   9.111   1.305  1.00 20.00     0.096 C 
HETATM    3  C3  UNL     1     -32.102   8.593   1.794  1.00 20.00    -0.074 C 
HETATM    4  C4  UNL     1     -30.885   8.476   0.914  1.00 20.00     0.044 C 
HETATM    5  N10 UNL     1     -33.534   9.955  -1.117  1.00 20.00    -0.192 NA
ENDROOT
BRANCH   3   6
HETATM    6  C7  UNL     1     -31.935   8.069   3.208  1.00 20.00     0.034 C 
BRANCH   6   7
HETATM    7  C8  UNL     1     -32.729   6.778   3.442  1.00 20.00     0.008 C 
BRANCH   7   8
HETATM    8  C9  UNL     1     -34.025   6.997   4.246  1.00 20.00    -0.023 C 
HETATM    9  C5  UNL     1     -33.687   7.240   5.719  1.00 20.00     0.009 C 
HETATM   10  C6  UNL     1     -34.992   5.818   4.126  1.00 20.00     0.009 C 
ENDBRANCH   7   8
ENDBRANCH   6   7
ENDBRANCH   3   6
TORSDOF 3
ENDMDL
MODEL 8
REMARK VINA RESULT:      -4.2      9.912     10.446
REMARK  3 active torsions:
REMARK  status: ('A' for Active; 'I' for Inactive)
REMARK    1  A    between atoms: C3_3  and  C7_7 
REMARK    2  A    between atoms: C7_7  and  C8_8 
REMARK    3  A    between atoms: C8_8  and  C9_9 
ROOT
HETATM    1  C1  UNL     1     -35.618  17.589   0.314  1.00 20.00     0.088 C 
HETATM    2  C2  UNL     1     -35.309  17.021  -0.952  1.00 20.00     0.096 C 
HETATM    3  C3  UNL     1     -34.148  17.220  -1.603  1.00 20.00    -0.074 C 
HETATM    4  C4  UNL     1     -33.079  18.090  -0.997  1.00 20.00     0.044 C 
HETATM    5  N10 UNL     1     -35.878  18.052   1.345  1.00 20.00    -0.192 NA
ENDROOT
BRANCH   3   6
HETATM    6  C7  UNL     1     -33.820  16.639  -2.966  1.00 20.00     0.034 C 
BRANCH   6   7
HETATM    7  C8  UNL     1     -34.962  15.777  -3.516  1.00 20.00     0.008 C 
BRANCH   7   8
HETATM    8  C9  UNL     1     -34.502  14.384  -3.988  1.00 20.00    -0.023 C 
HETATM    9  C5  UNL     1     -33.053  14.454  -4.475  1.00 20.00     0.009 C 
HETATM   10  C6  UNL     1     -35.393  13.820  -5.095  1.00 20.00     0.009 C 
ENDBRANCH   7   8
ENDBRANCH   6   7
ENDBRANCH   3   6
TORSDOF 3
ENDMDL
MODEL 9
REMARK VINA RESULT:      -4.2      9.819     10.897
REMARK  3 active torsions:
REMARK  status: ('A' for Active; 'I' for Inactive)
REMARK    1  A    between atoms: C3_3  and  C7_7 
REMARK    2  A    between atoms: C7_7  and  C8_8 
REMARK    3  A    between atoms: C8_8  and  C9_9 
ROOT
HETATM    1  C1  UNL     1     -37.231  14.871  -4.640  1.00 20.00     0.088 C 
HETATM    2  C2  UNL     1     -36.148  15.726  -4.298  1.00 20.00     0.096 C 
HETATM    3  C3  UNL     1     -34.893  15.297  -4.068  1.00 20.00    -0.074 C 
HETATM    4  C4  UNL     1     -34.564  13.830  -4.164  1.00 20.00     0.044 C 
HETATM    5  N10 UNL     1     -38.119  14.179  -4.916  1.00 20.00    -0.192 NA
ENDROOT
BRANCH   3   6
HETATM    6  C7  UNL     1     -33.738  16.198  -3.676  1.00 20.00     0.034 C 
BRANCH   6   7
HETATM    7  C8  UNL     1     -34.203  17.412  -2.863  1.00 20.00     0.008 C 
BRANCH   7   8
HETATM    8  C9  UNL     1     -34.072  17.212  -1.340  1.00 20.00    -0.023 C 
HETATM    9  C5  UNL     1     -35.461  17.199  -0.697  1.00 20.00     0.009 C 
HETATM   10  C6  UNL     1     -33.207  18.289  -0.683  1.00 20.00     0.009 C 
ENDBRANCH   7   8
ENDBRANCH   6   7
ENDBRANCH   3   6
TORSDOF 3
ENDMDL
