MODEL 1
REMARK VINA RESULT:      -5.0      0.000      0.000
REMARK  2 active torsions:
REMARK  status: ('A' for Active; 'I' for Inactive)
REMARK    1  A    between atoms: C1_1  and  C5_5 
REMARK    2  A    between atoms: C1_1  and  C6_6 
ROOT
HETATM    1  C2  UNL     1     -34.712   5.289   5.563  1.00 20.00     0.029 C 
HETATM    2  C3  UNL     1     -33.986   6.609   5.509  1.00 20.00     0.042 C 
HETATM    3  C4  UNL     1     -34.282   4.643   4.266  1.00 20.00     0.168 C 
HETATM    4  C5  UNL     1     -34.031   6.944   4.029  1.00 20.00     0.192 C 
HETATM    5  O8  UNL     1     -34.149   5.708   3.315  1.00 20.00    -0.378 OA
ENDROOT
BRANCH   4   6
HETATM    6  C1  UNL     1     -32.775   7.588   3.544  1.00 20.00     0.169 C 
HETATM    7  O7  UNL     1     -31.952   8.035   4.342  1.00 20.00    -0.294 OA
BRANCH   6   8
HETATM    8  C6  UNL     1     -32.606   7.649   2.044  1.00 20.00     0.195 C 
HETATM    9 CL9  UNL     1     -32.271   9.306   1.518  1.00 20.00    -0.122 Cl
ENDBRANCH   6   8
ENDBRANCH   4   6
TORSDOF 2
ENDMDL
MODEL 2
REMARK VINA RESULT:      -4.8      1.219      1.295
REMARK  2 active torsions:
REMARK  status: ('A' for Active; 'I' for Inactive)
REMARK    1  A    between atoms: C1_1  and  C5_5 
REMARK    2  A    between atoms: C1_1  and  C6_6 
ROOT
HETATM    1  C2  UNL     1     -34.448   6.449   6.129  1.00 20.00     0.029 C 
HETATM    2  C3  UNL     1     -33.416   7.260   5.387  1.00 20.00     0.042 C 
HETATM    3  C4  UNL     1     -34.727   5.331   5.152  1.00 20.00     0.168 C 
HETATM    4  C5  UNL     1     -33.874   7.128   3.946  1.00 20.00     0.192 C 
HETATM    5  O8  UNL     1     -34.615   5.906   3.843  1.00 20.00    -0.378 OA
ENDROOT
BRANCH   4   6
HETATM    6  C1  UNL     1     -32.737   7.009   2.986  1.00 20.00     0.169 C 
HETATM    7  O7  UNL     1     -32.488   5.935   2.441  1.00 20.00    -0.294 OA
BRANCH   6   8
HETATM    8  C6  UNL     1     -31.943   8.272   2.750  1.00 20.00     0.195 C 
HETATM    9 CL9  UNL     1     -32.303   8.950   1.156  1.00 20.00    -0.122 Cl
ENDBRANCH   6   8
ENDBRANCH   4   6
TORSDOF 2
ENDMDL
MODEL 3
REMARK VINA RESULT:      -4.7      2.434      4.064
REMARK  2 active torsions:
REMARK  status: ('A' for Active; 'I' for Inactive)
REMARK    1  A    between atoms: C1_1  and  C5_5 
REMARK    2  A    between atoms: C1_1  and  C6_6 
ROOT
HETATM    1  C2  UNL     1     -31.793   8.713   2.340  1.00 20.00     0.029 C 
HETATM    2  C3  UNL     1     -32.796   7.676   1.899  1.00 20.00     0.042 C 
HETATM    3  C4  UNL     1     -31.405   8.208   3.710  1.00 20.00     0.168 C 
HETATM    4  C5  UNL     1     -33.497   7.330   3.199  1.00 20.00     0.192 C 
HETATM    5  O8  UNL     1     -32.585   7.614   4.267  1.00 20.00    -0.378 OA
ENDROOT
BRANCH   4   6
HETATM    6  C1  UNL     1     -33.830   5.879   3.309  1.00 20.00     0.169 C 
HETATM    7  O7  UNL     1     -33.133   5.033   2.750  1.00 20.00    -0.294 OA
BRANCH   6   8
HETATM    8  C6  UNL     1     -35.053   5.546   4.132  1.00 20.00     0.195 C 
HETATM    9 CL9  UNL     1     -34.595   5.108   5.784  1.00 20.00    -0.122 Cl
ENDBRANCH   6   8
ENDBRANCH   4   6
TORSDOF 2
ENDMDL
MODEL 4
REMARK VINA RESULT:      -4.4      2.512      3.850
REMARK  2 active torsions:
REMARK  status: ('A' for Active; 'I' for Inactive)
REMARK    1  A    between atoms: C1_1  and  C5_5 
REMARK    2  A    between atoms: C1_1  and  C6_6 
ROOT
HETATM    1  C2  UNL     1     -31.465   8.712   2.373  1.00 20.00     0.029 C 
HETATM    2  C3  UNL     1     -31.761   8.119   3.727  1.00 20.00     0.042 C 
HETATM    3  C4  UNL     1     -32.790   8.550   1.665  1.00 20.00     0.168 C 
HETATM    4  C5  UNL     1     -32.710   6.986   3.384  1.00 20.00     0.192 C 
HETATM    5  O8  UNL     1     -33.357   7.327   2.153  1.00 20.00    -0.378 OA
ENDROOT
BRANCH   4   6
HETATM    6  C1  UNL     1     -33.797   6.816   4.393  1.00 20.00     0.169 C 
HETATM    7  O7  UNL     1     -33.773   7.445   5.450  1.00 20.00    -0.294 OA
BRANCH   6   8
HETATM    8  C6  UNL     1     -34.889   5.839   4.024  1.00 20.00     0.195 C 
HETATM    9 CL9  UNL     1     -34.452   4.197   4.516  1.00 20.00    -0.122 Cl
ENDBRANCH   6   8
ENDBRANCH   4   6
TORSDOF 2
ENDMDL
MODEL 5
REMARK VINA RESULT:      -4.3      1.328      1.841
REMARK  2 active torsions:
REMARK  status: ('A' for Active; 'I' for Inactive)
REMARK    1  A    between atoms: C1_1  and  C5_5 
REMARK    2  A    between atoms: C1_1  and  C6_6 
ROOT
HETATM    1  C2  UNL     1     -34.753   5.843   3.723  1.00 20.00     0.029 C 
HETATM    2  C3  UNL     1     -33.957   6.409   2.575  1.00 20.00     0.042 C 
HETATM    3  C4  UNL     1     -34.348   6.752   4.861  1.00 20.00     0.168 C 
HETATM    4  C5  UNL     1     -32.669   6.838   3.253  1.00 20.00     0.192 C 
HETATM    5  O8  UNL     1     -32.975   7.095   4.629  1.00 20.00    -0.378 OA
ENDROOT
BRANCH   4   6
HETATM    6  C1  UNL     1     -32.123   8.114   2.702  1.00 20.00     0.169 C 
HETATM    7  O7  UNL     1     -31.298   8.768   3.339  1.00 20.00    -0.294 OA
BRANCH   6   8
HETATM    8  C6  UNL     1     -32.651   8.522   1.347  1.00 20.00     0.195 C 
HETATM    9 CL9  UNL     1     -32.663  10.285   1.185  1.00 20.00    -0.122 Cl
ENDBRANCH   6   8
ENDBRANCH   4   6
TORSDOF 2
ENDMDL
MODEL 6
REMARK VINA RESULT:      -4.0     11.323     12.073
REMARK  2 active torsions:
REMARK  status: ('A' for Active; 'I' for Inactive)
REMARK    1  A    between atoms: C1_1  and  C5_5 
REMARK    2  A    between atoms: C1_1  and  C6_6 
ROOT
HETATM    1  C2  UNL     1     -33.573  16.085  -3.616  1.00 20.00     0.029 C 
HETATM    2  C3  UNL     1     -34.992  15.584  -3.707  1.00 20.00     0.042 C 
HETATM    3  C4  UNL     1     -32.911  15.358  -4.763  1.00 20.00     0.168 C 
HETATM    4  C5  UNL     1     -34.800  14.146  -4.152  1.00 20.00     0.192 C 
HETATM    5  O8  UNL     1     -33.547  14.075  -4.843  1.00 20.00    -0.378 OA
ENDROOT
BRANCH   4   6
HETATM    6  C1  UNL     1     -35.839  13.697  -5.125  1.00 20.00     0.169 C 
HETATM    7  O7  UNL     1     -35.907  12.518  -5.470  1.00 20.00    -0.294 OA
BRANCH   6   8
HETATM    8  C6  UNL     1     -36.768  14.774  -5.637  1.00 20.00     0.195 C 
HETATM    9 CL9  UNL     1     -38.407  14.533  -5.016  1.00 20.00    -0.122 Cl
ENDBRANCH   6   8
ENDBRANCH   4   6
TORSDOF 2
ENDMDL
MODEL 7
REMARK VINA RESULT:      -4.0      2.462      4.495
REMARK  2 active torsions:
REMARK  status: ('A' for Active; 'I' for Inactive)
REMARK    1  A    between atoms: C1_1  and  C5_5 
REMARK    2  A    between atoms: C1_1  and  C6_6 
ROOT
HETATM    1  C2  UNL     1     -31.893   9.610   0.251  1.00 20.00     0.029 C 
HETATM    2  C3  UNL     1     -31.480   8.469   1.147  1.00 20.00     0.042 C 
HETATM    3  C4  UNL     1     -32.824  10.391   1.149  1.00 20.00     0.168 C 
HETATM    4  C5  UNL     1     -32.747   8.204   1.939  1.00 20.00     0.192 C 
HETATM    5  O8  UNL     1     -33.500   9.423   1.963  1.00 20.00    -0.378 OA
ENDROOT
BRANCH   4   6
HETATM    6  C1  UNL     1     -32.475   7.854   3.364  1.00 20.00     0.169 C 
HETATM    7  O7  UNL     1     -31.433   8.215   3.910  1.00 20.00    -0.294 OA
BRANCH   6   8
HETATM    8  C6  UNL     1     -33.546   7.043   4.057  1.00 20.00     0.195 C 
HETATM    9 CL9  UNL     1     -33.541   7.357   5.798  1.00 20.00    -0.122 Cl
ENDBRANCH   6   8
ENDBRANCH   4   6
TORSDOF 2
ENDMDL
MODEL 8
REMARK VINA RESULT:      -3.9     11.525     12.181
REMARK  2 active torsions:
REMARK  status: ('A' for Active; 'I' for Inactive)
REMARK    1  A    between atoms: C1_1  and  C5_5 
REMARK    2  A    between atoms: C1_1  and  C6_6 
ROOT
HETATM    1  C2  UNL     1     -33.689  15.915  -3.712  1.00 20.00     0.029 C 
HETATM    2  C3  UNL     1     -35.106  15.405  -3.799  1.00 20.00     0.042 C 
HETATM    3  C4  UNL     1     -33.050  15.266  -4.917  1.00 20.00     0.168 C 
HETATM    4  C5  UNL     1     -34.911  13.999  -4.336  1.00 20.00     0.192 C 
HETATM    5  O8  UNL     1     -33.676  13.985  -5.060  1.00 20.00    -0.378 OA
ENDROOT
BRANCH   4   6
HETATM    6  C1  UNL     1     -35.971  13.599  -5.308  1.00 20.00     0.169 C 
HETATM    7  O7  UNL     1     -37.151  13.554  -4.965  1.00 20.00    -0.294 OA
BRANCH   6   8
HETATM    8  C6  UNL     1     -35.490  13.262  -6.701  1.00 20.00     0.195 C 
HETATM    9 CL9  UNL     1     -35.723  14.635  -7.793  1.00 20.00    -0.122 Cl
ENDBRANCH   6   8
ENDBRANCH   4   6
TORSDOF 2
ENDMDL
MODEL 9
REMARK VINA RESULT:      -3.9     11.903     12.527
REMARK  2 active torsions:
REMARK  status: ('A' for Active; 'I' for Inactive)
REMARK    1  A    between atoms: C1_1  and  C5_5 
REMARK    2  A    between atoms: C1_1  and  C6_6 
ROOT
HETATM    1  C2  UNL     1     -34.372  13.985  -7.452  1.00 20.00     0.029 C 
HETATM    2  C3  UNL     1     -34.994  14.993  -6.518  1.00 20.00     0.042 C 
HETATM    3  C4  UNL     1     -35.223  12.761  -7.200  1.00 20.00     0.168 C 
HETATM    4  C5  UNL     1     -35.388  14.134  -5.330  1.00 20.00     0.192 C 
HETATM    5  O8  UNL     1     -35.575  12.798  -5.811  1.00 20.00    -0.378 OA
ENDROOT
BRANCH   4   6
HETATM    6  C1  UNL     1     -36.689  14.547  -4.725  1.00 20.00     0.169 C 
HETATM    7  O7  UNL     1     -37.707  13.884  -4.919  1.00 20.00    -0.294 OA
BRANCH   6   8
HETATM    8  C6  UNL     1     -36.654  15.803  -3.887  1.00 20.00     0.195 C 
HETATM    9 CL9  UNL     1     -35.106  15.948  -3.041  1.00 20.00    -0.122 Cl
ENDBRANCH   6   8
ENDBRANCH   4   6
TORSDOF 2
ENDMDL
