MODEL 1
REMARK VINA RESULT:      -5.6      0.000      0.000
REMARK  0 active torsions:
REMARK  status: ('A' for Active; 'I' for Inactive)
ROOT
HETATM    1  C1  UNL     1     -34.769   5.037   5.562  1.00 20.00     0.002 C 
HETATM    2  C2  UNL     1     -34.565   4.747   4.268  1.00 20.00     0.030 C 
HETATM    3  C3  UNL     1     -34.258   6.249   6.183  1.00 20.00    -0.001 C 
HETATM    4  C4  UNL     1     -33.824   7.282   5.439  1.00 20.00     0.006 C 
HETATM    5  C5  UNL     1     -32.388   6.834   2.420  1.00 20.00     0.228 C 
HETATM    6  C6  UNL     1     -33.807   5.769   3.531  1.00 20.00     0.064 C 
HETATM    7  C7  UNL     1     -33.903   7.212   3.951  1.00 20.00     0.184 C 
HETATM    8  N8  UNL     1     -32.765   7.789   3.218  1.00 20.00    -0.268 NA
HETATM    9  N9  UNL     1     -32.987   5.604   2.554  1.00 20.00    -0.244 NA
ENDROOT
TORSDOF 0
ENDMDL
MODEL 2
REMARK VINA RESULT:      -5.3      1.740      3.521
REMARK  0 active torsions:
REMARK  status: ('A' for Active; 'I' for Inactive)
ROOT
HETATM    1  C1  UNL     1     -32.662   7.704   3.341  1.00 20.00     0.002 C 
HETATM    2  C2  UNL     1     -33.398   7.756   4.462  1.00 20.00     0.030 C 
HETATM    3  C3  UNL     1     -32.512   6.487   2.559  1.00 20.00    -0.001 C 
HETATM    4  C4  UNL     1     -33.336   5.439   2.737  1.00 20.00     0.006 C 
HETATM    5  C5  UNL     1     -34.702   4.726   5.737  1.00 20.00     0.228 C 
HETATM    6  C6  UNL     1     -34.058   6.489   4.811  1.00 20.00     0.064 C 
HETATM    7  C7  UNL     1     -34.455   5.532   3.719  1.00 20.00     0.184 C 
HETATM    8  N8  UNL     1     -34.725   4.316   4.503  1.00 20.00    -0.268 NA
HETATM    9  N9  UNL     1     -34.321   6.024   5.981  1.00 20.00    -0.244 NA
ENDROOT
TORSDOF 0
ENDMDL
MODEL 3
REMARK VINA RESULT:      -5.3      1.603      2.965
REMARK  0 active torsions:
REMARK  status: ('A' for Active; 'I' for Inactive)
ROOT
HETATM    1  C1  UNL     1     -33.299   4.799   2.585  1.00 20.00     0.002 C 
HETATM    2  C2  UNL     1     -33.135   6.120   2.751  1.00 20.00     0.030 C 
HETATM    3  C3  UNL     1     -33.821   3.936   3.633  1.00 20.00    -0.001 C 
HETATM    4  C4  UNL     1     -34.450   4.448   4.706  1.00 20.00     0.006 C 
HETATM    5  C5  UNL     1     -33.647   7.466   5.981  1.00 20.00     0.228 C 
HETATM    6  C6  UNL     1     -33.554   6.620   4.069  1.00 20.00     0.064 C 
HETATM    7  C7  UNL     1     -34.661   5.921   4.811  1.00 20.00     0.184 C 
HETATM    8  N8  UNL     1     -34.501   6.500   6.155  1.00 20.00    -0.268 NA
HETATM    9  N9  UNL     1     -33.057   7.594   4.747  1.00 20.00    -0.244 NA
ENDROOT
TORSDOF 0
ENDMDL
MODEL 4
REMARK VINA RESULT:      -5.1      0.996      1.394
REMARK  0 active torsions:
REMARK  status: ('A' for Active; 'I' for Inactive)
ROOT
HETATM    1  C1  UNL     1     -34.600   6.210   6.242  1.00 20.00     0.002 C 
HETATM    2  C2  UNL     1     -34.852   5.173   5.429  1.00 20.00     0.030 C 
HETATM    3  C3  UNL     1     -33.703   7.294   5.875  1.00 20.00    -0.001 C 
HETATM    4  C4  UNL     1     -33.319   7.478   4.599  1.00 20.00     0.006 C 
HETATM    5  C5  UNL     1     -32.967   4.904   2.448  1.00 20.00     0.228 C 
HETATM    6  C6  UNL     1     -34.166   5.244   4.130  1.00 20.00     0.064 C 
HETATM    7  C7  UNL     1     -33.852   6.587   3.528  1.00 20.00     0.184 C 
HETATM    8  N8  UNL     1     -32.897   6.203   2.477  1.00 20.00    -0.268 NA
HETATM    9  N9  UNL     1     -33.724   4.276   3.408  1.00 20.00    -0.244 NA
ENDROOT
TORSDOF 0
ENDMDL
MODEL 5
REMARK VINA RESULT:      -4.9      1.138      2.205
REMARK  0 active torsions:
REMARK  status: ('A' for Active; 'I' for Inactive)
ROOT
HETATM    1  C1  UNL     1     -34.534   6.186   5.422  1.00 20.00     0.002 C 
HETATM    2  C2  UNL     1     -33.433   6.937   5.578  1.00 20.00     0.030 C 
HETATM    3  C3  UNL     1     -35.053   5.819   4.114  1.00 20.00    -0.001 C 
HETATM    4  C4  UNL     1     -34.302   5.949   3.006  1.00 20.00     0.006 C 
HETATM    5  C5  UNL     1     -31.978   8.373   2.692  1.00 20.00     0.228 C 
HETATM    6  C6  UNL     1     -32.787   7.331   4.318  1.00 20.00     0.064 C 
HETATM    7  C7  UNL     1     -32.895   6.433   3.114  1.00 20.00     0.184 C 
HETATM    8  N8  UNL     1     -32.444   7.343   2.049  1.00 20.00    -0.268 NA
HETATM    9  N9  UNL     1     -32.144   8.414   4.056  1.00 20.00    -0.244 NA
ENDROOT
TORSDOF 0
ENDMDL
MODEL 6
REMARK VINA RESULT:      -4.2     12.441     12.971
REMARK  0 active torsions:
REMARK  status: ('A' for Active; 'I' for Inactive)
ROOT
HETATM    1  C1  UNL     1     -34.196  17.423  -1.635  1.00 20.00     0.002 C 
HETATM    2  C2  UNL     1     -32.924  17.833  -1.756  1.00 20.00     0.030 C 
HETATM    3  C3  UNL     1     -34.932  17.511  -0.383  1.00 20.00    -0.001 C 
HETATM    4  C4  UNL     1     -34.492  18.279   0.630  1.00 20.00     0.006 C 
HETATM    5  C5  UNL     1     -31.206  18.809   1.177  1.00 20.00     0.228 C 
HETATM    6  C6  UNL     1     -32.353  18.401  -0.526  1.00 20.00     0.064 C 
HETATM    7  C7  UNL     1     -33.253  19.093   0.462  1.00 20.00     0.184 C 
HETATM    8  N8  UNL     1     -32.369  19.169   1.636  1.00 20.00    -0.268 NA
HETATM    9  N9  UNL     1     -31.134  18.351  -0.117  1.00 20.00    -0.244 NA
ENDROOT
TORSDOF 0
ENDMDL
MODEL 7
REMARK VINA RESULT:      -4.2     11.918     13.100
REMARK  0 active torsions:
REMARK  status: ('A' for Active; 'I' for Inactive)
ROOT
HETATM    1  C1  UNL     1     -33.959  15.434  -3.907  1.00 20.00     0.002 C 
HETATM    2  C2  UNL     1     -34.942  14.537  -4.082  1.00 20.00     0.030 C 
HETATM    3  C3  UNL     1     -33.096  15.874  -4.993  1.00 20.00    -0.001 C 
HETATM    4  C4  UNL     1     -33.424  15.646  -6.277  1.00 20.00     0.006 C 
HETATM    5  C5  UNL     1     -35.180  12.926  -7.222  1.00 20.00     0.228 C 
HETATM    6  C6  UNL     1     -35.087  14.063  -5.467  1.00 20.00     0.064 C 
HETATM    7  C7  UNL     1     -34.713  14.972  -6.607  1.00 20.00     0.184 C 
HETATM    8  N8  UNL     1     -34.670  14.013  -7.722  1.00 20.00    -0.268 NA
HETATM    9  N9  UNL     1     -35.461  12.903  -5.877  1.00 20.00    -0.244 NA
ENDROOT
TORSDOF 0
ENDMDL
MODEL 8
REMARK VINA RESULT:      -4.1     11.795     12.736
REMARK  0 active torsions:
REMARK  status: ('A' for Active; 'I' for Inactive)
ROOT
HETATM    1  C1  UNL     1     -33.523  16.363  -4.526  1.00 20.00     0.002 C 
HETATM    2  C2  UNL     1     -33.119  15.462  -5.434  1.00 20.00     0.030 C 
HETATM    3  C3  UNL     1     -34.802  16.265  -3.840  1.00 20.00    -0.001 C 
HETATM    4  C4  UNL     1     -35.509  15.121  -3.847  1.00 20.00     0.006 C 
HETATM    5  C5  UNL     1     -35.423  12.980  -6.452  1.00 20.00     0.228 C 
HETATM    6  C6  UNL     1     -34.066  14.359  -5.654  1.00 20.00     0.064 C 
HETATM    7  C7  UNL     1     -34.961  13.913  -4.529  1.00 20.00     0.184 C 
HETATM    8  N8  UNL     1     -35.936  13.090  -5.261  1.00 20.00    -0.268 NA
HETATM    9  N9  UNL     1     -34.295  13.709  -6.740  1.00 20.00    -0.244 NA
ENDROOT
TORSDOF 0
ENDMDL
MODEL 9
REMARK VINA RESULT:      -3.9      1.773      3.028
REMARK  0 active torsions:
REMARK  status: ('A' for Active; 'I' for Inactive)
ROOT
HETATM    1  C1  UNL     1     -32.940   6.423   2.195  1.00 20.00     0.002 C 
HETATM    2  C2  UNL     1     -33.133   5.171   2.636  1.00 20.00     0.030 C 
HETATM    3  C3  UNL     1     -33.327   7.594   2.969  1.00 20.00    -0.001 C 
HETATM    4  C4  UNL     1     -33.611   7.498   4.279  1.00 20.00     0.006 C 
HETATM    5  C5  UNL     1     -34.984   4.722   5.615  1.00 20.00     0.228 C 
HETATM    6  C6  UNL     1     -33.740   5.086   3.972  1.00 20.00     0.064 C 
HETATM    7  C7  UNL     1     -33.489   6.183   4.973  1.00 20.00     0.184 C 
HETATM    8  N8  UNL     1     -34.525   5.885   5.974  1.00 20.00    -0.268 NA
HETATM    9  N9  UNL     1     -34.539   4.189   4.430  1.00 20.00    -0.244 NA
ENDROOT
TORSDOF 0
ENDMDL
