MODEL 1
REMARK VINA RESULT:      -4.3      0.000      0.000
REMARK  2 active torsions:
REMARK  status: ('A' for Active; 'I' for Inactive)
REMARK    1  A    between atoms: C5_5  and  C6_6 
REMARK    2  A    between atoms: C6_6  and  N7_7 
ROOT
HETATM    1  C1  UNL     1     -32.153   9.192   0.999  1.00 20.00     0.012 C 
HETATM    2  C2  UNL     1     -32.182   8.496   1.977  1.00 20.00    -0.116 C 
HETATM    3  C5  UNL     1     -32.216   7.647   3.177  1.00 20.00     0.123 C 
ENDROOT
BRANCH   3   4
HETATM    4  C6  UNL     1     -33.250   6.531   3.058  1.00 20.00     0.283 C 
BRANCH   4   5
HETATM    5  N7  UNL     1     -34.247   6.630   4.124  1.00 20.00     0.080 N 
HETATM    6  C3  UNL     1     -33.659   7.228   5.322  1.00 20.00     0.309 C 
HETATM    7  C4  UNL     1     -34.800   5.311   4.430  1.00 20.00     0.309 C 
ENDBRANCH   4   5
ENDBRANCH   3   4
TORSDOF 2
ENDMDL
MODEL 2
REMARK VINA RESULT:      -4.2      1.101      1.466
REMARK  2 active torsions:
REMARK  status: ('A' for Active; 'I' for Inactive)
REMARK    1  A    between atoms: C5_5  and  C6_6 
REMARK    2  A    between atoms: C6_6  and  N7_7 
ROOT
HETATM    1  C1  UNL     1     -32.023   8.393   2.379  1.00 20.00     0.012 C 
HETATM    2  C2  UNL     1     -32.540   7.338   2.624  1.00 20.00    -0.116 C 
HETATM    3  C5  UNL     1     -33.170   6.044   2.925  1.00 20.00     0.123 C 
ENDROOT
BRANCH   3   4
HETATM    4  C6  UNL     1     -34.631   6.201   3.336  1.00 20.00     0.283 C 
BRANCH   4   5
HETATM    5  N7  UNL     1     -34.893   5.514   4.600  1.00 20.00     0.080 N 
HETATM    6  C3  UNL     1     -34.311   6.256   5.717  1.00 20.00     0.309 C 
HETATM    7  C4  UNL     1     -34.363   4.151   4.561  1.00 20.00     0.309 C 
ENDBRANCH   4   5
ENDBRANCH   3   4
TORSDOF 2
ENDMDL
MODEL 3
REMARK VINA RESULT:      -4.2      0.393      1.327
REMARK  2 active torsions:
REMARK  status: ('A' for Active; 'I' for Inactive)
REMARK    1  A    between atoms: C5_5  and  C6_6 
REMARK    2  A    between atoms: C6_6  and  N7_7 
ROOT
HETATM    1  C1  UNL     1     -32.160   9.437   0.955  1.00 20.00     0.012 C 
HETATM    2  C2  UNL     1     -32.196   8.700   1.902  1.00 20.00    -0.116 C 
HETATM    3  C5  UNL     1     -32.237   7.799   3.064  1.00 20.00     0.123 C 
ENDROOT
BRANCH   3   4
HETATM    4  C6  UNL     1     -33.249   6.672   2.878  1.00 20.00     0.283 C 
BRANCH   4   5
HETATM    5  N7  UNL     1     -33.744   6.198   4.170  1.00 20.00     0.080 N 
HETATM    6  C3  UNL     1     -35.119   5.717   4.046  1.00 20.00     0.309 C 
HETATM    7  C4  UNL     1     -33.662   7.262   5.170  1.00 20.00     0.309 C 
ENDBRANCH   4   5
ENDBRANCH   3   4
TORSDOF 2
ENDMDL
MODEL 4
REMARK VINA RESULT:      -4.1      1.399      3.962
REMARK  2 active torsions:
REMARK  status: ('A' for Active; 'I' for Inactive)
REMARK    1  A    between atoms: C5_5  and  C6_6 
REMARK    2  A    between atoms: C6_6  and  N7_7 
ROOT
HETATM    1  C1  UNL     1     -34.727   5.111   5.569  1.00 20.00     0.012 C 
HETATM    2  C2  UNL     1     -34.252   6.062   5.012  1.00 20.00    -0.116 C 
HETATM    3  C5  UNL     1     -33.669   7.229   4.332  1.00 20.00     0.123 C 
ENDROOT
BRANCH   3   4
HETATM    4  C6  UNL     1     -33.262   6.909   2.897  1.00 20.00     0.283 C 
BRANCH   4   5
HETATM    5  N7  UNL     1     -32.112   7.717   2.490  1.00 20.00     0.080 N 
HETATM    6  C3  UNL     1     -31.418   8.247   3.662  1.00 20.00     0.309 C 
HETATM    7  C4  UNL     1     -32.538   8.807   1.612  1.00 20.00     0.309 C 
ENDBRANCH   4   5
ENDBRANCH   3   4
TORSDOF 2
ENDMDL
MODEL 5
REMARK VINA RESULT:      -4.1      1.346      4.032
REMARK  2 active torsions:
REMARK  status: ('A' for Active; 'I' for Inactive)
REMARK    1  A    between atoms: C5_5  and  C6_6 
REMARK    2  A    between atoms: C6_6  and  N7_7 
ROOT
HETATM    1  C1  UNL     1     -34.639   5.027   5.545  1.00 20.00     0.012 C 
HETATM    2  C2  UNL     1     -34.502   5.505   4.452  1.00 20.00    -0.116 C 
HETATM    3  C5  UNL     1     -34.339   6.091   3.113  1.00 20.00     0.123 C 
ENDROOT
BRANCH   3   4
HETATM    4  C6  UNL     1     -32.884   6.446   2.819  1.00 20.00     0.283 C 
BRANCH   4   5
HETATM    5  N7  UNL     1     -32.671   7.890   2.914  1.00 20.00     0.080 N 
HETATM    6  C3  UNL     1     -32.525   8.476   1.582  1.00 20.00     0.309 C 
HETATM    7  C4  UNL     1     -31.493   8.179   3.731  1.00 20.00     0.309 C 
ENDBRANCH   4   5
ENDBRANCH   3   4
TORSDOF 2
ENDMDL
MODEL 6
REMARK VINA RESULT:      -4.1      0.854      1.316
REMARK  2 active torsions:
REMARK  status: ('A' for Active; 'I' for Inactive)
REMARK    1  A    between atoms: C5_5  and  C6_6 
REMARK    2  A    between atoms: C6_6  and  N7_7 
ROOT
HETATM    1  C1  UNL     1     -32.300   9.472   1.262  1.00 20.00     0.012 C 
HETATM    2  C2  UNL     1     -32.305   8.522   1.996  1.00 20.00    -0.116 C 
HETATM    3  C5  UNL     1     -32.306   7.358   2.894  1.00 20.00     0.123 C 
ENDROOT
BRANCH   3   4
HETATM    4  C6  UNL     1     -33.613   7.240   3.674  1.00 20.00     0.283 C 
BRANCH   4   5
HETATM    5  N7  UNL     1     -34.235   5.935   3.453  1.00 20.00     0.080 N 
HETATM    6  C3  UNL     1     -34.761   5.399   4.708  1.00 20.00     0.309 C 
HETATM    7  C4  UNL     1     -33.274   5.004   2.863  1.00 20.00     0.309 C 
ENDBRANCH   4   5
ENDBRANCH   3   4
TORSDOF 2
ENDMDL
MODEL 7
REMARK VINA RESULT:      -3.9      1.242      3.916
REMARK  2 active torsions:
REMARK  status: ('A' for Active; 'I' for Inactive)
REMARK    1  A    between atoms: C5_5  and  C6_6 
REMARK    2  A    between atoms: C6_6  and  N7_7 
ROOT
HETATM    1  C1  UNL     1     -34.759   4.751   5.761  1.00 20.00     0.012 C 
HETATM    2  C2  UNL     1     -34.307   5.858   5.656  1.00 20.00    -0.116 C 
HETATM    3  C5  UNL     1     -33.752   7.214   5.531  1.00 20.00     0.123 C 
ENDROOT
BRANCH   3   4
HETATM    4  C6  UNL     1     -33.744   7.697   4.084  1.00 20.00     0.283 C 
BRANCH   4   5
HETATM    5  N7  UNL     1     -32.596   7.154   3.359  1.00 20.00     0.080 N 
HETATM    6  C3  UNL     1     -31.998   8.179   2.505  1.00 20.00     0.309 C 
HETATM    7  C4  UNL     1     -32.997   5.995   2.562  1.00 20.00     0.309 C 
ENDBRANCH   4   5
ENDBRANCH   3   4
TORSDOF 2
ENDMDL
MODEL 8
REMARK VINA RESULT:      -3.8      1.870      4.268
REMARK  2 active torsions:
REMARK  status: ('A' for Active; 'I' for Inactive)
REMARK    1  A    between atoms: C5_5  and  C6_6 
REMARK    2  A    between atoms: C6_6  and  N7_7 
ROOT
HETATM    1  C1  UNL     1     -33.738   7.268   5.666  1.00 20.00     0.012 C 
HETATM    2  C2  UNL     1     -33.450   7.241   4.501  1.00 20.00    -0.116 C 
HETATM    3  C5  UNL     1     -33.099   7.207   3.074  1.00 20.00     0.123 C 
ENDROOT
BRANCH   3   4
HETATM    4  C6  UNL     1     -32.163   8.348   2.687  1.00 20.00     0.283 C 
BRANCH   4   5
HETATM    5  N7  UNL     1     -32.468   8.840   1.344  1.00 20.00     0.080 N 
HETATM    6  C3  UNL     1     -31.319   8.658   0.458  1.00 20.00     0.309 C 
HETATM    7  C4  UNL     1     -32.859  10.249   1.392  1.00 20.00     0.309 C 
ENDBRANCH   4   5
ENDBRANCH   3   4
TORSDOF 2
ENDMDL
MODEL 9
REMARK VINA RESULT:      -3.7      1.547      3.701
REMARK  2 active torsions:
REMARK  status: ('A' for Active; 'I' for Inactive)
REMARK    1  A    between atoms: C5_5  and  C6_6 
REMARK    2  A    between atoms: C6_6  and  N7_7 
ROOT
HETATM    1  C1  UNL     1     -33.648   7.575   6.333  1.00 20.00     0.012 C 
HETATM    2  C2  UNL     1     -34.067   6.663   5.674  1.00 20.00    -0.116 C 
HETATM    3  C5  UNL     1     -34.580   5.544   4.870  1.00 20.00     0.123 C 
ENDROOT
BRANCH   3   4
HETATM    4  C6  UNL     1     -34.986   5.987   3.468  1.00 20.00     0.283 C 
BRANCH   4   5
HETATM    5  N7  UNL     1     -33.850   5.916   2.550  1.00 20.00     0.080 N 
HETATM    6  C3  UNL     1     -33.058   4.714   2.806  1.00 20.00     0.309 C 
HETATM    7  C4  UNL     1     -33.017   7.112   2.675  1.00 20.00     0.309 C 
ENDBRANCH   4   5
ENDBRANCH   3   4
TORSDOF 2
ENDMDL
