MODEL 1
REMARK VINA RESULT:      -5.3      0.000      0.000
REMARK  1 active torsions:
REMARK  status: ('A' for Active; 'I' for Inactive)
REMARK    1  A    between atoms: C6_6  and  N12_12 
ROOT
HETATM    1  C1  UNL     1     -33.861   5.182   2.285  1.00 20.00     0.026 A 
HETATM    2  C2  UNL     1     -33.100   6.220   1.786  1.00 20.00     0.097 A 
HETATM    3  C3  UNL     1     -34.083   5.449   3.658  1.00 20.00    -0.034 A 
HETATM    4  C4  UNL     1     -33.453   6.643   3.947  1.00 20.00     0.022 A 
HETATM    5  C7  UNL     1     -34.850   4.681   4.677  1.00 20.00     0.040 C 
HETATM    6  C8  UNL     1     -33.397   7.309   5.274  1.00 20.00     0.058 C 
HETATM    7  C9  UNL     1     -34.505   5.156   6.103  1.00 20.00     0.005 C 
HETATM    8  C10 UNL     1     -34.455   6.693   6.208  1.00 20.00     0.006 C 
HETATM    9  N12 UNL     1     -32.856   7.103   2.807  1.00 20.00    -0.330 N 
ENDROOT
BRANCH   9  10
HETATM   10  C6  UNL     1     -32.126   8.271   2.676  1.00 20.00     0.003 C 
HETATM   11  C5  UNL     1     -31.098   8.620   3.475  1.00 20.00     0.038 C 
HETATM   12  C11 UNL     1     -32.488   9.240   1.569  1.00 20.00     0.068 C 
ENDBRANCH   9  10
TORSDOF 1
ENDMDL
MODEL 2
REMARK VINA RESULT:      -4.7      0.874      2.413
REMARK  1 active torsions:
REMARK  status: ('A' for Active; 'I' for Inactive)
REMARK    1  A    between atoms: C6_6  and  N12_12 
ROOT
HETATM    1  C1  UNL     1     -33.650   7.520   5.989  1.00 20.00     0.026 A 
HETATM    2  C2  UNL     1     -32.966   8.360   5.133  1.00 20.00     0.097 A 
HETATM    3  C3  UNL     1     -33.905   6.320   5.282  1.00 20.00    -0.034 A 
HETATM    4  C4  UNL     1     -33.365   6.469   4.020  1.00 20.00     0.022 A 
HETATM    5  C7  UNL     1     -34.589   5.071   5.718  1.00 20.00     0.040 C 
HETATM    6  C8  UNL     1     -33.411   5.471   2.920  1.00 20.00     0.058 C 
HETATM    7  C9  UNL     1     -34.958   4.190   4.507  1.00 20.00     0.005 C 
HETATM    8  C10 UNL     1     -33.807   4.094   3.486  1.00 20.00     0.006 C 
HETATM    9  N12 UNL     1     -32.799   7.709   3.936  1.00 20.00    -0.330 N 
ENDROOT
BRANCH   9  10
HETATM   10  C6  UNL     1     -32.150   8.244   2.837  1.00 20.00     0.003 C 
HETATM   11  C5  UNL     1     -30.811   8.338   2.716  1.00 20.00     0.038 C 
HETATM   12  C11 UNL     1     -32.977   8.767   1.680  1.00 20.00     0.068 C 
ENDBRANCH   9  10
TORSDOF 1
ENDMDL
MODEL 3
REMARK VINA RESULT:      -4.6     11.719     12.383
REMARK  1 active torsions:
REMARK  status: ('A' for Active; 'I' for Inactive)
REMARK    1  A    between atoms: C6_6  and  N12_12 
ROOT
HETATM    1  C1  UNL     1     -35.703  17.616   0.375  1.00 20.00     0.026 A 
HETATM    2  C2  UNL     1     -35.598  17.365  -0.979  1.00 20.00     0.097 A 
HETATM    3  C3  UNL     1     -34.440  18.085   0.812  1.00 20.00    -0.034 A 
HETATM    4  C4  UNL     1     -33.611  18.107  -0.292  1.00 20.00     0.022 A 
HETATM    5  C7  UNL     1     -33.988  18.520   2.162  1.00 20.00     0.040 C 
HETATM    6  C8  UNL     1     -32.180  18.509  -0.308  1.00 20.00     0.058 C 
HETATM    7  C9  UNL     1     -32.450  18.590   2.235  1.00 20.00     0.005 C 
HETATM    8  C10 UNL     1     -31.837  19.262   0.990  1.00 20.00     0.006 C 
HETATM    9  N12 UNL     1     -34.319  17.667  -1.373  1.00 20.00    -0.330 N 
ENDROOT
BRANCH   9  10
HETATM   10  C6  UNL     1     -33.849  17.544  -2.669  1.00 20.00     0.003 C 
HETATM   11  C5  UNL     1     -33.543  18.584  -3.469  1.00 20.00     0.038 C 
HETATM   12  C11 UNL     1     -33.658  16.158  -3.251  1.00 20.00     0.068 C 
ENDBRANCH   9  10
TORSDOF 1
ENDMDL
MODEL 4
REMARK VINA RESULT:      -4.5     11.420     12.210
REMARK  1 active torsions:
REMARK  status: ('A' for Active; 'I' for Inactive)
REMARK    1  A    between atoms: C6_6  and  N12_12 
ROOT
HETATM    1  C1  UNL     1     -36.767  16.298  -3.342  1.00 20.00     0.026 A 
HETATM    2  C2  UNL     1     -36.006  15.679  -4.313  1.00 20.00     0.097 A 
HETATM    3  C3  UNL     1     -35.870  16.869  -2.408  1.00 20.00    -0.034 A 
HETATM    4  C4  UNL     1     -34.592  16.583  -2.844  1.00 20.00     0.022 A 
HETATM    5  C7  UNL     1     -36.137  17.664  -1.177  1.00 20.00     0.040 C 
HETATM    6  C8  UNL     1     -33.325  16.964  -2.166  1.00 20.00     0.058 C 
HETATM    7  C9  UNL     1     -34.879  17.751  -0.290  1.00 20.00     0.005 C 
HETATM    8  C10 UNL     1     -33.608  18.050  -1.111  1.00 20.00     0.006 C 
HETATM    9  N12 UNL     1     -34.682  15.859  -3.999  1.00 20.00    -0.330 N 
ENDROOT
BRANCH   9  10
HETATM   10  C6  UNL     1     -33.625  15.380  -4.753  1.00 20.00     0.003 C 
HETATM   11  C5  UNL     1     -32.861  14.324  -4.409  1.00 20.00     0.038 C 
HETATM   12  C11 UNL     1     -33.282  16.073  -6.056  1.00 20.00     0.068 C 
ENDBRANCH   9  10
TORSDOF 1
ENDMDL
MODEL 5
REMARK VINA RESULT:      -4.4     11.726     13.077
REMARK  1 active torsions:
REMARK  status: ('A' for Active; 'I' for Inactive)
REMARK    1  A    between atoms: C6_6  and  N12_12 
ROOT
HETATM    1  C1  UNL     1     -33.829  16.955  -6.654  1.00 20.00     0.026 A 
HETATM    2  C2  UNL     1     -33.862  17.511  -5.391  1.00 20.00     0.097 A 
HETATM    3  C3  UNL     1     -34.372  15.651  -6.553  1.00 20.00    -0.034 A 
HETATM    4  C4  UNL     1     -34.721  15.459  -5.232  1.00 20.00     0.022 A 
HETATM    5  C7  UNL     1     -34.594  14.616  -7.599  1.00 20.00     0.040 C 
HETATM    6  C8  UNL     1     -35.310  14.225  -4.649  1.00 20.00     0.058 C 
HETATM    7  C9  UNL     1     -34.858  13.236  -6.965  1.00 20.00     0.005 C 
HETATM    8  C10 UNL     1     -35.837  13.318  -5.777  1.00 20.00     0.006 C 
HETATM    9  N12 UNL     1     -34.407  16.589  -4.532  1.00 20.00    -0.330 N 
ENDROOT
BRANCH   9  10
HETATM   10  C6  UNL     1     -34.604  16.800  -3.179  1.00 20.00     0.003 C 
HETATM   11  C5  UNL     1     -33.614  16.884  -2.269  1.00 20.00     0.038 C 
HETATM   12  C11 UNL     1     -36.020  16.947  -2.659  1.00 20.00     0.068 C 
ENDBRANCH   9  10
TORSDOF 1
ENDMDL
MODEL 6
REMARK VINA RESULT:      -4.4     11.825     12.804
REMARK  1 active torsions:
REMARK  status: ('A' for Active; 'I' for Inactive)
REMARK    1  A    between atoms: C6_6  and  N12_12 
ROOT
HETATM    1  C1  UNL     1     -37.264  16.729  -4.198  1.00 20.00     0.026 A 
HETATM    2  C2  UNL     1     -36.759  16.154  -5.347  1.00 20.00     0.097 A 
HETATM    3  C3  UNL     1     -36.188  16.855  -3.286  1.00 20.00    -0.034 A 
HETATM    4  C4  UNL     1     -35.063  16.357  -3.912  1.00 20.00     0.022 A 
HETATM    5  C7  UNL     1     -36.153  17.420  -1.909  1.00 20.00     0.040 C 
HETATM    6  C8  UNL     1     -33.700  16.265  -3.329  1.00 20.00     0.058 C 
HETATM    7  C9  UNL     1     -34.862  17.009  -1.173  1.00 20.00     0.005 C 
HETATM    8  C10 UNL     1     -33.614  17.146  -2.068  1.00 20.00     0.006 C 
HETATM    9  N12 UNL     1     -35.418  15.931  -5.161  1.00 20.00    -0.330 N 
ENDROOT
BRANCH   9  10
HETATM   10  C6  UNL     1     -34.577  15.371  -6.107  1.00 20.00     0.003 C 
HETATM   11  C5  UNL     1     -34.411  14.046  -6.289  1.00 20.00     0.038 C 
HETATM   12  C11 UNL     1     -33.779  16.288  -7.012  1.00 20.00     0.068 C 
ENDBRANCH   9  10
TORSDOF 1
ENDMDL
MODEL 7
REMARK VINA RESULT:      -4.3     11.533     13.020
REMARK  1 active torsions:
REMARK  status: ('A' for Active; 'I' for Inactive)
REMARK    1  A    between atoms: C6_6  and  N12_12 
ROOT
HETATM    1  C1  UNL     1     -33.808  17.892  -5.772  1.00 20.00     0.026 A 
HETATM    2  C2  UNL     1     -33.729  18.318  -4.461  1.00 20.00     0.097 A 
HETATM    3  C3  UNL     1     -34.141  16.516  -5.745  1.00 20.00    -0.034 A 
HETATM    4  C4  UNL     1     -34.258  16.151  -4.419  1.00 20.00     0.022 A 
HETATM    5  C7  UNL     1     -34.369  15.558  -6.862  1.00 20.00     0.040 C 
HETATM    6  C8  UNL     1     -34.574  14.793  -3.905  1.00 20.00     0.058 C 
HETATM    7  C9  UNL     1     -34.339  14.102  -6.358  1.00 20.00     0.005 C 
HETATM    8  C10 UNL     1     -35.130  13.923  -5.047  1.00 20.00     0.006 C 
HETATM    9  N12 UNL     1     -34.004  17.248  -3.646  1.00 20.00    -0.330 N 
ENDROOT
BRANCH   9  10
HETATM   10  C6  UNL     1     -34.024  17.301  -2.263  1.00 20.00     0.003 C 
HETATM   11  C5  UNL     1     -32.986  17.699  -1.501  1.00 20.00     0.038 C 
HETATM   12  C11 UNL     1     -35.286  16.888  -1.532  1.00 20.00     0.068 C 
ENDBRANCH   9  10
TORSDOF 1
ENDMDL
MODEL 8
REMARK VINA RESULT:      -4.3     11.868     12.782
REMARK  1 active torsions:
REMARK  status: ('A' for Active; 'I' for Inactive)
REMARK    1  A    between atoms: C6_6  and  N12_12 
ROOT
HETATM    1  C1  UNL     1     -33.301  16.109  -4.729  1.00 20.00     0.026 A 
HETATM    2  C2  UNL     1     -34.356  15.751  -5.544  1.00 20.00     0.097 A 
HETATM    3  C3  UNL     1     -33.852  16.549  -3.500  1.00 20.00    -0.034 A 
HETATM    4  C4  UNL     1     -35.224  16.440  -3.608  1.00 20.00     0.022 A 
HETATM    5  C7  UNL     1     -33.181  17.030  -2.261  1.00 20.00     0.040 C 
HETATM    6  C8  UNL     1     -36.219  16.810  -2.569  1.00 20.00     0.058 C 
HETATM    7  C9  UNL     1     -34.183  17.744  -1.331  1.00 20.00     0.005 C 
HETATM    8  C10 UNL     1     -35.514  16.975  -1.210  1.00 20.00     0.006 C 
HETATM    9  N12 UNL     1     -35.522  15.959  -4.851  1.00 20.00    -0.330 N 
ENDROOT
BRANCH   9  10
HETATM   10  C6  UNL     1     -36.788  15.703  -5.351  1.00 20.00     0.003 C 
HETATM   11  C5  UNL     1     -37.524  16.592  -6.048  1.00 20.00     0.038 C 
HETATM   12  C11 UNL     1     -37.409  14.342  -5.112  1.00 20.00     0.068 C 
ENDBRANCH   9  10
TORSDOF 1
ENDMDL
MODEL 9
REMARK VINA RESULT:      -4.3     11.359     12.330
REMARK  1 active torsions:
REMARK  status: ('A' for Active; 'I' for Inactive)
REMARK    1  A    between atoms: C6_6  and  N12_12 
ROOT
HETATM    1  C1  UNL     1     -34.576  14.072  -4.528  1.00 20.00     0.026 A 
HETATM    2  C2  UNL     1     -33.783  14.960  -3.830  1.00 20.00     0.097 A 
HETATM    3  C3  UNL     1     -35.874  14.634  -4.595  1.00 20.00    -0.034 A 
HETATM    4  C4  UNL     1     -35.826  15.848  -3.940  1.00 20.00     0.022 A 
HETATM    5  C7  UNL     1     -37.114  14.121  -5.240  1.00 20.00     0.040 C 
HETATM    6  C8  UNL     1     -36.962  16.783  -3.737  1.00 20.00     0.058 C 
HETATM    7  C9  UNL     1     -38.356  14.885  -4.739  1.00 20.00     0.005 C 
HETATM    8  C10 UNL     1     -38.119  16.407  -4.682  1.00 20.00     0.006 C 
HETATM    9  N12 UNL     1     -34.555  16.038  -3.476  1.00 20.00    -0.330 N 
ENDROOT
BRANCH   9  10
HETATM   10  C6  UNL     1     -34.094  17.134  -2.768  1.00 20.00     0.003 C 
HETATM   11  C5  UNL     1     -33.463  18.188  -3.324  1.00 20.00     0.038 C 
HETATM   12  C11 UNL     1     -34.299  17.177  -1.267  1.00 20.00     0.068 C 
ENDBRANCH   9  10
TORSDOF 1
ENDMDL
