MODEL 1
REMARK VINA RESULT:      -5.1      0.000      0.000
REMARK  1 active torsions:
REMARK  status: ('A' for Active; 'I' for Inactive)
REMARK    1  A    between atoms: C7_7  and  N8_8 
ROOT
HETATM    1  C1  UNL     1     -32.783  10.222   1.068  1.00 20.00     0.013 C 
HETATM    2  C2  UNL     1     -32.510   9.194   1.624  1.00 20.00    -0.087 C 
HETATM    3  C7  UNL     1     -32.173   7.939   2.301  1.00 20.00     0.364 C 
ENDROOT
BRANCH   3   4
HETATM    4  N8  UNL     1     -33.240   7.553   3.244  1.00 20.00     0.100 N 
HETATM    5  C3  UNL     1     -33.732   6.216   2.883  1.00 20.00     0.283 C 
HETATM    6  C5  UNL     1     -34.931   5.790   3.727  1.00 20.00     0.104 C 
HETATM    7  S9  UNL     1     -34.505   5.678   5.487  1.00 20.00    -0.166 SA
HETATM    8  C6  UNL     1     -33.772   7.327   5.667  1.00 20.00     0.104 C 
HETATM    9  C4  UNL     1     -32.699   7.586   4.611  1.00 20.00     0.283 C 
ENDBRANCH   3   4
TORSDOF 1
ENDMDL
MODEL 2
REMARK VINA RESULT:      -4.2      1.038      1.896
REMARK  1 active torsions:
REMARK  status: ('A' for Active; 'I' for Inactive)
REMARK    1  A    between atoms: C7_7  and  N8_8 
ROOT
HETATM    1  C1  UNL     1     -32.540   9.255   0.938  1.00 20.00     0.013 C 
HETATM    2  C2  UNL     1     -32.089   8.861   1.978  1.00 20.00    -0.087 C 
HETATM    3  C7  UNL     1     -31.535   8.385   3.248  1.00 20.00     0.364 C 
ENDROOT
BRANCH   3   4
HETATM    4  N8  UNL     1     -32.308   7.235   3.755  1.00 20.00     0.100 N 
HETATM    5  C3  UNL     1     -33.291   7.719   4.734  1.00 20.00     0.283 C 
HETATM    6  C5  UNL     1     -34.049   6.579   5.411  1.00 20.00     0.104 C 
HETATM    7  S9  UNL     1     -35.010   5.611   4.214  1.00 20.00    -0.166 SA
HETATM    8  C6  UNL     1     -33.671   5.278   3.037  1.00 20.00     0.104 C 
HETATM    9  C4  UNL     1     -32.955   6.560   2.620  1.00 20.00     0.283 C 
ENDBRANCH   3   4
TORSDOF 1
ENDMDL
MODEL 3
REMARK VINA RESULT:      -3.7     10.968     11.799
REMARK  1 active torsions:
REMARK  status: ('A' for Active; 'I' for Inactive)
REMARK    1  A    between atoms: C7_7  and  N8_8 
ROOT
HETATM    1  C1  UNL     1     -35.368  16.856  -1.452  1.00 20.00     0.013 C 
HETATM    2  C2  UNL     1     -34.579  16.575  -2.312  1.00 20.00    -0.087 C 
HETATM    3  C7  UNL     1     -33.612  16.232  -3.358  1.00 20.00     0.364 C 
ENDROOT
BRANCH   3   4
HETATM    4  N8  UNL     1     -34.302  15.710  -4.553  1.00 20.00     0.100 N 
HETATM    5  C3  UNL     1     -33.392  15.802  -5.704  1.00 20.00     0.283 C 
HETATM    6  C5  UNL     1     -34.069  15.406  -7.015  1.00 20.00     0.104 C 
HETATM    7  S9  UNL     1     -34.623  13.679  -6.987  1.00 20.00    -0.166 SA
HETATM    8  C6  UNL     1     -35.556  13.747  -5.433  1.00 20.00     0.104 C 
HETATM    9  C4  UNL     1     -34.717  14.324  -4.296  1.00 20.00     0.283 C 
ENDBRANCH   3   4
TORSDOF 1
ENDMDL
MODEL 4
REMARK VINA RESULT:      -3.5     11.233     11.662
REMARK  1 active torsions:
REMARK  status: ('A' for Active; 'I' for Inactive)
REMARK    1  A    between atoms: C7_7  and  N8_8 
ROOT
HETATM    1  C1  UNL     1     -32.901  17.876  -1.303  1.00 20.00     0.013 C 
HETATM    2  C2  UNL     1     -33.811  17.272  -1.800  1.00 20.00    -0.087 C 
HETATM    3  C7  UNL     1     -34.925  16.537  -2.404  1.00 20.00     0.364 C 
ENDROOT
BRANCH   3   4
HETATM    4  N8  UNL     1     -34.446  15.677  -3.503  1.00 20.00     0.100 N 
HETATM    5  C3  UNL     1     -35.601  15.010  -4.121  1.00 20.00     0.283 C 
HETATM    6  C5  UNL     1     -35.187  13.995  -5.185  1.00 20.00     0.104 C 
HETATM    7  S9  UNL     1     -34.308  14.788  -6.559  1.00 20.00    -0.166 SA
HETATM    8  C6  UNL     1     -33.067  15.675  -5.577  1.00 20.00     0.104 C 
HETATM    9  C4  UNL     1     -33.713  16.506  -4.470  1.00 20.00     0.283 C 
ENDBRANCH   3   4
TORSDOF 1
ENDMDL
MODEL 5
REMARK VINA RESULT:      -3.5     11.041     11.822
REMARK  1 active torsions:
REMARK  status: ('A' for Active; 'I' for Inactive)
REMARK    1  A    between atoms: C7_7  and  N8_8 
ROOT
HETATM    1  C1  UNL     1     -34.014  16.843  -2.169  1.00 20.00     0.013 C 
HETATM    2  C2  UNL     1     -33.700  16.456  -3.260  1.00 20.00    -0.087 C 
HETATM    3  C7  UNL     1     -33.313  15.983  -4.592  1.00 20.00     0.364 C 
ENDROOT
BRANCH   3   4
HETATM    4  N8  UNL     1     -34.465  15.373  -5.283  1.00 20.00     0.100 N 
HETATM    5  C3  UNL     1     -34.920  14.208  -4.510  1.00 20.00     0.283 C 
HETATM    6  C5  UNL     1     -36.028  13.434  -5.221  1.00 20.00     0.104 C 
HETATM    7  S9  UNL     1     -37.510  14.453  -5.459  1.00 20.00    -0.166 SA
HETATM    8  C6  UNL     1     -36.705  15.874  -6.248  1.00 20.00     0.104 C 
HETATM    9  C4  UNL     1     -35.524  16.382  -5.424  1.00 20.00     0.283 C 
ENDBRANCH   3   4
TORSDOF 1
ENDMDL
MODEL 6
REMARK VINA RESULT:      -3.4     10.941     11.411
REMARK  1 active torsions:
REMARK  status: ('A' for Active; 'I' for Inactive)
REMARK    1  A    between atoms: C7_7  and  N8_8 
ROOT
HETATM    1  C1  UNL     1     -35.240  17.371  -0.525  1.00 20.00     0.013 C 
HETATM    2  C2  UNL     1     -34.860  16.915  -1.569  1.00 20.00    -0.087 C 
HETATM    3  C7  UNL     1     -34.393  16.361  -2.842  1.00 20.00     0.364 C 
ENDROOT
BRANCH   3   4
HETATM    4  N8  UNL     1     -35.397  15.441  -3.410  1.00 20.00     0.100 N 
HETATM    5  C3  UNL     1     -36.551  16.226  -3.873  1.00 20.00     0.283 C 
HETATM    6  C5  UNL     1     -37.699  15.343  -4.356  1.00 20.00     0.104 C 
HETATM    7  S9  UNL     1     -37.212  14.331  -5.781  1.00 20.00    -0.166 SA
HETATM    8  C6  UNL     1     -35.711  13.608  -5.066  1.00 20.00     0.104 C 
HETATM    9  C4  UNL     1     -34.779  14.681  -4.505  1.00 20.00     0.283 C 
ENDBRANCH   3   4
TORSDOF 1
ENDMDL
MODEL 7
REMARK VINA RESULT:      -3.4     11.231     11.849
REMARK  1 active torsions:
REMARK  status: ('A' for Active; 'I' for Inactive)
REMARK    1  A    between atoms: C7_7  and  N8_8 
ROOT
HETATM    1  C1  UNL     1     -32.875  18.024  -1.248  1.00 20.00     0.013 C 
HETATM    2  C2  UNL     1     -33.758  17.336  -1.682  1.00 20.00    -0.087 C 
HETATM    3  C7  UNL     1     -34.838  16.497  -2.207  1.00 20.00     0.364 C 
ENDROOT
BRANCH   3   4
HETATM    4  N8  UNL     1     -34.714  16.344  -3.669  1.00 20.00     0.100 N 
HETATM    5  C3  UNL     1     -33.454  15.649  -3.969  1.00 20.00     0.283 C 
HETATM    6  C5  UNL     1     -33.179  15.564  -5.469  1.00 20.00     0.104 C 
HETATM    7  S9  UNL     1     -34.460  14.613  -6.332  1.00 20.00    -0.166 SA
HETATM    8  C6  UNL     1     -35.902  15.509  -5.693  1.00 20.00     0.104 C 
HETATM    9  C4  UNL     1     -35.880  15.600  -4.169  1.00 20.00     0.283 C 
ENDBRANCH   3   4
TORSDOF 1
ENDMDL
MODEL 8
REMARK VINA RESULT:      -3.2     11.221     12.122
REMARK  1 active torsions:
REMARK  status: ('A' for Active; 'I' for Inactive)
REMARK    1  A    between atoms: C7_7  and  N8_8 
ROOT
HETATM    1  C1  UNL     1     -38.240  14.649  -5.250  1.00 20.00     0.013 C 
HETATM    2  C2  UNL     1     -37.179  14.088  -5.269  1.00 20.00    -0.087 C 
HETATM    3  C7  UNL     1     -35.886  13.399  -5.292  1.00 20.00     0.364 C 
ENDROOT
BRANCH   3   4
HETATM    4  N8  UNL     1     -34.778  14.366  -5.170  1.00 20.00     0.100 N 
HETATM    5  C3  UNL     1     -34.821  15.285  -6.317  1.00 20.00     0.283 C 
HETATM    6  C5  UNL     1     -33.630  16.240  -6.342  1.00 20.00     0.104 C 
HETATM    7  S9  UNL     1     -33.599  17.312  -4.879  1.00 20.00    -0.166 SA
HETATM    8  C6  UNL     1     -33.731  16.012  -3.621  1.00 20.00     0.104 C 
HETATM    9  C4  UNL     1     -34.912  15.082  -3.893  1.00 20.00     0.283 C 
ENDBRANCH   3   4
TORSDOF 1
ENDMDL
MODEL 9
REMARK VINA RESULT:      -3.2      1.917      4.293
REMARK  1 active torsions:
REMARK  status: ('A' for Active; 'I' for Inactive)
REMARK    1  A    between atoms: C7_7  and  N8_8 
ROOT
HETATM    1  C1  UNL     1     -33.871   3.539   4.431  1.00 20.00     0.013 C 
HETATM    2  C2  UNL     1     -34.476   4.565   4.285  1.00 20.00    -0.087 C 
HETATM    3  C7  UNL     1     -35.218   5.816   4.107  1.00 20.00     0.364 C 
ENDROOT
BRANCH   3   4
HETATM    4  N8  UNL     1     -34.293   6.942   3.882  1.00 20.00     0.100 N 
HETATM    5  C3  UNL     1     -33.450   7.111   5.075  1.00 20.00     0.283 C 
HETATM    6  C5  UNL     1     -32.550   8.341   4.983  1.00 20.00     0.104 C 
HETATM    7  S9  UNL     1     -31.387   8.218   3.596  1.00 20.00    -0.166 SA
HETATM    8  C6  UNL     1     -32.595   7.841   2.296  1.00 20.00     0.104 C 
HETATM    9  C4  UNL     1     -33.490   6.665   2.682  1.00 20.00     0.283 C 
ENDBRANCH   3   4
TORSDOF 1
ENDMDL
