MODEL 1
REMARK VINA RESULT:      -4.9      0.000      0.000
REMARK  1 active torsions:
REMARK  status: ('A' for Active; 'I' for Inactive)
REMARK    1  A    between atoms: C3_3  and  C7_7 
ROOT
HETATM    1  C1  UNL     1     -33.468  15.776  -6.285  1.00 20.00    -0.025 C 
HETATM    2  C2  UNL     1     -34.757  16.145  -6.246  1.00 20.00    -0.024 C 
HETATM    3  C4  UNL     1     -33.712  14.304  -4.357  1.00 20.00     0.021 C 
HETATM    4  C5  UNL     1     -33.015  15.602  -4.848  1.00 20.00     0.017 C 
HETATM    5  C6  UNL     1     -35.161  16.203  -4.781  1.00 20.00     0.027 C 
HETATM    6  C7  UNL     1     -35.209  14.735  -4.271  1.00 20.00     0.056 C 
HETATM    7  C8  UNL     1     -33.835  16.729  -4.162  1.00 20.00    -0.033 C 
HETATM    8  C9  UNL     1     -33.450  18.163  -4.600  1.00 20.00     0.016 C 
HETATM    9  C10 UNL     1     -33.780  16.722  -2.623  1.00 20.00     0.016 C 
ENDROOT
BRANCH   6  10
HETATM   10  C3  UNL     1     -36.117  13.850  -5.071  1.00 20.00     0.236 C 
HETATM   11  O11 UNL     1     -35.858  12.682  -5.341  1.00 20.00    -0.306 OA
ENDBRANCH   6  10
TORSDOF 1
ENDMDL
MODEL 2
REMARK VINA RESULT:      -4.5     11.208     12.665
REMARK  1 active torsions:
REMARK  status: ('A' for Active; 'I' for Inactive)
REMARK    1  A    between atoms: C3_3  and  C7_7 
ROOT
HETATM    1  C1  UNL     1     -34.382   5.680   2.339  1.00 20.00    -0.025 C 
HETATM    2  C2  UNL     1     -33.102   5.364   2.591  1.00 20.00    -0.024 C 
HETATM    3  C4  UNL     1     -34.121   7.935   3.227  1.00 20.00     0.021 C 
HETATM    4  C5  UNL     1     -34.844   6.581   3.467  1.00 20.00     0.017 C 
HETATM    5  C6  UNL     1     -32.714   6.069   3.882  1.00 20.00     0.027 C 
HETATM    6  C7  UNL     1     -32.635   7.587   3.556  1.00 20.00     0.056 C 
HETATM    7  C8  UNL     1     -34.059   5.962   4.655  1.00 20.00    -0.033 C 
HETATM    8  C9  UNL     1     -34.474   4.516   5.018  1.00 20.00     0.016 C 
HETATM    9  C10 UNL     1     -34.129   6.768   5.965  1.00 20.00     0.016 C 
ENDROOT
BRANCH   6  10
HETATM   10  C3  UNL     1     -31.697   7.914   2.433  1.00 20.00     0.236 C 
HETATM   11  O11 UNL     1     -31.992   8.651   1.498  1.00 20.00    -0.306 OA
ENDBRANCH   6  10
TORSDOF 1
ENDMDL
MODEL 3
REMARK VINA RESULT:      -4.4      1.474      2.354
REMARK  1 active torsions:
REMARK  status: ('A' for Active; 'I' for Inactive)
REMARK    1  A    between atoms: C3_3  and  C7_7 
ROOT
HETATM    1  C1  UNL     1     -33.053  14.419  -4.385  1.00 20.00    -0.025 C 
HETATM    2  C2  UNL     1     -32.954  15.530  -5.132  1.00 20.00    -0.024 C 
HETATM    3  C4  UNL     1     -35.246  13.864  -5.295  1.00 20.00     0.021 C 
HETATM    4  C5  UNL     1     -34.511  14.281  -3.992  1.00 20.00     0.017 C 
HETATM    5  C6  UNL     1     -34.352  16.119  -5.243  1.00 20.00     0.027 C 
HETATM    6  C7  UNL     1     -35.170  15.164  -6.156  1.00 20.00     0.056 C 
HETATM    7  C8  UNL     1     -34.896  15.776  -3.827  1.00 20.00    -0.033 C 
HETATM    8  C9  UNL     1     -34.170  16.504  -2.669  1.00 20.00     0.016 C 
HETATM    9  C10 UNL     1     -36.399  16.037  -3.620  1.00 20.00     0.016 C 
ENDROOT
BRANCH   6  10
HETATM   10  C3  UNL     1     -34.547  14.937  -7.501  1.00 20.00     0.236 C 
HETATM   11  O11 UNL     1     -34.176  13.838  -7.898  1.00 20.00    -0.306 OA
ENDBRANCH   6  10
TORSDOF 1
ENDMDL
MODEL 4
REMARK VINA RESULT:      -4.2      2.032      3.491
REMARK  1 active torsions:
REMARK  status: ('A' for Active; 'I' for Inactive)
REMARK    1  A    between atoms: C3_3  and  C7_7 
ROOT
HETATM    1  C1  UNL     1     -33.984  16.415  -6.369  1.00 20.00    -0.025 C 
HETATM    2  C2  UNL     1     -33.071  15.764  -5.632  1.00 20.00    -0.024 C 
HETATM    3  C4  UNL     1     -35.656  16.316  -4.598  1.00 20.00     0.021 C 
HETATM    4  C5  UNL     1     -35.334  15.813  -6.032  1.00 20.00     0.017 C 
HETATM    5  C6  UNL     1     -33.821  14.740  -4.794  1.00 20.00     0.027 C 
HETATM    6  C7  UNL     1     -34.624  15.535  -3.726  1.00 20.00     0.056 C 
HETATM    7  C8  UNL     1     -34.928  14.331  -5.808  1.00 20.00    -0.033 C 
HETATM    8  C9  UNL     1     -34.402  13.610  -7.072  1.00 20.00     0.016 C 
HETATM    9  C10 UNL     1     -36.043  13.435  -5.236  1.00 20.00     0.016 C 
ENDROOT
BRANCH   6  10
HETATM   10  C3  UNL     1     -33.773  16.436  -2.882  1.00 20.00     0.236 C 
HETATM   11  O11 UNL     1     -34.086  16.800  -1.754  1.00 20.00    -0.306 OA
ENDBRANCH   6  10
TORSDOF 1
ENDMDL
MODEL 5
REMARK VINA RESULT:      -4.1      1.819      2.435
REMARK  1 active torsions:
REMARK  status: ('A' for Active; 'I' for Inactive)
REMARK    1  A    between atoms: C3_3  and  C7_7 
ROOT
HETATM    1  C1  UNL     1     -35.786  14.526  -7.388  1.00 20.00    -0.025 C 
HETATM    2  C2  UNL     1     -36.191  15.693  -6.864  1.00 20.00    -0.024 C 
HETATM    3  C4  UNL     1     -35.957  13.371  -5.248  1.00 20.00     0.021 C 
HETATM    4  C5  UNL     1     -34.946  13.835  -6.332  1.00 20.00     0.017 C 
HETATM    5  C6  UNL     1     -35.629  15.767  -5.453  1.00 20.00     0.027 C 
HETATM    6  C7  UNL     1     -36.405  14.721  -4.605  1.00 20.00     0.056 C 
HETATM    7  C8  UNL     1     -34.259  15.065  -5.678  1.00 20.00    -0.033 C 
HETATM    8  C9  UNL     1     -33.292  15.834  -6.610  1.00 20.00     0.016 C 
HETATM    9  C10 UNL     1     -33.462  14.754  -4.397  1.00 20.00     0.016 C 
ENDROOT
BRANCH   6  10
HETATM   10  C3  UNL     1     -37.892  14.912  -4.628  1.00 20.00     0.236 C 
HETATM   11  O11 UNL     1     -38.679  14.049  -5.001  1.00 20.00    -0.306 OA
ENDBRANCH   6  10
TORSDOF 1
ENDMDL
MODEL 6
REMARK VINA RESULT:      -4.1      1.400      2.447
REMARK  1 active torsions:
REMARK  status: ('A' for Active; 'I' for Inactive)
REMARK    1  A    between atoms: C3_3  and  C7_7 
ROOT
HETATM    1  C1  UNL     1     -36.853  15.940  -5.362  1.00 20.00    -0.025 C 
HETATM    2  C2  UNL     1     -36.772  14.664  -4.953  1.00 20.00    -0.024 C 
HETATM    3  C4  UNL     1     -34.673  15.851  -6.450  1.00 20.00     0.021 C 
HETATM    4  C5  UNL     1     -35.453  16.517  -5.284  1.00 20.00     0.017 C 
HETATM    5  C6  UNL     1     -35.313  14.395  -4.618  1.00 20.00     0.027 C 
HETATM    6  C7  UNL     1     -34.539  14.374  -5.965  1.00 20.00     0.056 C 
HETATM    7  C8  UNL     1     -34.919  15.779  -4.028  1.00 20.00    -0.033 C 
HETATM    8  C9  UNL     1     -35.644  16.142  -2.710  1.00 20.00     0.016 C 
HETATM    9  C10 UNL     1     -33.415  15.973  -3.755  1.00 20.00     0.016 C 
ENDROOT
BRANCH   6  10
HETATM   10  C3  UNL     1     -35.080  13.384  -6.954  1.00 20.00     0.236 C 
HETATM   11  O11 UNL     1     -35.121  12.176  -6.748  1.00 20.00    -0.306 OA
ENDBRANCH   6  10
TORSDOF 1
ENDMDL
MODEL 7
REMARK VINA RESULT:      -4.1      1.957      3.322
REMARK  1 active torsions:
REMARK  status: ('A' for Active; 'I' for Inactive)
REMARK    1  A    between atoms: C3_3  and  C7_7 
ROOT
HETATM    1  C1  UNL     1     -33.032  14.455  -4.438  1.00 20.00    -0.025 C 
HETATM    2  C2  UNL     1     -34.284  14.136  -4.074  1.00 20.00    -0.024 C 
HETATM    3  C4  UNL     1     -33.517  16.844  -4.440  1.00 20.00     0.021 C 
HETATM    4  C5  UNL     1     -33.133  15.653  -5.361  1.00 20.00     0.017 C 
HETATM    5  C6  UNL     1     -35.212  15.135  -4.746  1.00 20.00     0.027 C 
HETATM    6  C7  UNL     1     -34.986  16.502  -4.042  1.00 20.00     0.056 C 
HETATM    7  C8  UNL     1     -34.461  15.326  -6.095  1.00 20.00    -0.033 C 
HETATM    8  C9  UNL     1     -34.411  14.060  -6.983  1.00 20.00     0.016 C 
HETATM    9  C10 UNL     1     -34.999  16.457  -6.992  1.00 20.00     0.016 C 
ENDROOT
BRANCH   6  10
HETATM   10  C3  UNL     1     -35.192  16.455  -2.557  1.00 20.00     0.236 C 
HETATM   11  O11 UNL     1     -34.321  16.743  -1.744  1.00 20.00    -0.306 OA
ENDBRANCH   6  10
TORSDOF 1
ENDMDL
MODEL 8
REMARK VINA RESULT:      -4.1      1.804      3.105
REMARK  1 active torsions:
REMARK  status: ('A' for Active; 'I' for Inactive)
REMARK    1  A    between atoms: C3_3  and  C7_7 
ROOT
HETATM    1  C1  UNL     1     -36.056  17.113  -4.000  1.00 20.00    -0.025 C 
HETATM    2  C2  UNL     1     -35.677  15.838  -3.818  1.00 20.00    -0.024 C 
HETATM    3  C4  UNL     1     -33.795  17.824  -4.573  1.00 20.00     0.021 C 
HETATM    4  C5  UNL     1     -34.917  17.985  -3.510  1.00 20.00     0.017 C 
HETATM    5  C6  UNL     1     -34.279  15.869  -3.220  1.00 20.00     0.027 C 
HETATM    6  C7  UNL     1     -33.321  16.355  -4.343  1.00 20.00     0.056 C 
HETATM    7  C8  UNL     1     -34.406  17.130  -2.319  1.00 20.00    -0.033 C 
HETATM    8  C9  UNL     1     -35.413  16.984  -1.153  1.00 20.00     0.016 C 
HETATM    9  C10 UNL     1     -33.090  17.621  -1.688  1.00 20.00     0.016 C 
ENDROOT
BRANCH   6  10
HETATM   10  C3  UNL     1     -33.382  15.521  -5.588  1.00 20.00     0.236 C 
HETATM   11  O11 UNL     1     -33.442  15.996  -6.717  1.00 20.00    -0.306 OA
ENDBRANCH   6  10
TORSDOF 1
ENDMDL
MODEL 9
REMARK VINA RESULT:      -4.1      1.216      2.157
REMARK  1 active torsions:
REMARK  status: ('A' for Active; 'I' for Inactive)
REMARK    1  A    between atoms: C3_3  and  C7_7 
ROOT
HETATM    1  C1  UNL     1     -33.619  14.712  -4.125  1.00 20.00    -0.025 C 
HETATM    2  C2  UNL     1     -33.231  15.070  -5.359  1.00 20.00    -0.024 C 
HETATM    3  C4  UNL     1     -35.884  14.190  -4.863  1.00 20.00     0.021 C 
HETATM    4  C5  UNL     1     -35.060  15.158  -3.970  1.00 20.00     0.017 C 
HETATM    5  C6  UNL     1     -34.423  15.741  -6.025  1.00 20.00     0.027 C 
HETATM    6  C7  UNL     1     -35.468  14.624  -6.303  1.00 20.00     0.056 C 
HETATM    7  C8  UNL     1     -35.034  16.472  -4.796  1.00 20.00    -0.033 C 
HETATM    8  C9  UNL     1     -34.137  17.587  -4.205  1.00 20.00     0.016 C 
HETATM    9  C10 UNL     1     -36.414  17.114  -5.033  1.00 20.00     0.016 C 
ENDROOT
BRANCH   6  10
HETATM   10  C3  UNL     1     -34.932  13.489  -7.123  1.00 20.00     0.236 C 
HETATM   11  O11 UNL     1     -34.993  12.315  -6.774  1.00 20.00    -0.306 OA
ENDBRANCH   6  10
TORSDOF 1
ENDMDL
