MODEL 1
REMARK VINA RESULT:      -4.4      0.000      0.000
REMARK  1 active torsions:
REMARK  status: ('A' for Active; 'I' for Inactive)
REMARK    1  A    between atoms: C4_4  and  C10_10 
ROOT
HETATM    1  C1  UNL     1     -33.068   7.609   1.295  1.00 20.00     0.092 C 
HETATM    2  C2  UNL     1     -31.642   7.829   3.670  1.00 20.00     0.029 C 
HETATM    3  C3  UNL     1     -31.998   9.140   2.989  1.00 20.00     0.016 C 
HETATM    4  C4  UNL     1     -32.776   6.816   3.534  1.00 20.00     0.110 C 
HETATM    5  C5  UNL     1     -32.321   8.913   1.507  1.00 20.00    -0.014 C 
HETATM    6  C6  UNL     1     -33.192  10.061   0.981  1.00 20.00     0.020 C 
HETATM    7  C7  UNL     1     -31.034   8.834   0.671  1.00 20.00     0.020 C 
HETATM    8  N11 UNL     1     -33.255   6.673   2.158  1.00 20.00    -0.299 NA
ENDROOT
BRANCH   4   9
HETATM    9  C10 UNL     1     -33.972   7.138   4.427  1.00 20.00     0.002 C 
HETATM   10  C8  UNL     1     -35.004   6.013   4.370  1.00 20.00     0.011 C 
HETATM   11  C9  UNL     1     -33.521   7.378   5.866  1.00 20.00     0.011 C 
ENDBRANCH   4   9
TORSDOF 1
ENDMDL
MODEL 2
REMARK VINA RESULT:      -4.3     10.115     11.623
REMARK  1 active torsions:
REMARK  status: ('A' for Active; 'I' for Inactive)
REMARK    1  A    between atoms: C4_4  and  C10_10 
ROOT
HETATM    1  C1  UNL     1     -33.393  16.717  -4.697  1.00 20.00     0.092 C 
HETATM    2  C2  UNL     1     -34.596  14.266  -4.177  1.00 20.00     0.029 C 
HETATM    3  C3  UNL     1     -35.423  15.494  -3.836  1.00 20.00     0.016 C 
HETATM    4  C4  UNL     1     -33.795  14.484  -5.459  1.00 20.00     0.110 C 
HETATM    5  C5  UNL     1     -34.527  16.730  -3.690  1.00 20.00    -0.014 C 
HETATM    6  C6  UNL     1     -35.355  18.003  -3.909  1.00 20.00     0.020 C 
HETATM    7  C7  UNL     1     -33.887  16.781  -2.293  1.00 20.00     0.020 C 
HETATM    8  N11 UNL     1     -33.044  15.741  -5.459  1.00 20.00    -0.299 NA
ENDROOT
BRANCH   4   9
HETATM    9  C10 UNL     1     -34.662  14.444  -6.716  1.00 20.00     0.002 C 
HETATM   10  C8  UNL     1     -33.895  14.998  -7.916  1.00 20.00     0.011 C 
HETATM   11  C9  UNL     1     -35.139  13.020  -6.996  1.00 20.00     0.011 C 
ENDBRANCH   4   9
TORSDOF 1
ENDMDL
MODEL 3
REMARK VINA RESULT:      -4.2     10.318     11.200
REMARK  1 active torsions:
REMARK  status: ('A' for Active; 'I' for Inactive)
REMARK    1  A    between atoms: C4_4  and  C10_10 
ROOT
HETATM    1  C1  UNL     1     -35.372  14.189  -5.291  1.00 20.00     0.092 C 
HETATM    2  C2  UNL     1     -32.976  15.594  -5.207  1.00 20.00     0.029 C 
HETATM    3  C3  UNL     1     -33.909  15.946  -6.354  1.00 20.00     0.016 C 
HETATM    4  C4  UNL     1     -33.761  15.317  -3.928  1.00 20.00     0.110 C 
HETATM    5  C5  UNL     1     -34.922  14.821  -6.595  1.00 20.00    -0.014 C 
HETATM    6  C6  UNL     1     -36.158  15.378  -7.315  1.00 20.00     0.020 C 
HETATM    7  C7  UNL     1     -34.306  13.701  -7.448  1.00 20.00     0.020 C 
HETATM    8  N11 UNL     1     -34.863  14.374  -4.124  1.00 20.00    -0.299 NA
ENDROOT
BRANCH   4   9
HETATM    9  C10 UNL     1     -34.324  16.586  -3.289  1.00 20.00     0.002 C 
HETATM   10  C8  UNL     1     -35.700  16.316  -2.681  1.00 20.00     0.011 C 
HETATM   11  C9  UNL     1     -33.366  17.125  -2.229  1.00 20.00     0.011 C 
ENDBRANCH   4   9
TORSDOF 1
ENDMDL
MODEL 4
REMARK VINA RESULT:      -4.1     10.428     11.969
REMARK  1 active torsions:
REMARK  status: ('A' for Active; 'I' for Inactive)
REMARK    1  A    between atoms: C4_4  and  C10_10 
ROOT
HETATM    1  C1  UNL     1     -34.153  17.670  -4.199  1.00 20.00     0.092 C 
HETATM    2  C2  UNL     1     -33.291  15.035  -4.397  1.00 20.00     0.029 C 
HETATM    3  C3  UNL     1     -34.504  15.269  -3.512  1.00 20.00     0.016 C 
HETATM    4  C4  UNL     1     -33.329  15.937  -5.628  1.00 20.00     0.110 C 
HETATM    5  C5  UNL     1     -34.590  16.739  -3.083  1.00 20.00    -0.014 C 
HETATM    6  C6  UNL     1     -36.034  17.087  -2.699  1.00 20.00     0.020 C 
HETATM    7  C7  UNL     1     -33.670  17.014  -1.883  1.00 20.00     0.020 C 
HETATM    8  N11 UNL     1     -33.581  17.342  -5.304  1.00 20.00    -0.299 NA
ENDROOT
BRANCH   4   9
HETATM    9  C10 UNL     1     -34.364  15.490  -6.660  1.00 20.00     0.002 C 
HETATM   10  C8  UNL     1     -34.275  16.353  -7.918  1.00 20.00     0.011 C 
HETATM   11  C9  UNL     1     -34.176  14.015  -7.008  1.00 20.00     0.011 C 
ENDBRANCH   4   9
TORSDOF 1
ENDMDL
MODEL 5
REMARK VINA RESULT:      -4.1     10.026     11.089
REMARK  1 active torsions:
REMARK  status: ('A' for Active; 'I' for Inactive)
REMARK    1  A    between atoms: C4_4  and  C10_10 
ROOT
HETATM    1  C1  UNL     1     -36.184  17.161  -2.633  1.00 20.00     0.092 C 
HETATM    2  C2  UNL     1     -33.578  17.082  -3.597  1.00 20.00     0.029 C 
HETATM    3  C3  UNL     1     -33.722  17.142  -2.085  1.00 20.00     0.016 C 
HETATM    4  C4  UNL     1     -34.664  16.206  -4.216  1.00 20.00     0.110 C 
HETATM    5  C5  UNL     1     -35.107  17.669  -1.691  1.00 20.00    -0.014 C 
HETATM    6  C6  UNL     1     -35.454  17.212  -0.268  1.00 20.00     0.020 C 
HETATM    7  C7  UNL     1     -35.147  19.204  -1.750  1.00 20.00     0.020 C 
HETATM    8  N11 UNL     1     -36.010  16.544  -3.748  1.00 20.00    -0.299 NA
ENDROOT
BRANCH   4   9
HETATM    9  C10 UNL     1     -34.434  14.715  -3.977  1.00 20.00     0.002 C 
HETATM   10  C8  UNL     1     -35.450  13.882  -4.757  1.00 20.00     0.011 C 
HETATM   11  C9  UNL     1     -33.010  14.321  -4.363  1.00 20.00     0.011 C 
ENDBRANCH   4   9
TORSDOF 1
ENDMDL
MODEL 6
REMARK VINA RESULT:      -4.0     10.336     11.194
REMARK  1 active torsions:
REMARK  status: ('A' for Active; 'I' for Inactive)
REMARK    1  A    between atoms: C4_4  and  C10_10 
ROOT
HETATM    1  C1  UNL     1     -33.414  16.922  -4.435  1.00 20.00     0.092 C 
HETATM    2  C2  UNL     1     -35.747  16.747  -2.934  1.00 20.00     0.029 C 
HETATM    3  C3  UNL     1     -35.134  15.423  -3.360  1.00 20.00     0.016 C 
HETATM    4  C4  UNL     1     -34.664  17.761  -2.575  1.00 20.00     0.110 C 
HETATM    5  C5  UNL     1     -34.186  15.620  -4.549  1.00 20.00    -0.014 C 
HETATM    6  C6  UNL     1     -33.179  14.464  -4.610  1.00 20.00     0.020 C 
HETATM    7  C7  UNL     1     -34.968  15.677  -5.871  1.00 20.00     0.020 C 
HETATM    8  N11 UNL     1     -33.623  17.876  -3.598  1.00 20.00    -0.299 NA
ENDROOT
BRANCH   4   9
HETATM    9  C10 UNL     1     -33.990  17.463  -1.237  1.00 20.00     0.002 C 
HETATM   10  C8  UNL     1     -32.727  18.307  -1.071  1.00 20.00     0.011 C 
HETATM   11  C9  UNL     1     -34.956  17.711  -0.080  1.00 20.00     0.011 C 
ENDBRANCH   4   9
TORSDOF 1
ENDMDL
MODEL 7
REMARK VINA RESULT:      -4.0      1.597      2.738
REMARK  1 active torsions:
REMARK  status: ('A' for Active; 'I' for Inactive)
REMARK    1  A    between atoms: C4_4  and  C10_10 
ROOT
HETATM    1  C1  UNL     1     -33.518   8.149   3.922  1.00 20.00     0.092 C 
HETATM    2  C2  UNL     1     -33.842   5.846   2.400  1.00 20.00     0.029 C 
HETATM    3  C3  UNL     1     -32.431   6.407   2.458  1.00 20.00     0.016 C 
HETATM    4  C4  UNL     1     -34.546   5.995   3.746  1.00 20.00     0.110 C 
HETATM    5  C5  UNL     1     -32.448   7.881   2.879  1.00 20.00    -0.014 C 
HETATM    6  C6  UNL     1     -31.088   8.271   3.470  1.00 20.00     0.020 C 
HETATM    7  C7  UNL     1     -32.755   8.791   1.678  1.00 20.00     0.020 C 
HETATM    8  N11 UNL     1     -34.454   7.349   4.295  1.00 20.00    -0.299 NA
ENDROOT
BRANCH   4   9
HETATM    9  C10 UNL     1     -34.030   5.015   4.799  1.00 20.00     0.002 C 
HETATM   10  C8  UNL     1     -34.834   5.143   6.092  1.00 20.00     0.011 C 
HETATM   11  C9  UNL     1     -34.086   3.582   4.274  1.00 20.00     0.011 C 
ENDBRANCH   4   9
TORSDOF 1
ENDMDL
MODEL 8
REMARK VINA RESULT:      -3.9     10.621     11.867
REMARK  1 active torsions:
REMARK  status: ('A' for Active; 'I' for Inactive)
REMARK    1  A    between atoms: C4_4  and  C10_10 
ROOT
HETATM    1  C1  UNL     1     -35.272  17.275  -4.529  1.00 20.00     0.092 C 
HETATM    2  C2  UNL     1     -33.155  15.653  -5.312  1.00 20.00     0.029 C 
HETATM    3  C3  UNL     1     -33.530  15.587  -3.841  1.00 20.00     0.016 C 
HETATM    4  C4  UNL     1     -34.398  15.788  -6.188  1.00 20.00     0.110 C 
HETATM    5  C5  UNL     1     -34.330  16.827  -3.427  1.00 20.00    -0.014 C 
HETATM    6  C6  UNL     1     -35.162  16.518  -2.175  1.00 20.00     0.020 C 
HETATM    7  C7  UNL     1     -33.394  18.010  -3.129  1.00 20.00     0.020 C 
HETATM    8  N11 UNL     1     -35.301  16.851  -5.744  1.00 20.00    -0.299 NA
ENDROOT
BRANCH   4   9
HETATM    9  C10 UNL     1     -35.198  14.491  -6.288  1.00 20.00     0.002 C 
HETATM   10  C8  UNL     1     -36.625  14.774  -6.755  1.00 20.00     0.011 C 
HETATM   11  C9  UNL     1     -34.512  13.505  -7.232  1.00 20.00     0.011 C 
ENDBRANCH   4   9
TORSDOF 1
ENDMDL
MODEL 9
REMARK VINA RESULT:      -3.8      1.279      4.258
REMARK  1 active torsions:
REMARK  status: ('A' for Active; 'I' for Inactive)
REMARK    1  A    between atoms: C4_4  and  C10_10 
ROOT
HETATM    1  C1  UNL     1     -33.900   7.162   4.521  1.00 20.00     0.092 C 
HETATM    2  C2  UNL     1     -32.330   6.027   2.527  1.00 20.00     0.029 C 
HETATM    3  C3  UNL     1     -33.811   5.692   2.473  1.00 20.00     0.016 C 
HETATM    4  C4  UNL     1     -32.111   7.474   2.962  1.00 20.00     0.110 C 
HETATM    5  C5  UNL     1     -34.475   5.937   3.834  1.00 20.00    -0.014 C 
HETATM    6  C6  UNL     1     -35.983   6.149   3.648  1.00 20.00     0.020 C 
HETATM    7  C7  UNL     1     -34.247   4.745   4.777  1.00 20.00     0.020 C 
HETATM    8  N11 UNL     1     -32.858   7.830   4.170  1.00 20.00    -0.299 NA
ENDROOT
BRANCH   4   9
HETATM    9  C10 UNL     1     -32.459   8.482   1.869  1.00 20.00     0.002 C 
HETATM   10  C8  UNL     1     -32.456   9.904   2.428  1.00 20.00     0.011 C 
HETATM   11  C9  UNL     1     -31.485   8.366   0.698  1.00 20.00     0.011 C 
ENDBRANCH   4   9
TORSDOF 1
ENDMDL
