MODEL 1
REMARK VINA RESULT:      -4.4      0.000      0.000
REMARK  0 active torsions:
REMARK  status: ('A' for Active; 'I' for Inactive)
ROOT
HETATM    1  C1  UNL     1     -32.645   7.090   3.409  1.00 20.00     0.131 C 
HETATM    2  C2  UNL     1     -33.645   4.614   3.855  1.00 20.00     0.059 C 
HETATM    3  C3  UNL     1     -33.113   4.926   2.470  1.00 20.00     0.179 C 
HETATM    4  C4  UNL     1     -34.377   5.831   4.427  1.00 20.00     0.051 C 
HETATM    5  C5  UNL     1     -31.757   8.284   3.258  1.00 20.00     0.099 C 
HETATM    6  C6  UNL     1     -35.693   6.121   3.692  1.00 20.00     0.040 C 
HETATM    7  C7  UNL     1     -34.678   5.594   5.913  1.00 20.00     0.040 C 
HETATM    8  N8  UNL     1     -33.530   7.025   4.339  1.00 20.00    -0.261 NA
HETATM    9  O9  UNL     1     -32.364   6.151   2.469  1.00 20.00    -0.338 OA
ENDROOT
TORSDOF 0
ENDMDL
MODEL 2
REMARK VINA RESULT:      -3.9      1.782      2.761
REMARK  0 active torsions:
REMARK  status: ('A' for Active; 'I' for Inactive)
ROOT
HETATM    1  C1  UNL     1     -32.641   8.392   1.815  1.00 20.00     0.131 C 
HETATM    2  C2  UNL     1     -32.965   7.434   4.326  1.00 20.00     0.059 C 
HETATM    3  C3  UNL     1     -31.619   8.028   3.962  1.00 20.00     0.179 C 
HETATM    4  C4  UNL     1     -33.532   6.642   3.144  1.00 20.00     0.051 C 
HETATM    5  C5  UNL     1     -32.569   9.256   0.596  1.00 20.00     0.099 C 
HETATM    6  C6  UNL     1     -32.737   5.359   2.864  1.00 20.00     0.040 C 
HETATM    7  C7  UNL     1     -34.993   6.271   3.431  1.00 20.00     0.040 C 
HETATM    8  N8  UNL     1     -33.521   7.461   1.928  1.00 20.00    -0.261 NA
HETATM    9  O9  UNL     1     -31.691   8.745   2.720  1.00 20.00    -0.338 OA
ENDROOT
TORSDOF 0
ENDMDL
MODEL 3
REMARK VINA RESULT:      -3.7      1.425      2.314
REMARK  0 active torsions:
REMARK  status: ('A' for Active; 'I' for Inactive)
ROOT
HETATM    1  C1  UNL     1     -32.687   7.529   3.227  1.00 20.00     0.131 C 
HETATM    2  C2  UNL     1     -34.404   6.983   5.247  1.00 20.00     0.059 C 
HETATM    3  C3  UNL     1     -32.989   7.388   5.609  1.00 20.00     0.179 C 
HETATM    4  C4  UNL     1     -34.397   6.084   4.008  1.00 20.00     0.051 C 
HETATM    5  C5  UNL     1     -31.862   8.195   2.172  1.00 20.00     0.099 C 
HETATM    6  C6  UNL     1     -33.785   4.705   4.288  1.00 20.00     0.040 C 
HETATM    7  C7  UNL     1     -35.834   5.899   3.503  1.00 20.00     0.040 C 
HETATM    8  N8  UNL     1     -33.633   6.713   2.925  1.00 20.00    -0.261 NA
HETATM    9  O9  UNL     1     -32.297   7.919   4.469  1.00 20.00    -0.338 OA
ENDROOT
TORSDOF 0
ENDMDL
MODEL 4
REMARK VINA RESULT:      -3.6      1.601      1.969
REMARK  0 active torsions:
REMARK  status: ('A' for Active; 'I' for Inactive)
ROOT
HETATM    1  C1  UNL     1     -33.359   7.310   5.160  1.00 20.00     0.131 C 
HETATM    2  C2  UNL     1     -33.177   5.681   3.005  1.00 20.00     0.059 C 
HETATM    3  C3  UNL     1     -32.918   7.161   2.800  1.00 20.00     0.179 C 
HETATM    4  C4  UNL     1     -34.321   5.477   4.003  1.00 20.00     0.051 C 
HETATM    5  C5  UNL     1     -33.077   8.141   6.371  1.00 20.00     0.099 C 
HETATM    6  C6  UNL     1     -35.678   5.912   3.434  1.00 20.00     0.040 C 
HETATM    7  C7  UNL     1     -34.395   3.995   4.397  1.00 20.00     0.040 C 
HETATM    8  N8  UNL     1     -34.071   6.241   5.229  1.00 20.00    -0.261 NA
HETATM    9  O9  UNL     1     -32.765   7.836   4.058  1.00 20.00    -0.338 OA
ENDROOT
TORSDOF 0
ENDMDL
MODEL 5
REMARK VINA RESULT:      -3.5     12.029     12.614
REMARK  0 active torsions:
REMARK  status: ('A' for Active; 'I' for Inactive)
ROOT
HETATM    1  C1  UNL     1     -34.743  16.035  -3.294  1.00 20.00     0.131 C 
HETATM    2  C2  UNL     1     -33.863  14.510  -5.350  1.00 20.00     0.059 C 
HETATM    3  C3  UNL     1     -33.076  15.759  -5.006  1.00 20.00     0.179 C 
HETATM    4  C4  UNL     1     -35.365  14.774  -5.203  1.00 20.00     0.051 C 
HETATM    5  C5  UNL     1     -34.979  16.658  -1.955  1.00 20.00     0.099 C 
HETATM    6  C6  UNL     1     -35.899  15.734  -6.274  1.00 20.00     0.040 C 
HETATM    7  C7  UNL     1     -36.128  13.445  -5.298  1.00 20.00     0.040 C 
HETATM    8  N8  UNL     1     -35.655  15.349  -3.886  1.00 20.00    -0.261 NA
HETATM    9  O9  UNL     1     -33.485  16.292  -3.737  1.00 20.00    -0.338 OA
ENDROOT
TORSDOF 0
ENDMDL
MODEL 6
REMARK VINA RESULT:      -3.5     11.943     12.752
REMARK  0 active torsions:
REMARK  status: ('A' for Active; 'I' for Inactive)
ROOT
HETATM    1  C1  UNL     1     -35.265  14.386  -4.857  1.00 20.00     0.131 C 
HETATM    2  C2  UNL     1     -33.323  16.259  -4.631  1.00 20.00     0.059 C 
HETATM    3  C3  UNL     1     -32.933  14.806  -4.443  1.00 20.00     0.179 C 
HETATM    4  C4  UNL     1     -34.695  16.524  -4.004  1.00 20.00     0.051 C 
HETATM    5  C5  UNL     1     -36.214  13.342  -5.351  1.00 20.00     0.099 C 
HETATM    6  C6  UNL     1     -34.663  16.450  -2.471  1.00 20.00     0.040 C 
HETATM    7  C7  UNL     1     -35.188  17.915  -4.426  1.00 20.00     0.040 C 
HETATM    8  N8  UNL     1     -35.675  15.548  -4.490  1.00 20.00    -0.261 NA
HETATM    9  O9  UNL     1     -33.985  13.930  -4.874  1.00 20.00    -0.338 OA
ENDROOT
TORSDOF 0
ENDMDL
MODEL 7
REMARK VINA RESULT:      -3.5     11.621     12.691
REMARK  0 active torsions:
REMARK  status: ('A' for Active; 'I' for Inactive)
ROOT
HETATM    1  C1  UNL     1     -34.601  16.720  -2.312  1.00 20.00     0.131 C 
HETATM    2  C2  UNL     1     -35.548  16.178  -4.789  1.00 20.00     0.059 C 
HETATM    3  C3  UNL     1     -36.524  16.132  -3.631  1.00 20.00     0.179 C 
HETATM    4  C4  UNL     1     -34.194  15.603  -4.364  1.00 20.00     0.051 C 
HETATM    5  C5  UNL     1     -34.194  17.380  -1.033  1.00 20.00     0.099 C 
HETATM    6  C6  UNL     1     -34.251  14.089  -4.119  1.00 20.00     0.040 C 
HETATM    7  C7  UNL     1     -33.152  15.895  -5.452  1.00 20.00     0.040 C 
HETATM    8  N8  UNL     1     -33.729  16.249  -3.132  1.00 20.00    -0.261 NA
HETATM    9  O9  UNL     1     -35.952  16.716  -2.451  1.00 20.00    -0.338 OA
ENDROOT
TORSDOF 0
ENDMDL
MODEL 8
REMARK VINA RESULT:      -3.5     12.215     13.071
REMARK  0 active torsions:
REMARK  status: ('A' for Active; 'I' for Inactive)
ROOT
HETATM    1  C1  UNL     1     -34.180  16.043  -6.305  1.00 20.00     0.131 C 
HETATM    2  C2  UNL     1     -34.420  15.178  -3.751  1.00 20.00     0.059 C 
HETATM    3  C3  UNL     1     -33.117  14.901  -4.475  1.00 20.00     0.179 C 
HETATM    4  C4  UNL     1     -35.603  15.017  -4.710  1.00 20.00     0.051 C 
HETATM    5  C5  UNL     1     -33.889  16.832  -7.542  1.00 20.00     0.099 C 
HETATM    6  C6  UNL     1     -35.828  13.555  -5.121  1.00 20.00     0.040 C 
HETATM    7  C7  UNL     1     -36.878  15.550  -4.042  1.00 20.00     0.040 C 
HETATM    8  N8  UNL     1     -35.386  15.806  -5.927  1.00 20.00    -0.261 NA
HETATM    9  O9  UNL     1     -33.031  15.659  -5.691  1.00 20.00    -0.338 OA
ENDROOT
TORSDOF 0
ENDMDL
MODEL 9
REMARK VINA RESULT:      -3.5     11.942     13.343
REMARK  0 active torsions:
REMARK  status: ('A' for Active; 'I' for Inactive)
ROOT
HETATM    1  C1  UNL     1     -34.245  14.675  -6.505  1.00 20.00     0.131 C 
HETATM    2  C2  UNL     1     -33.853  15.461  -3.944  1.00 20.00     0.059 C 
HETATM    3  C3  UNL     1     -34.482  14.102  -4.180  1.00 20.00     0.179 C 
HETATM    4  C4  UNL     1     -34.379  16.474  -4.965  1.00 20.00     0.051 C 
HETATM    5  C5  UNL     1     -34.112  14.075  -7.868  1.00 20.00     0.099 C 
HETATM    6  C6  UNL     1     -35.858  16.818  -4.739  1.00 20.00     0.040 C 
HETATM    7  C7  UNL     1     -33.549  17.761  -4.882  1.00 20.00     0.040 C 
HETATM    8  N8  UNL     1     -34.234  15.949  -6.326  1.00 20.00    -0.261 NA
HETATM    9  O9  UNL     1     -34.358  13.709  -5.556  1.00 20.00    -0.338 OA
ENDROOT
TORSDOF 0
ENDMDL
