MODEL 1
REMARK VINA RESULT:      -5.8      0.000      0.000
REMARK  0 active torsions:
REMARK  status: ('A' for Active; 'I' for Inactive)
ROOT
HETATM    1  C1  UNL     1     -32.152   8.372   4.561  1.00 20.00     0.011 A 
HETATM    2  C2  UNL     1     -31.637   8.748   3.320  1.00 20.00     0.024 A 
HETATM    3  C3  UNL     1     -33.028   7.097   2.238  1.00 20.00     0.031 A 
HETATM    4  C4  UNL     1     -33.115   7.360   4.648  1.00 20.00    -0.028 A 
HETATM    5  C5  UNL     1     -33.541   6.705   3.481  1.00 20.00    -0.046 A 
HETATM    6  C6  UNL     1     -32.076   8.113   2.160  1.00 20.00     0.034 A 
HETATM    7  C7  UNL     1     -34.596   5.633   3.566  1.00 20.00     0.065 C 
HETATM    8  C8  UNL     1     -33.646   6.936   5.994  1.00 20.00     0.206 C 
HETATM    9  C9  UNL     1     -34.693   5.073   4.980  1.00 20.00     0.172 C 
HETATM   10  O10 UNL     1     -34.842   6.153   5.903  1.00 20.00    -0.386 OA
HETATM   11 CL11 UNL     1     -31.444   8.584   0.630  1.00 20.00    -0.084 Cl
ENDROOT
TORSDOF 0
ENDMDL
MODEL 2
REMARK VINA RESULT:      -5.2      1.071      2.216
REMARK  0 active torsions:
REMARK  status: ('A' for Active; 'I' for Inactive)
ROOT
HETATM    1  C1  UNL     1     -33.545   5.666   2.331  1.00 20.00     0.011 A 
HETATM    2  C2  UNL     1     -32.958   6.745   1.672  1.00 20.00     0.024 A 
HETATM    3  C3  UNL     1     -32.981   8.017   3.724  1.00 20.00     0.031 A 
HETATM    4  C4  UNL     1     -33.847   5.751   3.695  1.00 20.00    -0.028 A 
HETATM    5  C5  UNL     1     -33.581   6.942   4.391  1.00 20.00    -0.046 A 
HETATM    6  C6  UNL     1     -32.674   7.919   2.367  1.00 20.00     0.034 A 
HETATM    7  C7  UNL     1     -33.880   7.031   5.865  1.00 20.00     0.065 C 
HETATM    8  C8  UNL     1     -34.509   4.594   4.397  1.00 20.00     0.206 C 
HETATM    9  C9  UNL     1     -34.891   5.970   6.282  1.00 20.00     0.172 C 
HETATM   10  O10 UNL     1     -34.445   4.692   5.824  1.00 20.00    -0.386 OA
HETATM   11 CL11 UNL     1     -31.943   9.247   1.552  1.00 20.00    -0.084 Cl
ENDROOT
TORSDOF 0
ENDMDL
MODEL 3
REMARK VINA RESULT:      -4.7     11.392     11.727
REMARK  0 active torsions:
REMARK  status: ('A' for Active; 'I' for Inactive)
ROOT
HETATM    1  C1  UNL     1     -32.970  17.705  -1.882  1.00 20.00     0.011 A 
HETATM    2  C2  UNL     1     -33.540  16.920  -2.884  1.00 20.00     0.024 A 
HETATM    3  C3  UNL     1     -35.530  16.647  -1.544  1.00 20.00     0.031 A 
HETATM    4  C4  UNL     1     -33.680  17.973  -0.706  1.00 20.00    -0.028 A 
HETATM    5  C5  UNL     1     -34.961  17.425  -0.528  1.00 20.00    -0.046 A 
HETATM    6  C6  UNL     1     -34.819  16.393  -2.717  1.00 20.00     0.034 A 
HETATM    7  C7  UNL     1     -35.740  17.730   0.724  1.00 20.00     0.065 C 
HETATM    8  C8  UNL     1     -33.050  18.797   0.388  1.00 20.00     0.206 C 
HETATM    9  C9  UNL     1     -34.817  18.200   1.841  1.00 20.00     0.172 C 
HETATM   10  O10 UNL     1     -33.996  19.263   1.356  1.00 20.00    -0.386 OA
HETATM   11 CL11 UNL     1     -35.522  15.430  -3.958  1.00 20.00    -0.084 Cl
ENDROOT
TORSDOF 0
ENDMDL
MODEL 4
REMARK VINA RESULT:      -4.6     11.387     11.921
REMARK  0 active torsions:
REMARK  status: ('A' for Active; 'I' for Inactive)
ROOT
HETATM    1  C1  UNL     1     -34.155  14.481  -4.479  1.00 20.00     0.011 A 
HETATM    2  C2  UNL     1     -33.420  15.379  -3.706  1.00 20.00     0.024 A 
HETATM    3  C3  UNL     1     -35.457  16.515  -3.080  1.00 20.00     0.031 A 
HETATM    4  C4  UNL     1     -35.548  14.588  -4.551  1.00 20.00    -0.028 A 
HETATM    5  C5  UNL     1     -36.202  15.624  -3.862  1.00 20.00    -0.046 A 
HETATM    6  C6  UNL     1     -34.069  16.393  -3.005  1.00 20.00     0.034 A 
HETATM    7  C7  UNL     1     -37.703  15.729  -3.916  1.00 20.00     0.065 C 
HETATM    8  C8  UNL     1     -36.337  13.634  -5.412  1.00 20.00     0.206 C 
HETATM    9  C9  UNL     1     -38.261  14.978  -5.119  1.00 20.00     0.172 C 
HETATM   10  O10 UNL     1     -37.740  13.648  -5.125  1.00 20.00    -0.386 OA
HETATM   11 CL11 UNL     1     -33.160  17.496  -2.047  1.00 20.00    -0.084 Cl
ENDROOT
TORSDOF 0
ENDMDL
MODEL 5
REMARK VINA RESULT:      -4.5     11.715     12.169
REMARK  0 active torsions:
REMARK  status: ('A' for Active; 'I' for Inactive)
ROOT
HETATM    1  C1  UNL     1     -35.569  17.057  -1.093  1.00 20.00     0.011 A 
HETATM    2  C2  UNL     1     -34.678  17.707  -0.239  1.00 20.00     0.024 A 
HETATM    3  C3  UNL     1     -32.994  17.679  -1.970  1.00 20.00     0.031 A 
HETATM    4  C4  UNL     1     -35.181  16.720  -2.395  1.00 20.00    -0.028 A 
HETATM    5  C5  UNL     1     -33.879  17.016  -2.830  1.00 20.00    -0.046 A 
HETATM    6  C6  UNL     1     -33.392  18.020  -0.678  1.00 20.00     0.034 A 
HETATM    7  C7  UNL     1     -33.464  16.679  -4.238  1.00 20.00     0.065 C 
HETATM    8  C8  UNL     1     -36.137  15.991  -3.304  1.00 20.00     0.206 C 
HETATM    9  C9  UNL     1     -34.375  15.614  -4.835  1.00 20.00     0.172 C 
HETATM   10  O10 UNL     1     -35.735  16.018  -4.678  1.00 20.00    -0.386 OA
HETATM   11 CL11 UNL     1     -32.297  18.828   0.375  1.00 20.00    -0.084 Cl
ENDROOT
TORSDOF 0
ENDMDL
MODEL 6
REMARK VINA RESULT:      -4.4     11.685     11.968
REMARK  0 active torsions:
REMARK  status: ('A' for Active; 'I' for Inactive)
ROOT
HETATM    1  C1  UNL     1     -33.543  16.625  -2.651  1.00 20.00     0.011 A 
HETATM    2  C2  UNL     1     -34.416  17.395  -1.882  1.00 20.00     0.024 A 
HETATM    3  C3  UNL     1     -36.301  16.373  -2.993  1.00 20.00     0.031 A 
HETATM    4  C4  UNL     1     -34.043  15.718  -3.592  1.00 20.00    -0.028 A 
HETATM    5  C5  UNL     1     -35.431  15.605  -3.777  1.00 20.00    -0.046 A 
HETATM    6  C6  UNL     1     -35.793  17.267  -2.050  1.00 20.00     0.034 A 
HETATM    7  C7  UNL     1     -35.976  14.613  -4.770  1.00 20.00     0.065 C 
HETATM    8  C8  UNL     1     -33.096  14.911  -4.443  1.00 20.00     0.206 C 
HETATM    9  C9  UNL     1     -34.913  14.218  -5.788  1.00 20.00     0.172 C 
HETATM   10  O10 UNL     1     -33.732  13.808  -5.098  1.00 20.00    -0.386 OA
HETATM   11 CL11 UNL     1     -36.868  18.212  -1.095  1.00 20.00    -0.084 Cl
ENDROOT
TORSDOF 0
ENDMDL
MODEL 7
REMARK VINA RESULT:      -4.4     11.667     12.200
REMARK  0 active torsions:
REMARK  status: ('A' for Active; 'I' for Inactive)
ROOT
HETATM    1  C1  UNL     1     -32.994  17.817  -1.931  1.00 20.00     0.011 A 
HETATM    2  C2  UNL     1     -33.386  18.103  -0.623  1.00 20.00     0.024 A 
HETATM    3  C3  UNL     1     -35.513  17.033  -1.023  1.00 20.00     0.031 A 
HETATM    4  C4  UNL     1     -33.856  17.129  -2.792  1.00 20.00    -0.028 A 
HETATM    5  C5  UNL     1     -35.132  16.751  -2.341  1.00 20.00    -0.046 A 
HETATM    6  C6  UNL     1     -34.643  17.710  -0.169  1.00 20.00     0.034 A 
HETATM    7  C7  UNL     1     -36.055  15.988  -3.254  1.00 20.00     0.065 C 
HETATM    8  C8  UNL     1     -33.441  16.848  -4.214  1.00 20.00     0.206 C 
HETATM    9  C9  UNL     1     -35.650  16.166  -4.712  1.00 20.00     0.172 C 
HETATM   10  O10 UNL     1     -34.261  15.864  -4.854  1.00 20.00    -0.386 OA
HETATM   11 CL11 UNL     1     -35.122  18.059   1.447  1.00 20.00    -0.084 Cl
ENDROOT
TORSDOF 0
ENDMDL
MODEL 8
REMARK VINA RESULT:      -4.4     11.682     12.070
REMARK  0 active torsions:
REMARK  status: ('A' for Active; 'I' for Inactive)
ROOT
HETATM    1  C1  UNL     1     -33.358  15.698  -4.289  1.00 20.00     0.011 A 
HETATM    2  C2  UNL     1     -33.636  16.403  -3.118  1.00 20.00     0.024 A 
HETATM    3  C3  UNL     1     -35.938  15.683  -3.227  1.00 20.00     0.031 A 
HETATM    4  C4  UNL     1     -34.367  14.973  -4.933  1.00 20.00    -0.028 A 
HETATM    5  C5  UNL     1     -35.670  14.981  -4.409  1.00 20.00    -0.046 A 
HETATM    6  C6  UNL     1     -34.924  16.394  -2.586  1.00 20.00     0.034 A 
HETATM    7  C7  UNL     1     -36.754  14.183  -5.083  1.00 20.00     0.065 C 
HETATM    8  C8  UNL     1     -34.069  14.238  -6.214  1.00 20.00     0.206 C 
HETATM    9  C9  UNL     1     -36.384  13.871  -6.528  1.00 20.00     0.172 C 
HETATM   10  O10 UNL     1     -35.081  13.287  -6.563  1.00 20.00    -0.386 OA
HETATM   11 CL11 UNL     1     -35.263  17.260  -1.138  1.00 20.00    -0.084 Cl
ENDROOT
TORSDOF 0
ENDMDL
MODEL 9
REMARK VINA RESULT:      -4.3     11.642     12.165
REMARK  0 active torsions:
REMARK  status: ('A' for Active; 'I' for Inactive)
ROOT
HETATM    1  C1  UNL     1     -32.424  18.799   0.044  1.00 20.00     0.011 A 
HETATM    2  C2  UNL     1     -32.732  19.003   1.389  1.00 20.00     0.024 A 
HETATM    3  C3  UNL     1     -34.876  17.942   1.063  1.00 20.00     0.031 A 
HETATM    4  C4  UNL     1     -33.337  18.157  -0.800  1.00 20.00    -0.028 A 
HETATM    5  C5  UNL     1     -34.579  17.743  -0.291  1.00 20.00    -0.046 A 
HETATM    6  C6  UNL     1     -33.956  18.573   1.899  1.00 20.00     0.034 A 
HETATM    7  C7  UNL     1     -35.556  17.029  -1.189  1.00 20.00     0.065 C 
HETATM    8  C8  UNL     1     -33.012  17.965  -2.259  1.00 20.00     0.206 C 
HETATM    9  C9  UNL     1     -35.246  17.297  -2.656  1.00 20.00     0.172 C 
HETATM   10  O10 UNL     1     -33.868  17.015  -2.904  1.00 20.00    -0.386 OA
HETATM   11 CL11 UNL     1     -34.331  18.820   3.560  1.00 20.00    -0.084 Cl
ENDROOT
TORSDOF 0
ENDMDL
