MODEL 1
REMARK VINA RESULT:      -4.5      0.000      0.000
REMARK  1 active torsions:
REMARK  status: ('A' for Active; 'I' for Inactive)
REMARK    1  A    between atoms: C4_4  and  C10_10 
ROOT
HETATM    1  C1  UNL     1     -35.091   6.260   2.425  1.00 20.00     0.174 C 
HETATM    2  C2  UNL     1     -35.084   6.244   3.914  1.00 20.00     0.025 A 
HETATM    3  C3  UNL     1     -33.686   6.490   4.337  1.00 20.00     0.030 A 
HETATM    4  C4  UNL     1     -32.876   6.641   3.087  1.00 20.00     0.130 C 
HETATM    5  C5  UNL     1     -34.370   5.197   4.748  1.00 20.00    -0.035 A 
HETATM    6  C6  UNL     1     -34.787   5.074   6.193  1.00 20.00     0.016 C 
HETATM    7  C7  UNL     1     -33.955   3.885   4.135  1.00 20.00     0.016 C 
HETATM    8  O11 UNL     1     -33.721   6.240   1.988  1.00 20.00    -0.385 OA
ENDROOT
BRANCH   4   9
HETATM    9  C10 UNL     1     -32.433   8.078   2.853  1.00 20.00     0.007 C 
HETATM   10  C8  UNL     1     -31.282   8.449   3.788  1.00 20.00     0.012 C 
HETATM   11  C9  UNL     1     -32.024   8.288   1.395  1.00 20.00     0.012 C 
ENDBRANCH   4   9
TORSDOF 1
ENDMDL
MODEL 2
REMARK VINA RESULT:      -4.5     11.502     12.442
REMARK  1 active torsions:
REMARK  status: ('A' for Active; 'I' for Inactive)
REMARK    1  A    between atoms: C4_4  and  C10_10 
ROOT
HETATM    1  C1  UNL     1     -35.533  17.904  -3.666  1.00 20.00     0.174 C 
HETATM    2  C2  UNL     1     -34.184  18.013  -3.045  1.00 20.00     0.025 A 
HETATM    3  C3  UNL     1     -33.723  16.630  -2.781  1.00 20.00     0.030 A 
HETATM    4  C4  UNL     1     -34.813  15.715  -3.244  1.00 20.00     0.130 C 
HETATM    5  C5  UNL     1     -33.871  17.598  -1.620  1.00 20.00    -0.035 A 
HETATM    6  C6  UNL     1     -32.598  18.140  -1.015  1.00 20.00     0.016 C 
HETATM    7  C7  UNL     1     -34.978  17.421  -0.615  1.00 20.00     0.016 C 
HETATM    8  O11 UNL     1     -35.964  16.539  -3.524  1.00 20.00    -0.385 OA
ENDROOT
BRANCH   4   9
HETATM    9  C10 UNL     1     -34.440  14.965  -4.515  1.00 20.00     0.007 C 
HETATM   10  C8  UNL     1     -32.997  14.463  -4.444  1.00 20.00     0.012 C 
HETATM   11  C9  UNL     1     -35.399  13.800  -4.758  1.00 20.00     0.012 C 
ENDBRANCH   4   9
TORSDOF 1
ENDMDL
MODEL 3
REMARK VINA RESULT:      -4.4      1.141      3.974
REMARK  1 active torsions:
REMARK  status: ('A' for Active; 'I' for Inactive)
REMARK    1  A    between atoms: C4_4  and  C10_10 
ROOT
HETATM    1  C1  UNL     1     -33.059   5.321   2.480  1.00 20.00     0.174 C 
HETATM    2  C2  UNL     1     -32.242   6.487   2.915  1.00 20.00     0.025 A 
HETATM    3  C3  UNL     1     -33.131   7.353   3.724  1.00 20.00     0.030 A 
HETATM    4  C4  UNL     1     -34.473   6.690   3.751  1.00 20.00     0.130 C 
HETATM    5  C5  UNL     1     -32.493   7.914   2.464  1.00 20.00    -0.035 A 
HETATM    6  C6  UNL     1     -31.364   8.898   2.650  1.00 20.00     0.016 C 
HETATM    7  C7  UNL     1     -33.330   8.193   1.244  1.00 20.00     0.016 C 
HETATM    8  O11 UNL     1     -34.433   5.620   2.784  1.00 20.00    -0.385 OA
ENDROOT
BRANCH   4   9
HETATM    9  C10 UNL     1     -34.797   6.094   5.114  1.00 20.00     0.007 C 
HETATM   10  C8  UNL     1     -34.545   4.586   5.119  1.00 20.00     0.012 C 
HETATM   11  C9  UNL     1     -33.981   6.776   6.212  1.00 20.00     0.012 C 
ENDBRANCH   4   9
TORSDOF 1
ENDMDL
MODEL 4
REMARK VINA RESULT:      -4.4     11.561     12.502
REMARK  1 active torsions:
REMARK  status: ('A' for Active; 'I' for Inactive)
REMARK    1  A    between atoms: C4_4  and  C10_10 
ROOT
HETATM    1  C1  UNL     1     -34.205  17.815  -4.582  1.00 20.00     0.174 C 
HETATM    2  C2  UNL     1     -34.964  16.550  -4.375  1.00 20.00     0.025 A 
HETATM    3  C3  UNL     1     -34.621  16.062  -3.019  1.00 20.00     0.030 A 
HETATM    4  C4  UNL     1     -33.652  17.045  -2.439  1.00 20.00     0.130 C 
HETATM    5  C5  UNL     1     -34.316  15.187  -4.223  1.00 20.00    -0.035 A 
HETATM    6  C6  UNL     1     -35.200  13.982  -4.434  1.00 20.00     0.016 C 
HETATM    7  C7  UNL     1     -32.893  14.965  -4.664  1.00 20.00     0.016 C 
HETATM    8  O11 UNL     1     -33.251  17.923  -3.511  1.00 20.00    -0.385 OA
ENDROOT
BRANCH   4   9
HETATM    9  C10 UNL     1     -34.273  17.888  -1.335  1.00 20.00     0.007 C 
HETATM   10  C8  UNL     1     -35.415  17.134  -0.654  1.00 20.00     0.012 C 
HETATM   11  C9  UNL     1     -33.218  18.298  -0.307  1.00 20.00     0.012 C 
ENDBRANCH   4   9
TORSDOF 1
ENDMDL
MODEL 5
REMARK VINA RESULT:      -4.4      1.412      4.606
REMARK  1 active torsions:
REMARK  status: ('A' for Active; 'I' for Inactive)
REMARK    1  A    between atoms: C4_4  and  C10_10 
ROOT
HETATM    1  C1  UNL     1     -31.328   8.355   3.584  1.00 20.00     0.174 C 
HETATM    2  C2  UNL     1     -32.143   9.249   2.716  1.00 20.00     0.025 A 
HETATM    3  C3  UNL     1     -33.269   8.435   2.202  1.00 20.00     0.030 A 
HETATM    4  C4  UNL     1     -33.102   7.060   2.769  1.00 20.00     0.130 C 
HETATM    5  C5  UNL     1     -32.298   9.065   1.218  1.00 20.00    -0.035 A 
HETATM    6  C6  UNL     1     -32.796  10.254   0.432  1.00 20.00     0.016 C 
HETATM    7  C7  UNL     1     -31.327   8.209   0.449  1.00 20.00     0.016 C 
HETATM    8  O11 UNL     1     -31.793   7.010   3.374  1.00 20.00    -0.385 OA
ENDROOT
BRANCH   4   9
HETATM    9  C10 UNL     1     -34.138   6.744   3.839  1.00 20.00     0.007 C 
HETATM   10  C8  UNL     1     -34.453   5.248   3.862  1.00 20.00     0.012 C 
HETATM   11  C9  UNL     1     -33.657   7.210   5.213  1.00 20.00     0.012 C 
ENDBRANCH   4   9
TORSDOF 1
ENDMDL
MODEL 6
REMARK VINA RESULT:      -4.3      1.837      3.332
REMARK  1 active torsions:
REMARK  status: ('A' for Active; 'I' for Inactive)
REMARK    1  A    between atoms: C4_4  and  C10_10 
ROOT
HETATM    1  C1  UNL     1     -31.263   8.181   3.546  1.00 20.00     0.174 C 
HETATM    2  C2  UNL     1     -31.818   6.937   2.944  1.00 20.00     0.025 A 
HETATM    3  C3  UNL     1     -32.854   7.357   1.972  1.00 20.00     0.030 A 
HETATM    4  C4  UNL     1     -32.907   8.852   2.017  1.00 20.00     0.130 C 
HETATM    5  C5  UNL     1     -33.246   6.465   3.137  1.00 20.00    -0.035 A 
HETATM    6  C6  UNL     1     -33.536   5.017   2.822  1.00 20.00     0.016 C 
HETATM    7  C7  UNL     1     -34.083   7.006   4.266  1.00 20.00     0.016 C 
HETATM    8  O11 UNL     1     -32.120   9.268   3.153  1.00 20.00    -0.385 OA
ENDROOT
BRANCH   4   9
HETATM    9  C10 UNL     1     -32.319   9.491   0.766  1.00 20.00     0.007 C 
HETATM   10  C8  UNL     1     -33.174   9.169  -0.459  1.00 20.00     0.012 C 
HETATM   11  C9  UNL     1     -32.186  11.004   0.942  1.00 20.00     0.012 C 
ENDBRANCH   4   9
TORSDOF 1
ENDMDL
MODEL 7
REMARK VINA RESULT:      -4.3     11.440     12.593
REMARK  1 active torsions:
REMARK  status: ('A' for Active; 'I' for Inactive)
REMARK    1  A    between atoms: C4_4  and  C10_10 
ROOT
HETATM    1  C1  UNL     1     -33.128  18.336  -2.605  1.00 20.00     0.174 C 
HETATM    2  C2  UNL     1     -33.758  17.689  -1.421  1.00 20.00     0.025 A 
HETATM    3  C3  UNL     1     -34.630  16.608  -1.939  1.00 20.00     0.030 A 
HETATM    4  C4  UNL     1     -34.510  16.634  -3.431  1.00 20.00     0.130 C 
HETATM    5  C5  UNL     1     -35.245  17.732  -1.123  1.00 20.00    -0.035 A 
HETATM    6  C6  UNL     1     -35.669  17.399   0.287  1.00 20.00     0.016 C 
HETATM    7  C7  UNL     1     -36.127  18.760  -1.782  1.00 20.00     0.016 C 
HETATM    8  O11 UNL     1     -33.804  17.844  -3.775  1.00 20.00    -0.385 OA
ENDROOT
BRANCH   4   9
HETATM    9  C10 UNL     1     -33.721  15.449  -3.970  1.00 20.00     0.007 C 
HETATM   10  C8  UNL     1     -34.620  14.220  -4.112  1.00 20.00     0.012 C 
HETATM   11  C9  UNL     1     -33.074  15.793  -5.311  1.00 20.00     0.012 C 
ENDBRANCH   4   9
TORSDOF 1
ENDMDL
MODEL 8
REMARK VINA RESULT:      -4.2     11.553     12.375
REMARK  1 active torsions:
REMARK  status: ('A' for Active; 'I' for Inactive)
REMARK    1  A    between atoms: C4_4  and  C10_10 
ROOT
HETATM    1  C1  UNL     1     -34.490  16.501  -5.339  1.00 20.00     0.174 C 
HETATM    2  C2  UNL     1     -35.934  16.201  -5.134  1.00 20.00     0.025 A 
HETATM    3  C3  UNL     1     -36.105  15.886  -3.697  1.00 20.00     0.030 A 
HETATM    4  C4  UNL     1     -34.752  15.997  -3.066  1.00 20.00     0.130 C 
HETATM    5  C5  UNL     1     -36.468  14.838  -4.735  1.00 20.00    -0.035 A 
HETATM    6  C6  UNL     1     -37.938  14.586  -4.967  1.00 20.00     0.016 C 
HETATM    7  C7  UNL     1     -35.619  13.605  -4.905  1.00 20.00     0.016 C 
HETATM    8  O11 UNL     1     -33.795  16.115  -4.140  1.00 20.00    -0.385 OA
ENDROOT
BRANCH   4   9
HETATM    9  C10 UNL     1     -34.627  17.224  -2.174  1.00 20.00     0.007 C 
HETATM   10  C8  UNL     1     -35.438  17.046  -0.891  1.00 20.00     0.012 C 
HETATM   11  C9  UNL     1     -33.161  17.507  -1.844  1.00 20.00     0.012 C 
ENDBRANCH   4   9
TORSDOF 1
ENDMDL
MODEL 9
REMARK VINA RESULT:      -4.1     11.709     12.534
REMARK  1 active torsions:
REMARK  status: ('A' for Active; 'I' for Inactive)
REMARK    1  A    between atoms: C4_4  and  C10_10 
ROOT
HETATM    1  C1  UNL     1     -35.626  17.411  -4.080  1.00 20.00     0.174 C 
HETATM    2  C2  UNL     1     -34.356  17.705  -3.361  1.00 20.00     0.025 A 
HETATM    3  C3  UNL     1     -33.735  16.399  -3.041  1.00 20.00     0.030 A 
HETATM    4  C4  UNL     1     -34.653  15.342  -3.570  1.00 20.00     0.130 C 
HETATM    5  C5  UNL     1     -34.100  17.344  -1.909  1.00 20.00    -0.035 A 
HETATM    6  C6  UNL     1     -32.963  18.056  -1.219  1.00 20.00     0.016 C 
HETATM    7  C7  UNL     1     -35.248  17.025  -0.988  1.00 20.00     0.016 C 
HETATM    8  O11 UNL     1     -35.879  16.001  -3.949  1.00 20.00    -0.385 OA
ENDROOT
BRANCH   4   9
HETATM    9  C10 UNL     1     -34.086  14.642  -4.798  1.00 20.00     0.007 C 
HETATM   10  C8  UNL     1     -35.191  14.347  -5.812  1.00 20.00     0.012 C 
HETATM   11  C9  UNL     1     -32.983  15.484  -5.440  1.00 20.00     0.012 C 
ENDBRANCH   4   9
TORSDOF 1
ENDMDL
