MODEL 1
REMARK VINA RESULT:      -4.6      0.000      0.000
REMARK  1 active torsions:
REMARK  status: ('A' for Active; 'I' for Inactive)
REMARK    1  A    between atoms: C2_2  and  C5_5 
ROOT
HETATM    1  C1  UNL     1     -32.536   6.151   2.361  1.00 20.00     0.016 C 
HETATM    2  C2  UNL     1     -32.743   7.217   3.150  1.00 20.00    -0.019 C 
HETATM    3  C3  UNL     1     -33.023   4.828   2.713  1.00 20.00    -0.066 C 
HETATM    4  C4  UNL     1     -32.949   3.803   1.851  1.00 20.00     0.019 C 
HETATM    5  C6  UNL     1     -33.511   7.169   4.442  1.00 20.00     0.050 C 
HETATM    6  C7  UNL     1     -33.619   4.666   4.095  1.00 20.00     0.047 C 
HETATM    7  C8  UNL     1     -34.412   5.912   4.565  1.00 20.00    -0.040 C 
HETATM    8  C9  UNL     1     -35.696   6.086   3.724  1.00 20.00     0.015 C 
HETATM    9  C10 UNL     1     -34.827   5.728   6.035  1.00 20.00     0.015 C 
ENDROOT
BRANCH   2  10
HETATM   10  C5  UNL     1     -32.207   8.505   2.706  1.00 20.00     0.265 C 
HETATM   11  O11 UNL     1     -31.754   8.678   1.581  1.00 20.00    -0.302 OA
ENDBRANCH   2  10
TORSDOF 1
ENDMDL
MODEL 2
REMARK VINA RESULT:      -4.5     12.005     12.694
REMARK  1 active torsions:
REMARK  status: ('A' for Active; 'I' for Inactive)
REMARK    1  A    between atoms: C2_2  and  C5_5 
ROOT
HETATM    1  C1  UNL     1     -33.232  17.238  -1.783  1.00 20.00     0.016 C 
HETATM    2  C2  UNL     1     -33.399  18.137  -0.801  1.00 20.00    -0.019 C 
HETATM    3  C3  UNL     1     -34.358  16.573  -2.417  1.00 20.00    -0.066 C 
HETATM    4  C4  UNL     1     -34.194  15.796  -3.498  1.00 20.00     0.019 C 
HETATM    5  C6  UNL     1     -34.740  18.570  -0.278  1.00 20.00     0.050 C 
HETATM    6  C7  UNL     1     -35.720  16.803  -1.800  1.00 20.00     0.047 C 
HETATM    7  C8  UNL     1     -35.904  18.241  -1.250  1.00 20.00    -0.040 C 
HETATM    8  C9  UNL     1     -35.944  19.263  -2.407  1.00 20.00     0.015 C 
HETATM    9  C10 UNL     1     -37.239  18.329  -0.490  1.00 20.00     0.015 C 
ENDROOT
BRANCH   2  10
HETATM   10  C5  UNL     1     -32.197  18.746  -0.226  1.00 20.00     0.265 C 
HETATM   11  O11 UNL     1     -31.078  18.275  -0.387  1.00 20.00    -0.302 OA
ENDBRANCH   2  10
TORSDOF 1
ENDMDL
MODEL 3
REMARK VINA RESULT:      -4.3     12.111     13.080
REMARK  1 active torsions:
REMARK  status: ('A' for Active; 'I' for Inactive)
REMARK    1  A    between atoms: C2_2  and  C5_5 
ROOT
HETATM    1  C1  UNL     1     -36.127  15.989  -3.055  1.00 20.00     0.016 C 
HETATM    2  C2  UNL     1     -36.410  15.476  -4.262  1.00 20.00    -0.019 C 
HETATM    3  C3  UNL     1     -34.775  16.363  -2.676  1.00 20.00    -0.066 C 
HETATM    4  C4  UNL     1     -34.524  17.016  -1.531  1.00 20.00     0.019 C 
HETATM    5  C6  UNL     1     -35.388  15.263  -5.344  1.00 20.00     0.050 C 
HETATM    6  C7  UNL     1     -33.668  15.981  -3.635  1.00 20.00     0.047 C 
HETATM    7  C8  UNL     1     -34.091  16.084  -5.122  1.00 20.00    -0.040 C 
HETATM    8  C9  UNL     1     -34.313  17.559  -5.522  1.00 20.00     0.015 C 
HETATM    9  C10 UNL     1     -32.972  15.513  -6.011  1.00 20.00     0.015 C 
ENDROOT
BRANCH   2  10
HETATM   10  C5  UNL     1     -37.805  15.128  -4.543  1.00 20.00     0.265 C 
HETATM   11  O11 UNL     1     -38.144  14.013  -4.918  1.00 20.00    -0.302 OA
ENDBRANCH   2  10
TORSDOF 1
ENDMDL
MODEL 4
REMARK VINA RESULT:      -4.3     11.829     13.609
REMARK  1 active torsions:
REMARK  status: ('A' for Active; 'I' for Inactive)
REMARK    1  A    between atoms: C2_2  and  C5_5 
ROOT
HETATM    1  C1  UNL     1     -34.900  15.238  -3.935  1.00 20.00     0.016 C 
HETATM    2  C2  UNL     1     -35.380  14.918  -5.147  1.00 20.00    -0.019 C 
HETATM    3  C3  UNL     1     -34.006  16.367  -3.736  1.00 20.00    -0.066 C 
HETATM    4  C4  UNL     1     -33.656  16.774  -2.506  1.00 20.00     0.019 C 
HETATM    5  C6  UNL     1     -35.078  15.691  -6.400  1.00 20.00     0.050 C 
HETATM    6  C7  UNL     1     -33.495  17.060  -4.980  1.00 20.00     0.047 C 
HETATM    7  C8  UNL     1     -34.546  17.121  -6.118  1.00 20.00    -0.040 C 
HETATM    8  C9  UNL     1     -35.709  18.061  -5.731  1.00 20.00     0.015 C 
HETATM    9  C10 UNL     1     -33.888  17.677  -7.392  1.00 20.00     0.015 C 
ENDROOT
BRANCH   2  10
HETATM   10  C5  UNL     1     -36.270  13.758  -5.240  1.00 20.00     0.265 C 
HETATM   11  O11 UNL     1     -35.855  12.606  -5.218  1.00 20.00    -0.302 OA
ENDBRANCH   2  10
TORSDOF 1
ENDMDL
MODEL 5
REMARK VINA RESULT:      -4.3     11.703     12.831
REMARK  1 active torsions:
REMARK  status: ('A' for Active; 'I' for Inactive)
REMARK    1  A    between atoms: C2_2  and  C5_5 
ROOT
HETATM    1  C1  UNL     1     -36.740  15.530  -4.469  1.00 20.00     0.016 C 
HETATM    2  C2  UNL     1     -35.537  14.938  -4.429  1.00 20.00    -0.019 C 
HETATM    3  C3  UNL     1     -37.060  16.678  -3.636  1.00 20.00    -0.066 C 
HETATM    4  C4  UNL     1     -38.206  17.358  -3.791  1.00 20.00     0.019 C 
HETATM    5  C6  UNL     1     -34.401  15.402  -3.562  1.00 20.00     0.050 C 
HETATM    6  C7  UNL     1     -36.038  17.067  -2.590  1.00 20.00     0.047 C 
HETATM    7  C8  UNL     1     -34.576  16.860  -3.062  1.00 20.00    -0.040 C 
HETATM    8  C9  UNL     1     -34.223  17.860  -4.186  1.00 20.00     0.015 C 
HETATM    9  C10 UNL     1     -33.619  17.111  -1.884  1.00 20.00     0.015 C 
ENDROOT
BRANCH   2  10
HETATM   10  C5  UNL     1     -35.319  13.785  -5.306  1.00 20.00     0.265 C 
HETATM   11  O11 UNL     1     -35.941  12.737  -5.184  1.00 20.00    -0.302 OA
ENDBRANCH   2  10
TORSDOF 1
ENDMDL
MODEL 6
REMARK VINA RESULT:      -4.2     11.531     12.699
REMARK  1 active torsions:
REMARK  status: ('A' for Active; 'I' for Inactive)
REMARK    1  A    between atoms: C2_2  and  C5_5 
ROOT
HETATM    1  C1  UNL     1     -35.464  14.790  -4.416  1.00 20.00     0.016 C 
HETATM    2  C2  UNL     1     -36.526  15.587  -4.222  1.00 20.00    -0.019 C 
HETATM    3  C3  UNL     1     -34.105  15.250  -4.185  1.00 20.00    -0.066 C 
HETATM    4  C4  UNL     1     -33.063  14.406  -4.231  1.00 20.00     0.019 C 
HETATM    5  C6  UNL     1     -36.433  17.003  -3.727  1.00 20.00     0.050 C 
HETATM    6  C7  UNL     1     -33.925  16.723  -3.890  1.00 20.00     0.047 C 
HETATM    7  C8  UNL     1     -35.077  17.318  -3.041  1.00 20.00    -0.040 C 
HETATM    8  C9  UNL     1     -35.051  16.739  -1.610  1.00 20.00     0.015 C 
HETATM    9  C10 UNL     1     -34.902  18.843  -2.941  1.00 20.00     0.015 C 
ENDROOT
BRANCH   2  10
HETATM   10  C5  UNL     1     -37.853  15.027  -4.488  1.00 20.00     0.265 C 
HETATM   11  O11 UNL     1     -38.016  13.890  -4.913  1.00 20.00    -0.302 OA
ENDBRANCH   2  10
TORSDOF 1
ENDMDL
MODEL 7
REMARK VINA RESULT:      -4.2     11.879     13.283
REMARK  1 active torsions:
REMARK  status: ('A' for Active; 'I' for Inactive)
REMARK    1  A    between atoms: C2_2  and  C5_5 
ROOT
HETATM    1  C1  UNL     1     -35.556  15.506  -6.569  1.00 20.00     0.016 C 
HETATM    2  C2  UNL     1     -36.038  14.991  -5.427  1.00 20.00    -0.019 C 
HETATM    3  C3  UNL     1     -34.451  16.450  -6.581  1.00 20.00    -0.066 C 
HETATM    4  C4  UNL     1     -33.876  16.840  -7.728  1.00 20.00     0.019 C 
HETATM    5  C6  UNL     1     -35.482  15.301  -4.066  1.00 20.00     0.050 C 
HETATM    6  C7  UNL     1     -33.982  16.967  -5.238  1.00 20.00     0.047 C 
HETATM    7  C8  UNL     1     -34.051  15.898  -4.117  1.00 20.00    -0.040 C 
HETATM    8  C9  UNL     1     -33.012  14.783  -4.368  1.00 20.00     0.015 C 
HETATM    9  C10 UNL     1     -33.727  16.556  -2.765  1.00 20.00     0.015 C 
ENDROOT
BRANCH   2  10
HETATM   10  C5  UNL     1     -37.158  14.051  -5.526  1.00 20.00     0.265 C 
HETATM   11  O11 UNL     1     -38.116  14.086  -4.764  1.00 20.00    -0.302 OA
ENDBRANCH   2  10
TORSDOF 1
ENDMDL
MODEL 8
REMARK VINA RESULT:      -4.1     11.606     13.077
REMARK  1 active torsions:
REMARK  status: ('A' for Active; 'I' for Inactive)
REMARK    1  A    between atoms: C2_2  and  C5_5 
ROOT
HETATM    1  C1  UNL     1     -33.570  16.835  -5.031  1.00 20.00     0.016 C 
HETATM    2  C2  UNL     1     -33.898  15.759  -4.299  1.00 20.00    -0.019 C 
HETATM    3  C3  UNL     1     -33.935  18.182  -4.625  1.00 20.00    -0.066 C 
HETATM    4  C4  UNL     1     -33.472  19.259  -5.277  1.00 20.00     0.019 C 
HETATM    5  C6  UNL     1     -34.636  15.827  -2.992  1.00 20.00     0.050 C 
HETATM    6  C7  UNL     1     -34.858  18.307  -3.433  1.00 20.00     0.047 C 
HETATM    7  C8  UNL     1     -34.594  17.236  -2.344  1.00 20.00    -0.040 C 
HETATM    8  C9  UNL     1     -33.226  17.477  -1.668  1.00 20.00     0.015 C 
HETATM    9  C10 UNL     1     -35.683  17.329  -1.262  1.00 20.00     0.015 C 
ENDROOT
BRANCH   2  10
HETATM   10  C5  UNL     1     -33.485  14.446  -4.800  1.00 20.00     0.265 C 
HETATM   11  O11 UNL     1     -32.684  13.736  -4.205  1.00 20.00    -0.302 OA
ENDBRANCH   2  10
TORSDOF 1
ENDMDL
MODEL 9
REMARK VINA RESULT:      -4.0     11.575     12.321
REMARK  1 active torsions:
REMARK  status: ('A' for Active; 'I' for Inactive)
REMARK    1  A    between atoms: C2_2  and  C5_5 
ROOT
HETATM    1  C1  UNL     1     -34.273  15.861  -3.124  1.00 20.00     0.016 C 
HETATM    2  C2  UNL     1     -35.488  16.371  -2.871  1.00 20.00    -0.019 C 
HETATM    3  C3  UNL     1     -34.072  14.797  -4.094  1.00 20.00    -0.066 C 
HETATM    4  C4  UNL     1     -32.842  14.401  -4.453  1.00 20.00     0.019 C 
HETATM    5  C6  UNL     1     -36.745  15.931  -3.568  1.00 20.00     0.050 C 
HETATM    6  C7  UNL     1     -35.316  14.163  -4.677  1.00 20.00     0.047 C 
HETATM    7  C8  UNL     1     -36.470  15.176  -4.894  1.00 20.00    -0.040 C 
HETATM    8  C9  UNL     1     -36.110  16.174  -6.017  1.00 20.00     0.015 C 
HETATM    9  C10 UNL     1     -37.740  14.419  -5.319  1.00 20.00     0.015 C 
ENDROOT
BRANCH   2  10
HETATM   10  C5  UNL     1     -35.581  17.438  -1.871  1.00 20.00     0.265 C 
HETATM   11  O11 UNL     1     -35.652  17.211  -0.670  1.00 20.00    -0.302 OA
ENDBRANCH   2  10
TORSDOF 1
ENDMDL
