MODEL 1
REMARK VINA RESULT:      -3.7      0.000      0.000
REMARK  1 active torsions:
REMARK  status: ('A' for Active; 'I' for Inactive)
REMARK    1  A    between atoms: C3_3  and  C7_7 
ROOT
HETATM    1  C1  UNL     1     -33.803   6.537   5.432  1.00 20.00     0.346 C 
HETATM    2  C2  UNL     1     -33.870   6.208   3.068  1.00 20.00     0.233 C 
HETATM    3  C3  UNL     1     -33.342   7.662   3.094  1.00 20.00     0.081 C 
HETATM    4  C4  UNL     1     -32.787   5.138   2.854  1.00 20.00     0.044 C 
HETATM    5  C6  UNL     1     -35.217   4.768   4.568  1.00 20.00     0.311 C 
HETATM    6  N8  UNL     1     -34.637   6.078   4.323  1.00 20.00     0.098 N 
HETATM    7  S9  UNL     1     -32.813   7.929   4.816  1.00 20.00    -0.132 SA
ENDROOT
BRANCH   3   8
HETATM    8  C7  UNL     1     -32.225   7.988   2.115  1.00 20.00     0.013 C 
HETATM    9  C5  UNL     1     -32.470   9.282   1.410  1.00 20.00     0.006 C 
ENDBRANCH   3   8
TORSDOF 1
ENDMDL
MODEL 2
REMARK VINA RESULT:      -3.5     11.688     12.208
REMARK  1 active torsions:
REMARK  status: ('A' for Active; 'I' for Inactive)
REMARK    1  A    between atoms: C3_3  and  C7_7 
ROOT
HETATM    1  C1  UNL     1     -34.107  15.466  -6.471  1.00 20.00     0.346 C 
HETATM    2  C2  UNL     1     -35.034  14.526  -4.482  1.00 20.00     0.233 C 
HETATM    3  C3  UNL     1     -34.067  15.547  -3.837  1.00 20.00     0.081 C 
HETATM    4  C4  UNL     1     -36.499  14.988  -4.551  1.00 20.00     0.044 C 
HETATM    5  C6  UNL     1     -35.161  13.288  -6.625  1.00 20.00     0.311 C 
HETATM    6  N8  UNL     1     -34.416  14.213  -5.786  1.00 20.00     0.098 N 
HETATM    7  S9  UNL     1     -33.596  16.658  -5.201  1.00 20.00    -0.132 SA
ENDROOT
BRANCH   3   8
HETATM    8  C7  UNL     1     -34.608  16.326  -2.649  1.00 20.00     0.013 C 
HETATM    9  C5  UNL     1     -33.542  17.140  -1.992  1.00 20.00     0.006 C 
ENDBRANCH   3   8
TORSDOF 1
ENDMDL
MODEL 3
REMARK VINA RESULT:      -3.5      1.811      4.021
REMARK  1 active torsions:
REMARK  status: ('A' for Active; 'I' for Inactive)
REMARK    1  A    between atoms: C3_3  and  C7_7 
ROOT
HETATM    1  C1  UNL     1     -32.130   6.517   2.394  1.00 20.00     0.346 C 
HETATM    2  C2  UNL     1     -33.792   7.516   3.786  1.00 20.00     0.233 C 
HETATM    3  C3  UNL     1     -34.472   6.148   3.543  1.00 20.00     0.081 C 
HETATM    4  C4  UNL     1     -33.064   7.638   5.134  1.00 20.00     0.044 C 
HETATM    5  C6  UNL     1     -32.148   8.933   2.592  1.00 20.00     0.311 C 
HETATM    6  N8  UNL     1     -32.941   7.715   2.596  1.00 20.00     0.098 N 
HETATM    7  S9  UNL     1     -33.153   5.093   2.864  1.00 20.00    -0.132 SA
ENDROOT
BRANCH   3   8
HETATM    8  C7  UNL     1     -35.132   5.502   4.751  1.00 20.00     0.013 C 
HETATM    9  C5  UNL     1     -34.420   4.258   5.169  1.00 20.00     0.006 C 
ENDBRANCH   3   8
TORSDOF 1
ENDMDL
MODEL 4
REMARK VINA RESULT:      -3.4     11.479     12.043
REMARK  1 active torsions:
REMARK  status: ('A' for Active; 'I' for Inactive)
REMARK    1  A    between atoms: C3_3  and  C7_7 
ROOT
HETATM    1  C1  UNL     1     -34.594  14.385  -5.673  1.00 20.00     0.346 C 
HETATM    2  C2  UNL     1     -35.694  15.595  -3.934  1.00 20.00     0.233 C 
HETATM    3  C3  UNL     1     -34.250  15.637  -3.380  1.00 20.00     0.081 C 
HETATM    4  C4  UNL     1     -36.140  16.877  -4.656  1.00 20.00     0.044 C 
HETATM    5  C6  UNL     1     -36.991  14.112  -5.436  1.00 20.00     0.311 C 
HETATM    6  N8  UNL     1     -35.732  14.370  -4.757  1.00 20.00     0.098 N 
HETATM    7  S9  UNL     1     -33.204  15.145  -4.786  1.00 20.00    -0.132 SA
ENDROOT
BRANCH   3   8
HETATM    8  C7  UNL     1     -33.796  16.962  -2.789  1.00 20.00     0.013 C 
HETATM    9  C5  UNL     1     -34.297  17.144  -1.394  1.00 20.00     0.006 C 
ENDBRANCH   3   8
TORSDOF 1
ENDMDL
MODEL 5
REMARK VINA RESULT:      -3.4     11.414     12.232
REMARK  1 active torsions:
REMARK  status: ('A' for Active; 'I' for Inactive)
REMARK    1  A    between atoms: C3_3  and  C7_7 
ROOT
HETATM    1  C1  UNL     1     -35.929  14.803  -5.226  1.00 20.00     0.346 C 
HETATM    2  C2  UNL     1     -33.684  15.587  -5.014  1.00 20.00     0.233 C 
HETATM    3  C3  UNL     1     -34.381  16.599  -4.074  1.00 20.00     0.081 C 
HETATM    4  C4  UNL     1     -32.993  14.417  -4.294  1.00 20.00     0.044 C 
HETATM    5  C6  UNL     1     -34.344  14.203  -6.960  1.00 20.00     0.311 C 
HETATM    6  N8  UNL     1     -34.736  15.196  -5.973  1.00 20.00     0.098 N 
HETATM    7  S9  UNL     1     -36.028  15.884  -3.770  1.00 20.00    -0.132 SA
ENDROOT
BRANCH   3   8
HETATM    8  C7  UNL     1     -33.663  16.910  -2.771  1.00 20.00     0.013 C 
HETATM    9  C5  UNL     1     -34.609  16.949  -1.615  1.00 20.00     0.006 C 
ENDBRANCH   3   8
TORSDOF 1
ENDMDL
MODEL 6
REMARK VINA RESULT:      -3.3     12.005     12.684
REMARK  1 active torsions:
REMARK  status: ('A' for Active; 'I' for Inactive)
REMARK    1  A    between atoms: C3_3  and  C7_7 
ROOT
HETATM    1  C1  UNL     1     -33.660  17.675  -5.249  1.00 20.00     0.346 C 
HETATM    2  C2  UNL     1     -33.882  15.879  -3.692  1.00 20.00     0.233 C 
HETATM    3  C3  UNL     1     -33.593  17.026  -2.696  1.00 20.00     0.081 C 
HETATM    4  C4  UNL     1     -35.368  15.508  -3.827  1.00 20.00     0.044 C 
HETATM    5  C6  UNL     1     -33.389  15.412  -6.075  1.00 20.00     0.311 C 
HETATM    6  N8  UNL     1     -33.231  16.312  -4.944  1.00 20.00     0.098 N 
HETATM    7  S9  UNL     1     -33.830  18.548  -3.666  1.00 20.00    -0.132 SA
ENDROOT
BRANCH   3   8
HETATM    8  C7  UNL     1     -34.431  17.042  -1.428  1.00 20.00     0.013 C 
HETATM    9  C5  UNL     1     -33.946  18.068  -0.457  1.00 20.00     0.006 C 
ENDBRANCH   3   8
TORSDOF 1
ENDMDL
MODEL 7
REMARK VINA RESULT:      -3.2     11.615     12.674
REMARK  1 active torsions:
REMARK  status: ('A' for Active; 'I' for Inactive)
REMARK    1  A    between atoms: C3_3  and  C7_7 
ROOT
HETATM    1  C1  UNL     1     -33.641  17.352  -4.971  1.00 20.00     0.346 C 
HETATM    2  C2  UNL     1     -34.253  15.136  -4.328  1.00 20.00     0.233 C 
HETATM    3  C3  UNL     1     -34.850  15.145  -5.755  1.00 20.00     0.081 C 
HETATM    4  C4  UNL     1     -32.888  14.438  -4.210  1.00 20.00     0.044 C 
HETATM    5  C6  UNL     1     -33.710  16.832  -2.605  1.00 20.00     0.311 C 
HETATM    6  N8  UNL     1     -34.267  16.555  -3.919  1.00 20.00     0.098 N 
HETATM    7  S9  UNL     1     -34.100  16.596  -6.558  1.00 20.00    -0.132 SA
ENDROOT
BRANCH   3   8
HETATM    8  C7  UNL     1     -34.639  13.885  -6.578  1.00 20.00     0.013 C 
HETATM    9  C5  UNL     1     -34.055  14.193  -7.918  1.00 20.00     0.006 C 
ENDBRANCH   3   8
TORSDOF 1
ENDMDL
MODEL 8
REMARK VINA RESULT:      -3.2     11.474     12.013
REMARK  1 active torsions:
REMARK  status: ('A' for Active; 'I' for Inactive)
REMARK    1  A    between atoms: C3_3  and  C7_7 
ROOT
HETATM    1  C1  UNL     1     -36.393  17.778  -2.157  1.00 20.00     0.346 C 
HETATM    2  C2  UNL     1     -34.281  16.723  -1.809  1.00 20.00     0.233 C 
HETATM    3  C3  UNL     1     -34.630  16.111  -3.186  1.00 20.00     0.081 C 
HETATM    4  C4  UNL     1     -33.306  17.911  -1.865  1.00 20.00     0.044 C 
HETATM    5  C6  UNL     1     -35.545  17.651   0.110  1.00 20.00     0.311 C 
HETATM    6  N8  UNL     1     -35.592  17.020  -1.200  1.00 20.00     0.098 N 
HETATM    7  S9  UNL     1     -35.999  17.137  -3.810  1.00 20.00    -0.132 SA
ENDROOT
BRANCH   3   8
HETATM    8  C7  UNL     1     -33.494  16.032  -4.193  1.00 20.00     0.013 C 
HETATM    9  C5  UNL     1     -33.068  14.621  -4.435  1.00 20.00     0.006 C 
ENDBRANCH   3   8
TORSDOF 1
ENDMDL
MODEL 9
REMARK VINA RESULT:      -3.1     11.766     12.401
REMARK  1 active torsions:
REMARK  status: ('A' for Active; 'I' for Inactive)
REMARK    1  A    between atoms: C3_3  and  C7_7 
ROOT
HETATM    1  C1  UNL     1     -35.702  15.591  -3.830  1.00 20.00     0.346 C 
HETATM    2  C2  UNL     1     -33.692  15.230  -5.066  1.00 20.00     0.233 C 
HETATM    3  C3  UNL     1     -34.510  14.023  -5.581  1.00 20.00     0.081 C 
HETATM    4  C4  UNL     1     -33.668  16.439  -6.017  1.00 20.00     0.044 C 
HETATM    5  C6  UNL     1     -33.668  16.636  -3.027  1.00 20.00     0.311 C 
HETATM    6  N8  UNL     1     -34.248  15.501  -3.726  1.00 20.00     0.098 N 
HETATM    7  S9  UNL     1     -36.224  14.382  -5.081  1.00 20.00    -0.132 SA
ENDROOT
BRANCH   3   8
HETATM    8  C7  UNL     1     -34.417  13.734  -7.071  1.00 20.00     0.013 C 
HETATM    9  C5  UNL     1     -35.768  13.639  -7.700  1.00 20.00     0.006 C 
ENDBRANCH   3   8
TORSDOF 1
ENDMDL
