MODEL 1
REMARK VINA RESULT:      -5.0      0.000      0.000
REMARK  0 active torsions:
REMARK  status: ('A' for Active; 'I' for Inactive)
ROOT
HETATM    1  C1  UNL     1     -33.325   7.397   5.053  1.00 20.00     0.131 A 
HETATM    2  C2  UNL     1     -32.832   7.003   2.815  1.00 20.00     0.233 A 
HETATM    3  C3  UNL     1     -33.946   6.206   5.036  1.00 20.00     0.010 A 
HETATM    4  C4  UNL     1     -33.969   5.487   3.901  1.00 20.00     0.070 A 
HETATM    5  C5  UNL     1     -34.695   5.186   5.719  1.00 20.00     0.017 A 
HETATM    6  C6  UNL     1     -34.724   4.449   4.568  1.00 20.00     0.033 A 
HETATM    7  N7  UNL     1     -32.739   7.831   3.910  1.00 20.00    -0.253 NA
HETATM    8  N8  UNL     1     -33.441   5.794   2.733  1.00 20.00    -0.241 NA
ENDROOT
TORSDOF 0
ENDMDL
MODEL 2
REMARK VINA RESULT:      -5.0      0.917      1.843
REMARK  0 active torsions:
REMARK  status: ('A' for Active; 'I' for Inactive)
ROOT
HETATM    1  C1  UNL     1     -33.402   5.766   2.729  1.00 20.00     0.131 A 
HETATM    2  C2  UNL     1     -32.686   7.712   3.782  1.00 20.00     0.233 A 
HETATM    3  C3  UNL     1     -33.989   5.454   3.896  1.00 20.00     0.010 A 
HETATM    4  C4  UNL     1     -33.884   6.297   4.937  1.00 20.00     0.070 A 
HETATM    5  C5  UNL     1     -34.775   4.547   4.687  1.00 20.00     0.017 A 
HETATM    6  C6  UNL     1     -34.674   5.399   5.751  1.00 20.00     0.033 A 
HETATM    7  N7  UNL     1     -32.719   6.935   2.647  1.00 20.00    -0.253 NA
HETATM    8  N8  UNL     1     -33.255   7.455   4.985  1.00 20.00    -0.241 NA
ENDROOT
TORSDOF 0
ENDMDL
MODEL 3
REMARK VINA RESULT:      -5.0      1.442      2.716
REMARK  0 active torsions:
REMARK  status: ('A' for Active; 'I' for Inactive)
ROOT
HETATM    1  C1  UNL     1     -33.713   7.240   5.594  1.00 20.00     0.131 A 
HETATM    2  C2  UNL     1     -34.739   5.201   5.154  1.00 20.00     0.233 A 
HETATM    3  C3  UNL     1     -33.304   7.212   4.315  1.00 20.00     0.010 A 
HETATM    4  C4  UNL     1     -33.642   6.172   3.534  1.00 20.00     0.070 A 
HETATM    5  C5  UNL     1     -32.591   7.822   3.225  1.00 20.00     0.017 A 
HETATM    6  C6  UNL     1     -32.930   6.767   2.424  1.00 20.00     0.033 A 
HETATM    7  N7  UNL     1     -34.460   6.205   6.052  1.00 20.00    -0.253 NA
HETATM    8  N8  UNL     1     -34.358   5.113   3.855  1.00 20.00    -0.241 NA
ENDROOT
TORSDOF 0
ENDMDL
MODEL 4
REMARK VINA RESULT:      -4.9      1.457      3.237
REMARK  0 active torsions:
REMARK  status: ('A' for Active; 'I' for Inactive)
ROOT
HETATM    1  C1  UNL     1     -34.425   5.217   3.969  1.00 20.00     0.131 A 
HETATM    2  C2  UNL     1     -34.330   6.359   5.992  1.00 20.00     0.233 A 
HETATM    3  C3  UNL     1     -33.648   6.197   3.478  1.00 20.00     0.010 A 
HETATM    4  C4  UNL     1     -33.260   7.201   4.283  1.00 20.00     0.070 A 
HETATM    5  C5  UNL     1     -32.931   6.780   2.376  1.00 20.00     0.017 A 
HETATM    6  C6  UNL     1     -32.533   7.805   3.188  1.00 20.00     0.033 A 
HETATM    7  N7  UNL     1     -34.792   5.281   5.272  1.00 20.00    -0.253 NA
HETATM    8  N8  UNL     1     -33.546   7.377   5.558  1.00 20.00    -0.241 NA
ENDROOT
TORSDOF 0
ENDMDL
MODEL 5
REMARK VINA RESULT:      -4.9      1.166      2.582
REMARK  0 active torsions:
REMARK  status: ('A' for Active; 'I' for Inactive)
ROOT
HETATM    1  C1  UNL     1     -34.582   4.796   5.454  1.00 20.00     0.131 A 
HETATM    2  C2  UNL     1     -33.854   4.624   3.252  1.00 20.00     0.233 A 
HETATM    3  C3  UNL     1     -34.123   6.059   5.416  1.00 20.00     0.010 A 
HETATM    4  C4  UNL     1     -33.556   6.523   4.289  1.00 20.00     0.070 A 
HETATM    5  C5  UNL     1     -33.910   7.323   6.066  1.00 20.00     0.017 A 
HETATM    6  C6  UNL     1     -33.332   7.803   4.925  1.00 20.00     0.033 A 
HETATM    7  N7  UNL     1     -34.452   4.033   4.341  1.00 20.00    -0.253 NA
HETATM    8  N8  UNL     1     -33.372   5.888   3.149  1.00 20.00    -0.241 NA
ENDROOT
TORSDOF 0
ENDMDL
MODEL 6
REMARK VINA RESULT:      -4.9      0.735      2.126
REMARK  0 active torsions:
REMARK  status: ('A' for Active; 'I' for Inactive)
ROOT
HETATM    1  C1  UNL     1     -34.194   5.303   3.467  1.00 20.00     0.131 A 
HETATM    2  C2  UNL     1     -32.742   6.899   2.599  1.00 20.00     0.233 A 
HETATM    3  C3  UNL     1     -34.150   6.011   4.609  1.00 20.00     0.010 A 
HETATM    4  C4  UNL     1     -33.400   7.124   4.670  1.00 20.00     0.070 A 
HETATM    5  C5  UNL     1     -34.562   6.192   5.974  1.00 20.00     0.017 A 
HETATM    6  C6  UNL     1     -33.801   7.325   6.045  1.00 20.00     0.033 A 
HETATM    7  N7  UNL     1     -33.469   5.746   2.410  1.00 20.00    -0.253 NA
HETATM    8  N8  UNL     1     -32.657   7.656   3.720  1.00 20.00    -0.241 NA
ENDROOT
TORSDOF 0
ENDMDL
MODEL 7
REMARK VINA RESULT:      -3.8     12.109     12.571
REMARK  0 active torsions:
REMARK  status: ('A' for Active; 'I' for Inactive)
ROOT
HETATM    1  C1  UNL     1     -37.353  15.035  -4.426  1.00 20.00     0.131 A 
HETATM    2  C2  UNL     1     -36.021  13.355  -5.326  1.00 20.00     0.233 A 
HETATM    3  C3  UNL     1     -36.227  15.509  -3.867  1.00 20.00     0.010 A 
HETATM    4  C4  UNL     1     -35.063  14.869  -4.076  1.00 20.00     0.070 A 
HETATM    5  C5  UNL     1     -35.562  16.488  -3.050  1.00 20.00     0.017 A 
HETATM    6  C6  UNL     1     -34.375  15.843  -3.258  1.00 20.00     0.033 A 
HETATM    7  N7  UNL     1     -37.269  13.917  -5.188  1.00 20.00    -0.253 NA
HETATM    8  N8  UNL     1     -34.851  13.782  -4.791  1.00 20.00    -0.241 NA
ENDROOT
TORSDOF 0
ENDMDL
MODEL 8
REMARK VINA RESULT:      -3.7     12.549     12.861
REMARK  0 active torsions:
REMARK  status: ('A' for Active; 'I' for Inactive)
ROOT
HETATM    1  C1  UNL     1     -34.664  17.957   0.193  1.00 20.00     0.131 A 
HETATM    2  C2  UNL     1     -32.512  18.822   0.024  1.00 20.00     0.233 A 
HETATM    3  C3  UNL     1     -34.438  17.395  -1.007  1.00 20.00     0.010 A 
HETATM    4  C4  UNL     1     -33.255  17.586  -1.616  1.00 20.00     0.070 A 
HETATM    5  C5  UNL     1     -34.894  16.586  -2.104  1.00 20.00     0.017 A 
HETATM    6  C6  UNL     1     -33.694  16.775  -2.731  1.00 20.00     0.033 A 
HETATM    7  N7  UNL     1     -33.676  18.703   0.747  1.00 20.00    -0.253 NA
HETATM    8  N8  UNL     1     -32.223  18.282  -1.186  1.00 20.00    -0.241 NA
ENDROOT
TORSDOF 0
ENDMDL
MODEL 9
REMARK VINA RESULT:      -3.7     11.884     13.059
REMARK  0 active torsions:
REMARK  status: ('A' for Active; 'I' for Inactive)
ROOT
HETATM    1  C1  UNL     1     -35.319  13.647  -4.573  1.00 20.00     0.131 A 
HETATM    2  C2  UNL     1     -35.150  13.267  -6.861  1.00 20.00     0.233 A 
HETATM    3  C3  UNL     1     -34.398  14.609  -4.753  1.00 20.00     0.010 A 
HETATM    4  C4  UNL     1     -33.911  14.838  -5.984  1.00 20.00     0.070 A 
HETATM    5  C5  UNL     1     -33.569  15.651  -4.211  1.00 20.00     0.017 A 
HETATM    6  C6  UNL     1     -33.068  15.890  -5.460  1.00 20.00     0.033 A 
HETATM    7  N7  UNL     1     -35.723  12.936  -5.654  1.00 20.00    -0.253 NA
HETATM    8  N8  UNL     1     -34.220  14.223  -7.108  1.00 20.00    -0.241 NA
ENDROOT
TORSDOF 0
ENDMDL
