MODEL 1
REMARK VINA RESULT:      -5.1      0.000      0.000
REMARK  1 active torsions:
REMARK  status: ('A' for Active; 'I' for Inactive)
REMARK    1  A    between atoms: C1_1  and  C8_8 
REMARK       I    between atoms: C1_1  and  N9_9 
ROOT
HETATM    1  C1  UNL     1     -32.398   8.116   3.068  1.00 20.00     0.237 C 
HETATM    2  C2  UNL     1     -34.483   4.634   4.530  1.00 20.00     0.013 A 
HETATM    3  C3  UNL     1     -34.502   6.701   2.932  1.00 20.00     0.130 A 
HETATM    4  C4  UNL     1     -33.292   6.902   5.040  1.00 20.00     0.130 A 
HETATM    5  C5  UNL     1     -35.173   5.838   3.949  1.00 20.00     0.010 A 
HETATM    6  C6  UNL     1     -34.433   5.960   5.237  1.00 20.00     0.010 A 
HETATM    7  N9  UNL     1     -33.349   7.279   3.628  1.00 20.00    -0.350 N 
HETATM    8  O10 UNL     1     -31.440   8.583   3.687  1.00 20.00    -0.272 OA
ENDROOT
BRANCH   1   9
HETATM    9  C8  UNL     1     -32.593   8.438   1.608  1.00 20.00     0.170 C 
HETATM   10  C7  UNL     1     -33.135   9.839   1.443  1.00 20.00     0.036 C 
HETATM   11 CL11 UNL     1     -31.000   8.276   0.850  1.00 20.00    -0.115 Cl
ENDBRANCH   1   9
TORSDOF 1
ENDMDL
MODEL 2
REMARK VINA RESULT:      -4.7      2.254      4.340
REMARK  1 active torsions:
REMARK  status: ('A' for Active; 'I' for Inactive)
REMARK    1  A    between atoms: C1_1  and  C8_8 
REMARK       I    between atoms: C1_1  and  N9_9 
ROOT
HETATM    1  C1  UNL     1     -33.546   6.792   4.798  1.00 20.00     0.237 C 
HETATM    2  C2  UNL     1     -32.400   9.354   1.521  1.00 20.00     0.013 A 
HETATM    3  C3  UNL     1     -32.798   6.917   2.374  1.00 20.00     0.130 A 
HETATM    4  C4  UNL     1     -32.020   8.574   3.986  1.00 20.00     0.130 A 
HETATM    5  C5  UNL     1     -31.960   7.922   1.655  1.00 20.00     0.010 A 
HETATM    6  C6  UNL     1     -31.486   8.935   2.639  1.00 20.00     0.010 A 
HETATM    7  N9  UNL     1     -32.841   7.385   3.763  1.00 20.00    -0.350 N 
HETATM    8  O10 UNL     1     -33.557   7.217   5.954  1.00 20.00    -0.272 OA
ENDROOT
BRANCH   1   9
HETATM    9  C8  UNL     1     -34.332   5.560   4.429  1.00 20.00     0.170 C 
HETATM   10  C7  UNL     1     -34.663   4.754   5.664  1.00 20.00     0.036 C 
HETATM   11 CL11 UNL     1     -35.803   6.135   3.627  1.00 20.00    -0.115 Cl
ENDBRANCH   1   9
TORSDOF 1
ENDMDL
MODEL 3
REMARK VINA RESULT:      -4.2      2.525      4.348
REMARK  1 active torsions:
REMARK  status: ('A' for Active; 'I' for Inactive)
REMARK    1  A    between atoms: C1_1  and  C8_8 
REMARK       I    between atoms: C1_1  and  N9_9 
ROOT
HETATM    1  C1  UNL     1     -33.475   6.925   4.728  1.00 20.00     0.237 C 
HETATM    2  C2  UNL     1     -32.447   9.540   1.454  1.00 20.00     0.013 A 
HETATM    3  C3  UNL     1     -33.055   7.120   2.231  1.00 20.00     0.130 A 
HETATM    4  C4  UNL     1     -31.845   8.548   3.795  1.00 20.00     0.130 A 
HETATM    5  C5  UNL     1     -32.193   8.057   1.451  1.00 20.00     0.010 A 
HETATM    6  C6  UNL     1     -31.455   8.930   2.406  1.00 20.00     0.010 A 
HETATM    7  N9  UNL     1     -32.844   7.492   3.633  1.00 20.00    -0.350 N 
HETATM    8  O10 UNL     1     -33.270   7.266   5.894  1.00 20.00    -0.272 OA
ENDROOT
BRANCH   1   9
HETATM    9  C8  UNL     1     -34.465   5.832   4.415  1.00 20.00     0.170 C 
HETATM   10  C7  UNL     1     -33.846   4.804   3.497  1.00 20.00     0.036 C 
HETATM   11 CL11 UNL     1     -34.915   5.113   5.970  1.00 20.00    -0.115 Cl
ENDBRANCH   1   9
TORSDOF 1
ENDMDL
MODEL 4
REMARK VINA RESULT:      -4.2      2.345      4.427
REMARK  1 active torsions:
REMARK  status: ('A' for Active; 'I' for Inactive)
REMARK    1  A    between atoms: C1_1  and  C8_8 
REMARK       I    between atoms: C1_1  and  N9_9 
ROOT
HETATM    1  C1  UNL     1     -33.245   7.138   3.689  1.00 20.00     0.237 C 
HETATM    2  C2  UNL     1     -32.912  10.348   0.826  1.00 20.00     0.013 A 
HETATM    3  C3  UNL     1     -33.070   7.772   1.236  1.00 20.00     0.130 A 
HETATM    4  C4  UNL     1     -31.970   9.131   2.937  1.00 20.00     0.130 A 
HETATM    5  C5  UNL     1     -32.432   8.946   0.568  1.00 20.00     0.010 A 
HETATM    6  C6  UNL     1     -31.761   9.776   1.607  1.00 20.00     0.010 A 
HETATM    7  N9  UNL     1     -32.803   7.960   2.665  1.00 20.00    -0.350 N 
HETATM    8  O10 UNL     1     -33.000   7.330   4.881  1.00 20.00    -0.272 OA
ENDROOT
BRANCH   1   9
HETATM    9  C8  UNL     1     -34.077   5.955   3.262  1.00 20.00     0.170 C 
HETATM   10  C7  UNL     1     -33.190   4.819   2.811  1.00 20.00     0.036 C 
HETATM   11 CL11 UNL     1     -35.041   5.494   4.674  1.00 20.00    -0.115 Cl
ENDBRANCH   1   9
TORSDOF 1
ENDMDL
MODEL 5
REMARK VINA RESULT:      -3.9     11.444     12.302
REMARK  1 active torsions:
REMARK  status: ('A' for Active; 'I' for Inactive)
REMARK    1  A    between atoms: C1_1  and  C8_8 
REMARK       I    between atoms: C1_1  and  N9_9 
ROOT
HETATM    1  C1  UNL     1     -33.631  17.549  -3.492  1.00 20.00     0.237 C 
HETATM    2  C2  UNL     1     -35.017  14.609  -6.330  1.00 20.00     0.013 A 
HETATM    3  C3  UNL     1     -33.619  15.103  -4.178  1.00 20.00     0.130 A 
HETATM    4  C4  UNL     1     -33.760  16.853  -5.872  1.00 20.00     0.130 A 
HETATM    5  C5  UNL     1     -33.760  14.458  -5.518  1.00 20.00     0.010 A 
HETATM    6  C6  UNL     1     -33.846  15.527  -6.552  1.00 20.00     0.010 A 
HETATM    7  N9  UNL     1     -33.674  16.544  -4.444  1.00 20.00    -0.350 N 
HETATM    8  O10 UNL     1     -33.681  18.751  -3.756  1.00 20.00    -0.272 OA
ENDROOT
BRANCH   1   9
HETATM    9  C8  UNL     1     -33.521  17.085  -2.061  1.00 20.00     0.170 C 
HETATM   10  C7  UNL     1     -32.783  18.107  -1.229  1.00 20.00     0.036 C 
HETATM   11 CL11 UNL     1     -35.182  16.868  -1.484  1.00 20.00    -0.115 Cl
ENDBRANCH   1   9
TORSDOF 1
ENDMDL
MODEL 6
REMARK VINA RESULT:      -3.9     11.195     12.054
REMARK  1 active torsions:
REMARK  status: ('A' for Active; 'I' for Inactive)
REMARK    1  A    between atoms: C1_1  and  C8_8 
REMARK       I    between atoms: C1_1  and  N9_9 
ROOT
HETATM    1  C1  UNL     1     -33.917  16.731  -3.935  1.00 20.00     0.237 C 
HETATM    2  C2  UNL     1     -32.174  18.543  -0.430  1.00 20.00     0.013 A 
HETATM    3  C3  UNL     1     -34.088  17.069  -1.424  1.00 20.00     0.130 A 
HETATM    4  C4  UNL     1     -33.149  18.821  -2.838  1.00 20.00     0.130 A 
HETATM    5  C5  UNL     1     -33.631  18.191  -0.551  1.00 20.00     0.010 A 
HETATM    6  C6  UNL     1     -33.057  19.260  -1.414  1.00 20.00     0.010 A 
HETATM    7  N9  UNL     1     -33.729  17.479  -2.785  1.00 20.00    -0.350 N 
HETATM    8  O10 UNL     1     -33.601  17.111  -5.064  1.00 20.00    -0.272 OA
ENDROOT
BRANCH   1   9
HETATM    9  C8  UNL     1     -34.545  15.375  -3.735  1.00 20.00     0.170 C 
HETATM   10  C7  UNL     1     -35.889  15.307  -4.423  1.00 20.00     0.036 C 
HETATM   11 CL11 UNL     1     -33.413  14.199  -4.423  1.00 20.00    -0.115 Cl
ENDBRANCH   1   9
TORSDOF 1
ENDMDL
MODEL 7
REMARK VINA RESULT:      -3.9     11.648     12.574
REMARK  1 active torsions:
REMARK  status: ('A' for Active; 'I' for Inactive)
REMARK    1  A    between atoms: C1_1  and  C8_8 
REMARK       I    between atoms: C1_1  and  N9_9 
ROOT
HETATM    1  C1  UNL     1     -33.917  16.604  -4.671  1.00 20.00     0.237 C 
HETATM    2  C2  UNL     1     -35.397  14.179  -7.918  1.00 20.00     0.013 A 
HETATM    3  C3  UNL     1     -34.447  14.257  -5.485  1.00 20.00     0.130 A 
HETATM    4  C4  UNL     1     -33.692  15.962  -7.058  1.00 20.00     0.130 A 
HETATM    5  C5  UNL     1     -34.455  13.674  -6.860  1.00 20.00     0.010 A 
HETATM    6  C6  UNL     1     -33.996  14.715  -7.820  1.00 20.00     0.010 A 
HETATM    7  N9  UNL     1     -34.027  15.650  -5.669  1.00 20.00    -0.350 N 
HETATM    8  O10 UNL     1     -33.561  17.767  -4.865  1.00 20.00    -0.272 OA
ENDROOT
BRANCH   1   9
HETATM    9  C8  UNL     1     -34.274  16.137  -3.282  1.00 20.00     0.170 C 
HETATM   10  C7  UNL     1     -33.564  16.974  -2.244  1.00 20.00     0.036 C 
HETATM   11 CL11 UNL     1     -36.032  16.300  -3.143  1.00 20.00    -0.115 Cl
ENDBRANCH   1   9
TORSDOF 1
ENDMDL
MODEL 8
REMARK VINA RESULT:      -3.8     11.060     11.600
REMARK  1 active torsions:
REMARK  status: ('A' for Active; 'I' for Inactive)
REMARK    1  A    between atoms: C1_1  and  C8_8 
REMARK       I    between atoms: C1_1  and  N9_9 
ROOT
HETATM    1  C1  UNL     1     -33.952  15.210  -4.669  1.00 20.00     0.237 C 
HETATM    2  C2  UNL     1     -35.511  16.991  -1.062  1.00 20.00     0.013 A 
HETATM    3  C3  UNL     1     -35.740  16.698  -3.648  1.00 20.00     0.130 A 
HETATM    4  C4  UNL     1     -33.497  16.637  -2.689  1.00 20.00     0.130 A 
HETATM    5  C5  UNL     1     -35.717  17.568  -2.435  1.00 20.00     0.010 A 
HETATM    6  C6  UNL     1     -34.348  17.530  -1.849  1.00 20.00     0.010 A 
HETATM    7  N9  UNL     1     -34.393  16.124  -3.726  1.00 20.00    -0.350 N 
HETATM    8  O10 UNL     1     -32.810  14.750  -4.702  1.00 20.00    -0.272 OA
ENDROOT
BRANCH   1   9
HETATM    9  C8  UNL     1     -34.976  14.784  -5.691  1.00 20.00     0.170 C 
HETATM   10  C7  UNL     1     -34.312  14.497  -7.018  1.00 20.00     0.036 C 
HETATM   11 CL11 UNL     1     -35.753  13.334  -5.036  1.00 20.00    -0.115 Cl
ENDBRANCH   1   9
TORSDOF 1
ENDMDL
MODEL 9
REMARK VINA RESULT:      -3.8     11.274     12.033
REMARK  1 active torsions:
REMARK  status: ('A' for Active; 'I' for Inactive)
REMARK    1  A    between atoms: C1_1  and  C8_8 
REMARK       I    between atoms: C1_1  and  N9_9 
ROOT
HETATM    1  C1  UNL     1     -34.905  14.587  -5.644  1.00 20.00     0.237 C 
HETATM    2  C2  UNL     1     -34.907  16.711  -1.888  1.00 20.00     0.013 A 
HETATM    3  C3  UNL     1     -35.583  16.703  -4.412  1.00 20.00     0.130 A 
HETATM    4  C4  UNL     1     -33.557  15.504  -3.772  1.00 20.00     0.130 A 
HETATM    5  C5  UNL     1     -34.979  17.386  -3.230  1.00 20.00     0.010 A 
HETATM    6  C6  UNL     1     -33.743  16.654  -2.838  1.00 20.00     0.010 A 
HETATM    7  N9  UNL     1     -34.715  15.549  -4.665  1.00 20.00    -0.350 N 
HETATM    8  O10 UNL     1     -34.152  13.630  -5.825  1.00 20.00    -0.272 OA
ENDROOT
BRANCH   1   9
HETATM    9  C8  UNL     1     -36.129  14.770  -6.506  1.00 20.00     0.170 C 
HETATM   10  C7  UNL     1     -35.967  14.035  -7.816  1.00 20.00     0.036 C 
HETATM   11 CL11 UNL     1     -37.490  14.126  -5.574  1.00 20.00    -0.115 Cl
ENDBRANCH   1   9
TORSDOF 1
ENDMDL
