MODEL 1
REMARK VINA RESULT:      -6.3      0.000      0.000
REMARK  1 active torsions:
REMARK  status: ('A' for Active; 'I' for Inactive)
REMARK    1  A    between atoms: C3_3  and  C7_7 
ROOT
HETATM    1  C1  UNL     1     -33.912   6.893   4.965  1.00 20.00    -0.070 C 
HETATM    2  C2  UNL     1     -33.532   7.521   6.082  1.00 20.00     0.015 C 
HETATM    3  C4  UNL     1     -33.590   4.534   4.336  1.00 20.00     0.009 C 
HETATM    4  C5  UNL     1     -33.455   4.964   2.864  1.00 20.00     0.006 C 
HETATM    5  C6  UNL     1     -35.523   5.770   3.698  1.00 20.00     0.014 C 
HETATM    6  C7  UNL     1     -33.809   7.408   3.553  1.00 20.00     0.119 C 
HETATM    7  C8  UNL     1     -34.601   5.545   4.898  1.00 20.00     0.015 C 
HETATM    8  C9  UNL     1     -34.376   6.202   2.774  1.00 20.00     0.004 C 
ENDROOT
BRANCH   6   9
HETATM    9  C3  UNL     1     -32.398   7.763   3.165  1.00 20.00     0.181 C 
HETATM   10  O10 UNL     1     -31.615   7.992   4.130  1.00 20.00    -0.647 OA
HETATM   11  O11 UNL     1     -32.179   7.786   1.922  1.00 20.00    -0.647 OA
ENDBRANCH   6   9
TORSDOF 1
ENDMDL
MODEL 2
REMARK VINA RESULT:      -5.4     11.668     12.932
REMARK  1 active torsions:
REMARK  status: ('A' for Active; 'I' for Inactive)
REMARK    1  A    between atoms: C3_3  and  C7_7 
ROOT
HETATM    1  C1  UNL     1     -34.527  14.598  -6.526  1.00 20.00    -0.070 C 
HETATM    2  C2  UNL     1     -34.356  13.762  -7.555  1.00 20.00     0.015 C 
HETATM    3  C4  UNL     1     -33.157  14.845  -4.495  1.00 20.00     0.009 C 
HETATM    4  C5  UNL     1     -34.431  15.191  -3.701  1.00 20.00     0.006 C 
HETATM    5  C6  UNL     1     -34.251  16.692  -5.526  1.00 20.00     0.014 C 
HETATM    6  C7  UNL     1     -35.823  14.940  -5.839  1.00 20.00     0.119 C 
HETATM    7  C8  UNL     1     -33.445  15.441  -5.882  1.00 20.00     0.015 C 
HETATM    8  C9  UNL     1     -35.314  15.906  -4.747  1.00 20.00     0.004 C 
ENDROOT
BRANCH   6   9
HETATM    9  C3  UNL     1     -36.526  13.727  -5.287  1.00 20.00     0.181 C 
HETATM   10  O10 UNL     1     -35.830  12.674  -5.245  1.00 20.00    -0.647 OA
HETATM   11  O11 UNL     1     -37.723  13.922  -4.935  1.00 20.00    -0.647 OA
ENDBRANCH   6   9
TORSDOF 1
ENDMDL
MODEL 3
REMARK VINA RESULT:      -4.8     11.749     12.593
REMARK  1 active torsions:
REMARK  status: ('A' for Active; 'I' for Inactive)
REMARK    1  A    between atoms: C3_3  and  C7_7 
ROOT
HETATM    1  C1  UNL     1     -34.752  15.729  -3.482  1.00 20.00    -0.070 C 
HETATM    2  C2  UNL     1     -35.280  16.397  -2.452  1.00 20.00     0.015 C 
HETATM    3  C4  UNL     1     -33.651  16.619  -5.497  1.00 20.00     0.009 C 
HETATM    4  C5  UNL     1     -34.219  15.438  -6.306  1.00 20.00     0.006 C 
HETATM    5  C6  UNL     1     -32.982  14.573  -4.478  1.00 20.00     0.014 C 
HETATM    6  C7  UNL     1     -35.339  14.532  -4.185  1.00 20.00     0.119 C 
HETATM    7  C8  UNL     1     -33.401  15.999  -4.114  1.00 20.00     0.015 C 
HETATM    8  C9  UNL     1     -34.267  14.292  -5.270  1.00 20.00     0.004 C 
ENDROOT
BRANCH   6   9
HETATM    9  C3  UNL     1     -36.710  14.802  -4.746  1.00 20.00     0.181 C 
HETATM   10  O10 UNL     1     -36.977  16.018  -4.957  1.00 20.00    -0.647 OA
HETATM   11  O11 UNL     1     -37.418  13.774  -4.934  1.00 20.00    -0.647 OA
ENDBRANCH   6   9
TORSDOF 1
ENDMDL
MODEL 4
REMARK VINA RESULT:      -4.7      2.286      3.590
REMARK  1 active torsions:
REMARK  status: ('A' for Active; 'I' for Inactive)
REMARK    1  A    between atoms: C3_3  and  C7_7 
ROOT
HETATM    1  C1  UNL     1     -33.363   5.693   2.874  1.00 20.00    -0.070 C 
HETATM    2  C2  UNL     1     -32.885   4.621   2.233  1.00 20.00     0.015 C 
HETATM    3  C4  UNL     1     -32.130   7.427   4.113  1.00 20.00     0.009 C 
HETATM    4  C5  UNL     1     -33.319   7.550   5.085  1.00 20.00     0.006 C 
HETATM    5  C6  UNL     1     -34.110   7.907   2.879  1.00 20.00     0.014 C 
HETATM    6  C7  UNL     1     -34.579   5.752   3.762  1.00 20.00     0.119 C 
HETATM    7  C8  UNL     1     -32.813   7.101   2.776  1.00 20.00     0.015 C 
HETATM    8  C9  UNL     1     -34.538   7.235   4.191  1.00 20.00     0.004 C 
ENDROOT
BRANCH   6   9
HETATM    9  C3  UNL     1     -34.502   4.790   4.918  1.00 20.00     0.181 C 
HETATM   10  O10 UNL     1     -34.784   5.281   6.047  1.00 20.00    -0.647 OA
HETATM   11  O11 UNL     1     -34.164   3.614   4.608  1.00 20.00    -0.647 OA
ENDBRANCH   6   9
TORSDOF 1
ENDMDL
MODEL 5
REMARK VINA RESULT:      -4.7     11.437     12.839
REMARK  1 active torsions:
REMARK  status: ('A' for Active; 'I' for Inactive)
REMARK    1  A    between atoms: C3_3  and  C7_7 
ROOT
HETATM    1  C1  UNL     1     -35.743  16.144  -5.092  1.00 20.00    -0.070 C 
HETATM    2  C2  UNL     1     -36.672  16.707  -5.871  1.00 20.00     0.015 C 
HETATM    3  C4  UNL     1     -33.292  16.329  -5.234  1.00 20.00     0.009 C 
HETATM    4  C5  UNL     1     -33.172  14.880  -4.725  1.00 20.00     0.006 C 
HETATM    5  C6  UNL     1     -34.436  16.128  -3.155  1.00 20.00     0.014 C 
HETATM    6  C7  UNL     1     -35.727  14.729  -4.575  1.00 20.00     0.119 C 
HETATM    7  C8  UNL     1     -34.538  16.848  -4.501  1.00 20.00     0.015 C 
HETATM    8  C9  UNL     1     -34.396  14.733  -3.793  1.00 20.00     0.004 C 
ENDROOT
BRANCH   6   9
HETATM    9  C3  UNL     1     -35.771  13.706  -5.680  1.00 20.00     0.181 C 
HETATM   10  O10 UNL     1     -35.656  14.170  -6.849  1.00 20.00    -0.647 OA
HETATM   11  O11 UNL     1     -35.918  12.513  -5.293  1.00 20.00    -0.647 OA
ENDBRANCH   6   9
TORSDOF 1
ENDMDL
MODEL 6
REMARK VINA RESULT:      -4.6     11.824     13.150
REMARK  1 active torsions:
REMARK  status: ('A' for Active; 'I' for Inactive)
REMARK    1  A    between atoms: C3_3  and  C7_7 
ROOT
HETATM    1  C1  UNL     1     -34.585  14.337  -5.323  1.00 20.00    -0.070 C 
HETATM    2  C2  UNL     1     -34.004  14.442  -4.124  1.00 20.00     0.015 C 
HETATM    3  C4  UNL     1     -34.718  16.009  -7.125  1.00 20.00     0.009 C 
HETATM    4  C5  UNL     1     -36.105  15.458  -7.508  1.00 20.00     0.006 C 
HETATM    5  C6  UNL     1     -34.545  13.675  -7.564  1.00 20.00     0.014 C 
HETATM    6  C7  UNL     1     -35.925  13.721  -5.632  1.00 20.00     0.119 C 
HETATM    7  C8  UNL     1     -33.972  14.755  -6.644  1.00 20.00     0.015 C 
HETATM    8  C9  UNL     1     -35.997  13.958  -7.156  1.00 20.00     0.004 C 
ENDROOT
BRANCH   6   9
HETATM    9  C3  UNL     1     -37.052  14.369  -4.870  1.00 20.00     0.181 C 
HETATM   10  O10 UNL     1     -36.727  15.376  -4.180  1.00 20.00    -0.647 OA
HETATM   11  O11 UNL     1     -38.179  13.820  -5.021  1.00 20.00    -0.647 OA
ENDBRANCH   6   9
TORSDOF 1
ENDMDL
MODEL 7
REMARK VINA RESULT:      -4.6     11.318     12.755
REMARK  1 active torsions:
REMARK  status: ('A' for Active; 'I' for Inactive)
REMARK    1  A    between atoms: C3_3  and  C7_7 
ROOT
HETATM    1  C1  UNL     1     -34.241  15.998  -5.421  1.00 20.00    -0.070 C 
HETATM    2  C2  UNL     1     -33.296  15.720  -6.325  1.00 20.00     0.015 C 
HETATM    3  C4  UNL     1     -33.974  16.801  -3.109  1.00 20.00     0.009 C 
HETATM    4  C5  UNL     1     -35.226  15.999  -2.706  1.00 20.00     0.006 C 
HETATM    5  C6  UNL     1     -35.806  17.457  -4.483  1.00 20.00     0.014 C 
HETATM    6  C7  UNL     1     -35.481  15.195  -5.127  1.00 20.00     0.119 C 
HETATM    7  C8  UNL     1     -34.293  17.235  -4.548  1.00 20.00     0.015 C 
HETATM    8  C9  UNL     1     -36.093  16.034  -3.985  1.00 20.00     0.004 C 
ENDROOT
BRANCH   6   9
HETATM    9  C3  UNL     1     -35.173  13.775  -4.729  1.00 20.00     0.181 C 
HETATM   10  O10 UNL     1     -34.116  13.621  -4.055  1.00 20.00    -0.647 OA
HETATM   11  O11 UNL     1     -36.014  12.919  -5.123  1.00 20.00    -0.647 OA
ENDBRANCH   6   9
TORSDOF 1
ENDMDL
MODEL 8
REMARK VINA RESULT:      -4.3     11.347     12.828
REMARK  1 active torsions:
REMARK  status: ('A' for Active; 'I' for Inactive)
REMARK    1  A    between atoms: C3_3  and  C7_7 
ROOT
HETATM    1  C1  UNL     1     -34.463  16.431  -3.695  1.00 20.00    -0.070 C 
HETATM    2  C2  UNL     1     -34.850  16.379  -2.417  1.00 20.00     0.015 C 
HETATM    3  C4  UNL     1     -35.850  16.397  -5.729  1.00 20.00     0.009 C 
HETATM    4  C5  UNL     1     -34.730  15.628  -6.456  1.00 20.00     0.006 C 
HETATM    5  C6  UNL     1     -33.822  17.639  -5.590  1.00 20.00     0.014 C 
HETATM    6  C7  UNL     1     -33.308  15.696  -4.325  1.00 20.00     0.119 C 
HETATM    7  C8  UNL     1     -35.071  17.309  -4.769  1.00 20.00     0.015 C 
HETATM    8  C9  UNL     1     -33.444  16.165  -5.789  1.00 20.00     0.004 C 
ENDROOT
BRANCH   6   9
HETATM    9  C3  UNL     1     -33.411  14.202  -4.161  1.00 20.00     0.181 C 
HETATM   10  O10 UNL     1     -34.584  13.755  -4.021  1.00 20.00    -0.647 OA
HETATM   11  O11 UNL     1     -32.308  13.589  -4.185  1.00 20.00    -0.647 OA
ENDBRANCH   6   9
TORSDOF 1
ENDMDL
MODEL 9
REMARK VINA RESULT:      -4.3     11.835     13.075
REMARK  1 active torsions:
REMARK  status: ('A' for Active; 'I' for Inactive)
REMARK    1  A    between atoms: C3_3  and  C7_7 
ROOT
HETATM    1  C1  UNL     1     -35.085  14.289  -5.161  1.00 20.00    -0.070 C 
HETATM    2  C2  UNL     1     -36.248  13.655  -5.338  1.00 20.00     0.015 C 
HETATM    3  C4  UNL     1     -34.429  15.836  -3.361  1.00 20.00     0.009 C 
HETATM    4  C5  UNL     1     -33.560  16.611  -4.370  1.00 20.00     0.006 C 
HETATM    5  C6  UNL     1     -32.882  14.340  -4.382  1.00 20.00     0.014 C 
HETATM    6  C7  UNL     1     -34.253  14.972  -6.215  1.00 20.00     0.119 C 
HETATM    7  C8  UNL     1     -34.319  14.386  -3.857  1.00 20.00     0.015 C 
HETATM    8  C9  UNL     1     -33.093  15.511  -5.350  1.00 20.00     0.004 C 
ENDROOT
BRANCH   6   9
HETATM    9  C3  UNL     1     -35.010  16.051  -6.944  1.00 20.00     0.181 C 
HETATM   10  O10 UNL     1     -34.399  16.576  -7.917  1.00 20.00    -0.647 OA
HETATM   11  O11 UNL     1     -36.163  16.291  -6.488  1.00 20.00    -0.647 OA
ENDBRANCH   6   9
TORSDOF 1
ENDMDL
