MODEL 1
REMARK VINA RESULT:      -4.8      0.000      0.000
REMARK  3 active torsions:
REMARK  status: ('A' for Active; 'I' for Inactive)
REMARK    1  A    between atoms: C7_7  and  C8_8 
REMARK    2  A    between atoms: C8_8  and  N10_10 
REMARK    3  A    between atoms: C9_9  and  N10_10 
ROOT
HETATM    1  C1  UNL     1     -32.893   4.284   2.227  1.00 20.00     0.015 C 
HETATM    2  C2  UNL     1     -33.476   4.876   3.095  1.00 20.00    -0.076 C 
HETATM    3  C4  UNL     1     -35.520   6.142   3.613  1.00 20.00     0.063 C 
HETATM    4  C5  UNL     1     -34.462   4.664   5.340  1.00 20.00     0.063 C 
HETATM    5  C9  UNL     1     -34.194   5.604   4.162  1.00 20.00     0.213 C 
ENDROOT
BRANCH   5   6
HETATM    6  N10 UNL     1     -33.373   6.711   4.612  1.00 20.00     0.104 N 
HETATM    7  C6  UNL     1     -33.873   7.249   5.882  1.00 20.00     0.312 C 
BRANCH   6   8
HETATM    8  C8  UNL     1     -33.327   7.773   3.602  1.00 20.00     0.273 C 
BRANCH   8   9
HETATM    9  C7  UNL     1     -31.908   8.062   3.128  1.00 20.00     0.026 C 
HETATM   10  C3  UNL     1     -31.853   8.514   1.675  1.00 20.00     0.007 C 
ENDBRANCH   8   9
ENDBRANCH   6   8
ENDBRANCH   5   6
TORSDOF 3
ENDMDL
MODEL 2
REMARK VINA RESULT:      -4.7      0.940      2.645
REMARK  3 active torsions:
REMARK  status: ('A' for Active; 'I' for Inactive)
REMARK    1  A    between atoms: C7_7  and  C8_8 
REMARK    2  A    between atoms: C8_8  and  N10_10 
REMARK    3  A    between atoms: C9_9  and  N10_10 
ROOT
HETATM    1  C1  UNL     1     -33.607   7.411   5.984  1.00 20.00     0.015 C 
HETATM    2  C2  UNL     1     -33.974   6.686   5.099  1.00 20.00    -0.076 C 
HETATM    3  C4  UNL     1     -34.371   4.338   4.486  1.00 20.00     0.063 C 
HETATM    4  C5  UNL     1     -35.859   6.155   3.607  1.00 20.00     0.063 C 
HETATM    5  C9  UNL     1     -34.427   5.794   4.012  1.00 20.00     0.213 C 
ENDROOT
BRANCH   5   6
HETATM    6  N10 UNL     1     -33.552   5.962   2.868  1.00 20.00     0.104 N 
HETATM    7  C6  UNL     1     -32.825   4.721   2.579  1.00 20.00     0.312 C 
BRANCH   6   8
HETATM    8  C8  UNL     1     -32.604   7.058   3.091  1.00 20.00     0.273 C 
BRANCH   8   9
HETATM    9  C7  UNL     1     -32.834   8.227   2.141  1.00 20.00     0.026 C 
HETATM   10  C3  UNL     1     -31.590   8.589   1.341  1.00 20.00     0.007 C 
ENDBRANCH   8   9
ENDBRANCH   6   8
ENDBRANCH   5   6
TORSDOF 3
ENDMDL
MODEL 3
REMARK VINA RESULT:      -4.3      0.879      2.122
REMARK  3 active torsions:
REMARK  status: ('A' for Active; 'I' for Inactive)
REMARK    1  A    between atoms: C7_7  and  C8_8 
REMARK    2  A    between atoms: C8_8  and  N10_10 
REMARK    3  A    between atoms: C9_9  and  N10_10 
ROOT
HETATM    1  C1  UNL     1     -34.713   4.780   5.664  1.00 20.00     0.015 C 
HETATM    2  C2  UNL     1     -34.308   5.282   4.650  1.00 20.00    -0.076 C 
HETATM    3  C4  UNL     1     -32.999   4.869   2.610  1.00 20.00     0.063 C 
HETATM    4  C5  UNL     1     -34.991   6.392   2.562  1.00 20.00     0.063 C 
HETATM    5  C9  UNL     1     -33.810   5.899   3.404  1.00 20.00     0.213 C 
ENDROOT
BRANCH   5   6
HETATM    6  N10 UNL     1     -32.962   7.026   3.741  1.00 20.00     0.104 N 
HETATM    7  C6  UNL     1     -33.299   7.556   5.066  1.00 20.00     0.312 C 
BRANCH   6   8
HETATM    8  C8  UNL     1     -33.075   8.085   2.733  1.00 20.00     0.273 C 
BRANCH   8   9
HETATM    9  C7  UNL     1     -31.744   8.381   2.051  1.00 20.00     0.026 C 
HETATM   10  C3  UNL     1     -31.911   9.126   0.734  1.00 20.00     0.007 C 
ENDBRANCH   8   9
ENDBRANCH   6   8
ENDBRANCH   5   6
TORSDOF 3
ENDMDL
MODEL 4
REMARK VINA RESULT:      -4.2      1.258      3.836
REMARK  3 active torsions:
REMARK  status: ('A' for Active; 'I' for Inactive)
REMARK    1  A    between atoms: C7_7  and  C8_8 
REMARK    2  A    between atoms: C8_8  and  N10_10 
REMARK    3  A    between atoms: C9_9  and  N10_10 
ROOT
HETATM    1  C1  UNL     1     -32.933   9.588   1.101  1.00 20.00     0.015 C 
HETATM    2  C2  UNL     1     -32.764   8.749   1.944  1.00 20.00    -0.076 C 
HETATM    3  C4  UNL     1     -32.299   6.361   2.310  1.00 20.00     0.063 C 
HETATM    4  C5  UNL     1     -31.362   8.097   3.860  1.00 20.00     0.063 C 
HETATM    5  C9  UNL     1     -32.556   7.716   2.980  1.00 20.00     0.213 C 
ENDROOT
BRANCH   5   6
HETATM    6  N10 UNL     1     -33.746   7.627   3.804  1.00 20.00     0.104 N 
HETATM    7  C6  UNL     1     -33.398   7.641   5.229  1.00 20.00     0.312 C 
BRANCH   6   8
HETATM    8  C8  UNL     1     -34.513   6.418   3.488  1.00 20.00     0.273 C 
BRANCH   8   9
HETATM    9  C7  UNL     1     -34.806   5.577   4.725  1.00 20.00     0.026 C 
HETATM   10  C3  UNL     1     -34.359   4.130   4.571  1.00 20.00     0.007 C 
ENDBRANCH   8   9
ENDBRANCH   6   8
ENDBRANCH   5   6
TORSDOF 3
ENDMDL
MODEL 5
REMARK VINA RESULT:      -3.9      1.263      1.947
REMARK  3 active torsions:
REMARK  status: ('A' for Active; 'I' for Inactive)
REMARK    1  A    between atoms: C7_7  and  C8_8 
REMARK    2  A    between atoms: C8_8  and  N10_10 
REMARK    3  A    between atoms: C9_9  and  N10_10 
ROOT
HETATM    1  C1  UNL     1     -34.091   4.187   4.197  1.00 20.00     0.015 C 
HETATM    2  C2  UNL     1     -33.929   5.378   4.202  1.00 20.00    -0.076 C 
HETATM    3  C4  UNL     1     -34.935   7.526   3.552  1.00 20.00     0.063 C 
HETATM    4  C5  UNL     1     -33.570   7.337   5.648  1.00 20.00     0.063 C 
HETATM    5  C9  UNL     1     -33.730   6.842   4.208  1.00 20.00     0.213 C 
ENDROOT
BRANCH   5   6
HETATM    6  N10 UNL     1     -32.529   7.158   3.459  1.00 20.00     0.104 N 
HETATM    7  C6  UNL     1     -31.749   8.198   4.137  1.00 20.00     0.312 C 
BRANCH   6   8
HETATM    8  C8  UNL     1     -32.860   7.589   2.097  1.00 20.00     0.273 C 
BRANCH   8   9
HETATM    9  C7  UNL     1     -31.900   8.651   1.575  1.00 20.00     0.026 C 
HETATM   10  C3  UNL     1     -32.609   9.760   0.809  1.00 20.00     0.007 C 
ENDBRANCH   8   9
ENDBRANCH   6   8
ENDBRANCH   5   6
TORSDOF 3
ENDMDL
MODEL 6
REMARK VINA RESULT:      -3.7     11.880     13.232
REMARK  3 active torsions:
REMARK  status: ('A' for Active; 'I' for Inactive)
REMARK    1  A    between atoms: C7_7  and  C8_8 
REMARK    2  A    between atoms: C8_8  and  N10_10 
REMARK    3  A    between atoms: C9_9  and  N10_10 
ROOT
HETATM    1  C1  UNL     1     -34.054  16.979  -1.932  1.00 20.00     0.015 C 
HETATM    2  C2  UNL     1     -34.123  16.349  -2.952  1.00 20.00    -0.076 C 
HETATM    3  C4  UNL     1     -33.044  14.578  -4.275  1.00 20.00     0.063 C 
HETATM    4  C5  UNL     1     -35.541  14.820  -4.262  1.00 20.00     0.063 C 
HETATM    5  C9  UNL     1     -34.208  15.573  -4.207  1.00 20.00     0.213 C 
ENDROOT
BRANCH   5   6
HETATM    6  N10 UNL     1     -34.129  16.485  -5.332  1.00 20.00     0.104 N 
HETATM    7  C6  UNL     1     -35.469  16.832  -5.818  1.00 20.00     0.312 C 
BRANCH   6   8
HETATM    8  C8  UNL     1     -33.336  15.905  -6.420  1.00 20.00     0.273 C 
BRANCH   8   9
HETATM    9  C7  UNL     1     -34.192  15.524  -7.623  1.00 20.00     0.026 C 
HETATM   10  C3  UNL     1     -34.160  14.030  -7.918  1.00 20.00     0.007 C 
ENDBRANCH   8   9
ENDBRANCH   6   8
ENDBRANCH   5   6
TORSDOF 3
ENDMDL
MODEL 7
REMARK VINA RESULT:      -3.7     11.618     12.627
REMARK  3 active torsions:
REMARK  status: ('A' for Active; 'I' for Inactive)
REMARK    1  A    between atoms: C7_7  and  C8_8 
REMARK    2  A    between atoms: C8_8  and  N10_10 
REMARK    3  A    between atoms: C9_9  and  N10_10 
ROOT
HETATM    1  C1  UNL     1     -33.957  14.777  -7.794  1.00 20.00     0.015 C 
HETATM    2  C2  UNL     1     -34.129  14.750  -6.605  1.00 20.00    -0.076 C 
HETATM    3  C4  UNL     1     -35.509  13.780  -4.816  1.00 20.00     0.063 C 
HETATM    4  C5  UNL     1     -33.068  14.224  -4.447  1.00 20.00     0.063 C 
HETATM    5  C9  UNL     1     -34.340  14.716  -5.144  1.00 20.00     0.213 C 
ENDROOT
BRANCH   5   6
HETATM    6  N10 UNL     1     -34.650  16.055  -4.680  1.00 20.00     0.104 N 
HETATM    7  C6  UNL     1     -33.439  16.881  -4.621  1.00 20.00     0.312 C 
BRANCH   6   8
HETATM    8  C8  UNL     1     -35.294  16.016  -3.363  1.00 20.00     0.273 C 
BRANCH   8   9
HETATM    9  C7  UNL     1     -34.485  16.751  -2.300  1.00 20.00     0.026 C 
HETATM   10  C3  UNL     1     -35.296  17.052  -1.048  1.00 20.00     0.007 C 
ENDBRANCH   8   9
ENDBRANCH   6   8
ENDBRANCH   5   6
TORSDOF 3
ENDMDL
MODEL 8
REMARK VINA RESULT:      -3.6     11.766     12.731
REMARK  3 active torsions:
REMARK  status: ('A' for Active; 'I' for Inactive)
REMARK    1  A    between atoms: C7_7  and  C8_8 
REMARK    2  A    between atoms: C8_8  and  N10_10 
REMARK    3  A    between atoms: C9_9  and  N10_10 
ROOT
HETATM    1  C1  UNL     1     -36.184  13.689  -5.242  1.00 20.00     0.015 C 
HETATM    2  C2  UNL     1     -35.204  14.382  -5.185  1.00 20.00    -0.076 C 
HETATM    3  C4  UNL     1     -32.885  14.487  -4.373  1.00 20.00     0.063 C 
HETATM    4  C5  UNL     1     -33.533  15.589  -6.531  1.00 20.00     0.063 C 
HETATM    5  C9  UNL     1     -33.998  15.233  -5.116  1.00 20.00     0.213 C 
ENDROOT
BRANCH   5   6
HETATM    6  N10 UNL     1     -34.322  16.452  -4.400  1.00 20.00     0.104 N 
HETATM    7  C6  UNL     1     -33.614  17.601  -4.976  1.00 20.00     0.312 C 
BRANCH   6   8
HETATM    8  C8  UNL     1     -33.995  16.325  -2.976  1.00 20.00     0.273 C 
BRANCH   8   9
HETATM    9  C7  UNL     1     -35.185  16.636  -2.077  1.00 20.00     0.026 C 
HETATM   10  C3  UNL     1     -34.786  17.369  -0.804  1.00 20.00     0.007 C 
ENDBRANCH   8   9
ENDBRANCH   6   8
ENDBRANCH   5   6
TORSDOF 3
ENDMDL
MODEL 9
REMARK VINA RESULT:      -3.6      1.010      3.451
REMARK  3 active torsions:
REMARK  status: ('A' for Active; 'I' for Inactive)
REMARK    1  A    between atoms: C7_7  and  C8_8 
REMARK    2  A    between atoms: C8_8  and  N10_10 
REMARK    3  A    between atoms: C9_9  and  N10_10 
ROOT
HETATM    1  C1  UNL     1     -32.787   4.883   2.323  1.00 20.00     0.015 C 
HETATM    2  C2  UNL     1     -32.819   6.038   2.655  1.00 20.00    -0.076 C 
HETATM    3  C4  UNL     1     -31.471   7.887   3.556  1.00 20.00     0.063 C 
HETATM    4  C5  UNL     1     -33.279   8.326   1.874  1.00 20.00     0.063 C 
HETATM    5  C9  UNL     1     -32.857   7.457   3.062  1.00 20.00     0.213 C 
ENDROOT
BRANCH   5   6
HETATM    6  N10 UNL     1     -33.821   7.615   4.134  1.00 20.00     0.104 N 
HETATM    7  C6  UNL     1     -33.146   7.729   5.432  1.00 20.00     0.312 C 
BRANCH   6   8
HETATM    8  C8  UNL     1     -34.764   6.492   4.158  1.00 20.00     0.273 C 
BRANCH   8   9
HETATM    9  C7  UNL     1     -34.784   5.780   5.506  1.00 20.00     0.026 C 
HETATM   10  C3  UNL     1     -34.511   4.287   5.386  1.00 20.00     0.007 C 
ENDBRANCH   8   9
ENDBRANCH   6   8
ENDBRANCH   5   6
TORSDOF 3
ENDMDL
