MODEL 1
REMARK VINA RESULT:      -6.5      0.000      0.000
REMARK  1 active torsions:
REMARK  status: ('A' for Active; 'I' for Inactive)
REMARK    1  A    between atoms: C5_5  and  O10_10 
ROOT
HETATM    1  C1  UNL     1     -33.611   7.182   5.853  1.00 20.00     0.011 A 
HETATM    2  C2  UNL     1     -34.416   6.043   5.786  1.00 20.00     0.040 A 
HETATM    3  C3  UNL     1     -32.957   7.591   4.703  1.00 20.00    -0.049 A 
HETATM    4  C4  UNL     1     -33.107   6.894   3.499  1.00 20.00    -0.010 A 
HETATM    5  C5  UNL     1     -34.567   5.343   4.579  1.00 20.00     0.104 A 
HETATM    6  C6  UNL     1     -33.914   5.771   3.420  1.00 20.00     0.156 A 
HETATM    7  C7  UNL     1     -32.080   8.790   4.519  1.00 20.00     0.039 C 
HETATM    8  C8  UNL     1     -32.346   7.561   2.398  1.00 20.00     0.042 C 
HETATM    9  C9  UNL     1     -31.375   8.441   3.199  1.00 20.00     0.009 C 
HETATM   10  F11 UNL     1     -34.066   5.115   2.264  1.00 20.00    -0.203 F 
ENDROOT
BRANCH   5  11
HETATM   11  O10 UNL     1     -35.364   4.238   4.537  1.00 20.00    -0.358 OA
HETATM   12  H20 UNL     1     -36.240   4.471   4.191  1.00 20.00     0.217 HD
ENDBRANCH   5  11
TORSDOF 1
ENDMDL
MODEL 2
REMARK VINA RESULT:      -6.1      2.580      4.171
REMARK  1 active torsions:
REMARK  status: ('A' for Active; 'I' for Inactive)
REMARK    1  A    between atoms: C5_5  and  O10_10 
ROOT
HETATM    1  C1  UNL     1     -33.824   6.100   2.422  1.00 20.00     0.011 A 
HETATM    2  C2  UNL     1     -32.870   6.997   1.935  1.00 20.00     0.040 A 
HETATM    3  C3  UNL     1     -34.101   6.109   3.778  1.00 20.00    -0.049 A 
HETATM    4  C4  UNL     1     -33.454   7.001   4.642  1.00 20.00    -0.010 A 
HETATM    5  C5  UNL     1     -32.221   7.891   2.801  1.00 20.00     0.104 A 
HETATM    6  C6  UNL     1     -32.516   7.902   4.166  1.00 20.00     0.156 A 
HETATM    7  C7  UNL     1     -35.100   5.279   4.521  1.00 20.00     0.039 C 
HETATM    8  C8  UNL     1     -33.961   6.851   6.041  1.00 20.00     0.042 C 
HETATM    9  C9  UNL     1     -34.625   5.467   5.970  1.00 20.00     0.009 C 
HETATM   10  F11 UNL     1     -31.910   8.762   4.994  1.00 20.00    -0.203 F 
ENDROOT
BRANCH   5  11
HETATM   11  O10 UNL     1     -31.299   8.760   2.302  1.00 20.00    -0.358 OA
HETATM   12  H20 UNL     1     -31.206   8.637   1.344  1.00 20.00     0.217 HD
ENDBRANCH   5  11
TORSDOF 1
ENDMDL
MODEL 3
REMARK VINA RESULT:      -6.1      1.715      2.487
REMARK  1 active torsions:
REMARK  status: ('A' for Active; 'I' for Inactive)
REMARK    1  A    between atoms: C5_5  and  O10_10 
ROOT
HETATM    1  C1  UNL     1     -34.021   5.880   2.627  1.00 20.00     0.011 A 
HETATM    2  C2  UNL     1     -34.683   5.386   3.754  1.00 20.00     0.040 A 
HETATM    3  C3  UNL     1     -33.124   6.921   2.798  1.00 20.00    -0.049 A 
HETATM    4  C4  UNL     1     -32.873   7.458   4.066  1.00 20.00    -0.010 A 
HETATM    5  C5  UNL     1     -34.431   5.924   5.025  1.00 20.00     0.104 A 
HETATM    6  C6  UNL     1     -33.514   6.965   5.190  1.00 20.00     0.156 A 
HETATM    7  C7  UNL     1     -32.275   7.585   1.760  1.00 20.00     0.039 C 
HETATM    8  C8  UNL     1     -31.833   8.530   3.994  1.00 20.00     0.042 C 
HETATM    9  C9  UNL     1     -31.856   8.868   2.495  1.00 20.00     0.009 C 
HETATM   10  F11 UNL     1     -33.261   7.473   6.402  1.00 20.00    -0.203 F 
ENDROOT
BRANCH   5  11
HETATM   11  O10 UNL     1     -35.084   5.421   6.110  1.00 20.00    -0.358 OA
HETATM   12  H20 UNL     1     -34.742   4.539   6.327  1.00 20.00     0.217 HD
ENDBRANCH   5  11
TORSDOF 1
ENDMDL
MODEL 4
REMARK VINA RESULT:      -5.1      2.127      3.544
REMARK  1 active torsions:
REMARK  status: ('A' for Active; 'I' for Inactive)
REMARK    1  A    between atoms: C5_5  and  O10_10 
ROOT
HETATM    1  C1  UNL     1     -33.408   7.531   5.740  1.00 20.00     0.011 A 
HETATM    2  C2  UNL     1     -32.640   8.370   4.929  1.00 20.00     0.040 A 
HETATM    3  C3  UNL     1     -33.841   6.327   5.212  1.00 20.00    -0.049 A 
HETATM    4  C4  UNL     1     -33.510   5.949   3.906  1.00 20.00    -0.010 A 
HETATM    5  C5  UNL     1     -32.308   7.992   3.619  1.00 20.00     0.104 A 
HETATM    6  C6  UNL     1     -32.738   6.768   3.099  1.00 20.00     0.156 A 
HETATM    7  C7  UNL     1     -34.634   5.255   5.892  1.00 20.00     0.039 C 
HETATM    8  C8  UNL     1     -34.049   4.590   3.591  1.00 20.00     0.042 C 
HETATM    9  C9  UNL     1     -35.114   4.431   4.686  1.00 20.00     0.009 C 
HETATM   10  F11 UNL     1     -32.413   6.397   1.855  1.00 20.00    -0.203 F 
ENDROOT
BRANCH   5  11
HETATM   11  O10 UNL     1     -31.552   8.825   2.850  1.00 20.00    -0.358 OA
HETATM   12  H20 UNL     1     -30.625   8.539   2.858  1.00 20.00     0.217 HD
ENDBRANCH   5  11
TORSDOF 1
ENDMDL
MODEL 5
REMARK VINA RESULT:      -5.1     11.605     12.071
REMARK  1 active torsions:
REMARK  status: ('A' for Active; 'I' for Inactive)
REMARK    1  A    between atoms: C5_5  and  O10_10 
ROOT
HETATM    1  C1  UNL     1     -37.197  15.475  -4.162  1.00 20.00     0.011 A 
HETATM    2  C2  UNL     1     -36.934  14.338  -4.931  1.00 20.00     0.040 A 
HETATM    3  C3  UNL     1     -36.150  16.046  -3.459  1.00 20.00    -0.049 A 
HETATM    4  C4  UNL     1     -34.858  15.512  -3.524  1.00 20.00    -0.010 A 
HETATM    5  C5  UNL     1     -35.639  13.802  -4.997  1.00 20.00     0.104 A 
HETATM    6  C6  UNL     1     -34.586  14.394  -4.294  1.00 20.00     0.156 A 
HETATM    7  C7  UNL     1     -36.176  17.276  -2.607  1.00 20.00     0.039 C 
HETATM    8  C8  UNL     1     -33.900  16.335  -2.724  1.00 20.00     0.042 C 
HETATM    9  C9  UNL     1     -34.864  17.121  -1.822  1.00 20.00     0.009 C 
HETATM   10  F11 UNL     1     -33.346  13.894  -4.364  1.00 20.00    -0.203 F 
ENDROOT
BRANCH   5  11
HETATM   11  O10 UNL     1     -35.407  12.697  -5.759  1.00 20.00    -0.358 OA
HETATM   12  H20 UNL     1     -34.785  12.908  -6.474  1.00 20.00     0.217 HD
ENDBRANCH   5  11
TORSDOF 1
ENDMDL
MODEL 6
REMARK VINA RESULT:      -4.7     12.049     12.470
REMARK  1 active torsions:
REMARK  status: ('A' for Active; 'I' for Inactive)
REMARK    1  A    between atoms: C5_5  and  O10_10 
ROOT
HETATM    1  C1  UNL     1     -32.542  18.319  -0.962  1.00 20.00     0.011 A 
HETATM    2  C2  UNL     1     -32.823  18.748   0.337  1.00 20.00     0.040 A 
HETATM    3  C3  UNL     1     -33.516  17.608  -1.643  1.00 20.00    -0.049 A 
HETATM    4  C4  UNL     1     -34.757  17.336  -1.054  1.00 20.00    -0.010 A 
HETATM    5  C5  UNL     1     -34.067  18.475   0.928  1.00 20.00     0.104 A 
HETATM    6  C6  UNL     1     -35.049  17.769   0.228  1.00 20.00     0.156 A 
HETATM    7  C7  UNL     1     -33.465  17.083  -3.043  1.00 20.00     0.039 C 
HETATM    8  C8  UNL     1     -35.649  16.605  -2.005  1.00 20.00     0.042 C 
HETATM    9  C9  UNL     1     -34.629  16.080  -3.027  1.00 20.00     0.009 C 
HETATM   10  F11 UNL     1     -36.241  17.518   0.783  1.00 20.00    -0.203 F 
ENDROOT
BRANCH   5  11
HETATM   11  O10 UNL     1     -34.320  18.910   2.194  1.00 20.00    -0.358 OA
HETATM   12  H20 UNL     1     -35.060  19.537   2.191  1.00 20.00     0.217 HD
ENDBRANCH   5  11
TORSDOF 1
ENDMDL
MODEL 7
REMARK VINA RESULT:      -4.6     11.982     12.190
REMARK  1 active torsions:
REMARK  status: ('A' for Active; 'I' for Inactive)
REMARK    1  A    between atoms: C5_5  and  O10_10 
ROOT
HETATM    1  C1  UNL     1     -35.142  18.187   1.109  1.00 20.00     0.011 A 
HETATM    2  C2  UNL     1     -35.858  17.509   0.120  1.00 20.00     0.040 A 
HETATM    3  C3  UNL     1     -33.807  18.471   0.873  1.00 20.00    -0.049 A 
HETATM    4  C4  UNL     1     -33.191  18.104  -0.329  1.00 20.00    -0.010 A 
HETATM    5  C5  UNL     1     -35.241  17.141  -1.086  1.00 20.00     0.104 A 
HETATM    6  C6  UNL     1     -33.898  17.444  -1.320  1.00 20.00     0.156 A 
HETATM    7  C7  UNL     1     -32.853  19.213   1.755  1.00 20.00     0.039 C 
HETATM    8  C8  UNL     1     -31.770  18.567  -0.363  1.00 20.00     0.042 C 
HETATM    9  C9  UNL     1     -31.505  18.824   1.128  1.00 20.00     0.009 C 
HETATM   10  F11 UNL     1     -33.308  17.106  -2.474  1.00 20.00    -0.203 F 
ENDROOT
BRANCH   5  11
HETATM   11  O10 UNL     1     -35.963  16.487  -2.038  1.00 20.00    -0.358 OA
HETATM   12  H20 UNL     1     -36.905  16.699  -1.949  1.00 20.00     0.217 HD
ENDBRANCH   5  11
TORSDOF 1
ENDMDL
MODEL 8
REMARK VINA RESULT:      -4.5     11.680     12.144
REMARK  1 active torsions:
REMARK  status: ('A' for Active; 'I' for Inactive)
REMARK    1  A    between atoms: C5_5  and  O10_10 
ROOT
HETATM    1  C1  UNL     1     -33.279  15.056  -4.005  1.00 20.00     0.011 A 
HETATM    2  C2  UNL     1     -33.928  14.016  -4.675  1.00 20.00     0.040 A 
HETATM    3  C3  UNL     1     -34.054  16.023  -3.387  1.00 20.00    -0.049 A 
HETATM    4  C4  UNL     1     -35.452  15.956  -3.417  1.00 20.00    -0.010 A 
HETATM    5  C5  UNL     1     -35.329  13.950  -4.706  1.00 20.00     0.104 A 
HETATM    6  C6  UNL     1     -36.103  14.921  -4.067  1.00 20.00     0.156 A 
HETATM    7  C7  UNL     1     -33.594  17.198  -2.584  1.00 20.00     0.039 C 
HETATM    8  C8  UNL     1     -36.056  17.080  -2.637  1.00 20.00     0.042 C 
HETATM    9  C9  UNL     1     -34.871  18.053  -2.551  1.00 20.00     0.009 C 
HETATM   10  F11 UNL     1     -37.440  14.854  -4.082  1.00 20.00    -0.203 F 
ENDROOT
BRANCH   5  11
HETATM   11  O10 UNL     1     -35.939  12.921  -5.359  1.00 20.00    -0.358 OA
HETATM   12  H20 UNL     1     -36.681  13.254  -5.889  1.00 20.00     0.217 HD
ENDBRANCH   5  11
TORSDOF 1
ENDMDL
MODEL 9
REMARK VINA RESULT:      -4.5     12.294     12.667
REMARK  1 active torsions:
REMARK  status: ('A' for Active; 'I' for Inactive)
REMARK    1  A    between atoms: C5_5  and  O10_10 
ROOT
HETATM    1  C1  UNL     1     -33.792  18.672   2.644  1.00 20.00     0.011 A 
HETATM    2  C2  UNL     1     -32.437  19.012   2.660  1.00 20.00     0.040 A 
HETATM    3  C3  UNL     1     -34.352  18.267   1.444  1.00 20.00    -0.049 A 
HETATM    4  C4  UNL     1     -33.582  18.186   0.278  1.00 20.00    -0.010 A 
HETATM    5  C5  UNL     1     -31.665  18.932   1.491  1.00 20.00     0.104 A 
HETATM    6  C6  UNL     1     -32.236  18.509   0.288  1.00 20.00     0.156 A 
HETATM    7  C7  UNL     1     -35.756  17.819   1.187  1.00 20.00     0.039 C 
HETATM    8  C8  UNL     1     -34.399  17.677  -0.866  1.00 20.00     0.042 C 
HETATM    9  C9  UNL     1     -35.824  17.918  -0.345  1.00 20.00     0.009 C 
HETATM   10  F11 UNL     1     -31.500  18.418  -0.827  1.00 20.00    -0.203 F 
ENDROOT
BRANCH   5  11
HETATM   11  O10 UNL     1     -30.344  19.263   1.533  1.00 20.00    -0.358 OA
HETATM   12  H20 UNL     1     -29.968  19.029   2.396  1.00 20.00     0.217 HD
ENDBRANCH   5  11
TORSDOF 1
ENDMDL
