MODEL 1
REMARK VINA RESULT:      -4.1      0.000      0.000
REMARK  0 active torsions:
REMARK  status: ('A' for Active; 'I' for Inactive)
ROOT
HETATM    1  C1  UNL     1     -33.435   7.753   6.091  1.00 20.00     0.015 C 
HETATM    2  C2  UNL     1     -33.255   4.277   2.588  1.00 20.00     0.015 C 
HETATM    3  C3  UNL     1     -32.978   7.664   4.984  1.00 20.00    -0.082 C 
HETATM    4  C4  UNL     1     -33.316   5.476   2.615  1.00 20.00    -0.082 C 
HETATM    5  C5  UNL     1     -32.421   7.554   3.635  1.00 20.00     0.243 C 
HETATM    6  C6  UNL     1     -33.392   6.937   2.646  1.00 20.00     0.243 C 
HETATM    7  C7  UNL     1     -32.377   8.739   1.687  1.00 20.00     0.160 C 
HETATM    8  C8  UNL     1     -33.302   9.859   1.230  1.00 20.00     0.078 C 
HETATM    9  C9  UNL     1     -31.029   8.813   0.982  1.00 20.00     0.078 C 
HETATM   10  O10 UNL     1     -32.177   8.861   3.101  1.00 20.00    -0.335 OA
HETATM   11  O11 UNL     1     -32.982   7.476   1.385  1.00 20.00    -0.335 OA
ENDROOT
TORSDOF 0
ENDMDL
MODEL 2
REMARK VINA RESULT:      -4.1      0.032      2.986
REMARK  0 active torsions:
REMARK  status: ('A' for Active; 'I' for Inactive)
ROOT
HETATM    1  C1  UNL     1     -33.264   4.266   2.565  1.00 20.00     0.015 C 
HETATM    2  C2  UNL     1     -33.485   7.716   6.091  1.00 20.00     0.015 C 
HETATM    3  C3  UNL     1     -33.328   5.465   2.599  1.00 20.00    -0.082 C 
HETATM    4  C4  UNL     1     -33.017   7.635   4.988  1.00 20.00    -0.082 C 
HETATM    5  C5  UNL     1     -33.407   6.926   2.641  1.00 20.00     0.243 C 
HETATM    6  C6  UNL     1     -32.446   7.538   3.644  1.00 20.00     0.243 C 
HETATM    7  C7  UNL     1     -32.382   8.735   1.705  1.00 20.00     0.160 C 
HETATM    8  C8  UNL     1     -31.026   8.814   1.015  1.00 20.00     0.078 C 
HETATM    9  C9  UNL     1     -33.302   9.858   1.244  1.00 20.00     0.078 C 
HETATM   10  O10 UNL     1     -32.983   7.473   1.387  1.00 20.00    -0.335 OA
HETATM   11  O11 UNL     1     -32.198   8.847   3.122  1.00 20.00    -0.335 OA
ENDROOT
TORSDOF 0
ENDMDL
MODEL 3
REMARK VINA RESULT:      -4.0     10.188     11.479
REMARK  0 active torsions:
REMARK  status: ('A' for Active; 'I' for Inactive)
ROOT
HETATM    1  C1  UNL     1     -32.552  14.200  -4.326  1.00 20.00     0.015 C 
HETATM    2  C2  UNL     1     -35.275  16.921  -1.233  1.00 20.00     0.015 C 
HETATM    3  C3  UNL     1     -33.719  14.441  -4.186  1.00 20.00    -0.082 C 
HETATM    4  C4  UNL     1     -35.339  16.600  -2.388  1.00 20.00    -0.082 C 
HETATM    5  C5  UNL     1     -35.144  14.734  -4.014  1.00 20.00     0.243 C 
HETATM    6  C6  UNL     1     -35.418  16.211  -3.797  1.00 20.00     0.243 C 
HETATM    7  C7  UNL     1     -36.937  15.365  -5.272  1.00 20.00     0.160 C 
HETATM    8  C8  UNL     1     -36.956  16.011  -6.651  1.00 20.00     0.078 C 
HETATM    9  C9  UNL     1     -38.243  14.635  -4.985  1.00 20.00     0.078 C 
HETATM   10  O10 UNL     1     -35.853  14.430  -5.220  1.00 20.00    -0.335 OA
HETATM   11  O11 UNL     1     -36.755  16.382  -4.278  1.00 20.00    -0.335 OA
ENDROOT
TORSDOF 0
ENDMDL
MODEL 4
REMARK VINA RESULT:      -4.0     10.247     11.231
REMARK  0 active torsions:
REMARK  status: ('A' for Active; 'I' for Inactive)
ROOT
HETATM    1  C1  UNL     1     -35.192  17.013  -1.168  1.00 20.00     0.015 C 
HETATM    2  C2  UNL     1     -32.542  14.304  -4.334  1.00 20.00     0.015 C 
HETATM    3  C3  UNL     1     -35.281  16.701  -2.324  1.00 20.00    -0.082 C 
HETATM    4  C4  UNL     1     -33.706  14.548  -4.168  1.00 20.00    -0.082 C 
HETATM    5  C5  UNL     1     -35.389  16.321  -3.734  1.00 20.00     0.243 C 
HETATM    6  C6  UNL     1     -35.125  14.845  -3.966  1.00 20.00     0.243 C 
HETATM    7  C7  UNL     1     -36.943  15.491  -5.181  1.00 20.00     0.160 C 
HETATM    8  C8  UNL     1     -38.245  14.763  -4.870  1.00 20.00     0.078 C 
HETATM    9  C9  UNL     1     -36.991  16.146  -6.556  1.00 20.00     0.078 C 
HETATM   10  O10 UNL     1     -36.736  16.501  -4.185  1.00 20.00    -0.335 OA
HETATM   11  O11 UNL     1     -35.861  14.552  -5.159  1.00 20.00    -0.335 OA
ENDROOT
TORSDOF 0
ENDMDL
MODEL 5
REMARK VINA RESULT:      -3.9     10.338     11.552
REMARK  0 active torsions:
REMARK  status: ('A' for Active; 'I' for Inactive)
ROOT
HETATM    1  C1  UNL     1     -32.681  18.155  -1.145  1.00 20.00     0.015 C 
HETATM    2  C2  UNL     1     -37.447  18.212  -2.433  1.00 20.00     0.015 C 
HETATM    3  C3  UNL     1     -33.411  17.451  -1.786  1.00 20.00    -0.082 C 
HETATM    4  C4  UNL     1     -36.422  17.833  -2.929  1.00 20.00    -0.082 C 
HETATM    5  C5  UNL     1     -34.303  16.591  -2.567  1.00 20.00     0.243 C 
HETATM    6  C6  UNL     1     -35.172  17.372  -3.536  1.00 20.00     0.243 C 
HETATM    7  C7  UNL     1     -34.339  15.525  -4.582  1.00 20.00     0.160 C 
HETATM    8  C8  UNL     1     -33.487  15.787  -5.817  1.00 20.00     0.078 C 
HETATM    9  C9  UNL     1     -34.874  14.099  -4.572  1.00 20.00     0.078 C 
HETATM   10  O10 UNL     1     -33.532  15.734  -3.416  1.00 20.00    -0.335 OA
HETATM   11  O11 UNL     1     -35.451  16.430  -4.576  1.00 20.00    -0.335 OA
ENDROOT
TORSDOF 0
ENDMDL
MODEL 6
REMARK VINA RESULT:      -3.9     10.291     11.615
REMARK  0 active torsions:
REMARK  status: ('A' for Active; 'I' for Inactive)
ROOT
HETATM    1  C1  UNL     1     -37.434  18.184  -2.672  1.00 20.00     0.015 C 
HETATM    2  C2  UNL     1     -32.731  18.138  -1.167  1.00 20.00     0.015 C 
HETATM    3  C3  UNL     1     -36.389  17.790  -3.113  1.00 20.00    -0.082 C 
HETATM    4  C4  UNL     1     -33.436  17.422  -1.825  1.00 20.00    -0.082 C 
HETATM    5  C5  UNL     1     -35.114  17.311  -3.651  1.00 20.00     0.243 C 
HETATM    6  C6  UNL     1     -34.293  16.549  -2.627  1.00 20.00     0.243 C 
HETATM    7  C7  UNL     1     -34.247  15.436  -4.616  1.00 20.00     0.160 C 
HETATM    8  C8  UNL     1     -34.790  14.013  -4.596  1.00 20.00     0.078 C 
HETATM    9  C9  UNL     1     -33.338  15.664  -5.818  1.00 20.00     0.078 C 
HETATM   10  O10 UNL     1     -35.352  16.346  -4.682  1.00 20.00    -0.335 OA
HETATM   11  O11 UNL     1     -33.491  15.669  -3.421  1.00 20.00    -0.335 OA
ENDROOT
TORSDOF 0
ENDMDL
MODEL 7
REMARK VINA RESULT:      -3.9     10.771     11.926
REMARK  0 active torsions:
REMARK  status: ('A' for Active; 'I' for Inactive)
ROOT
HETATM    1  C1  UNL     1     -38.750  15.207  -4.530  1.00 20.00     0.015 C 
HETATM    2  C2  UNL     1     -34.552  16.544  -2.300  1.00 20.00     0.015 C 
HETATM    3  C3  UNL     1     -37.632  15.469  -4.879  1.00 20.00    -0.082 C 
HETATM    4  C4  UNL     1     -34.850  15.899  -3.269  1.00 20.00    -0.082 C 
HETATM    5  C5  UNL     1     -36.268  15.789  -5.304  1.00 20.00     0.243 C 
HETATM    6  C6  UNL     1     -35.212  15.113  -4.449  1.00 20.00     0.243 C 
HETATM    7  C7  UNL     1     -34.636  14.935  -6.648  1.00 20.00     0.160 C 
HETATM    8  C8  UNL     1     -34.486  13.518  -7.185  1.00 20.00     0.078 C 
HETATM    9  C9  UNL     1     -33.904  15.940  -7.528  1.00 20.00     0.078 C 
HETATM   10  O10 UNL     1     -36.031  15.266  -6.615  1.00 20.00    -0.335 OA
HETATM   11  O11 UNL     1     -34.086  15.000  -5.326  1.00 20.00    -0.335 OA
ENDROOT
TORSDOF 0
ENDMDL
MODEL 8
REMARK VINA RESULT:      -3.9     10.769     11.740
REMARK  0 active torsions:
REMARK  status: ('A' for Active; 'I' for Inactive)
ROOT
HETATM    1  C1  UNL     1     -34.543  16.564  -2.271  1.00 20.00     0.015 C 
HETATM    2  C2  UNL     1     -38.745  15.240  -4.501  1.00 20.00     0.015 C 
HETATM    3  C3  UNL     1     -34.842  15.920  -3.239  1.00 20.00    -0.082 C 
HETATM    4  C4  UNL     1     -37.625  15.499  -4.849  1.00 20.00    -0.082 C 
HETATM    5  C5  UNL     1     -35.207  15.135  -4.420  1.00 20.00     0.243 C 
HETATM    6  C6  UNL     1     -36.261  15.814  -5.275  1.00 20.00     0.243 C 
HETATM    7  C7  UNL     1     -34.630  14.958  -6.618  1.00 20.00     0.160 C 
HETATM    8  C8  UNL     1     -33.895  15.962  -7.497  1.00 20.00     0.078 C 
HETATM    9  C9  UNL     1     -34.482  13.541  -7.156  1.00 20.00     0.078 C 
HETATM   10  O10 UNL     1     -34.081  15.020  -5.296  1.00 20.00    -0.335 OA
HETATM   11  O11 UNL     1     -36.023  15.291  -6.586  1.00 20.00    -0.335 OA
ENDROOT
TORSDOF 0
ENDMDL
MODEL 9
REMARK VINA RESULT:      -3.8     10.397     11.597
REMARK  0 active torsions:
REMARK  status: ('A' for Active; 'I' for Inactive)
ROOT
HETATM    1  C1  UNL     1     -37.233  18.358  -1.135  1.00 20.00     0.015 C 
HETATM    2  C2  UNL     1     -32.338  18.612  -0.537  1.00 20.00     0.015 C 
HETATM    3  C3  UNL     1     -36.267  18.126  -1.809  1.00 20.00    -0.082 C 
HETATM    4  C4  UNL     1     -33.100  17.910  -1.145  1.00 20.00    -0.082 C 
HETATM    5  C5  UNL     1     -35.088  17.844  -2.630  1.00 20.00     0.243 C 
HETATM    6  C6  UNL     1     -34.028  17.054  -1.885  1.00 20.00     0.243 C 
HETATM    7  C7  UNL     1     -34.284  16.194  -3.981  1.00 20.00     0.160 C 
HETATM    8  C8  UNL     1     -34.701  14.730  -4.054  1.00 20.00     0.078 C 
HETATM    9  C9  UNL     1     -33.647  16.652  -5.287  1.00 20.00     0.078 C 
HETATM   10  O10 UNL     1     -35.448  16.988  -3.720  1.00 20.00    -0.335 OA
HETATM   11  O11 UNL     1     -33.330  16.360  -2.924  1.00 20.00    -0.335 OA
ENDROOT
TORSDOF 0
ENDMDL
