MODEL 1
REMARK VINA RESULT:      -4.7      0.000      0.000
REMARK  0 active torsions:
REMARK  status: ('A' for Active; 'I' for Inactive)
ROOT
HETATM    1  C1  UNL     1     -32.561   7.857   2.587  1.00 20.00     0.066 C 
HETATM    2  C2  UNL     1     -33.652   4.143   4.720  1.00 20.00     0.031 C 
HETATM    3  C3  UNL     1     -33.693   4.298   3.197  1.00 20.00     0.009 C 
HETATM    4  C4  UNL     1     -34.671   5.053   5.421  1.00 20.00     0.272 C 
HETATM    5  C5  UNL     1     -33.491   7.096   4.767  1.00 20.00     0.292 C 
HETATM    6  C6  UNL     1     -35.190   6.272   3.418  1.00 20.00     0.278 C 
HETATM    7  C7  UNL     1     -32.845   6.683   3.430  1.00 20.00     0.127 C 
HETATM    8  C8  UNL     1     -33.899   5.767   2.782  1.00 20.00     0.033 C 
HETATM    9  N9  UNL     1     -32.337   8.782   1.924  1.00 20.00    -0.197 NA
HETATM   10  N10 UNL     1     -34.799   6.404   4.833  1.00 20.00     0.090 N 
ENDROOT
TORSDOF 0
ENDMDL
MODEL 2
REMARK VINA RESULT:      -4.6     11.587     12.757
REMARK  0 active torsions:
REMARK  status: ('A' for Active; 'I' for Inactive)
ROOT
HETATM    1  C1  UNL     1     -35.325  13.753  -4.701  1.00 20.00     0.066 C 
HETATM    2  C2  UNL     1     -33.726  17.047  -2.226  1.00 20.00     0.031 C 
HETATM    3  C3  UNL     1     -35.169  16.541  -2.148  1.00 20.00     0.009 C 
HETATM    4  C4  UNL     1     -33.409  17.681  -3.587  1.00 20.00     0.272 C 
HETATM    5  C5  UNL     1     -33.602  15.547  -4.773  1.00 20.00     0.292 C 
HETATM    6  C6  UNL     1     -35.458  16.928  -4.588  1.00 20.00     0.278 C 
HETATM    7  C7  UNL     1     -34.641  14.795  -3.917  1.00 20.00     0.127 C 
HETATM    8  C8  UNL     1     -35.618  15.898  -3.473  1.00 20.00     0.033 C 
HETATM    9  N9  UNL     1     -35.864  12.931  -5.319  1.00 20.00    -0.197 NA
HETATM   10  N10 UNL     1     -33.994  16.976  -4.748  1.00 20.00     0.090 N 
ENDROOT
TORSDOF 0
ENDMDL
MODEL 3
REMARK VINA RESULT:      -4.2     11.908     13.009
REMARK  0 active torsions:
REMARK  status: ('A' for Active; 'I' for Inactive)
ROOT
HETATM    1  C1  UNL     1     -37.151  14.371  -5.160  1.00 20.00     0.066 C 
HETATM    2  C2  UNL     1     -32.914  15.617  -5.318  1.00 20.00     0.031 C 
HETATM    3  C3  UNL     1     -33.433  14.455  -4.466  1.00 20.00     0.009 C 
HETATM    4  C4  UNL     1     -33.477  16.969  -4.855  1.00 20.00     0.272 C 
HETATM    5  C5  UNL     1     -35.758  16.398  -5.537  1.00 20.00     0.292 C 
HETATM    6  C6  UNL     1     -35.070  15.969  -3.363  1.00 20.00     0.278 C 
HETATM    7  C7  UNL     1     -35.778  14.869  -5.352  1.00 20.00     0.127 C 
HETATM    8  C8  UNL     1     -34.916  14.640  -4.097  1.00 20.00     0.033 C 
HETATM    9  N9  UNL     1     -38.233  13.979  -5.009  1.00 20.00    -0.197 NA
HETATM   10  N10 UNL     1     -34.901  16.941  -4.457  1.00 20.00     0.090 N 
ENDROOT
TORSDOF 0
ENDMDL
MODEL 4
REMARK VINA RESULT:      -4.1     11.767     13.024
REMARK  0 active torsions:
REMARK  status: ('A' for Active; 'I' for Inactive)
ROOT
HETATM    1  C1  UNL     1     -34.941  14.510  -4.331  1.00 20.00     0.066 C 
HETATM    2  C2  UNL     1     -33.190  17.756  -1.896  1.00 20.00     0.031 C 
HETATM    3  C3  UNL     1     -34.449  16.977  -1.505  1.00 20.00     0.009 C 
HETATM    4  C4  UNL     1     -33.397  18.586  -3.171  1.00 20.00     0.272 C 
HETATM    5  C5  UNL     1     -33.612  16.599  -4.585  1.00 20.00     0.292 C 
HETATM    6  C6  UNL     1     -35.513  17.569  -3.674  1.00 20.00     0.278 C 
HETATM    7  C7  UNL     1     -34.219  15.572  -3.609  1.00 20.00     0.127 C 
HETATM    8  C8  UNL     1     -35.173  16.411  -2.741  1.00 20.00     0.033 C 
HETATM    9  N9  UNL     1     -35.510  13.674  -4.900  1.00 20.00    -0.197 NA
HETATM   10  N10 UNL     1     -34.190  17.914  -4.223  1.00 20.00     0.090 N 
ENDROOT
TORSDOF 0
ENDMDL
MODEL 5
REMARK VINA RESULT:      -4.1     12.177     13.119
REMARK  0 active torsions:
REMARK  status: ('A' for Active; 'I' for Inactive)
ROOT
HETATM    1  C1  UNL     1     -37.323  14.245  -5.000  1.00 20.00     0.066 C 
HETATM    2  C2  UNL     1     -33.007  15.028  -4.460  1.00 20.00     0.031 C 
HETATM    3  C3  UNL     1     -34.094  15.539  -3.511  1.00 20.00     0.009 C 
HETATM    4  C4  UNL     1     -33.124  15.649  -5.860  1.00 20.00     0.272 C 
HETATM    5  C5  UNL     1     -35.237  14.505  -6.332  1.00 20.00     0.292 C 
HETATM    6  C6  UNL     1     -35.267  16.636  -5.412  1.00 20.00     0.278 C 
HETATM    7  C7  UNL     1     -35.858  14.381  -4.927  1.00 20.00     0.127 C 
HETATM    8  C8  UNL     1     -35.449  15.690  -4.228  1.00 20.00     0.033 C 
HETATM    9  N9  UNL     1     -38.477  14.137  -5.058  1.00 20.00    -0.197 NA
HETATM   10  N10 UNL     1     -34.508  15.796  -6.357  1.00 20.00     0.090 N 
ENDROOT
TORSDOF 0
ENDMDL
MODEL 6
REMARK VINA RESULT:      -4.0     11.625     12.743
REMARK  0 active torsions:
REMARK  status: ('A' for Active; 'I' for Inactive)
ROOT
HETATM    1  C1  UNL     1     -34.325  16.648  -2.467  1.00 20.00     0.066 C 
HETATM    2  C2  UNL     1     -35.282  14.687  -6.311  1.00 20.00     0.031 C 
HETATM    3  C3  UNL     1     -35.343  13.982  -4.952  1.00 20.00     0.009 C 
HETATM    4  C4  UNL     1     -33.852  15.107  -6.679  1.00 20.00     0.272 C 
HETATM    5  C5  UNL     1     -33.737  16.766  -4.882  1.00 20.00     0.292 C 
HETATM    6  C6  UNL     1     -32.978  14.606  -4.500  1.00 20.00     0.278 C 
HETATM    7  C7  UNL     1     -34.657  16.147  -3.812  1.00 20.00     0.127 C 
HETATM    8  C8  UNL     1     -34.393  14.636  -3.931  1.00 20.00     0.033 C 
HETATM    9  N9  UNL     1     -34.063  17.042  -1.407  1.00 20.00    -0.197 NA
HETATM   10  N10 UNL     1     -33.053  15.635  -5.553  1.00 20.00     0.090 N 
ENDROOT
TORSDOF 0
ENDMDL
MODEL 7
REMARK VINA RESULT:      -4.0     11.622     12.757
REMARK  0 active torsions:
REMARK  status: ('A' for Active; 'I' for Inactive)
ROOT
HETATM    1  C1  UNL     1     -33.516  17.213  -2.031  1.00 20.00     0.066 C 
HETATM    2  C2  UNL     1     -35.711  14.425  -4.667  1.00 20.00     0.031 C 
HETATM    3  C3  UNL     1     -34.286  14.182  -4.162  1.00 20.00     0.009 C 
HETATM    4  C4  UNL     1     -35.795  15.646  -5.594  1.00 20.00     0.272 C 
HETATM    5  C5  UNL     1     -35.278  17.217  -3.788  1.00 20.00     0.292 C 
HETATM    6  C6  UNL     1     -33.560  16.370  -5.098  1.00 20.00     0.278 C 
HETATM    7  C7  UNL     1     -34.386  16.365  -2.865  1.00 20.00     0.127 C 
HETATM    8  C8  UNL     1     -33.564  15.504  -3.841  1.00 20.00     0.033 C 
HETATM    9  N9  UNL     1     -32.831  17.881  -1.375  1.00 20.00    -0.197 NA
HETATM   10  N10 UNL     1     -34.968  16.798  -5.175  1.00 20.00     0.090 N 
ENDROOT
TORSDOF 0
ENDMDL
MODEL 8
REMARK VINA RESULT:      -4.0     11.827     12.643
REMARK  0 active torsions:
REMARK  status: ('A' for Active; 'I' for Inactive)
ROOT
HETATM    1  C1  UNL     1     -33.046  17.809  -1.895  1.00 20.00     0.066 C 
HETATM    2  C2  UNL     1     -34.686  14.392  -4.168  1.00 20.00     0.031 C 
HETATM    3  C3  UNL     1     -33.461  15.201  -4.605  1.00 20.00     0.009 C 
HETATM    4  C4  UNL     1     -35.968  15.236  -4.172  1.00 20.00     0.272 C 
HETATM    5  C5  UNL     1     -35.203  16.643  -2.319  1.00 20.00     0.292 C 
HETATM    6  C6  UNL     1     -34.790  17.302  -4.506  1.00 20.00     0.278 C 
HETATM    7  C7  UNL     1     -33.674  16.629  -2.513  1.00 20.00     0.127 C 
HETATM    8  C8  UNL     1     -33.499  16.634  -4.043  1.00 20.00     0.033 C 
HETATM    9  N9  UNL     1     -32.551  18.739  -1.408  1.00 20.00    -0.197 NA
HETATM   10  N10 UNL     1     -35.799  16.619  -3.676  1.00 20.00     0.090 N 
ENDROOT
TORSDOF 0
ENDMDL
MODEL 9
REMARK VINA RESULT:      -3.9     12.112     13.749
REMARK  0 active torsions:
REMARK  status: ('A' for Active; 'I' for Inactive)
ROOT
HETATM    1  C1  UNL     1     -35.620  13.895  -5.412  1.00 20.00     0.066 C 
HETATM    2  C2  UNL     1     -34.179  17.985  -6.268  1.00 20.00     0.031 C 
HETATM    3  C3  UNL     1     -33.875  16.769  -7.148  1.00 20.00     0.009 C 
HETATM    4  C4  UNL     1     -33.545  17.863  -4.876  1.00 20.00     0.272 C 
HETATM    5  C5  UNL     1     -34.993  15.996  -4.235  1.00 20.00     0.292 C 
HETATM    6  C6  UNL     1     -32.922  15.566  -5.190  1.00 20.00     0.278 C 
HETATM    7  C7  UNL     1     -35.256  15.311  -5.591  1.00 20.00     0.127 C 
HETATM    8  C8  UNL     1     -33.919  15.459  -6.340  1.00 20.00     0.033 C 
HETATM    9  N9  UNL     1     -35.906  12.780  -5.272  1.00 20.00    -0.197 NA
HETATM   10  N10 UNL     1     -33.604  16.509  -4.285  1.00 20.00     0.090 N 
ENDROOT
TORSDOF 0
ENDMDL
