MODEL 1
REMARK VINA RESULT:      -5.1      0.000      0.000
REMARK  1 active torsions:
REMARK  status: ('A' for Active; 'I' for Inactive)
REMARK    1  A    between atoms: C6_6  and  C7_7 
ROOT
HETATM    1  C1  UNL     1     -33.072   5.117   2.601  1.00 20.00    -0.003 C 
HETATM    2  C2  UNL     1     -32.739   6.328   1.856  1.00 20.00     0.015 C 
HETATM    3  C3  UNL     1     -32.585   7.790   3.796  1.00 20.00     0.011 C 
HETATM    4  C4  UNL     1     -33.951   4.880   3.594  1.00 20.00    -0.026 C 
HETATM    5  C5  UNL     1     -33.852   7.943   4.217  1.00 20.00    -0.021 C 
HETATM    6  C6  UNL     1     -32.445   7.535   2.377  1.00 20.00     0.009 C 
HETATM    7  C8  UNL     1     -34.978   5.768   4.269  1.00 20.00     0.035 C 
HETATM    8  C9  UNL     1     -34.474   6.940   5.158  1.00 20.00     0.007 C 
HETATM    9  C11 UNL     1     -33.603   6.463   6.321  1.00 20.00     0.014 C 
ENDROOT
BRANCH   6  10
HETATM   10  C7  UNL     1     -32.045   8.614   1.470  1.00 20.00     0.155 C 
HETATM   11  C10 UNL     1     -32.892   9.859   1.435  1.00 20.00     0.096 C 
HETATM   12  O12 UNL     1     -31.049   8.492   0.757  1.00 20.00    -0.293 OA
ENDBRANCH   6  10
TORSDOF 1
ENDMDL
MODEL 2
REMARK VINA RESULT:      -5.0     10.964     11.854
REMARK  1 active torsions:
REMARK  status: ('A' for Active; 'I' for Inactive)
REMARK    1  A    between atoms: C6_6  and  C7_7 
ROOT
HETATM    1  C1  UNL     1     -33.308  15.922  -3.590  1.00 20.00    -0.003 C 
HETATM    2  C2  UNL     1     -33.883  14.811  -4.342  1.00 20.00     0.015 C 
HETATM    3  C3  UNL     1     -35.977  15.924  -4.888  1.00 20.00     0.011 C 
HETATM    4  C4  UNL     1     -33.817  16.729  -2.638  1.00 20.00    -0.026 C 
HETATM    5  C5  UNL     1     -36.653  15.984  -3.728  1.00 20.00    -0.021 C 
HETATM    6  C6  UNL     1     -35.060  14.810  -4.999  1.00 20.00     0.009 C 
HETATM    7  C8  UNL     1     -35.162  16.743  -1.938  1.00 20.00     0.035 C 
HETATM    8  C9  UNL     1     -36.424  17.122  -2.764  1.00 20.00     0.007 C 
HETATM    9  C11 UNL     1     -36.329  18.523  -3.372  1.00 20.00     0.014 C 
ENDROOT
BRANCH   6  10
HETATM   10  C7  UNL     1     -35.429  13.625  -5.777  1.00 20.00     0.155 C 
HETATM   11  C10 UNL     1     -35.160  13.641  -7.260  1.00 20.00     0.096 C 
HETATM   12  O12 UNL     1     -35.949  12.653  -5.227  1.00 20.00    -0.293 OA
ENDBRANCH   6  10
TORSDOF 1
ENDMDL
MODEL 3
REMARK VINA RESULT:      -4.9     10.920     12.256
REMARK  1 active torsions:
REMARK  status: ('A' for Active; 'I' for Inactive)
REMARK    1  A    between atoms: C6_6  and  C7_7 
ROOT
HETATM    1  C1  UNL     1     -35.747  17.426  -5.435  1.00 20.00    -0.003 C 
HETATM    2  C2  UNL     1     -35.621  16.063  -5.941  1.00 20.00     0.015 C 
HETATM    3  C3  UNL     1     -35.071  15.043  -3.802  1.00 20.00     0.011 C 
HETATM    4  C4  UNL     1     -34.974  18.159  -4.609  1.00 20.00    -0.026 C 
HETATM    5  C5  UNL     1     -33.823  15.460  -3.528  1.00 20.00    -0.021 C 
HETATM    6  C6  UNL     1     -35.385  14.955  -5.212  1.00 20.00     0.009 C 
HETATM    7  C8  UNL     1     -33.642  17.867  -3.946  1.00 20.00     0.035 C 
HETATM    8  C9  UNL     1     -33.590  16.780  -2.835  1.00 20.00     0.007 C 
HETATM    9  C11 UNL     1     -34.507  17.103  -1.654  1.00 20.00     0.014 C 
ENDROOT
BRANCH   6  10
HETATM   10  C7  UNL     1     -35.383  13.656  -5.889  1.00 20.00     0.155 C 
HETATM   11  C10 UNL     1     -34.755  13.573  -7.256  1.00 20.00     0.096 C 
HETATM   12  O12 UNL     1     -35.887  12.670  -5.351  1.00 20.00    -0.293 OA
ENDBRANCH   6  10
TORSDOF 1
ENDMDL
MODEL 4
REMARK VINA RESULT:      -4.9     11.196     12.193
REMARK  1 active torsions:
REMARK  status: ('A' for Active; 'I' for Inactive)
REMARK    1  A    between atoms: C6_6  and  C7_7 
ROOT
HETATM    1  C1  UNL     1     -35.486  17.960   0.464  1.00 20.00    -0.003 C 
HETATM    2  C2  UNL     1     -34.546  18.066   1.575  1.00 20.00     0.015 C 
HETATM    3  C3  UNL     1     -32.801  19.215   0.328  1.00 20.00     0.011 C 
HETATM    4  C4  UNL     1     -35.329  17.583  -0.820  1.00 20.00    -0.026 C 
HETATM    5  C5  UNL     1     -32.298  18.287  -0.504  1.00 20.00    -0.021 C 
HETATM    6  C6  UNL     1     -33.353  18.691   1.559  1.00 20.00     0.009 C 
HETATM    7  C8  UNL     1     -34.125  17.061  -1.581  1.00 20.00     0.035 C 
HETATM    8  C9  UNL     1     -32.939  18.030  -1.845  1.00 20.00     0.007 C 
HETATM    9  C11 UNL     1     -33.356  19.263  -2.650  1.00 20.00     0.014 C 
ENDROOT
BRANCH   6  10
HETATM   10  C7  UNL     1     -32.585  18.773   2.805  1.00 20.00     0.155 C 
HETATM   11  C10 UNL     1     -33.286  18.421   4.091  1.00 20.00     0.096 C 
HETATM   12  O12 UNL     1     -31.405  19.126   2.789  1.00 20.00    -0.293 OA
ENDBRANCH   6  10
TORSDOF 1
ENDMDL
MODEL 5
REMARK VINA RESULT:      -4.9     10.873     11.783
REMARK  1 active torsions:
REMARK  status: ('A' for Active; 'I' for Inactive)
REMARK    1  A    between atoms: C6_6  and  C7_7 
ROOT
HETATM    1  C1  UNL     1     -36.464  16.026  -3.617  1.00 20.00    -0.003 C 
HETATM    2  C2  UNL     1     -35.605  16.610  -2.592  1.00 20.00     0.015 C 
HETATM    3  C3  UNL     1     -33.578  16.639  -3.939  1.00 20.00     0.011 C 
HETATM    4  C4  UNL     1     -36.293  14.984  -4.455  1.00 20.00    -0.026 C 
HETATM    5  C5  UNL     1     -33.214  15.350  -4.047  1.00 20.00    -0.021 C 
HETATM    6  C6  UNL     1     -34.312  16.962  -2.734  1.00 20.00     0.009 C 
HETATM    7  C8  UNL     1     -35.167  13.979  -4.601  1.00 20.00     0.035 C 
HETATM    8  C9  UNL     1     -33.794  14.477  -5.133  1.00 20.00     0.007 C 
HETATM    9  C11 UNL     1     -33.894  15.097  -6.527  1.00 20.00     0.014 C 
ENDROOT
BRANCH   6  10
HETATM   10  C7  UNL     1     -33.636  17.621  -1.613  1.00 20.00     0.155 C 
HETATM   11  C10 UNL     1     -34.386  17.750  -0.313  1.00 20.00     0.096 C 
HETATM   12  O12 UNL     1     -32.493  18.060  -1.744  1.00 20.00    -0.293 OA
ENDBRANCH   6  10
TORSDOF 1
ENDMDL
MODEL 6
REMARK VINA RESULT:      -4.7     11.281     12.157
REMARK  1 active torsions:
REMARK  status: ('A' for Active; 'I' for Inactive)
REMARK    1  A    between atoms: C6_6  and  C7_7 
ROOT
HETATM    1  C1  UNL     1     -35.661  18.320  -0.603  1.00 20.00    -0.003 C 
HETATM    2  C2  UNL     1     -34.355  18.356   0.049  1.00 20.00     0.015 C 
HETATM    3  C3  UNL     1     -33.042  18.241  -1.997  1.00 20.00     0.011 C 
HETATM    4  C4  UNL     1     -36.159  17.544  -1.586  1.00 20.00    -0.026 C 
HETATM    5  C5  UNL     1     -33.205  16.985  -2.446  1.00 20.00    -0.021 C 
HETATM    6  C6  UNL     1     -33.155  18.392  -0.562  1.00 20.00     0.009 C 
HETATM    7  C8  UNL     1     -35.573  16.367  -2.341  1.00 20.00     0.035 C 
HETATM    8  C9  UNL     1     -34.387  16.627  -3.312  1.00 20.00     0.007 C 
HETATM    9  C11 UNL     1     -34.743  17.616  -4.424  1.00 20.00     0.014 C 
ENDROOT
BRANCH   6  10
HETATM   10  C7  UNL     1     -31.950  18.518   0.264  1.00 20.00     0.155 C 
HETATM   11  C10 UNL     1     -32.114  18.994   1.684  1.00 20.00     0.096 C 
HETATM   12  O12 UNL     1     -30.843  18.248  -0.202  1.00 20.00    -0.293 OA
ENDBRANCH   6  10
TORSDOF 1
ENDMDL
MODEL 7
REMARK VINA RESULT:      -4.6     10.870     12.128
REMARK  1 active torsions:
REMARK  status: ('A' for Active; 'I' for Inactive)
REMARK    1  A    between atoms: C6_6  and  C7_7 
ROOT
HETATM    1  C1  UNL     1     -35.171  16.641  -2.612  1.00 20.00    -0.003 C 
HETATM    2  C2  UNL     1     -36.418  16.278  -3.277  1.00 20.00     0.015 C 
HETATM    3  C3  UNL     1     -35.506  14.401  -4.529  1.00 20.00     0.011 C 
HETATM    4  C4  UNL     1     -33.911  16.789  -3.070  1.00 20.00    -0.026 C 
HETATM    5  C5  UNL     1     -34.725  14.957  -5.471  1.00 20.00    -0.021 C 
HETATM    6  C6  UNL     1     -36.614  15.226  -4.096  1.00 20.00     0.009 C 
HETATM    7  C8  UNL     1     -33.326  16.699  -4.466  1.00 20.00     0.035 C 
HETATM    8  C9  UNL     1     -33.290  15.312  -5.166  1.00 20.00     0.007 C 
HETATM    9  C11 UNL     1     -32.483  14.278  -4.380  1.00 20.00     0.014 C 
ENDROOT
BRANCH   6  10
HETATM   10  C7  UNL     1     -37.966  14.969  -4.599  1.00 20.00     0.155 C 
HETATM   11  C10 UNL     1     -38.975  16.084  -4.513  1.00 20.00     0.096 C 
HETATM   12  O12 UNL     1     -38.259  13.869  -5.069  1.00 20.00    -0.293 OA
ENDBRANCH   6  10
TORSDOF 1
ENDMDL
MODEL 8
REMARK VINA RESULT:      -4.6     10.696     12.033
REMARK  1 active torsions:
REMARK  status: ('A' for Active; 'I' for Inactive)
REMARK    1  A    between atoms: C6_6  and  C7_7 
ROOT
HETATM    1  C1  UNL     1     -33.378  17.995  -4.384  1.00 20.00    -0.003 C 
HETATM    2  C2  UNL     1     -33.670  16.575  -4.547  1.00 20.00     0.015 C 
HETATM    3  C3  UNL     1     -35.433  16.480  -2.871  1.00 20.00     0.011 C 
HETATM    4  C4  UNL     1     -33.199  18.762  -3.290  1.00 20.00    -0.026 C 
HETATM    5  C5  UNL     1     -34.798  16.602  -1.692  1.00 20.00    -0.021 C 
HETATM    6  C6  UNL     1     -34.643  15.879  -3.925  1.00 20.00     0.009 C 
HETATM    7  C8  UNL     1     -33.165  18.423  -1.813  1.00 20.00     0.035 C 
HETATM    8  C9  UNL     1     -34.483  17.965  -1.128  1.00 20.00     0.007 C 
HETATM    9  C11 UNL     1     -35.590  19.016  -1.222  1.00 20.00     0.014 C 
ENDROOT
BRANCH   6  10
HETATM   10  C7  UNL     1     -34.843  14.473  -4.287  1.00 20.00     0.155 C 
HETATM   11  C10 UNL     1     -36.169  14.080  -4.884  1.00 20.00     0.096 C 
HETATM   12  O12 UNL     1     -33.950  13.647  -4.099  1.00 20.00    -0.293 OA
ENDBRANCH   6  10
TORSDOF 1
ENDMDL
MODEL 9
REMARK VINA RESULT:      -4.5     10.883     12.122
REMARK  1 active torsions:
REMARK  status: ('A' for Active; 'I' for Inactive)
REMARK    1  A    between atoms: C6_6  and  C7_7 
ROOT
HETATM    1  C1  UNL     1     -33.269  16.305  -5.563  1.00 20.00    -0.003 C 
HETATM    2  C2  UNL     1     -33.481  16.850  -4.226  1.00 20.00     0.015 C 
HETATM    3  C3  UNL     1     -35.046  15.137  -3.493  1.00 20.00     0.011 C 
HETATM    4  C4  UNL     1     -34.123  15.843  -6.497  1.00 20.00    -0.026 C 
HETATM    5  C5  UNL     1     -36.174  15.378  -4.182  1.00 20.00    -0.021 C 
HETATM    6  C6  UNL     1     -34.225  16.303  -3.245  1.00 20.00     0.009 C 
HETATM    7  C8  UNL     1     -35.638  15.779  -6.539  1.00 20.00     0.035 C 
HETATM    8  C9  UNL     1     -36.365  14.809  -5.566  1.00 20.00     0.007 C 
HETATM    9  C11 UNL     1     -35.947  13.351  -5.769  1.00 20.00     0.014 C 
ENDROOT
BRANCH   6  10
HETATM   10  C7  UNL     1     -34.245  16.954  -1.932  1.00 20.00     0.155 C 
HETATM   11  C10 UNL     1     -33.063  17.805  -1.547  1.00 20.00     0.096 C 
HETATM   12  O12 UNL     1     -35.201  16.796  -1.172  1.00 20.00    -0.293 OA
ENDBRANCH   6  10
TORSDOF 1
ENDMDL
