MODEL 1
REMARK VINA RESULT:      -5.7      0.000      0.000
REMARK  1 active torsions:
REMARK  status: ('A' for Active; 'I' for Inactive)
REMARK    1  A    between atoms: C3_3  and  C8_8 
ROOT
HETATM    1  C1  UNL     1     -33.525   4.993   3.201  1.00 20.00    -0.084 C 
HETATM    2  C2  UNL     1     -32.804   4.378   2.260  1.00 20.00     0.015 C 
HETATM    3  C4  UNL     1     -33.626   4.585   4.649  1.00 20.00     0.038 C 
HETATM    4  C5  UNL     1     -35.562   5.806   3.973  1.00 20.00     0.014 C 
HETATM    5  C6  UNL     1     -33.919   7.032   5.195  1.00 20.00     0.021 C 
HETATM    6  C7  UNL     1     -34.439   6.185   3.002  1.00 20.00     0.028 C 
HETATM    7  C8  UNL     1     -33.844   7.417   3.706  1.00 20.00     0.095 C 
HETATM    8  C9  UNL     1     -34.613   5.651   5.166  1.00 20.00    -0.009 C 
ENDROOT
BRANCH   7   9
HETATM    9  C3  UNL     1     -32.439   7.748   3.240  1.00 20.00     0.177 C 
HETATM   10  O10 UNL     1     -32.275   7.758   1.989  1.00 20.00    -0.648 OA
HETATM   11  O11 UNL     1     -31.612   7.971   4.169  1.00 20.00    -0.648 OA
ENDBRANCH   7   9
TORSDOF 1
ENDMDL
MODEL 2
REMARK VINA RESULT:      -5.0     11.875     13.143
REMARK  1 active torsions:
REMARK  status: ('A' for Active; 'I' for Inactive)
REMARK    1  A    between atoms: C3_3  and  C8_8 
ROOT
HETATM    1  C1  UNL     1     -34.600  15.797  -4.326  1.00 20.00    -0.084 C 
HETATM    2  C2  UNL     1     -34.919  15.920  -3.035  1.00 20.00     0.015 C 
HETATM    3  C4  UNL     1     -33.250  15.410  -4.874  1.00 20.00     0.038 C 
HETATM    4  C5  UNL     1     -34.479  16.691  -6.468  1.00 20.00     0.014 C 
HETATM    5  C6  UNL     1     -34.473  14.327  -6.799  1.00 20.00     0.021 C 
HETATM    6  C7  UNL     1     -35.504  16.079  -5.509  1.00 20.00     0.028 C 
HETATM    7  C8  UNL     1     -35.837  14.762  -6.233  1.00 20.00     0.095 C 
HETATM    8  C9  UNL     1     -33.536  15.486  -6.387  1.00 20.00    -0.009 C 
ENDROOT
BRANCH   7   9
HETATM    9  C3  UNL     1     -36.469  13.726  -5.323  1.00 20.00     0.177 C 
HETATM   10  O10 UNL     1     -37.595  14.041  -4.849  1.00 20.00    -0.648 OA
HETATM   11  O11 UNL     1     -35.783  12.679  -5.157  1.00 20.00    -0.648 OA
ENDBRANCH   7   9
TORSDOF 1
ENDMDL
MODEL 3
REMARK VINA RESULT:      -4.8     11.624     12.894
REMARK  1 active torsions:
REMARK  status: ('A' for Active; 'I' for Inactive)
REMARK    1  A    between atoms: C3_3  and  C8_8 
ROOT
HETATM    1  C1  UNL     1     -34.158  15.528  -6.293  1.00 20.00    -0.084 C 
HETATM    2  C2  UNL     1     -33.980  15.246  -7.587  1.00 20.00     0.015 C 
HETATM    3  C4  UNL     1     -34.721  16.809  -5.734  1.00 20.00     0.038 C 
HETATM    4  C5  UNL     1     -33.311  15.733  -4.138  1.00 20.00     0.014 C 
HETATM    5  C6  UNL     1     -35.659  15.430  -3.838  1.00 20.00     0.021 C 
HETATM    6  C7  UNL     1     -33.774  14.651  -5.118  1.00 20.00     0.028 C 
HETATM    7  C8  UNL     1     -35.045  14.141  -4.416  1.00 20.00     0.095 C 
HETATM    8  C9  UNL     1     -34.627  16.514  -4.223  1.00 20.00    -0.009 C 
ENDROOT
BRANCH   7   9
HETATM    9  C3  UNL     1     -35.981  13.394  -5.347  1.00 20.00     0.177 C 
HETATM   10  O10 UNL     1     -37.185  13.769  -5.314  1.00 20.00    -0.648 OA
HETATM   11  O11 UNL     1     -35.430  12.491  -6.037  1.00 20.00    -0.648 OA
ENDBRANCH   7   9
TORSDOF 1
ENDMDL
MODEL 4
REMARK VINA RESULT:      -4.6      2.313      3.679
REMARK  1 active torsions:
REMARK  status: ('A' for Active; 'I' for Inactive)
REMARK    1  A    between atoms: C3_3  and  C8_8 
ROOT
HETATM    1  C1  UNL     1     -33.431   7.321   4.866  1.00 20.00    -0.084 C 
HETATM    2  C2  UNL     1     -33.521   7.603   6.169  1.00 20.00     0.015 C 
HETATM    3  C4  UNL     1     -32.175   7.371   4.033  1.00 20.00     0.038 C 
HETATM    4  C5  UNL     1     -34.112   7.679   2.673  1.00 20.00     0.014 C 
HETATM    5  C6  UNL     1     -33.155   5.493   2.659  1.00 20.00     0.021 C 
HETATM    6  C7  UNL     1     -34.574   6.956   3.941  1.00 20.00     0.028 C 
HETATM    7  C8  UNL     1     -34.440   5.485   3.508  1.00 20.00     0.095 C 
HETATM    8  C9  UNL     1     -32.747   6.983   2.654  1.00 20.00    -0.009 C 
ENDROOT
BRANCH   7   9
HETATM    9  C3  UNL     1     -34.382   4.522   4.678  1.00 20.00     0.177 C 
HETATM   10  O10 UNL     1     -35.050   4.867   5.692  1.00 20.00    -0.648 OA
HETATM   11  O11 UNL     1     -33.670   3.498   4.486  1.00 20.00    -0.648 OA
ENDBRANCH   7   9
TORSDOF 1
ENDMDL
MODEL 5
REMARK VINA RESULT:      -4.6     11.503     12.958
REMARK  1 active torsions:
REMARK  status: ('A' for Active; 'I' for Inactive)
REMARK    1  A    between atoms: C3_3  and  C8_8 
ROOT
HETATM    1  C1  UNL     1     -35.715  16.240  -4.843  1.00 20.00    -0.084 C 
HETATM    2  C2  UNL     1     -36.944  16.666  -5.145  1.00 20.00     0.015 C 
HETATM    3  C4  UNL     1     -35.154  16.062  -3.455  1.00 20.00     0.038 C 
HETATM    4  C5  UNL     1     -33.407  16.438  -5.036  1.00 20.00     0.014 C 
HETATM    5  C6  UNL     1     -33.767  14.169  -4.387  1.00 20.00     0.021 C 
HETATM    6  C7  UNL     1     -34.609  15.909  -5.824  1.00 20.00     0.028 C 
HETATM    7  C8  UNL     1     -34.333  14.395  -5.801  1.00 20.00     0.095 C 
HETATM    8  C9  UNL     1     -33.724  15.597  -3.795  1.00 20.00    -0.009 C 
ENDROOT
BRANCH   7   9
HETATM    9  C3  UNL     1     -35.565  13.561  -6.096  1.00 20.00     0.177 C 
HETATM   10  O10 UNL     1     -36.120  13.794  -7.204  1.00 20.00    -0.648 OA
HETATM   11  O11 UNL     1     -35.876  12.738  -5.190  1.00 20.00    -0.648 OA
ENDBRANCH   7   9
TORSDOF 1
ENDMDL
MODEL 6
REMARK VINA RESULT:      -4.5     11.509     12.702
REMARK  1 active torsions:
REMARK  status: ('A' for Active; 'I' for Inactive)
REMARK    1  A    between atoms: C3_3  and  C8_8 
ROOT
HETATM    1  C1  UNL     1     -33.473  15.103  -4.353  1.00 20.00    -0.084 C 
HETATM    2  C2  UNL     1     -32.531  14.155  -4.356  1.00 20.00     0.015 C 
HETATM    3  C4  UNL     1     -33.359  16.469  -4.982  1.00 20.00     0.038 C 
HETATM    4  C5  UNL     1     -34.941  16.485  -3.195  1.00 20.00     0.014 C 
HETATM    5  C6  UNL     1     -35.846  16.353  -5.400  1.00 20.00     0.021 C 
HETATM    6  C7  UNL     1     -34.821  15.032  -3.667  1.00 20.00     0.028 C 
HETATM    7  C8  UNL     1     -35.938  14.972  -4.724  1.00 20.00     0.095 C 
HETATM    8  C9  UNL     1     -34.730  17.061  -4.599  1.00 20.00    -0.009 C 
ENDROOT
BRANCH   7   9
HETATM    9  C3  UNL     1     -35.779  13.816  -5.693  1.00 20.00     0.177 C 
HETATM   10  O10 UNL     1     -35.873  12.667  -5.179  1.00 20.00    -0.648 OA
HETATM   11  O11 UNL     1     -35.572  14.155  -6.892  1.00 20.00    -0.648 OA
ENDBRANCH   7   9
TORSDOF 1
ENDMDL
MODEL 7
REMARK VINA RESULT:      -4.5     11.873     12.920
REMARK  1 active torsions:
REMARK  status: ('A' for Active; 'I' for Inactive)
REMARK    1  A    between atoms: C3_3  and  C8_8 
ROOT
HETATM    1  C1  UNL     1     -34.231  14.377  -6.274  1.00 20.00    -0.084 C 
HETATM    2  C2  UNL     1     -34.548  13.546  -7.271  1.00 20.00     0.015 C 
HETATM    3  C4  UNL     1     -33.559  15.719  -6.417  1.00 20.00     0.038 C 
HETATM    4  C5  UNL     1     -33.151  14.790  -4.257  1.00 20.00     0.014 C 
HETATM    5  C6  UNL     1     -34.858  16.454  -4.380  1.00 20.00     0.021 C 
HETATM    6  C7  UNL     1     -34.421  14.122  -4.792  1.00 20.00     0.028 C 
HETATM    7  C8  UNL     1     -35.506  15.064  -4.239  1.00 20.00     0.095 C 
HETATM    8  C9  UNL     1     -33.452  16.131  -4.935  1.00 20.00    -0.009 C 
ENDROOT
BRANCH   7   9
HETATM    9  C3  UNL     1     -36.830  14.940  -4.969  1.00 20.00     0.177 C 
HETATM   10  O10 UNL     1     -37.197  15.972  -5.595  1.00 20.00    -0.648 OA
HETATM   11  O11 UNL     1     -37.394  13.816  -4.854  1.00 20.00    -0.648 OA
ENDBRANCH   7   9
TORSDOF 1
ENDMDL
MODEL 8
REMARK VINA RESULT:      -4.2     12.110     13.210
REMARK  1 active torsions:
REMARK  status: ('A' for Active; 'I' for Inactive)
REMARK    1  A    between atoms: C3_3  and  C8_8 
ROOT
HETATM    1  C1  UNL     1     -34.768  15.848  -3.337  1.00 20.00    -0.084 C 
HETATM    2  C2  UNL     1     -35.160  16.527  -2.255  1.00 20.00     0.015 C 
HETATM    3  C4  UNL     1     -35.633  14.944  -4.179  1.00 20.00     0.038 C 
HETATM    4  C5  UNL     1     -33.334  14.327  -4.355  1.00 20.00     0.014 C 
HETATM    5  C6  UNL     1     -34.214  15.625  -6.154  1.00 20.00     0.021 C 
HETATM    6  C7  UNL     1     -33.365  15.791  -3.907  1.00 20.00     0.028 C 
HETATM    7  C8  UNL     1     -33.328  16.516  -5.264  1.00 20.00     0.095 C 
HETATM    8  C9  UNL     1     -34.597  14.460  -5.213  1.00 20.00    -0.009 C 
ENDROOT
BRANCH   7   9
HETATM    9  C3  UNL     1     -33.806  17.953  -5.185  1.00 20.00     0.177 C 
HETATM   10  O10 UNL     1     -33.111  18.712  -4.455  1.00 20.00    -0.648 OA
HETATM   11  O11 UNL     1     -34.842  18.204  -5.862  1.00 20.00    -0.648 OA
ENDBRANCH   7   9
TORSDOF 1
ENDMDL
MODEL 9
REMARK VINA RESULT:      -4.2     12.122     13.435
REMARK  1 active torsions:
REMARK  status: ('A' for Active; 'I' for Inactive)
REMARK    1  A    between atoms: C3_3  and  C8_8 
ROOT
HETATM    1  C1  UNL     1     -36.006  15.302  -7.294  1.00 20.00    -0.084 C 
HETATM    2  C2  UNL     1     -36.997  15.946  -7.917  1.00 20.00     0.015 C 
HETATM    3  C4  UNL     1     -34.670  15.887  -6.914  1.00 20.00     0.038 C 
HETATM    4  C5  UNL     1     -34.518  13.520  -7.176  1.00 20.00     0.014 C 
HETATM    5  C6  UNL     1     -34.682  14.321  -4.933  1.00 20.00     0.021 C 
HETATM    6  C7  UNL     1     -35.990  13.840  -6.897  1.00 20.00     0.028 C 
HETATM    7  C8  UNL     1     -36.032  13.719  -5.363  1.00 20.00     0.095 C 
HETATM    8  C9  UNL     1     -34.000  14.651  -6.281  1.00 20.00    -0.009 C 
ENDROOT
BRANCH   7   9
HETATM    9  C3  UNL     1     -37.227  14.420  -4.744  1.00 20.00     0.177 C 
HETATM   10  O10 UNL     1     -38.352  13.931  -5.044  1.00 20.00    -0.648 OA
HETATM   11  O11 UNL     1     -36.940  15.404  -4.007  1.00 20.00    -0.648 OA
ENDBRANCH   7   9
TORSDOF 1
ENDMDL
