MODEL 1
REMARK VINA RESULT:      -5.0      0.000      0.000
REMARK  1 active torsions:
REMARK  status: ('A' for Active; 'I' for Inactive)
REMARK    1  A    between atoms: C2_2  and  C9_9 
ROOT
HETATM    1  C1  UNL     1     -34.944  13.569  -6.734  1.00 20.00     0.144 C 
HETATM    2  C3  UNL     1     -33.790  14.250  -7.443  1.00 20.00     0.084 C 
HETATM    3  C4  UNL     1     -33.503  14.586  -4.433  1.00 20.00     0.002 C 
HETATM    4  C5  UNL     1     -33.005  15.633  -5.437  1.00 20.00     0.005 C 
HETATM    5  C6  UNL     1     -35.033  14.448  -4.407  1.00 20.00     0.027 C 
HETATM    6  C7  UNL     1     -35.271  15.861  -6.466  1.00 20.00     0.031 C 
HETATM    7  C8  UNL     1     -33.788  15.631  -6.765  1.00 20.00    -0.006 C 
HETATM    8  C9  UNL     1     -35.660  14.535  -5.806  1.00 20.00     0.097 C 
HETATM    9  O10 UNL     1     -35.243  12.392  -6.889  1.00 20.00    -0.297 OA
ENDROOT
BRANCH   8  10
HETATM   10  C2  UNL     1     -37.146  14.377  -5.767  1.00 20.00     0.234 C 
HETATM   11  O11 UNL     1     -37.698  13.665  -4.933  1.00 20.00    -0.279 OA
HETATM   12 CL12 UNL     1     -37.935  15.299  -7.010  1.00 20.00    -0.043 Cl
ENDBRANCH   8  10
TORSDOF 1
ENDMDL
MODEL 2
REMARK VINA RESULT:      -4.8      1.924      3.137
REMARK  1 active torsions:
REMARK  status: ('A' for Active; 'I' for Inactive)
REMARK    1  A    between atoms: C2_2  and  C9_9 
ROOT
HETATM    1  C1  UNL     1     -36.001  15.632  -5.197  1.00 20.00     0.144 C 
HETATM    2  C3  UNL     1     -36.091  16.084  -3.753  1.00 20.00     0.084 C 
HETATM    3  C4  UNL     1     -33.513  17.108  -5.001  1.00 20.00     0.002 C 
HETATM    4  C5  UNL     1     -33.632  16.754  -3.513  1.00 20.00     0.005 C 
HETATM    5  C6  UNL     1     -33.635  15.889  -5.928  1.00 20.00     0.027 C 
HETATM    6  C7  UNL     1     -34.383  14.428  -4.031  1.00 20.00     0.031 C 
HETATM    7  C8  UNL     1     -34.704  15.685  -3.221  1.00 20.00    -0.006 C 
HETATM    8  C9  UNL     1     -34.701  14.890  -5.455  1.00 20.00     0.097 C 
HETATM    9  O10 UNL     1     -36.863  15.853  -6.038  1.00 20.00    -0.297 OA
ENDROOT
BRANCH   8  10
HETATM   10  C2  UNL     1     -34.824  13.720  -6.378  1.00 20.00     0.234 C 
HETATM   11  O11 UNL     1     -35.397  12.689  -6.041  1.00 20.00    -0.279 OA
HETATM   12 CL12 UNL     1     -34.074  14.019  -7.917  1.00 20.00    -0.043 Cl
ENDBRANCH   8  10
TORSDOF 1
ENDMDL
MODEL 3
REMARK VINA RESULT:      -4.7      1.615      2.989
REMARK  1 active torsions:
REMARK  status: ('A' for Active; 'I' for Inactive)
REMARK    1  A    between atoms: C2_2  and  C9_9 
ROOT
HETATM    1  C1  UNL     1     -35.978  15.453  -4.130  1.00 20.00     0.144 C 
HETATM    2  C3  UNL     1     -35.095  16.042  -3.049  1.00 20.00     0.084 C 
HETATM    3  C4  UNL     1     -34.428  17.305  -5.735  1.00 20.00     0.002 C 
HETATM    4  C5  UNL     1     -33.384  17.104  -4.630  1.00 20.00     0.005 C 
HETATM    5  C6  UNL     1     -34.944  15.986  -6.332  1.00 20.00     0.027 C 
HETATM    6  C7  UNL     1     -33.828  14.647  -4.528  1.00 20.00     0.031 C 
HETATM    7  C8  UNL     1     -33.703  15.922  -3.692  1.00 20.00    -0.006 C 
HETATM    8  C9  UNL     1     -35.144  14.894  -5.271  1.00 20.00     0.097 C 
HETATM    9  O10 UNL     1     -37.201  15.444  -4.086  1.00 20.00    -0.297 OA
ENDROOT
BRANCH   8  10
HETATM   10  C2  UNL     1     -35.667  13.625  -5.863  1.00 20.00     0.234 C 
HETATM   11  O11 UNL     1     -35.896  12.637  -5.172  1.00 20.00    -0.279 OA
HETATM   12 CL12 UNL     1     -35.888  13.747  -7.582  1.00 20.00    -0.043 Cl
ENDBRANCH   8  10
TORSDOF 1
ENDMDL
MODEL 4
REMARK VINA RESULT:      -4.7      1.923      2.323
REMARK  1 active torsions:
REMARK  status: ('A' for Active; 'I' for Inactive)
REMARK    1  A    between atoms: C2_2  and  C9_9 
ROOT
HETATM    1  C1  UNL     1     -34.419  14.540  -4.303  1.00 20.00     0.144 C 
HETATM    2  C3  UNL     1     -33.114  15.222  -4.661  1.00 20.00     0.084 C 
HETATM    3  C4  UNL     1     -34.435  16.669  -2.334  1.00 20.00     0.002 C 
HETATM    4  C5  UNL     1     -33.564  17.388  -3.372  1.00 20.00     0.005 C 
HETATM    5  C6  UNL     1     -35.749  16.123  -2.915  1.00 20.00     0.027 C 
HETATM    6  C7  UNL     1     -34.990  16.586  -5.261  1.00 20.00     0.031 C 
HETATM    7  C8  UNL     1     -33.553  16.694  -4.749  1.00 20.00    -0.006 C 
HETATM    8  C9  UNL     1     -35.573  15.529  -4.320  1.00 20.00     0.097 C 
HETATM    9  O10 UNL     1     -34.517  13.352  -4.026  1.00 20.00    -0.297 OA
ENDROOT
BRANCH   8  10
HETATM   10  C2  UNL     1     -36.854  14.982  -4.863  1.00 20.00     0.234 C 
HETATM   11  O11 UNL     1     -37.852  14.855  -4.159  1.00 20.00    -0.279 OA
HETATM   12 CL12 UNL     1     -36.730  14.574  -6.547  1.00 20.00    -0.043 Cl
ENDBRANCH   8  10
TORSDOF 1
ENDMDL
MODEL 5
REMARK VINA RESULT:      -4.7      1.894      3.144
REMARK  1 active torsions:
REMARK  status: ('A' for Active; 'I' for Inactive)
REMARK    1  A    between atoms: C2_2  and  C9_9 
ROOT
HETATM    1  C1  UNL     1     -34.765  14.419  -4.473  1.00 20.00     0.144 C 
HETATM    2  C3  UNL     1     -34.735  15.822  -3.901  1.00 20.00     0.084 C 
HETATM    3  C4  UNL     1     -37.605  15.006  -4.493  1.00 20.00     0.002 C 
HETATM    4  C5  UNL     1     -37.118  16.458  -4.585  1.00 20.00     0.005 C 
HETATM    5  C6  UNL     1     -36.982  14.087  -5.557  1.00 20.00     0.027 C 
HETATM    6  C7  UNL     1     -35.329  15.853  -6.221  1.00 20.00     0.031 C 
HETATM    7  C8  UNL     1     -35.616  16.582  -4.907  1.00 20.00    -0.006 C 
HETATM    8  C9  UNL     1     -35.497  14.390  -5.804  1.00 20.00     0.097 C 
HETATM    9  O10 UNL     1     -34.272  13.444  -3.922  1.00 20.00    -0.297 OA
ENDROOT
BRANCH   8  10
HETATM   10  C2  UNL     1     -34.900  13.474  -6.824  1.00 20.00     0.234 C 
HETATM   11  O11 UNL     1     -35.160  12.275  -6.847  1.00 20.00    -0.279 OA
HETATM   12 CL12 UNL     1     -33.839  14.313  -7.915  1.00 20.00    -0.043 Cl
ENDBRANCH   8  10
TORSDOF 1
ENDMDL
MODEL 6
REMARK VINA RESULT:      -4.6      2.008      2.659
REMARK  1 active torsions:
REMARK  status: ('A' for Active; 'I' for Inactive)
REMARK    1  A    between atoms: C2_2  and  C9_9 
ROOT
HETATM    1  C1  UNL     1     -35.416  16.102  -5.712  1.00 20.00     0.144 C 
HETATM    2  C3  UNL     1     -35.426  17.473  -5.068  1.00 20.00     0.084 C 
HETATM    3  C4  UNL     1     -33.328  15.718  -3.738  1.00 20.00     0.002 C 
HETATM    4  C5  UNL     1     -34.090  16.815  -2.985  1.00 20.00     0.005 C 
HETATM    5  C6  UNL     1     -34.222  14.547  -4.177  1.00 20.00     0.027 C 
HETATM    6  C7  UNL     1     -36.302  15.815  -3.576  1.00 20.00     0.031 C 
HETATM    7  C8  UNL     1     -35.485  17.108  -3.574  1.00 20.00    -0.006 C 
HETATM    8  C9  UNL     1     -35.600  15.009  -4.673  1.00 20.00     0.097 C 
HETATM    9  O10 UNL     1     -35.266  15.911  -6.912  1.00 20.00    -0.297 OA
ENDROOT
BRANCH   8  10
HETATM   10  C2  UNL     1     -36.451  13.863  -5.117  1.00 20.00     0.234 C 
HETATM   11  O11 UNL     1     -35.984  12.740  -5.285  1.00 20.00    -0.279 OA
HETATM   12 CL12 UNL     1     -38.108  14.329  -5.349  1.00 20.00    -0.043 Cl
ENDBRANCH   8  10
TORSDOF 1
ENDMDL
MODEL 7
REMARK VINA RESULT:      -4.6      2.237      3.383
REMARK  1 active torsions:
REMARK  status: ('A' for Active; 'I' for Inactive)
REMARK    1  A    between atoms: C2_2  and  C9_9 
ROOT
HETATM    1  C1  UNL     1     -36.025  13.796  -5.380  1.00 20.00     0.144 C 
HETATM    2  C3  UNL     1     -37.344  14.406  -5.810  1.00 20.00     0.084 C 
HETATM    3  C4  UNL     1     -35.214  14.959  -7.909  1.00 20.00     0.002 C 
HETATM    4  C5  UNL     1     -36.374  15.922  -7.630  1.00 20.00     0.005 C 
HETATM    5  C6  UNL     1     -34.223  14.845  -6.740  1.00 20.00     0.027 C 
HETATM    6  C7  UNL     1     -35.765  16.106  -5.214  1.00 20.00     0.031 C 
HETATM    7  C8  UNL     1     -36.912  15.833  -6.188  1.00 20.00    -0.006 C 
HETATM    8  C9  UNL     1     -34.920  14.838  -5.372  1.00 20.00     0.097 C 
HETATM    9  O10 UNL     1     -35.879  12.615  -5.092  1.00 20.00    -0.297 OA
ENDROOT
BRANCH   8  10
HETATM   10  C2  UNL     1     -33.945  14.705  -4.246  1.00 20.00     0.234 C 
HETATM   11  O11 UNL     1     -33.077  13.838  -4.243  1.00 20.00    -0.279 OA
HETATM   12 CL12 UNL     1     -34.211  15.894  -3.007  1.00 20.00    -0.043 Cl
ENDBRANCH   8  10
TORSDOF 1
ENDMDL
MODEL 8
REMARK VINA RESULT:      -4.6      1.628      2.531
REMARK  1 active torsions:
REMARK  status: ('A' for Active; 'I' for Inactive)
REMARK    1  A    between atoms: C2_2  and  C9_9 
ROOT
HETATM    1  C1  UNL     1     -34.369  15.283  -4.615  1.00 20.00     0.144 C 
HETATM    2  C3  UNL     1     -33.040  15.646  -5.246  1.00 20.00     0.084 C 
HETATM    3  C4  UNL     1     -35.248  17.385  -6.408  1.00 20.00     0.002 C 
HETATM    4  C5  UNL     1     -34.012  16.966  -7.213  1.00 20.00     0.005 C 
HETATM    5  C6  UNL     1     -36.174  16.210  -6.058  1.00 20.00     0.027 C 
HETATM    6  C7  UNL     1     -34.465  14.540  -6.822  1.00 20.00     0.031 C 
HETATM    7  C8  UNL     1     -33.398  15.632  -6.742  1.00 20.00    -0.006 C 
HETATM    8  C9  UNL     1     -35.400  14.940  -5.677  1.00 20.00     0.097 C 
HETATM    9  O10 UNL     1     -34.577  15.282  -3.409  1.00 20.00    -0.297 OA
ENDROOT
BRANCH   8  10
HETATM   10  C2  UNL     1     -36.313  13.812  -5.318  1.00 20.00     0.234 C 
HETATM   11  O11 UNL     1     -35.903  12.661  -5.200  1.00 20.00    -0.279 OA
HETATM   12 CL12 UNL     1     -37.955  14.341  -5.106  1.00 20.00    -0.043 Cl
ENDBRANCH   8  10
TORSDOF 1
ENDMDL
MODEL 9
REMARK VINA RESULT:      -4.5      1.466      2.840
REMARK  1 active torsions:
REMARK  status: ('A' for Active; 'I' for Inactive)
REMARK    1  A    between atoms: C2_2  and  C9_9 
ROOT
HETATM    1  C1  UNL     1     -35.929  16.098  -4.064  1.00 20.00     0.144 C 
HETATM    2  C3  UNL     1     -34.740  15.855  -3.156  1.00 20.00     0.084 C 
HETATM    3  C4  UNL     1     -33.792  16.286  -6.014  1.00 20.00     0.002 C 
HETATM    4  C5  UNL     1     -33.054  15.379  -5.023  1.00 20.00     0.005 C 
HETATM    5  C6  UNL     1     -35.177  15.753  -6.412  1.00 20.00     0.027 C 
HETATM    6  C7  UNL     1     -35.096  13.995  -4.624  1.00 20.00     0.031 C 
HETATM    7  C8  UNL     1     -33.973  14.777  -3.941  1.00 20.00    -0.006 C 
HETATM    8  C9  UNL     1     -35.932  15.125  -5.231  1.00 20.00     0.097 C 
HETATM    9  O10 UNL     1     -36.765  16.973  -3.878  1.00 20.00    -0.297 OA
ENDROOT
BRANCH   8  10
HETATM   10  C2  UNL     1     -37.286  14.630  -5.628  1.00 20.00     0.234 C 
HETATM   11  O11 UNL     1     -37.905  13.823  -4.942  1.00 20.00    -0.279 OA
HETATM   12 CL12 UNL     1     -37.824  15.328  -7.126  1.00 20.00    -0.043 Cl
ENDBRANCH   8  10
TORSDOF 1
ENDMDL
