MODEL 1
REMARK VINA RESULT:      -4.8      0.000      0.000
REMARK  0 active torsions:
REMARK  status: ('A' for Active; 'I' for Inactive)
ROOT
HETATM    1  C1  UNL     1     -31.900   8.357   2.471  1.00 20.00     0.003 A 
HETATM    2  C2  UNL     1     -32.270   7.217   1.865  1.00 20.00     0.013 A 
HETATM    3  C3  UNL     1     -32.395   8.370   3.839  1.00 20.00     0.030 A 
HETATM    4  C4  UNL     1     -33.538   5.242   2.751  1.00 20.00    -0.011 C 
HETATM    5  C5  UNL     1     -33.011   6.467   2.849  1.00 20.00    -0.013 A 
HETATM    6  C6  UNL     1     -33.082   7.239   4.081  1.00 20.00     0.039 A 
HETATM    7  C7  UNL     1     -34.231   4.615   3.929  1.00 20.00     0.048 C 
HETATM    8  C8  UNL     1     -34.695   5.617   5.002  1.00 20.00     0.126 C 
HETATM    9  C9  UNL     1     -33.878   7.489   6.420  1.00 20.00     0.149 C 
HETATM   10  N10 UNL     1     -33.764   6.745   5.173  1.00 20.00    -0.384 N 
ENDROOT
TORSDOF 0
ENDMDL
MODEL 2
REMARK VINA RESULT:      -4.7      1.053      2.602
REMARK  0 active torsions:
REMARK  status: ('A' for Active; 'I' for Inactive)
ROOT
HETATM    1  C1  UNL     1     -31.763   8.378   3.391  1.00 20.00     0.003 A 
HETATM    2  C2  UNL     1     -32.336   8.434   4.605  1.00 20.00     0.013 A 
HETATM    3  C3  UNL     1     -32.188   7.168   2.704  1.00 20.00     0.030 A 
HETATM    4  C4  UNL     1     -33.968   6.881   5.707  1.00 20.00    -0.011 C 
HETATM    5  C5  UNL     1     -33.154   7.252   4.714  1.00 20.00    -0.013 A 
HETATM    6  C6  UNL     1     -33.020   6.467   3.494  1.00 20.00     0.039 A 
HETATM    7  C7  UNL     1     -34.783   5.622   5.594  1.00 20.00     0.048 C 
HETATM    8  C8  UNL     1     -34.259   4.616   4.552  1.00 20.00     0.126 C 
HETATM    9  C9  UNL     1     -33.572   4.441   2.169  1.00 20.00     0.149 C 
HETATM   10  N10 UNL     1     -33.690   5.269   3.361  1.00 20.00    -0.384 N 
ENDROOT
TORSDOF 0
ENDMDL
MODEL 3
REMARK VINA RESULT:      -4.6      1.252      3.968
REMARK  0 active torsions:
REMARK  status: ('A' for Active; 'I' for Inactive)
ROOT
HETATM    1  C1  UNL     1     -34.890   5.258   5.983  1.00 20.00     0.003 A 
HETATM    2  C2  UNL     1     -34.410   6.499   6.165  1.00 20.00     0.013 A 
HETATM    3  C3  UNL     1     -34.444   4.744   4.697  1.00 20.00     0.030 A 
HETATM    4  C4  UNL     1     -32.909   7.892   4.718  1.00 20.00    -0.011 C 
HETATM    5  C5  UNL     1     -33.634   6.803   4.989  1.00 20.00    -0.013 A 
HETATM    6  C6  UNL     1     -33.694   5.671   4.075  1.00 20.00     0.039 A 
HETATM    7  C7  UNL     1     -32.120   7.984   3.441  1.00 20.00     0.048 C 
HETATM    8  C8  UNL     1     -32.588   7.021   2.333  1.00 20.00     0.126 C 
HETATM    9  C9  UNL     1     -33.094   4.625   1.903  1.00 20.00     0.149 C 
HETATM   10  N10 UNL     1     -33.047   5.724   2.858  1.00 20.00    -0.384 N 
ENDROOT
TORSDOF 0
ENDMDL
MODEL 4
REMARK VINA RESULT:      -4.6      1.009      3.463
REMARK  0 active torsions:
REMARK  status: ('A' for Active; 'I' for Inactive)
ROOT
HETATM    1  C1  UNL     1     -33.894   3.869   3.225  1.00 20.00     0.003 A 
HETATM    2  C2  UNL     1     -34.425   4.107   4.435  1.00 20.00     0.013 A 
HETATM    3  C3  UNL     1     -33.192   5.054   2.756  1.00 20.00     0.030 A 
HETATM    4  C4  UNL     1     -34.303   6.144   5.893  1.00 20.00    -0.011 C 
HETATM    5  C5  UNL     1     -34.062   5.462   4.769  1.00 20.00    -0.013 A 
HETATM    6  C6  UNL     1     -33.295   6.033   3.672  1.00 20.00     0.039 A 
HETATM    7  C7  UNL     1     -33.781   7.544   6.061  1.00 20.00     0.048 C 
HETATM    8  C8  UNL     1     -33.420   8.251   4.741  1.00 20.00     0.126 C 
HETATM    9  C9  UNL     1     -32.094   7.956   2.659  1.00 20.00     0.149 C 
HETATM   10  N10 UNL     1     -32.848   7.336   3.739  1.00 20.00    -0.384 N 
ENDROOT
TORSDOF 0
ENDMDL
MODEL 5
REMARK VINA RESULT:      -4.5      1.061      3.091
REMARK  0 active torsions:
REMARK  status: ('A' for Active; 'I' for Inactive)
ROOT
HETATM    1  C1  UNL     1     -34.117   7.268   6.401  1.00 20.00     0.003 A 
HETATM    2  C2  UNL     1     -34.504   6.020   6.089  1.00 20.00     0.013 A 
HETATM    3  C3  UNL     1     -33.416   7.861   5.272  1.00 20.00     0.030 A 
HETATM    4  C4  UNL     1     -34.253   4.726   3.955  1.00 20.00    -0.011 C 
HETATM    5  C5  UNL     1     -34.059   5.793   4.736  1.00 20.00    -0.013 A 
HETATM    6  C6  UNL     1     -33.360   6.978   4.260  1.00 20.00     0.039 A 
HETATM    7  C7  UNL     1     -33.747   4.715   2.539  1.00 20.00     0.048 C 
HETATM    8  C8  UNL     1     -32.635   5.741   2.254  1.00 20.00     0.126 C 
HETATM    9  C9  UNL     1     -32.090   8.156   2.481  1.00 20.00     0.149 C 
HETATM   10  N10 UNL     1     -32.814   7.001   2.994  1.00 20.00    -0.384 N 
ENDROOT
TORSDOF 0
ENDMDL
MODEL 6
REMARK VINA RESULT:      -4.5     11.757     12.211
REMARK  0 active torsions:
REMARK  status: ('A' for Active; 'I' for Inactive)
ROOT
HETATM    1  C1  UNL     1     -34.927  16.559  -2.302  1.00 20.00     0.003 A 
HETATM    2  C2  UNL     1     -33.643  16.947  -2.370  1.00 20.00     0.013 A 
HETATM    3  C3  UNL     1     -35.518  17.035  -1.060  1.00 20.00     0.030 A 
HETATM    4  C4  UNL     1     -32.277  18.335  -0.789  1.00 20.00    -0.011 C 
HETATM    5  C5  UNL     1     -33.388  17.693  -1.162  1.00 20.00    -0.013 A 
HETATM    6  C6  UNL     1     -34.597  17.712  -0.351  1.00 20.00     0.039 A 
HETATM    7  C7  UNL     1     -32.240  19.109   0.500  1.00 20.00     0.048 C 
HETATM    8  C8  UNL     1     -33.327  18.707   1.514  1.00 20.00     0.126 C 
HETATM    9  C9  UNL     1     -35.782  18.376   1.728  1.00 20.00     0.149 C 
HETATM   10  N10 UNL     1     -34.603  18.347   0.873  1.00 20.00    -0.384 N 
ENDROOT
TORSDOF 0
ENDMDL
MODEL 7
REMARK VINA RESULT:      -4.4      1.097      3.138
REMARK  0 active torsions:
REMARK  status: ('A' for Active; 'I' for Inactive)
ROOT
HETATM    1  C1  UNL     1     -34.783   5.247   5.718  1.00 20.00     0.003 A 
HETATM    2  C2  UNL     1     -34.774   4.883   4.425  1.00 20.00     0.013 A 
HETATM    3  C3  UNL     1     -33.980   6.447   5.896  1.00 20.00     0.030 A 
HETATM    4  C4  UNL     1     -33.696   5.969   2.437  1.00 20.00    -0.011 C 
HETATM    5  C5  UNL     1     -33.962   5.860   3.743  1.00 20.00    -0.013 A 
HETATM    6  C6  UNL     1     -33.464   6.825   4.713  1.00 20.00     0.039 A 
HETATM    7  C7  UNL     1     -32.862   7.109   1.922  1.00 20.00     0.048 C 
HETATM    8  C8  UNL     1     -31.986   7.790   2.990  1.00 20.00     0.126 C 
HETATM    9  C9  UNL     1     -32.100   8.831   5.245  1.00 20.00     0.149 C 
HETATM   10  N10 UNL     1     -32.637   7.853   4.310  1.00 20.00    -0.384 N 
ENDROOT
TORSDOF 0
ENDMDL
MODEL 8
REMARK VINA RESULT:      -4.3     11.768     12.155
REMARK  0 active torsions:
REMARK  status: ('A' for Active; 'I' for Inactive)
ROOT
HETATM    1  C1  UNL     1     -34.384  16.687  -2.666  1.00 20.00     0.003 A 
HETATM    2  C2  UNL     1     -35.496  16.683  -1.912  1.00 20.00     0.013 A 
HETATM    3  C3  UNL     1     -33.303  17.340  -1.943  1.00 20.00     0.030 A 
HETATM    4  C4  UNL     1     -35.884  17.524   0.418  1.00 20.00    -0.011 C 
HETATM    5  C5  UNL     1     -35.140  17.334  -0.676  1.00 20.00    -0.013 A 
HETATM    6  C6  UNL     1     -33.746  17.750  -0.741  1.00 20.00     0.039 A 
HETATM    7  C7  UNL     1     -35.295  18.184   1.635  1.00 20.00     0.048 C 
HETATM    8  C8  UNL     1     -34.028  19.014   1.357  1.00 20.00     0.126 C 
HETATM    9  C9  UNL     1     -31.787  18.874   0.291  1.00 20.00     0.149 C 
HETATM   10  N10 UNL     1     -33.171  18.421   0.317  1.00 20.00    -0.384 N 
ENDROOT
TORSDOF 0
ENDMDL
MODEL 9
REMARK VINA RESULT:      -4.3     11.880     12.204
REMARK  0 active torsions:
REMARK  status: ('A' for Active; 'I' for Inactive)
ROOT
HETATM    1  C1  UNL     1     -34.637  17.319  -1.603  1.00 20.00     0.003 A 
HETATM    2  C2  UNL     1     -33.527  16.903  -2.236  1.00 20.00     0.013 A 
HETATM    3  C3  UNL     1     -35.812  16.769  -2.262  1.00 20.00     0.030 A 
HETATM    4  C4  UNL     1     -33.253  15.367  -4.200  1.00 20.00    -0.011 C 
HETATM    5  C5  UNL     1     -33.978  16.064  -3.319  1.00 20.00    -0.013 A 
HETATM    6  C6  UNL     1     -35.433  16.018  -3.311  1.00 20.00     0.039 A 
HETATM    7  C7  UNL     1     -33.930  14.501  -5.226  1.00 20.00     0.048 C 
HETATM    8  C8  UNL     1     -35.406  14.855  -5.485  1.00 20.00     0.126 C 
HETATM    9  C9  UNL     1     -37.566  15.235  -4.313  1.00 20.00     0.149 C 
HETATM   10  N10 UNL     1     -36.111  15.296  -4.270  1.00 20.00    -0.384 N 
ENDROOT
TORSDOF 0
ENDMDL
