MODEL 1
REMARK VINA RESULT:      -4.7      0.000      0.000
REMARK  1 active torsions:
REMARK  status: ('A' for Active; 'I' for Inactive)
REMARK    1  A    between atoms: C4_4  and  C7_7 
ROOT
HETATM    1  C1  UNL     1     -35.681   5.746   3.979  1.00 20.00    -0.024 C 
HETATM    2  C2  UNL     1     -34.949   6.454   3.102  1.00 20.00    -0.013 C 
HETATM    3  C3  UNL     1     -33.283   4.763   3.085  1.00 20.00     0.140 C 
HETATM    4  C5  UNL     1     -34.045   3.894   4.091  1.00 20.00     0.088 C 
HETATM    5  C6  UNL     1     -34.717   5.027   4.906  1.00 20.00     0.027 C 
HETATM    6  C7  UNL     1     -33.575   6.061   4.975  1.00 20.00     0.074 C 
HETATM    7  C8  UNL     1     -33.494   6.239   3.449  1.00 20.00     0.045 C 
HETATM    8  C9  UNL     1     -32.477   7.218   2.925  1.00 20.00     0.029 C 
HETATM    9  O10 UNL     1     -32.642   4.339   2.136  1.00 20.00    -0.297 OA
ENDROOT
BRANCH   6  10
HETATM   10  C4  UNL     1     -33.915   7.281   5.785  1.00 20.00     0.237 C 
HETATM   11  O11 UNL     1     -33.070   8.007   6.300  1.00 20.00    -0.306 OA
ENDBRANCH   6  10
TORSDOF 1
ENDMDL
MODEL 2
REMARK VINA RESULT:      -4.6      1.599      2.258
REMARK  1 active torsions:
REMARK  status: ('A' for Active; 'I' for Inactive)
REMARK    1  A    between atoms: C4_4  and  C7_7 
ROOT
HETATM    1  C1  UNL     1     -35.129   7.201   3.810  1.00 20.00    -0.024 C 
HETATM    2  C2  UNL     1     -34.908   6.256   2.880  1.00 20.00    -0.013 C 
HETATM    3  C3  UNL     1     -34.159   4.746   4.551  1.00 20.00     0.140 C 
HETATM    4  C5  UNL     1     -34.372   5.764   5.676  1.00 20.00     0.088 C 
HETATM    5  C6  UNL     1     -34.057   7.054   4.876  1.00 20.00     0.027 C 
HETATM    6  C7  UNL     1     -32.869   6.587   4.013  1.00 20.00     0.074 C 
HETATM    7  C8  UNL     1     -33.676   5.488   3.298  1.00 20.00     0.045 C 
HETATM    8  C9  UNL     1     -32.953   4.669   2.262  1.00 20.00     0.029 C 
HETATM    9  O10 UNL     1     -34.373   3.547   4.642  1.00 20.00    -0.297 OA
ENDROOT
BRANCH   6  10
HETATM   10  C4  UNL     1     -32.286   7.671   3.151  1.00 20.00     0.237 C 
HETATM   11  O11 UNL     1     -31.366   8.399   3.510  1.00 20.00    -0.306 OA
ENDBRANCH   6  10
TORSDOF 1
ENDMDL
MODEL 3
REMARK VINA RESULT:      -4.5     12.068     13.630
REMARK  1 active torsions:
REMARK  status: ('A' for Active; 'I' for Inactive)
REMARK    1  A    between atoms: C4_4  and  C7_7 
ROOT
HETATM    1  C1  UNL     1     -33.053  14.793  -4.532  1.00 20.00    -0.024 C 
HETATM    2  C2  UNL     1     -33.193  15.602  -5.597  1.00 20.00    -0.013 C 
HETATM    3  C3  UNL     1     -34.524  17.097  -4.322  1.00 20.00     0.140 C 
HETATM    4  C5  UNL     1     -34.427  16.232  -3.061  1.00 20.00     0.088 C 
HETATM    5  C6  UNL     1     -34.352  14.843  -3.745  1.00 20.00     0.027 C 
HETATM    6  C7  UNL     1     -35.365  15.021  -4.893  1.00 20.00     0.074 C 
HETATM    7  C8  UNL     1     -34.589  16.177  -5.548  1.00 20.00     0.045 C 
HETATM    8  C9  UNL     1     -35.168  16.767  -6.807  1.00 20.00     0.029 C 
HETATM    9  O10 UNL     1     -34.519  18.318  -4.336  1.00 20.00    -0.297 OA
ENDROOT
BRANCH   6  10
HETATM   10  C4  UNL     1     -35.565  13.782  -5.719  1.00 20.00     0.237 C 
HETATM   11  O11 UNL     1     -35.893  12.699  -5.246  1.00 20.00    -0.306 OA
ENDBRANCH   6  10
TORSDOF 1
ENDMDL
MODEL 4
REMARK VINA RESULT:      -4.4     11.866     12.719
REMARK  1 active torsions:
REMARK  status: ('A' for Active; 'I' for Inactive)
REMARK    1  A    between atoms: C4_4  and  C7_7 
ROOT
HETATM    1  C1  UNL     1     -35.224  16.763  -5.314  1.00 20.00    -0.024 C 
HETATM    2  C2  UNL     1     -34.201  15.928  -5.569  1.00 20.00    -0.013 C 
HETATM    3  C3  UNL     1     -35.448  14.097  -4.715  1.00 20.00     0.140 C 
HETATM    4  C5  UNL     1     -36.657  14.976  -4.381  1.00 20.00     0.088 C 
HETATM    5  C6  UNL     1     -35.899  16.284  -4.041  1.00 20.00     0.027 C 
HETATM    6  C7  UNL     1     -34.683  15.732  -3.271  1.00 20.00     0.074 C 
HETATM    7  C8  UNL     1     -34.167  14.902  -4.460  1.00 20.00     0.045 C 
HETATM    8  C9  UNL     1     -32.902  14.114  -4.250  1.00 20.00     0.029 C 
HETATM    9  O10 UNL     1     -35.508  12.955  -5.144  1.00 20.00    -0.297 OA
ENDROOT
BRANCH   6  10
HETATM   10  C4  UNL     1     -33.769  16.800  -2.740  1.00 20.00     0.237 C 
HETATM   11  O11 UNL     1     -33.711  17.113  -1.555  1.00 20.00    -0.306 OA
ENDBRANCH   6  10
TORSDOF 1
ENDMDL
MODEL 5
REMARK VINA RESULT:      -4.3     12.353     13.239
REMARK  1 active torsions:
REMARK  status: ('A' for Active; 'I' for Inactive)
REMARK    1  A    between atoms: C4_4  and  C7_7 
ROOT
HETATM    1  C1  UNL     1     -34.360  15.611  -6.328  1.00 20.00    -0.024 C 
HETATM    2  C2  UNL     1     -35.038  16.512  -5.596  1.00 20.00    -0.013 C 
HETATM    3  C3  UNL     1     -33.932  15.784  -3.626  1.00 20.00     0.140 C 
HETATM    4  C5  UNL     1     -33.124  14.722  -4.379  1.00 20.00     0.088 C 
HETATM    5  C6  UNL     1     -34.168  14.373  -5.469  1.00 20.00     0.027 C 
HETATM    6  C7  UNL     1     -35.473  14.399  -4.650  1.00 20.00     0.074 C 
HETATM    7  C8  UNL     1     -35.329  15.879  -4.256  1.00 20.00     0.045 C 
HETATM    8  C9  UNL     1     -36.417  16.472  -3.401  1.00 20.00     0.029 C 
HETATM    9  O10 UNL     1     -33.511  16.458  -2.699  1.00 20.00    -0.297 OA
ENDROOT
BRANCH   6  10
HETATM   10  C4  UNL     1     -36.692  14.024  -5.446  1.00 20.00     0.237 C 
HETATM   11  O11 UNL     1     -37.765  13.718  -4.935  1.00 20.00    -0.306 OA
ENDBRANCH   6  10
TORSDOF 1
ENDMDL
MODEL 6
REMARK VINA RESULT:      -4.2     12.178     13.299
REMARK  1 active torsions:
REMARK  status: ('A' for Active; 'I' for Inactive)
REMARK    1  A    between atoms: C4_4  and  C7_7 
ROOT
HETATM    1  C1  UNL     1     -34.103  16.518  -5.126  1.00 20.00    -0.024 C 
HETATM    2  C2  UNL     1     -35.423  16.758  -5.209  1.00 20.00    -0.013 C 
HETATM    3  C3  UNL     1     -35.617  16.655  -2.845  1.00 20.00     0.140 C 
HETATM    4  C5  UNL     1     -34.124  16.368  -2.658  1.00 20.00     0.088 C 
HETATM    5  C6  UNL     1     -33.881  15.568  -3.962  1.00 20.00     0.027 C 
HETATM    6  C7  UNL     1     -35.171  14.728  -4.041  1.00 20.00     0.074 C 
HETATM    7  C8  UNL     1     -36.098  15.953  -4.123  1.00 20.00     0.045 C 
HETATM    8  C9  UNL     1     -37.576  15.690  -4.235  1.00 20.00     0.029 C 
HETATM    9  O10 UNL     1     -36.294  17.355  -2.108  1.00 20.00    -0.297 OA
ENDROOT
BRANCH   6  10
HETATM   10  C4  UNL     1     -35.200  13.774  -5.202  1.00 20.00     0.237 C 
HETATM   11  O11 UNL     1     -35.874  12.749  -5.219  1.00 20.00    -0.306 OA
ENDBRANCH   6  10
TORSDOF 1
ENDMDL
MODEL 7
REMARK VINA RESULT:      -4.2     12.058     13.296
REMARK  1 active torsions:
REMARK  status: ('A' for Active; 'I' for Inactive)
REMARK    1  A    between atoms: C4_4  and  C7_7 
ROOT
HETATM    1  C1  UNL     1     -35.145  15.958  -3.077  1.00 20.00    -0.024 C 
HETATM    2  C2  UNL     1     -36.271  15.813  -3.797  1.00 20.00    -0.013 C 
HETATM    3  C3  UNL     1     -35.373  13.891  -4.863  1.00 20.00     0.140 C 
HETATM    4  C5  UNL     1     -34.052  13.985  -4.093  1.00 20.00     0.088 C 
HETATM    5  C6  UNL     1     -33.981  15.527  -3.953  1.00 20.00     0.027 C 
HETATM    6  C7  UNL     1     -34.494  15.975  -5.336  1.00 20.00     0.074 C 
HETATM    7  C8  UNL     1     -35.871  15.311  -5.165  1.00 20.00     0.045 C 
HETATM    8  C9  UNL     1     -36.851  15.458  -6.299  1.00 20.00     0.029 C 
HETATM    9  O10 UNL     1     -35.942  12.850  -5.154  1.00 20.00    -0.297 OA
ENDROOT
BRANCH   6  10
HETATM   10  C4  UNL     1     -34.478  17.466  -5.531  1.00 20.00     0.237 C 
HETATM   11  O11 UNL     1     -33.538  18.181  -5.200  1.00 20.00    -0.306 OA
ENDBRANCH   6  10
TORSDOF 1
ENDMDL
MODEL 8
REMARK VINA RESULT:      -4.1     12.087     13.083
REMARK  1 active torsions:
REMARK  status: ('A' for Active; 'I' for Inactive)
REMARK    1  A    between atoms: C4_4  and  C7_7 
ROOT
HETATM    1  C1  UNL     1     -35.249  16.615  -5.339  1.00 20.00    -0.024 C 
HETATM    2  C2  UNL     1     -35.401  15.691  -6.303  1.00 20.00    -0.013 C 
HETATM    3  C3  UNL     1     -37.014  14.547  -4.990  1.00 20.00     0.140 C 
HETATM    4  C5  UNL     1     -36.897  15.547  -3.835  1.00 20.00     0.088 C 
HETATM    5  C6  UNL     1     -35.400  15.912  -4.002  1.00 20.00     0.027 C 
HETATM    6  C7  UNL     1     -34.795  14.535  -4.342  1.00 20.00     0.074 C 
HETATM    7  C8  UNL     1     -35.628  14.361  -5.623  1.00 20.00     0.045 C 
HETATM    8  C9  UNL     1     -35.411  13.101  -6.418  1.00 20.00     0.029 C 
HETATM    9  O10 UNL     1     -38.051  14.015  -5.355  1.00 20.00    -0.297 OA
ENDROOT
BRANCH   6  10
HETATM   10  C4  UNL     1     -33.301  14.556  -4.501  1.00 20.00     0.237 C 
HETATM   11  O11 UNL     1     -32.576  13.610  -4.208  1.00 20.00    -0.306 OA
ENDBRANCH   6  10
TORSDOF 1
ENDMDL
MODEL 9
REMARK VINA RESULT:      -4.1     12.048     13.273
REMARK  1 active torsions:
REMARK  status: ('A' for Active; 'I' for Inactive)
REMARK    1  A    between atoms: C4_4  and  C7_7 
ROOT
HETATM    1  C1  UNL     1     -33.287  14.447  -4.369  1.00 20.00    -0.024 C 
HETATM    2  C2  UNL     1     -34.589  14.129  -4.266  1.00 20.00    -0.013 C 
HETATM    3  C3  UNL     1     -35.117  15.587  -6.063  1.00 20.00     0.140 C 
HETATM    4  C5  UNL     1     -33.657  16.016  -6.245  1.00 20.00     0.088 C 
HETATM    5  C6  UNL     1     -33.204  15.911  -4.767  1.00 20.00     0.027 C 
HETATM    6  C7  UNL     1     -34.441  16.469  -4.036  1.00 20.00     0.074 C 
HETATM    7  C8  UNL     1     -35.386  15.377  -4.567  1.00 20.00     0.045 C 
HETATM    8  C9  UNL     1     -36.823  15.436  -4.123  1.00 20.00     0.029 C 
HETATM    9  O10 UNL     1     -35.915  15.415  -6.971  1.00 20.00    -0.297 OA
ENDROOT
BRANCH   6  10
HETATM   10  C4  UNL     1     -34.272  16.555  -2.545  1.00 20.00     0.237 C 
HETATM   11  O11 UNL     1     -33.313  17.094  -2.003  1.00 20.00    -0.306 OA
ENDBRANCH   6  10
TORSDOF 1
ENDMDL
