MODEL 1
REMARK VINA RESULT:      -6.4      0.000      0.000
REMARK  2 active torsions:
REMARK  status: ('A' for Active; 'I' for Inactive)
REMARK    1  A    between atoms: C4_4  and  O11_11 
REMARK    2  A    between atoms: C10_10  and  O11_11 
ROOT
HETATM    1  C1  UNL     1     -33.829   6.350   4.954  1.00 20.00    -0.075 C 
HETATM    2  C2  UNL     1     -33.262   6.224   3.761  1.00 20.00    -0.049 C 
HETATM    3  C5  UNL     1     -34.711   5.222   5.304  1.00 20.00     0.034 C 
HETATM    4  C6  UNL     1     -33.543   7.643   5.603  1.00 20.00     0.037 C 
HETATM    5  C7  UNL     1     -33.645   4.984   3.062  1.00 20.00     0.037 C 
HETATM    6  C8  UNL     1     -34.375   4.215   4.183  1.00 20.00     0.009 C 
HETATM    7  C9  UNL     1     -32.445   8.219   4.678  1.00 20.00     0.041 C 
HETATM    8  C10 UNL     1     -32.466   7.402   3.367  1.00 20.00     0.157 C 
ENDROOT
BRANCH   8   9
HETATM    9  O11 UNL     1     -33.126   8.130   2.345  1.00 20.00    -0.354 OA
BRANCH   9  10
HETATM   10  C4  UNL     1     -32.337   8.878   1.579  1.00 20.00     0.125 C 
HETATM   11  C3  UNL     1     -32.646  10.091   1.118  1.00 20.00     0.037 C 
ENDBRANCH   9  10
ENDBRANCH   8   9
TORSDOF 2
ENDMDL
MODEL 2
REMARK VINA RESULT:      -5.8      1.047      2.282
REMARK  2 active torsions:
REMARK  status: ('A' for Active; 'I' for Inactive)
REMARK    1  A    between atoms: C4_4  and  O11_11 
REMARK    2  A    between atoms: C10_10  and  O11_11 
ROOT
HETATM    1  C1  UNL     1     -34.031   5.355   4.185  1.00 20.00    -0.075 C 
HETATM    2  C2  UNL     1     -33.807   6.664   4.193  1.00 20.00    -0.049 C 
HETATM    3  C5  UNL     1     -34.440   4.825   5.498  1.00 20.00     0.034 C 
HETATM    4  C6  UNL     1     -33.702   4.714   2.899  1.00 20.00     0.037 C 
HETATM    5  C7  UNL     1     -34.021   7.283   5.513  1.00 20.00     0.037 C 
HETATM    6  C8  UNL     1     -34.689   6.128   6.288  1.00 20.00     0.009 C 
HETATM    7  C9  UNL     1     -33.468   5.944   1.990  1.00 20.00     0.041 C 
HETATM    8  C10 UNL     1     -33.294   7.174   2.907  1.00 20.00     0.157 C 
ENDROOT
BRANCH   8   9
HETATM    9  O11 UNL     1     -31.923   7.515   3.018  1.00 20.00    -0.354 OA
BRANCH   9  10
HETATM   10  C4  UNL     1     -31.587   8.695   2.505  1.00 20.00     0.125 C 
HETATM   11  C3  UNL     1     -32.135   9.240   1.418  1.00 20.00     0.037 C 
ENDBRANCH   9  10
ENDBRANCH   8   9
TORSDOF 2
ENDMDL
MODEL 3
REMARK VINA RESULT:      -4.5     11.335     12.023
REMARK  2 active torsions:
REMARK  status: ('A' for Active; 'I' for Inactive)
REMARK    1  A    between atoms: C4_4  and  O11_11 
REMARK    2  A    between atoms: C10_10  and  O11_11 
ROOT
HETATM    1  C1  UNL     1     -33.451  17.720  -1.192  1.00 20.00    -0.075 C 
HETATM    2  C2  UNL     1     -34.460  17.970  -0.366  1.00 20.00    -0.049 C 
HETATM    3  C5  UNL     1     -33.803  16.785  -2.277  1.00 20.00     0.034 C 
HETATM    4  C6  UNL     1     -32.182  18.336  -0.767  1.00 20.00     0.037 C 
HETATM    5  C7  UNL     1     -35.698  17.256  -0.726  1.00 20.00     0.037 C 
HETATM    6  C8  UNL     1     -35.336  16.699  -2.119  1.00 20.00     0.009 C 
HETATM    7  C9  UNL     1     -32.654  19.263   0.378  1.00 20.00     0.041 C 
HETATM    8  C10 UNL     1     -34.078  18.818   0.779  1.00 20.00     0.157 C 
ENDROOT
BRANCH   8   9
HETATM    9  O11 UNL     1     -34.037  18.056   1.972  1.00 20.00    -0.354 OA
BRANCH   9  10
HETATM   10  C4  UNL     1     -33.129  18.442   2.864  1.00 20.00     0.125 C 
HETATM   11  C3  UNL     1     -33.286  18.388   4.188  1.00 20.00     0.037 C 
ENDBRANCH   9  10
ENDBRANCH   8   9
TORSDOF 2
ENDMDL
MODEL 4
REMARK VINA RESULT:      -4.3      1.514      4.081
REMARK  2 active torsions:
REMARK  status: ('A' for Active; 'I' for Inactive)
REMARK    1  A    between atoms: C4_4  and  O11_11 
REMARK    2  A    between atoms: C10_10  and  O11_11 
ROOT
HETATM    1  C1  UNL     1     -32.644   7.763   4.275  1.00 20.00    -0.075 C 
HETATM    2  C2  UNL     1     -33.389   7.343   3.261  1.00 20.00    -0.049 C 
HETATM    3  C5  UNL     1     -31.422   8.470   3.849  1.00 20.00     0.034 C 
HETATM    4  C6  UNL     1     -33.145   7.323   5.590  1.00 20.00     0.037 C 
HETATM    5  C7  UNL     1     -32.823   7.682   1.943  1.00 20.00     0.037 C 
HETATM    6  C8  UNL     1     -31.684   8.645   2.338  1.00 20.00     0.009 C 
HETATM    7  C9  UNL     1     -34.531   6.746   5.217  1.00 20.00     0.041 C 
HETATM    8  C10 UNL     1     -34.554   6.544   3.686  1.00 20.00     0.157 C 
ENDROOT
BRANCH   8   9
HETATM    9  O11 UNL     1     -34.362   5.176   3.368  1.00 20.00    -0.354 OA
BRANCH   9  10
HETATM   10  C4  UNL     1     -34.449   4.336   4.395  1.00 20.00     0.125 C 
HETATM   11  C3  UNL     1     -33.538   3.412   4.707  1.00 20.00     0.037 C 
ENDBRANCH   9  10
ENDBRANCH   8   9
TORSDOF 2
ENDMDL
MODEL 5
REMARK VINA RESULT:      -4.3     11.603     12.203
REMARK  2 active torsions:
REMARK  status: ('A' for Active; 'I' for Inactive)
REMARK    1  A    between atoms: C4_4  and  O11_11 
REMARK    2  A    between atoms: C10_10  and  O11_11 
ROOT
HETATM    1  C1  UNL     1     -33.877  16.534  -2.818  1.00 20.00    -0.075 C 
HETATM    2  C2  UNL     1     -35.163  16.345  -2.548  1.00 20.00    -0.049 C 
HETATM    3  C5  UNL     1     -33.214  17.459  -1.881  1.00 20.00     0.034 C 
HETATM    4  C6  UNL     1     -33.438  15.874  -4.060  1.00 20.00     0.037 C 
HETATM    5  C7  UNL     1     -35.629  17.103  -1.373  1.00 20.00     0.037 C 
HETATM    6  C8  UNL     1     -34.295  17.613  -0.789  1.00 20.00     0.009 C 
HETATM    7  C9  UNL     1     -34.665  14.993  -4.394  1.00 20.00     0.041 C 
HETATM    8  C10 UNL     1     -35.850  15.506  -3.548  1.00 20.00     0.157 C 
ENDROOT
BRANCH   8   9
HETATM    9  O11 UNL     1     -36.719  16.292  -4.345  1.00 20.00    -0.354 OA
BRANCH   9  10
HETATM   10  C4  UNL     1     -37.963  15.833  -4.452  1.00 20.00     0.125 C 
HETATM   11  C3  UNL     1     -38.300  14.654  -4.979  1.00 20.00     0.037 C 
ENDBRANCH   9  10
ENDBRANCH   8   9
TORSDOF 2
ENDMDL
MODEL 6
REMARK VINA RESULT:      -4.2     11.451     12.048
REMARK  2 active torsions:
REMARK  status: ('A' for Active; 'I' for Inactive)
REMARK    1  A    between atoms: C4_4  and  O11_11 
REMARK    2  A    between atoms: C10_10  and  O11_11 
ROOT
HETATM    1  C1  UNL     1     -33.820  17.921  -0.623  1.00 20.00    -0.075 C 
HETATM    2  C2  UNL     1     -34.980  17.279  -0.692  1.00 20.00    -0.049 C 
HETATM    3  C5  UNL     1     -33.652  18.693   0.622  1.00 20.00     0.034 C 
HETATM    4  C6  UNL     1     -33.019  17.813  -1.856  1.00 20.00     0.037 C 
HETATM    5  C7  UNL     1     -35.830  17.486   0.494  1.00 20.00     0.037 C 
HETATM    6  C8  UNL     1     -34.849  18.189   1.456  1.00 20.00     0.009 C 
HETATM    7  C9  UNL     1     -33.802  16.736  -2.642  1.00 20.00     0.041 C 
HETATM    8  C10 UNL     1     -35.191  16.596  -1.982  1.00 20.00     0.157 C 
ENDROOT
BRANCH   8   9
HETATM    9  O11 UNL     1     -36.171  17.274  -2.749  1.00 20.00    -0.354 OA
BRANCH   9  10
HETATM   10  C4  UNL     1     -36.443  16.730  -3.932  1.00 20.00     0.125 C 
HETATM   11  C3  UNL     1     -37.010  15.536  -4.112  1.00 20.00     0.037 C 
ENDBRANCH   9  10
ENDBRANCH   8   9
TORSDOF 2
ENDMDL
MODEL 7
REMARK VINA RESULT:      -4.2     11.082     11.950
REMARK  2 active torsions:
REMARK  status: ('A' for Active; 'I' for Inactive)
REMARK    1  A    between atoms: C4_4  and  O11_11 
REMARK    2  A    between atoms: C10_10  and  O11_11 
ROOT
HETATM    1  C1  UNL     1     -34.331  18.056   0.181  1.00 20.00    -0.075 C 
HETATM    2  C2  UNL     1     -33.647  18.038  -0.957  1.00 20.00    -0.049 C 
HETATM    3  C5  UNL     1     -33.537  18.524   1.332  1.00 20.00     0.034 C 
HETATM    4  C6  UNL     1     -35.686  17.489   0.057  1.00 20.00     0.037 C 
HETATM    5  C7  UNL     1     -32.253  18.493  -0.806  1.00 20.00     0.037 C 
HETATM    6  C8  UNL     1     -32.270  19.058   0.630  1.00 20.00     0.009 C 
HETATM    7  C9  UNL     1     -35.823  17.346  -1.477  1.00 20.00     0.041 C 
HETATM    8  C10 UNL     1     -34.409  17.468  -2.084  1.00 20.00     0.157 C 
ENDROOT
BRANCH   8   9
HETATM    9  O11 UNL     1     -33.908  16.187  -2.426  1.00 20.00    -0.354 OA
BRANCH   9  10
HETATM   10  C4  UNL     1     -34.104  15.819  -3.689  1.00 20.00     0.125 C 
HETATM   11  C3  UNL     1     -34.513  14.609  -4.077  1.00 20.00     0.037 C 
ENDBRANCH   9  10
ENDBRANCH   8   9
TORSDOF 2
ENDMDL
MODEL 8
REMARK VINA RESULT:      -4.2      1.362      4.424
REMARK  2 active torsions:
REMARK  status: ('A' for Active; 'I' for Inactive)
REMARK    1  A    between atoms: C4_4  and  O11_11 
REMARK    2  A    between atoms: C10_10  and  O11_11 
ROOT
HETATM    1  C1  UNL     1     -31.822   8.432   2.253  1.00 20.00    -0.075 C 
HETATM    2  C2  UNL     1     -33.103   8.139   2.074  1.00 20.00    -0.049 C 
HETATM    3  C5  UNL     1     -31.161   8.933   1.034  1.00 20.00     0.034 C 
HETATM    4  C6  UNL     1     -31.322   8.076   3.594  1.00 20.00     0.037 C 
HETATM    5  C7  UNL     1     -33.570   8.384   0.698  1.00 20.00     0.037 C 
HETATM    6  C8  UNL     1     -32.371   9.150   0.100  1.00 20.00     0.009 C 
HETATM    7  C9  UNL     1     -32.637   7.731   4.333  1.00 20.00     0.041 C 
HETATM    8  C10 UNL     1     -33.734   7.537   3.264  1.00 20.00     0.157 C 
ENDROOT
BRANCH   8   9
HETATM    9  O11 UNL     1     -33.977   6.156   3.054  1.00 20.00    -0.354 OA
BRANCH   9  10
HETATM   10  C4  UNL     1     -34.750   5.570   3.964  1.00 20.00     0.125 C 
HETATM   11  C3  UNL     1     -34.480   4.408   4.561  1.00 20.00     0.037 C 
ENDBRANCH   9  10
ENDBRANCH   8   9
TORSDOF 2
ENDMDL
MODEL 9
REMARK VINA RESULT:      -4.2     11.059     11.717
REMARK  2 active torsions:
REMARK  status: ('A' for Active; 'I' for Inactive)
REMARK    1  A    between atoms: C4_4  and  O11_11 
REMARK    2  A    between atoms: C10_10  and  O11_11 
ROOT
HETATM    1  C1  UNL     1     -35.125  14.455  -4.559  1.00 20.00    -0.075 C 
HETATM    2  C2  UNL     1     -35.842  15.457  -4.064  1.00 20.00    -0.049 C 
HETATM    3  C5  UNL     1     -35.941  13.439  -5.249  1.00 20.00     0.034 C 
HETATM    4  C6  UNL     1     -33.697  14.526  -4.201  1.00 20.00     0.037 C 
HETATM    5  C7  UNL     1     -37.287  15.322  -4.321  1.00 20.00     0.037 C 
HETATM    6  C8  UNL     1     -37.311  14.146  -5.320  1.00 20.00     0.009 C 
HETATM    7  C9  UNL     1     -33.601  15.942  -3.586  1.00 20.00     0.041 C 
HETATM    8  C10 UNL     1     -35.039  16.416  -3.282  1.00 20.00     0.157 C 
ENDROOT
BRANCH   8   9
HETATM    9  O11 UNL     1     -35.317  16.286  -1.898  1.00 20.00    -0.354 OA
BRANCH   9  10
HETATM   10  C4  UNL     1     -35.144  17.391  -1.178  1.00 20.00     0.125 C 
HETATM   11  C3  UNL     1     -35.496  17.531   0.102  1.00 20.00     0.037 C 
ENDBRANCH   9  10
ENDBRANCH   8   9
TORSDOF 2
ENDMDL
