MODEL 1
REMARK VINA RESULT:      -6.4      0.000      0.000
REMARK  0 active torsions:
REMARK  status: ('A' for Active; 'I' for Inactive)
ROOT
HETATM    1  C1  UNL     1     -31.667   8.460   2.674  1.00 20.00     0.015 C 
HETATM    2  C2  UNL     1     -32.430   7.627   3.082  1.00 20.00    -0.076 C 
HETATM    3  C3  UNL     1     -33.675   4.130   3.640  1.00 20.00     0.004 C 
HETATM    4  C4  UNL     1     -34.802   4.358   4.641  1.00 20.00     0.003 C 
HETATM    5  C5  UNL     1     -33.455   5.362   2.766  1.00 20.00     0.055 C 
HETATM    6  C6  UNL     1     -34.430   5.451   5.639  1.00 20.00     0.042 C 
HETATM    7  C7  UNL     1     -33.340   6.632   3.569  1.00 20.00     0.154 A 
HETATM    8  C8  UNL     1     -33.872   6.696   5.000  1.00 20.00     0.102 A 
HETATM    9  C9  UNL     1     -33.430   7.770   5.950  1.00 20.00     0.050 C 
HETATM   10  O10 UNL     1     -34.631   7.192   3.896  1.00 20.00    -0.350 OA
ENDROOT
TORSDOF 0
ENDMDL
MODEL 2
REMARK VINA RESULT:      -5.8      1.274      2.527
REMARK  0 active torsions:
REMARK  status: ('A' for Active; 'I' for Inactive)
ROOT
HETATM    1  C1  UNL     1     -32.164   8.921   1.749  1.00 20.00     0.015 C 
HETATM    2  C2  UNL     1     -32.580   8.153   2.573  1.00 20.00    -0.076 C 
HETATM    3  C3  UNL     1     -34.020   7.176   5.900  1.00 20.00     0.004 C 
HETATM    4  C4  UNL     1     -34.389   5.716   5.661  1.00 20.00     0.003 C 
HETATM    5  C5  UNL     1     -32.862   7.606   5.003  1.00 20.00     0.055 C 
HETATM    6  C6  UNL     1     -34.929   5.517   4.248  1.00 20.00     0.042 C 
HETATM    7  C7  UNL     1     -33.076   7.236   3.558  1.00 20.00     0.154 A 
HETATM    8  C8  UNL     1     -34.082   6.152   3.176  1.00 20.00     0.102 A 
HETATM    9  C9  UNL     1     -34.613   6.037   1.777  1.00 20.00     0.050 C 
HETATM   10  O10 UNL     1     -32.685   5.874   3.277  1.00 20.00    -0.350 OA
ENDROOT
TORSDOF 0
ENDMDL
MODEL 3
REMARK VINA RESULT:      -4.8      0.981      2.654
REMARK  0 active torsions:
REMARK  status: ('A' for Active; 'I' for Inactive)
ROOT
HETATM    1  C1  UNL     1     -32.565   3.905   1.613  1.00 20.00     0.015 C 
HETATM    2  C2  UNL     1     -33.100   4.499   2.509  1.00 20.00    -0.076 C 
HETATM    3  C3  UNL     1     -34.361   4.962   6.015  1.00 20.00     0.004 C 
HETATM    4  C4  UNL     1     -34.712   6.446   6.025  1.00 20.00     0.003 C 
HETATM    5  C5  UNL     1     -34.466   4.380   4.607  1.00 20.00     0.055 C 
HETATM    6  C6  UNL     1     -33.694   7.250   5.221  1.00 20.00     0.042 C 
HETATM    7  C7  UNL     1     -33.739   5.208   3.579  1.00 20.00     0.154 A 
HETATM    8  C8  UNL     1     -33.390   6.668   3.865  1.00 20.00     0.102 A 
HETATM    9  C9  UNL     1     -32.343   7.390   3.068  1.00 20.00     0.050 C 
HETATM   10  O10 UNL     1     -34.540   6.310   3.098  1.00 20.00    -0.350 OA
ENDROOT
TORSDOF 0
ENDMDL
MODEL 4
REMARK VINA RESULT:      -4.6      0.907      3.908
REMARK  0 active torsions:
REMARK  status: ('A' for Active; 'I' for Inactive)
ROOT
HETATM    1  C1  UNL     1     -34.772   4.954   6.069  1.00 20.00     0.015 C 
HETATM    2  C2  UNL     1     -34.253   5.731   5.315  1.00 20.00    -0.076 C 
HETATM    3  C3  UNL     1     -31.836   8.433   4.337  1.00 20.00     0.004 C 
HETATM    4  C4  UNL     1     -31.981   8.443   2.819  1.00 20.00     0.003 C 
HETATM    5  C5  UNL     1     -33.117   7.945   5.009  1.00 20.00     0.055 C 
HETATM    6  C6  UNL     1     -32.158   7.026   2.281  1.00 20.00     0.042 C 
HETATM    7  C7  UNL     1     -33.634   6.660   4.415  1.00 20.00     0.154 A 
HETATM    8  C8  UNL     1     -33.190   6.216   3.022  1.00 20.00     0.102 A 
HETATM    9  C9  UNL     1     -33.348   4.795   2.568  1.00 20.00     0.050 C 
HETATM   10  O10 UNL     1     -34.434   6.886   3.233  1.00 20.00    -0.350 OA
ENDROOT
TORSDOF 0
ENDMDL
MODEL 5
REMARK VINA RESULT:      -4.5     12.122     12.797
REMARK  0 active torsions:
REMARK  status: ('A' for Active; 'I' for Inactive)
ROOT
HETATM    1  C1  UNL     1     -34.410  13.641  -7.754  1.00 20.00     0.015 C 
HETATM    2  C2  UNL     1     -34.399  14.110  -6.649  1.00 20.00    -0.076 C 
HETATM    3  C3  UNL     1     -33.521  16.664  -4.040  1.00 20.00     0.004 C 
HETATM    4  C4  UNL     1     -34.393  16.224  -2.870  1.00 20.00     0.003 C 
HETATM    5  C5  UNL     1     -33.176  15.483  -4.945  1.00 20.00     0.055 C 
HETATM    6  C6  UNL     1     -35.752  15.732  -3.360  1.00 20.00     0.042 C 
HETATM    7  C7  UNL     1     -34.386  14.671  -5.329  1.00 20.00     0.154 A 
HETATM    8  C8  UNL     1     -35.671  14.757  -4.506  1.00 20.00     0.102 A 
HETATM    9  C9  UNL     1     -36.986  14.300  -5.064  1.00 20.00     0.050 C 
HETATM   10  O10 UNL     1     -34.733  13.696  -4.322  1.00 20.00    -0.350 OA
ENDROOT
TORSDOF 0
ENDMDL
MODEL 6
REMARK VINA RESULT:      -4.4     12.065     12.646
REMARK  0 active torsions:
REMARK  status: ('A' for Active; 'I' for Inactive)
ROOT
HETATM    1  C1  UNL     1     -34.977  16.568  -2.275  1.00 20.00     0.015 C 
HETATM    2  C2  UNL     1     -35.110  15.807  -3.194  1.00 20.00    -0.076 C 
HETATM    3  C3  UNL     1     -36.837  14.367  -6.202  1.00 20.00     0.004 C 
HETATM    4  C4  UNL     1     -35.770  13.426  -6.750  1.00 20.00     0.003 C 
HETATM    5  C5  UNL     1     -36.682  14.558  -4.695  1.00 20.00     0.055 C 
HETATM    6  C6  UNL     1     -34.379  14.034  -6.600  1.00 20.00     0.042 C 
HETATM    7  C7  UNL     1     -35.271  14.899  -4.292  1.00 20.00     0.154 A 
HETATM    8  C8  UNL     1     -34.102  14.594  -5.228  1.00 20.00     0.102 A 
HETATM    9  C9  UNL     1     -32.770  15.262  -5.057  1.00 20.00     0.050 C 
HETATM   10  O10 UNL     1     -34.443  13.723  -4.149  1.00 20.00    -0.350 OA
ENDROOT
TORSDOF 0
ENDMDL
MODEL 7
REMARK VINA RESULT:      -4.3     11.668     13.125
REMARK  0 active torsions:
REMARK  status: ('A' for Active; 'I' for Inactive)
ROOT
HETATM    1  C1  UNL     1     -33.617  17.042  -2.164  1.00 20.00     0.015 C 
HETATM    2  C2  UNL     1     -33.793  16.355  -3.133  1.00 20.00    -0.076 C 
HETATM    3  C3  UNL     1     -35.503  13.698  -5.161  1.00 20.00     0.004 C 
HETATM    4  C4  UNL     1     -34.885  13.914  -6.538  1.00 20.00     0.003 C 
HETATM    5  C5  UNL     1     -34.554  14.152  -4.054  1.00 20.00     0.055 C 
HETATM    6  C6  UNL     1     -34.685  15.401  -6.816  1.00 20.00     0.042 C 
HETATM    7  C7  UNL     1     -34.003  15.534  -4.290  1.00 20.00     0.154 A 
HETATM    8  C8  UNL     1     -34.023  16.149  -5.688  1.00 20.00     0.102 A 
HETATM    9  C9  UNL     1     -33.868  17.627  -5.893  1.00 20.00     0.050 C 
HETATM   10  O10 UNL     1     -32.852  15.523  -5.163  1.00 20.00    -0.350 OA
ENDROOT
TORSDOF 0
ENDMDL
MODEL 8
REMARK VINA RESULT:      -4.3     12.268     12.648
REMARK  0 active torsions:
REMARK  status: ('A' for Active; 'I' for Inactive)
ROOT
HETATM    1  C1  UNL     1     -31.264  18.967   1.025  1.00 20.00     0.015 C 
HETATM    2  C2  UNL     1     -32.178  18.646   0.317  1.00 20.00    -0.076 C 
HETATM    3  C3  UNL     1     -33.856  16.653  -2.387  1.00 20.00     0.004 C 
HETATM    4  C4  UNL     1     -35.317  17.048  -2.202  1.00 20.00     0.003 C 
HETATM    5  C5  UNL     1     -32.920  17.760  -1.908  1.00 20.00     0.055 C 
HETATM    6  C6  UNL     1     -35.656  17.196  -0.721  1.00 20.00     0.042 C 
HETATM    7  C7  UNL     1     -33.270  18.262  -0.530  1.00 20.00     0.154 A 
HETATM    8  C8  UNL     1     -34.661  18.022   0.053  1.00 20.00     0.102 A 
HETATM    9  C9  UNL     1     -34.920  18.137   1.526  1.00 20.00     0.050 C 
HETATM   10  O10 UNL     1     -34.311  19.263  -0.561  1.00 20.00    -0.350 OA
ENDROOT
TORSDOF 0
ENDMDL
MODEL 9
REMARK VINA RESULT:      -4.1     11.660     12.887
REMARK  0 active torsions:
REMARK  status: ('A' for Active; 'I' for Inactive)
ROOT
HETATM    1  C1  UNL     1     -32.633  14.293  -4.197  1.00 20.00     0.015 C 
HETATM    2  C2  UNL     1     -33.794  14.310  -4.504  1.00 20.00    -0.076 C 
HETATM    3  C3  UNL     1     -37.217  15.823  -4.800  1.00 20.00     0.004 C 
HETATM    4  C4  UNL     1     -37.919  14.825  -5.715  1.00 20.00     0.003 C 
HETATM    5  C5  UNL     1     -36.101  15.151  -4.004  1.00 20.00     0.055 C 
HETATM    6  C6  UNL     1     -36.965  14.308  -6.788  1.00 20.00     0.042 C 
HETATM    7  C7  UNL     1     -35.180  14.331  -4.870  1.00 20.00     0.154 A 
HETATM    8  C8  UNL     1     -35.628  13.864  -6.253  1.00 20.00     0.102 A 
HETATM    9  C9  UNL     1     -34.635  13.411  -7.283  1.00 20.00     0.050 C 
HETATM   10  O10 UNL     1     -35.697  13.004  -5.115  1.00 20.00    -0.350 OA
ENDROOT
TORSDOF 0
ENDMDL
