MODEL 1
REMARK VINA RESULT:      -4.9      0.000      0.000
REMARK  0 active torsions:
REMARK  status: ('A' for Active; 'I' for Inactive)
ROOT
HETATM    1  C1  UNL     1     -32.986   5.134   2.913  1.00 20.00    -0.013 C 
HETATM    2  C2  UNL     1     -33.706   4.284   3.678  1.00 20.00     0.004 C 
HETATM    3  C3  UNL     1     -33.927   6.737   5.237  1.00 20.00     0.341 C 
HETATM    4  C4  UNL     1     -33.288   6.630   2.905  1.00 20.00     0.127 C 
HETATM    5  C5  UNL     1     -35.481   5.998   3.772  1.00 20.00     0.137 C 
HETATM    6  C6  UNL     1     -34.872   4.820   4.498  1.00 20.00     0.169 C 
HETATM    7  N7  UNL     1     -34.342   6.875   3.895  1.00 20.00    -0.222 NA
HETATM    8  O8  UNL     1     -33.226   7.496   5.890  1.00 20.00    -0.245 OA
HETATM    9  O9  UNL     1     -34.349   5.489   5.675  1.00 20.00    -0.298 OA
ENDROOT
TORSDOF 0
ENDMDL
MODEL 2
REMARK VINA RESULT:      -4.6      1.778      2.876
REMARK  0 active torsions:
REMARK  status: ('A' for Active; 'I' for Inactive)
ROOT
HETATM    1  C1  UNL     1     -33.650   6.973   5.569  1.00 20.00    -0.013 C 
HETATM    2  C2  UNL     1     -33.264   7.203   4.294  1.00 20.00     0.004 C 
HETATM    3  C3  UNL     1     -34.127   4.426   4.107  1.00 20.00     0.341 C 
HETATM    4  C4  UNL     1     -34.735   5.949   5.886  1.00 20.00     0.127 C 
HETATM    5  C5  UNL     1     -35.399   6.210   3.551  1.00 20.00     0.137 C 
HETATM    6  C6  UNL     1     -33.963   6.471   3.156  1.00 20.00     0.169 C 
HETATM    7  N7  UNL     1     -35.109   5.294   4.628  1.00 20.00    -0.222 NA
HETATM    8  O8  UNL     1     -33.809   3.318   4.514  1.00 20.00    -0.245 OA
HETATM    9  O9  UNL     1     -33.463   5.110   3.097  1.00 20.00    -0.298 OA
ENDROOT
TORSDOF 0
ENDMDL
MODEL 3
REMARK VINA RESULT:      -4.3      1.796      2.929
REMARK  0 active torsions:
REMARK  status: ('A' for Active; 'I' for Inactive)
ROOT
HETATM    1  C1  UNL     1     -34.079   5.624   5.955  1.00 20.00    -0.013 C 
HETATM    2  C2  UNL     1     -33.870   6.878   5.496  1.00 20.00     0.004 C 
HETATM    3  C3  UNL     1     -33.417   5.329   3.068  1.00 20.00     0.341 C 
HETATM    4  C4  UNL     1     -34.588   4.525   5.027  1.00 20.00     0.127 C 
HETATM    5  C5  UNL     1     -35.362   6.349   3.601  1.00 20.00     0.137 C 
HETATM    6  C6  UNL     1     -34.202   7.210   4.047  1.00 20.00     0.169 C 
HETATM    7  N7  UNL     1     -34.667   5.086   3.674  1.00 20.00    -0.222 NA
HETATM    8  O8  UNL     1     -32.629   4.513   2.614  1.00 20.00    -0.245 OA
HETATM    9  O9  UNL     1     -33.152   6.687   3.192  1.00 20.00    -0.298 OA
ENDROOT
TORSDOF 0
ENDMDL
MODEL 4
REMARK VINA RESULT:      -4.2     12.508     13.112
REMARK  0 active torsions:
REMARK  status: ('A' for Active; 'I' for Inactive)
ROOT
HETATM    1  C1  UNL     1     -34.900  15.870  -3.213  1.00 20.00    -0.013 C 
HETATM    2  C2  UNL     1     -33.688  15.670  -3.776  1.00 20.00     0.004 C 
HETATM    3  C3  UNL     1     -35.315  13.805  -5.315  1.00 20.00     0.341 C 
HETATM    4  C4  UNL     1     -36.182  15.651  -4.013  1.00 20.00     0.127 C 
HETATM    5  C5  UNL     1     -34.765  15.892  -5.986  1.00 20.00     0.137 C 
HETATM    6  C6  UNL     1     -33.600  15.277  -5.244  1.00 20.00     0.169 C 
HETATM    7  N7  UNL     1     -35.800  15.130  -5.329  1.00 20.00    -0.222 NA
HETATM    8  O8  UNL     1     -35.951  12.772  -5.162  1.00 20.00    -0.245 OA
HETATM    9  O9  UNL     1     -33.929  13.869  -5.374  1.00 20.00    -0.298 OA
ENDROOT
TORSDOF 0
ENDMDL
MODEL 5
REMARK VINA RESULT:      -3.9      9.157     10.132
REMARK  0 active torsions:
REMARK  status: ('A' for Active; 'I' for Inactive)
ROOT
HETATM    1  C1  UNL     1     -40.744   6.589   0.096  1.00 20.00    -0.013 C 
HETATM    2  C2  UNL     1     -41.367   7.654  -0.455  1.00 20.00     0.004 C 
HETATM    3  C3  UNL     1     -43.307   5.550  -1.003  1.00 20.00     0.341 C 
HETATM    4  C4  UNL     1     -41.545   5.413   0.650  1.00 20.00     0.127 C 
HETATM    5  C5  UNL     1     -43.416   6.978   0.745  1.00 20.00     0.137 C 
HETATM    6  C6  UNL     1     -42.888   7.707  -0.470  1.00 20.00     0.169 C 
HETATM    7  N7  UNL     1     -42.960   5.664   0.359  1.00 20.00    -0.222 NA
HETATM    8  O8  UNL     1     -43.417   4.531  -1.669  1.00 20.00    -0.245 OA
HETATM    9  O9  UNL     1     -43.378   6.836  -1.523  1.00 20.00    -0.298 OA
ENDROOT
TORSDOF 0
ENDMDL
MODEL 6
REMARK VINA RESULT:      -3.9     12.185     13.090
REMARK  0 active torsions:
REMARK  status: ('A' for Active; 'I' for Inactive)
ROOT
HETATM    1  C1  UNL     1     -33.007  15.544  -5.439  1.00 20.00    -0.013 C 
HETATM    2  C2  UNL     1     -34.046  16.375  -5.680  1.00 20.00     0.004 C 
HETATM    3  C3  UNL     1     -35.460  13.960  -4.865  1.00 20.00     0.341 C 
HETATM    4  C4  UNL     1     -33.126  14.416  -4.418  1.00 20.00     0.127 C 
HETATM    5  C5  UNL     1     -34.990  15.699  -3.501  1.00 20.00     0.137 C 
HETATM    6  C6  UNL     1     -35.332  16.218  -4.879  1.00 20.00     0.169 C 
HETATM    7  N7  UNL     1     -34.507  14.407  -3.926  1.00 20.00    -0.222 NA
HETATM    8  O8  UNL     1     -35.658  12.817  -5.252  1.00 20.00    -0.245 OA
HETATM    9  O9  UNL     1     -36.074  15.085  -5.401  1.00 20.00    -0.298 OA
ENDROOT
TORSDOF 0
ENDMDL
MODEL 7
REMARK VINA RESULT:      -3.9     12.970     13.998
REMARK  0 active torsions:
REMARK  status: ('A' for Active; 'I' for Inactive)
ROOT
HETATM    1  C1  UNL     1     -34.328  16.098  -5.764  1.00 20.00    -0.013 C 
HETATM    2  C2  UNL     1     -33.528  15.447  -6.638  1.00 20.00     0.004 C 
HETATM    3  C3  UNL     1     -35.535  13.400  -6.111  1.00 20.00     0.341 C 
HETATM    4  C4  UNL     1     -35.812  15.761  -5.660  1.00 20.00     0.127 C 
HETATM    5  C5  UNL     1     -35.555  14.797  -7.888  1.00 20.00     0.137 C 
HETATM    6  C6  UNL     1     -34.130  14.405  -7.570  1.00 20.00     0.169 C 
HETATM    7  N7  UNL     1     -36.074  14.627  -6.552  1.00 20.00    -0.222 NA
HETATM    8  O8  UNL     1     -35.929  12.690  -5.197  1.00 20.00    -0.245 OA
HETATM    9  O9  UNL     1     -34.362  13.183  -6.822  1.00 20.00    -0.298 OA
ENDROOT
TORSDOF 0
ENDMDL
MODEL 8
REMARK VINA RESULT:      -3.9     12.221     13.274
REMARK  0 active torsions:
REMARK  status: ('A' for Active; 'I' for Inactive)
ROOT
HETATM    1  C1  UNL     1     -34.583  15.958  -6.734  1.00 20.00    -0.013 C 
HETATM    2  C2  UNL     1     -34.804  16.517  -5.524  1.00 20.00     0.004 C 
HETATM    3  C3  UNL     1     -35.249  13.702  -4.910  1.00 20.00     0.341 C 
HETATM    4  C4  UNL     1     -34.067  14.527  -6.854  1.00 20.00     0.127 C 
HETATM    5  C5  UNL     1     -33.311  14.808  -4.550  1.00 20.00     0.137 C 
HETATM    6  C6  UNL     1     -34.477  15.727  -4.263  1.00 20.00     0.169 C 
HETATM    7  N7  UNL     1     -33.995  13.966  -5.501  1.00 20.00    -0.222 NA
HETATM    8  O8  UNL     1     -36.030  12.800  -5.174  1.00 20.00    -0.245 OA
HETATM    9  O9  UNL     1     -35.524  14.747  -4.038  1.00 20.00    -0.298 OA
ENDROOT
TORSDOF 0
ENDMDL
MODEL 9
REMARK VINA RESULT:      -3.8     12.403     13.307
REMARK  0 active torsions:
REMARK  status: ('A' for Active; 'I' for Inactive)
ROOT
HETATM    1  C1  UNL     1     -34.077  14.482  -7.605  1.00 20.00    -0.013 C 
HETATM    2  C2  UNL     1     -35.110  13.618  -7.713  1.00 20.00     0.004 C 
HETATM    3  C3  UNL     1     -34.931  13.890  -4.817  1.00 20.00     0.341 C 
HETATM    4  C4  UNL     1     -33.970  15.432  -6.415  1.00 20.00     0.127 C 
HETATM    5  C5  UNL     1     -36.363  15.042  -6.132  1.00 20.00     0.137 C 
HETATM    6  C6  UNL     1     -36.212  13.634  -6.663  1.00 20.00     0.169 C 
HETATM    7  N7  UNL     1     -35.070  15.118  -5.497  1.00 20.00    -0.222 NA
HETATM    8  O8  UNL     1     -34.172  13.620  -3.897  1.00 20.00    -0.245 OA
HETATM    9  O9  UNL     1     -35.733  12.962  -5.469  1.00 20.00    -0.298 OA
ENDROOT
TORSDOF 0
ENDMDL
