MODEL 1
REMARK VINA RESULT:      -6.7      0.000      0.000
REMARK  1 active torsions:
REMARK  status: ('A' for Active; 'I' for Inactive)
REMARK    1  A    between atoms: C8_8  and  C10_10 
ROOT
HETATM    1  C1  UNL     1     -34.056   6.080   2.647  1.00 20.00     0.028 A 
HETATM    2  C2  UNL     1     -34.853   5.605   3.679  1.00 20.00     0.120 A 
HETATM    3  C3  UNL     1     -33.004   7.474   4.314  1.00 20.00     0.029 A 
HETATM    4  C4  UNL     1     -33.122   7.035   2.992  1.00 20.00    -0.034 A 
HETATM    5  C5  UNL     1     -33.837   6.946   5.272  1.00 20.00     0.220 A 
HETATM    6  C6  UNL     1     -31.952   8.468   4.405  1.00 20.00     0.013 A 
HETATM    7  C7  UNL     1     -31.441   8.630   3.174  1.00 20.00    -0.016 A 
HETATM    8  C8  UNL     1     -32.109   7.746   2.138  1.00 20.00     0.042 A 
HETATM    9  N11 UNL     1     -34.769   6.011   4.976  1.00 20.00    -0.232 NA
HETATM   10  F12 UNL     1     -33.737   7.357   6.544  1.00 20.00    -0.183 F 
ENDROOT
BRANCH   8  11
HETATM   11  C10 UNL     1     -32.739   8.556   1.013  1.00 20.00     0.009 C 
HETATM   12  C9  UNL     1     -32.537  10.025   1.204  1.00 20.00     0.006 C 
ENDBRANCH   8  11
TORSDOF 1
ENDMDL
MODEL 2
REMARK VINA RESULT:      -6.1      1.427      1.720
REMARK  1 active torsions:
REMARK  status: ('A' for Active; 'I' for Inactive)
REMARK    1  A    between atoms: C8_8  and  C10_10 
ROOT
HETATM    1  C1  UNL     1     -33.177   5.164   2.782  1.00 20.00     0.028 A 
HETATM    2  C2  UNL     1     -33.958   4.120   3.259  1.00 20.00     0.120 A 
HETATM    3  C3  UNL     1     -33.742   6.312   4.830  1.00 20.00     0.029 A 
HETATM    4  C4  UNL     1     -33.084   6.273   3.598  1.00 20.00    -0.034 A 
HETATM    5  C5  UNL     1     -34.494   5.230   5.222  1.00 20.00     0.220 A 
HETATM    6  C6  UNL     1     -33.477   7.578   5.485  1.00 20.00     0.013 A 
HETATM    7  C7  UNL     1     -32.676   8.291   4.677  1.00 20.00    -0.016 A 
HETATM    8  C8  UNL     1     -32.328   7.557   3.396  1.00 20.00     0.042 A 
HETATM    9  N11 UNL     1     -34.617   4.124   4.451  1.00 20.00    -0.232 NA
HETATM   10  F12 UNL     1     -35.132   5.251   6.401  1.00 20.00    -0.183 F 
ENDROOT
BRANCH   8  11
HETATM   11  C10 UNL     1     -32.771   8.322   2.156  1.00 20.00     0.009 C 
HETATM   12  C9  UNL     1     -31.618   8.652   1.264  1.00 20.00     0.006 C 
ENDBRANCH   8  11
TORSDOF 1
ENDMDL
MODEL 3
REMARK VINA RESULT:      -5.8      1.622      2.617
REMARK  1 active torsions:
REMARK  status: ('A' for Active; 'I' for Inactive)
REMARK    1  A    between atoms: C8_8  and  C10_10 
ROOT
HETATM    1  C1  UNL     1     -33.618   7.675   5.269  1.00 20.00     0.028 A 
HETATM    2  C2  UNL     1     -34.049   6.810   6.266  1.00 20.00     0.120 A 
HETATM    3  C3  UNL     1     -34.042   5.861   3.733  1.00 20.00     0.029 A 
HETATM    4  C4  UNL     1     -33.620   7.169   3.986  1.00 20.00    -0.034 A 
HETATM    5  C5  UNL     1     -34.452   5.075   4.784  1.00 20.00     0.220 A 
HETATM    6  C6  UNL     1     -33.951   5.584   2.313  1.00 20.00     0.013 A 
HETATM    7  C7  UNL     1     -33.489   6.694   1.714  1.00 20.00    -0.016 A 
HETATM    8  C8  UNL     1     -33.229   7.825   2.691  1.00 20.00     0.042 A 
HETATM    9  N11 UNL     1     -34.463   5.530   6.059  1.00 20.00    -0.232 NA
HETATM   10  F12 UNL     1     -34.860   3.818   4.559  1.00 20.00    -0.183 F 
ENDROOT
BRANCH   8  11
HETATM   11  C10 UNL     1     -31.777   8.283   2.667  1.00 20.00     0.009 C 
HETATM   12  C9  UNL     1     -31.355   8.726   1.303  1.00 20.00     0.006 C 
ENDBRANCH   8  11
TORSDOF 1
ENDMDL
MODEL 4
REMARK VINA RESULT:      -5.7      1.885      3.889
REMARK  1 active torsions:
REMARK  status: ('A' for Active; 'I' for Inactive)
REMARK    1  A    between atoms: C8_8  and  C10_10 
ROOT
HETATM    1  C1  UNL     1     -33.422   6.874   2.359  1.00 20.00     0.028 A 
HETATM    2  C2  UNL     1     -32.383   7.742   2.046  1.00 20.00     0.120 A 
HETATM    3  C3  UNL     1     -33.052   7.514   4.658  1.00 20.00     0.029 A 
HETATM    4  C4  UNL     1     -33.743   6.772   3.697  1.00 20.00    -0.034 A 
HETATM    5  C5  UNL     1     -32.036   8.349   4.255  1.00 20.00     0.220 A 
HETATM    6  C6  UNL     1     -33.587   7.226   5.974  1.00 20.00     0.013 A 
HETATM    7  C7  UNL     1     -34.580   6.335   5.821  1.00 20.00    -0.016 A 
HETATM    8  C8  UNL     1     -34.802   5.945   4.372  1.00 20.00     0.042 A 
HETATM    9  N11 UNL     1     -31.685   8.477   2.954  1.00 20.00    -0.232 NA
HETATM   10  F12 UNL     1     -31.363   9.068   5.165  1.00 20.00    -0.183 F 
ENDROOT
BRANCH   8  11
HETATM   11  C10 UNL     1     -34.627   4.449   4.147  1.00 20.00     0.009 C 
HETATM   12  C9  UNL     1     -33.692   3.842   5.143  1.00 20.00     0.006 C 
ENDBRANCH   8  11
TORSDOF 1
ENDMDL
MODEL 5
REMARK VINA RESULT:      -5.2     10.928     11.459
REMARK  1 active torsions:
REMARK  status: ('A' for Active; 'I' for Inactive)
REMARK    1  A    between atoms: C8_8  and  C10_10 
ROOT
HETATM    1  C1  UNL     1     -37.343  15.998  -3.818  1.00 20.00     0.028 A 
HETATM    2  C2  UNL     1     -38.109  15.058  -4.496  1.00 20.00     0.120 A 
HETATM    3  C3  UNL     1     -35.433  14.662  -4.448  1.00 20.00     0.029 A 
HETATM    4  C4  UNL     1     -35.982  15.774  -3.803  1.00 20.00    -0.034 A 
HETATM    5  C5  UNL     1     -36.269  13.783  -5.095  1.00 20.00     0.220 A 
HETATM    6  C6  UNL     1     -33.992  14.666  -4.285  1.00 20.00     0.013 A 
HETATM    7  C7  UNL     1     -33.670  15.753  -3.564  1.00 20.00    -0.016 A 
HETATM    8  C8  UNL     1     -34.880  16.583  -3.178  1.00 20.00     0.042 A 
HETATM    9  N11 UNL     1     -37.610  13.962  -5.131  1.00 20.00    -0.232 NA
HETATM   10  F12 UNL     1     -35.758  12.711  -5.717  1.00 20.00    -0.183 F 
ENDROOT
BRANCH   8  11
HETATM   11  C10 UNL     1     -35.023  16.722  -1.669  1.00 20.00     0.009 C 
HETATM   12  C9  UNL     1     -33.938  17.567  -1.082  1.00 20.00     0.006 C 
ENDBRANCH   8  11
TORSDOF 1
ENDMDL
MODEL 6
REMARK VINA RESULT:      -4.9     10.855     11.449
REMARK  1 active torsions:
REMARK  status: ('A' for Active; 'I' for Inactive)
REMARK    1  A    between atoms: C8_8  and  C10_10 
ROOT
HETATM    1  C1  UNL     1     -31.720  18.875   0.456  1.00 20.00     0.028 A 
HETATM    2  C2  UNL     1     -31.049  18.942   1.669  1.00 20.00     0.120 A 
HETATM    3  C3  UNL     1     -33.696  18.390   1.755  1.00 20.00     0.029 A 
HETATM    4  C4  UNL     1     -33.068  18.589   0.523  1.00 20.00    -0.034 A 
HETATM    5  C5  UNL     1     -32.951  18.476   2.908  1.00 20.00     0.220 A 
HETATM    6  C6  UNL     1     -35.103  18.112   1.546  1.00 20.00     0.013 A 
HETATM    7  C7  UNL     1     -35.329  18.144   0.223  1.00 20.00    -0.016 A 
HETATM    8  C8  UNL     1     -34.080  18.452  -0.580  1.00 20.00     0.042 A 
HETATM    9  N11 UNL     1     -31.626  18.750   2.888  1.00 20.00    -0.232 NA
HETATM   10  F12 UNL     1     -33.539  18.286   4.098  1.00 20.00    -0.183 F 
ENDROOT
BRANCH   8  11
HETATM   11  C10 UNL     1     -33.742  17.342  -1.566  1.00 20.00     0.009 C 
HETATM   12  C9  UNL     1     -34.961  16.593  -1.999  1.00 20.00     0.006 C 
ENDBRANCH   8  11
TORSDOF 1
ENDMDL
MODEL 7
REMARK VINA RESULT:      -4.6     11.190     11.695
REMARK  1 active torsions:
REMARK  status: ('A' for Active; 'I' for Inactive)
REMARK    1  A    between atoms: C8_8  and  C10_10 
ROOT
HETATM    1  C1  UNL     1     -33.340  15.183  -4.062  1.00 20.00     0.028 A 
HETATM    2  C2  UNL     1     -33.811  14.490  -5.169  1.00 20.00     0.120 A 
HETATM    3  C3  UNL     1     -35.630  15.856  -3.705  1.00 20.00     0.029 A 
HETATM    4  C4  UNL     1     -34.284  15.875  -3.332  1.00 20.00    -0.034 A 
HETATM    5  C5  UNL     1     -36.007  15.142  -4.818  1.00 20.00     0.220 A 
HETATM    6  C6  UNL     1     -36.405  16.654  -2.775  1.00 20.00     0.013 A 
HETATM    7  C7  UNL     1     -35.555  17.143  -1.857  1.00 20.00    -0.016 A 
HETATM    8  C8  UNL     1     -34.121  16.710  -2.093  1.00 20.00     0.042 A 
HETATM    9  N11 UNL     1     -35.114  14.452  -5.565  1.00 20.00    -0.232 NA
HETATM   10  F12 UNL     1     -37.295  15.115  -5.189  1.00 20.00    -0.183 F 
ENDROOT
BRANCH   8  11
HETATM   11  C10 UNL     1     -33.187  17.896  -2.289  1.00 20.00     0.009 C 
HETATM   12  C9  UNL     1     -32.511  18.290  -1.015  1.00 20.00     0.006 C 
ENDBRANCH   8  11
TORSDOF 1
ENDMDL
MODEL 8
REMARK VINA RESULT:      -4.6     11.050     11.621
REMARK  1 active torsions:
REMARK  status: ('A' for Active; 'I' for Inactive)
REMARK    1  A    between atoms: C8_8  and  C10_10 
ROOT
HETATM    1  C1  UNL     1     -35.468  17.964   0.817  1.00 20.00     0.028 A 
HETATM    2  C2  UNL     1     -35.858  17.388  -0.385  1.00 20.00     0.120 A 
HETATM    3  C3  UNL     1     -33.268  18.138  -0.164  1.00 20.00     0.029 A 
HETATM    4  C4  UNL     1     -34.143  18.335   0.909  1.00 20.00    -0.034 A 
HETATM    5  C5  UNL     1     -33.743  17.560  -1.317  1.00 20.00     0.220 A 
HETATM    6  C6  UNL     1     -31.946  18.617   0.191  1.00 20.00     0.013 A 
HETATM    7  C7  UNL     1     -32.012  19.096   1.443  1.00 20.00    -0.016 A 
HETATM    8  C8  UNL     1     -33.400  18.983   2.045  1.00 20.00     0.042 A 
HETATM    9  N11 UNL     1     -35.035  17.176  -1.449  1.00 20.00    -0.232 NA
HETATM   10  F12 UNL     1     -32.917  17.363  -2.354  1.00 20.00    -0.183 F 
ENDROOT
BRANCH   8  11
HETATM   11  C10 UNL     1     -33.408  18.147   3.317  1.00 20.00     0.009 C 
HETATM   12  C9  UNL     1     -32.818  18.888   4.474  1.00 20.00     0.006 C 
ENDBRANCH   8  11
TORSDOF 1
ENDMDL
MODEL 9
REMARK VINA RESULT:      -4.5     10.594     11.366
REMARK  1 active torsions:
REMARK  status: ('A' for Active; 'I' for Inactive)
REMARK    1  A    between atoms: C8_8  and  C10_10 
ROOT
HETATM    1  C1  UNL     1     -36.635  15.481  -4.177  1.00 20.00     0.028 A 
HETATM    2  C2  UNL     1     -36.357  14.241  -4.737  1.00 20.00     0.120 A 
HETATM    3  C3  UNL     1     -34.285  15.583  -3.629  1.00 20.00     0.029 A 
HETATM    4  C4  UNL     1     -35.565  16.146  -3.615  1.00 20.00    -0.034 A 
HETATM    5  C5  UNL     1     -34.104  14.349  -4.207  1.00 20.00     0.220 A 
HETATM    6  C6  UNL     1     -33.350  16.482  -2.983  1.00 20.00     0.013 A 
HETATM    7  C7  UNL     1     -34.038  17.566  -2.588  1.00 20.00    -0.016 A 
HETATM    8  C8  UNL     1     -35.511  17.489  -2.941  1.00 20.00     0.042 A 
HETATM    9  N11 UNL     1     -35.126  13.660  -4.766  1.00 20.00    -0.232 NA
HETATM   10  F12 UNL     1     -32.883  13.795  -4.228  1.00 20.00    -0.183 F 
ENDROOT
BRANCH   8  11
HETATM   11  C10 UNL     1     -36.402  17.575  -1.710  1.00 20.00     0.009 C 
HETATM   12  C9  UNL     1     -35.626  17.380  -0.446  1.00 20.00     0.006 C 
ENDBRANCH   8  11
TORSDOF 1
ENDMDL
