MODEL 1
REMARK VINA RESULT:      -4.9      0.000      0.000
REMARK  1 active torsions:
REMARK  status: ('A' for Active; 'I' for Inactive)
REMARK    1  A    between atoms: C3_3  and  C9_9 
ROOT
HETATM    1  C1  UNL     1     -34.867  16.085  -7.040  1.00 20.00    -0.030 C 
HETATM    2  C2  UNL     1     -33.718  15.451  -6.769  1.00 20.00    -0.026 C 
HETATM    3  C4  UNL     1     -35.588  16.928  -6.025  1.00 20.00     0.031 C 
HETATM    4  C5  UNL     1     -33.420  14.363  -4.527  1.00 20.00     0.022 C 
HETATM    5  C6  UNL     1     -33.436  16.862  -4.725  1.00 20.00     0.013 C 
HETATM    6  C7  UNL     1     -35.452  15.740  -3.733  1.00 20.00     0.018 C 
HETATM    7  C8  UNL     1     -33.042  15.555  -5.424  1.00 20.00     0.009 C 
HETATM    8  C9  UNL     1     -34.888  14.359  -4.082  1.00 20.00     0.073 C 
HETATM    9  C10 UNL     1     -34.962  16.911  -4.612  1.00 20.00    -0.010 C 
ENDROOT
BRANCH   8  10
HETATM   10  C3  UNL     1     -35.762  13.655  -5.084  1.00 20.00     0.223 C 
HETATM   11  O11 UNL     1     -35.327  12.763  -5.807  1.00 20.00    -0.279 OA
HETATM   12 CL12 UNL     1     -37.392  14.258  -5.067  1.00 20.00    -0.043 Cl
ENDBRANCH   8  10
TORSDOF 1
ENDMDL
MODEL 2
REMARK VINA RESULT:      -4.9      0.973      2.673
REMARK  1 active torsions:
REMARK  status: ('A' for Active; 'I' for Inactive)
REMARK    1  A    between atoms: C3_3  and  C9_9 
ROOT
HETATM    1  C1  UNL     1     -34.514  15.468  -3.527  1.00 20.00    -0.030 C 
HETATM    2  C2  UNL     1     -35.351  16.387  -4.029  1.00 20.00    -0.026 C 
HETATM    3  C4  UNL     1     -33.404  14.854  -4.335  1.00 20.00     0.031 C 
HETATM    4  C5  UNL     1     -36.175  16.134  -6.385  1.00 20.00     0.022 C 
HETATM    5  C6  UNL     1     -33.785  16.749  -5.943  1.00 20.00     0.013 C 
HETATM    6  C7  UNL     1     -34.282  14.415  -6.726  1.00 20.00     0.018 C 
HETATM    7  C8  UNL     1     -35.227  16.898  -5.443  1.00 20.00     0.009 C 
HETATM    8  C9  UNL     1     -35.788  14.665  -6.603  1.00 20.00     0.073 C 
HETATM    9  C10 UNL     1     -33.378  15.279  -5.820  1.00 20.00    -0.010 C 
ENDROOT
BRANCH   8  10
HETATM   10  C3  UNL     1     -36.401  13.777  -5.554  1.00 20.00     0.223 C 
HETATM   11  O11 UNL     1     -35.865  12.730  -5.203  1.00 20.00    -0.279 OA
HETATM   12 CL12 UNL     1     -37.897  14.418  -4.947  1.00 20.00    -0.043 Cl
ENDBRANCH   8  10
TORSDOF 1
ENDMDL
MODEL 3
REMARK VINA RESULT:      -4.9      1.389      2.569
REMARK  1 active torsions:
REMARK  status: ('A' for Active; 'I' for Inactive)
REMARK    1  A    between atoms: C3_3  and  C9_9 
ROOT
HETATM    1  C1  UNL     1     -33.176  14.932  -4.642  1.00 20.00    -0.030 C 
HETATM    2  C2  UNL     1     -34.127  14.992  -3.700  1.00 20.00    -0.026 C 
HETATM    3  C4  UNL     1     -33.201  15.790  -5.877  1.00 20.00     0.031 C 
HETATM    4  C5  UNL     1     -36.523  15.253  -4.396  1.00 20.00     0.022 C 
HETATM    5  C6  UNL     1     -34.919  17.161  -4.657  1.00 20.00     0.013 C 
HETATM    6  C7  UNL     1     -35.640  15.929  -6.723  1.00 20.00     0.018 C 
HETATM    7  C8  UNL     1     -35.290  15.949  -3.794  1.00 20.00     0.009 C 
HETATM    8  C9  UNL     1     -36.370  14.882  -5.877  1.00 20.00     0.073 C 
HETATM    9  C10 UNL     1     -34.469  16.660  -6.031  1.00 20.00    -0.010 C 
ENDROOT
BRANCH   8  10
HETATM   10  C3  UNL     1     -35.744  13.523  -6.039  1.00 20.00     0.223 C 
HETATM   11  O11 UNL     1     -35.866  12.650  -5.185  1.00 20.00    -0.279 OA
HETATM   12 CL12 UNL     1     -34.869  13.381  -7.534  1.00 20.00    -0.043 Cl
ENDBRANCH   8  10
TORSDOF 1
ENDMDL
MODEL 4
REMARK VINA RESULT:      -4.7      1.175      1.382
REMARK  1 active torsions:
REMARK  status: ('A' for Active; 'I' for Inactive)
REMARK    1  A    between atoms: C3_3  and  C9_9 
ROOT
HETATM    1  C1  UNL     1     -33.937  16.595  -6.175  1.00 20.00    -0.030 C 
HETATM    2  C2  UNL     1     -33.140  15.823  -5.423  1.00 20.00    -0.026 C 
HETATM    3  C4  UNL     1     -35.296  17.048  -5.718  1.00 20.00     0.031 C 
HETATM    4  C5  UNL     1     -34.154  13.957  -4.086  1.00 20.00     0.022 C 
HETATM    5  C6  UNL     1     -34.548  16.342  -3.423  1.00 20.00     0.013 C 
HETATM    6  C7  UNL     1     -36.440  15.083  -4.489  1.00 20.00     0.018 C 
HETATM    7  C8  UNL     1     -33.538  15.367  -4.041  1.00 20.00     0.009 C 
HETATM    8  C9  UNL     1     -35.519  13.895  -4.785  1.00 20.00     0.073 C 
HETATM    9  C10 UNL     1     -35.749  16.458  -4.364  1.00 20.00    -0.010 C 
ENDROOT
BRANCH   8  10
HETATM   10  C3  UNL     1     -35.366  13.683  -6.267  1.00 20.00     0.223 C 
HETATM   11  O11 UNL     1     -34.383  13.122  -6.741  1.00 20.00    -0.279 OA
HETATM   12 CL12 UNL     1     -36.715  14.317  -7.159  1.00 20.00    -0.043 Cl
ENDBRANCH   8  10
TORSDOF 1
ENDMDL
MODEL 5
REMARK VINA RESULT:      -4.7      1.199      2.170
REMARK  1 active torsions:
REMARK  status: ('A' for Active; 'I' for Inactive)
REMARK    1  A    between atoms: C3_3  and  C9_9 
ROOT
HETATM    1  C1  UNL     1     -36.354  16.338  -4.521  1.00 20.00    -0.030 C 
HETATM    2  C2  UNL     1     -35.862  16.762  -5.693  1.00 20.00    -0.026 C 
HETATM    3  C4  UNL     1     -35.483  15.789  -3.425  1.00 20.00     0.031 C 
HETATM    4  C5  UNL     1     -33.999  15.475  -6.774  1.00 20.00     0.022 C 
HETATM    5  C6  UNL     1     -33.570  16.811  -4.697  1.00 20.00     0.013 C 
HETATM    6  C7  UNL     1     -33.657  14.309  -4.499  1.00 20.00     0.018 C 
HETATM    7  C8  UNL     1     -34.384  16.746  -5.995  1.00 20.00     0.009 C 
HETATM    8  C9  UNL     1     -34.114  14.183  -5.956  1.00 20.00     0.073 C 
HETATM    9  C10 UNL     1     -33.992  15.644  -3.800  1.00 20.00    -0.010 C 
ENDROOT
BRANCH   8  10
HETATM   10  C3  UNL     1     -35.499  13.602  -6.041  1.00 20.00     0.223 C 
HETATM   11  O11 UNL     1     -35.954  12.886  -5.154  1.00 20.00    -0.279 OA
HETATM   12 CL12 UNL     1     -36.315  14.070  -7.501  1.00 20.00    -0.043 Cl
ENDBRANCH   8  10
TORSDOF 1
ENDMDL
MODEL 6
REMARK VINA RESULT:      -4.7      1.912      3.076
REMARK  1 active torsions:
REMARK  status: ('A' for Active; 'I' for Inactive)
REMARK    1  A    between atoms: C3_3  and  C9_9 
ROOT
HETATM    1  C1  UNL     1     -33.784  15.124  -7.336  1.00 20.00    -0.030 C 
HETATM    2  C2  UNL     1     -34.469  16.193  -6.907  1.00 20.00    -0.026 C 
HETATM    3  C4  UNL     1     -34.397  13.755  -7.442  1.00 20.00     0.031 C 
HETATM    4  C5  UNL     1     -36.076  15.930  -4.998  1.00 20.00     0.022 C 
HETATM    5  C6  UNL     1     -36.606  14.940  -7.239  1.00 20.00     0.013 C 
HETATM    6  C7  UNL     1     -35.924  13.385  -5.389  1.00 20.00     0.018 C 
HETATM    7  C8  UNL     1     -35.924  16.111  -6.519  1.00 20.00     0.009 C 
HETATM    8  C9  UNL     1     -35.589  14.571  -4.479  1.00 20.00     0.073 C 
HETATM    9  C10 UNL     1     -35.843  13.655  -6.907  1.00 20.00    -0.010 C 
ENDROOT
BRANCH   8  10
HETATM   10  C3  UNL     1     -34.121  14.604  -4.151  1.00 20.00     0.223 C 
HETATM   11  O11 UNL     1     -33.400  13.624  -4.316  1.00 20.00    -0.279 OA
HETATM   12 CL12 UNL     1     -33.623  16.152  -3.539  1.00 20.00    -0.043 Cl
ENDBRANCH   8  10
TORSDOF 1
ENDMDL
MODEL 7
REMARK VINA RESULT:      -4.4      1.311      2.133
REMARK  1 active torsions:
REMARK  status: ('A' for Active; 'I' for Inactive)
REMARK    1  A    between atoms: C3_3  and  C9_9 
ROOT
HETATM    1  C1  UNL     1     -35.560  16.971  -4.804  1.00 20.00    -0.030 C 
HETATM    2  C2  UNL     1     -35.011  16.790  -6.013  1.00 20.00    -0.026 C 
HETATM    3  C4  UNL     1     -35.157  16.165  -3.600  1.00 20.00     0.031 C 
HETATM    4  C5  UNL     1     -34.510  14.458  -6.792  1.00 20.00     0.022 C 
HETATM    5  C6  UNL     1     -33.150  15.496  -4.959  1.00 20.00     0.013 C 
HETATM    6  C7  UNL     1     -34.807  13.713  -4.340  1.00 20.00     0.018 C 
HETATM    7  C8  UNL     1     -33.921  15.775  -6.256  1.00 20.00     0.009 C 
HETATM    8  C9  UNL     1     -35.358  13.691  -5.769  1.00 20.00     0.073 C 
HETATM    9  C10 UNL     1     -34.145  15.034  -3.892  1.00 20.00    -0.010 C 
ENDROOT
BRANCH   8  10
HETATM   10  C3  UNL     1     -36.794  14.140  -5.802  1.00 20.00     0.223 C 
HETATM   11  O11 UNL     1     -37.536  14.003  -4.834  1.00 20.00    -0.279 OA
HETATM   12 CL12 UNL     1     -37.223  14.845  -7.331  1.00 20.00    -0.043 Cl
ENDBRANCH   8  10
TORSDOF 1
ENDMDL
MODEL 8
REMARK VINA RESULT:      -4.4      2.290      3.347
REMARK  1 active torsions:
REMARK  status: ('A' for Active; 'I' for Inactive)
REMARK    1  A    between atoms: C3_3  and  C9_9 
ROOT
HETATM    1  C1  UNL     1     -36.533  16.072  -5.326  1.00 20.00    -0.030 C 
HETATM    2  C2  UNL     1     -36.281  15.076  -4.465  1.00 20.00    -0.026 C 
HETATM    3  C4  UNL     1     -35.828  16.199  -6.648  1.00 20.00     0.031 C 
HETATM    4  C5  UNL     1     -33.915  14.306  -4.143  1.00 20.00     0.022 C 
HETATM    5  C6  UNL     1     -35.122  13.813  -6.284  1.00 20.00     0.013 C 
HETATM    6  C7  UNL     1     -33.341  15.582  -6.310  1.00 20.00     0.018 C 
HETATM    7  C8  UNL     1     -35.284  13.985  -4.768  1.00 20.00     0.009 C 
HETATM    8  C9  UNL     1     -33.199  15.501  -4.787  1.00 20.00     0.073 C 
HETATM    9  C10 UNL     1     -34.710  15.159  -6.884  1.00 20.00    -0.010 C 
ENDROOT
BRANCH   8  10
HETATM   10  C3  UNL     1     -33.602  16.796  -4.135  1.00 20.00     0.223 C 
HETATM   11  O11 UNL     1     -33.601  17.856  -4.753  1.00 20.00    -0.279 OA
HETATM   12 CL12 UNL     1     -34.045  16.579  -2.469  1.00 20.00    -0.043 Cl
ENDBRANCH   8  10
TORSDOF 1
ENDMDL
MODEL 9
REMARK VINA RESULT:      -4.4      2.358      3.345
REMARK  1 active torsions:
REMARK  status: ('A' for Active; 'I' for Inactive)
REMARK    1  A    between atoms: C3_3  and  C9_9 
ROOT
HETATM    1  C1  UNL     1     -34.353  14.019  -4.132  1.00 20.00    -0.030 C 
HETATM    2  C2  UNL     1     -33.241  14.713  -4.412  1.00 20.00    -0.026 C 
HETATM    3  C4  UNL     1     -35.659  14.258  -4.839  1.00 20.00     0.031 C 
HETATM    4  C5  UNL     1     -33.419  17.173  -4.872  1.00 20.00     0.022 C 
HETATM    5  C6  UNL     1     -34.291  15.513  -6.535  1.00 20.00     0.013 C 
HETATM    6  C7  UNL     1     -35.954  16.805  -5.168  1.00 20.00     0.018 C 
HETATM    7  C8  UNL     1     -33.207  15.776  -5.482  1.00 20.00     0.009 C 
HETATM    8  C9  UNL     1     -34.830  17.405  -4.318  1.00 20.00     0.073 C 
HETATM    9  C10 UNL     1     -35.647  15.444  -5.829  1.00 20.00    -0.010 C 
ENDROOT
BRANCH   8  10
HETATM   10  C3  UNL     1     -34.937  16.957  -2.885  1.00 20.00     0.223 C 
HETATM   11  O11 UNL     1     -35.989  16.530  -2.419  1.00 20.00    -0.279 OA
HETATM   12 CL12 UNL     1     -33.431  17.125  -2.035  1.00 20.00    -0.043 Cl
ENDBRANCH   8  10
TORSDOF 1
ENDMDL
