MODEL 1
REMARK VINA RESULT:      -4.6      0.000      0.000
REMARK  1 active torsions:
REMARK  status: ('A' for Active; 'I' for Inactive)
REMARK    1  A    between atoms: C3_3  and  C7_7 
ROOT
HETATM    1  C1  UNL     1     -35.586   5.736   3.626  1.00 20.00    -0.025 C 
HETATM    2  C2  UNL     1     -35.170   6.880   4.188  1.00 20.00    -0.020 C 
HETATM    3  C4  UNL     1     -33.278   4.960   3.204  1.00 20.00     0.021 C 
HETATM    4  C5  UNL     1     -34.206   5.155   5.389  1.00 20.00     0.022 C 
HETATM    5  C6  UNL     1     -34.579   4.669   3.985  1.00 20.00     0.010 C 
HETATM    6  C7  UNL     1     -32.759   6.266   3.872  1.00 20.00     0.067 C 
HETATM    7  C8  UNL     1     -33.871   6.579   4.913  1.00 20.00    -0.016 C 
HETATM    8  C10 UNL     1     -33.499   7.538   6.022  1.00 20.00     0.020 C 
ENDROOT
BRANCH   6   9
HETATM    9  C3  UNL     1     -32.537   7.362   2.875  1.00 20.00     0.128 C 
HETATM   10  C9  UNL     1     -31.507   8.401   3.229  1.00 20.00     0.091 C 
HETATM   11  O11 UNL     1     -33.163   7.410   1.817  1.00 20.00    -0.298 OA
ENDBRANCH   6   9
TORSDOF 1
ENDMDL
MODEL 2
REMARK VINA RESULT:      -4.5      1.645      3.251
REMARK  1 active torsions:
REMARK  status: ('A' for Active; 'I' for Inactive)
REMARK    1  A    between atoms: C3_3  and  C7_7 
ROOT
HETATM    1  C1  UNL     1     -33.260   4.849   2.596  1.00 20.00    -0.025 C 
HETATM    2  C2  UNL     1     -32.369   5.608   3.250  1.00 20.00    -0.020 C 
HETATM    3  C4  UNL     1     -35.168   6.235   3.333  1.00 20.00     0.021 C 
HETATM    4  C5  UNL     1     -33.511   7.009   1.808  1.00 20.00     0.022 C 
HETATM    5  C6  UNL     1     -34.355   5.765   2.106  1.00 20.00     0.010 C 
HETATM    6  C7  UNL     1     -34.160   7.152   4.085  1.00 20.00     0.067 C 
HETATM    7  C8  UNL     1     -32.880   7.036   3.210  1.00 20.00    -0.016 C 
HETATM    8  C10 UNL     1     -31.837   8.114   3.405  1.00 20.00     0.020 C 
ENDROOT
BRANCH   6   9
HETATM    9  C3  UNL     1     -33.961   6.729   5.508  1.00 20.00     0.128 C 
HETATM   10  C9  UNL     1     -34.585   5.423   5.920  1.00 20.00     0.091 C 
HETATM   11  O11 UNL     1     -33.318   7.414   6.301  1.00 20.00    -0.298 OA
ENDBRANCH   6   9
TORSDOF 1
ENDMDL
MODEL 3
REMARK VINA RESULT:      -4.5     11.405     13.057
REMARK  1 active torsions:
REMARK  status: ('A' for Active; 'I' for Inactive)
REMARK    1  A    between atoms: C3_3  and  C7_7 
ROOT
HETATM    1  C1  UNL     1     -35.418  16.062  -3.765  1.00 20.00    -0.025 C 
HETATM    2  C2  UNL     1     -35.712  16.190  -5.068  1.00 20.00    -0.020 C 
HETATM    3  C4  UNL     1     -33.844  14.202  -4.177  1.00 20.00     0.021 C 
HETATM    4  C5  UNL     1     -33.422  16.441  -4.869  1.00 20.00     0.022 C 
HETATM    5  C6  UNL     1     -33.967  15.657  -3.671  1.00 20.00     0.010 C 
HETATM    6  C7  UNL     1     -34.142  14.339  -5.698  1.00 20.00     0.067 C 
HETATM    7  C8  UNL     1     -34.454  15.854  -5.847  1.00 20.00    -0.016 C 
HETATM    8  C10 UNL     1     -34.378  16.418  -7.249  1.00 20.00     0.020 C 
ENDROOT
BRANCH   6   9
HETATM    9  C3  UNL     1     -35.261  13.444  -6.138  1.00 20.00     0.128 C 
HETATM   10  C9  UNL     1     -35.517  13.357  -7.619  1.00 20.00     0.091 C 
HETATM   11  O11 UNL     1     -35.935  12.808  -5.329  1.00 20.00    -0.298 OA
ENDBRANCH   6   9
TORSDOF 1
ENDMDL
MODEL 4
REMARK VINA RESULT:      -4.5     11.857     13.048
REMARK  1 active torsions:
REMARK  status: ('A' for Active; 'I' for Inactive)
REMARK    1  A    between atoms: C3_3  and  C7_7 
ROOT
HETATM    1  C1  UNL     1     -33.271  14.963  -4.183  1.00 20.00    -0.025 C 
HETATM    2  C2  UNL     1     -34.458  15.383  -3.719  1.00 20.00    -0.020 C 
HETATM    3  C4  UNL     1     -34.165  14.547  -6.449  1.00 20.00     0.021 C 
HETATM    4  C5  UNL     1     -33.929  16.729  -5.524  1.00 20.00     0.022 C 
HETATM    5  C6  UNL     1     -33.174  15.399  -5.625  1.00 20.00     0.010 C 
HETATM    6  C7  UNL     1     -35.551  15.052  -5.951  1.00 20.00     0.067 C 
HETATM    7  C8  UNL     1     -35.162  16.091  -4.862  1.00 20.00    -0.016 C 
HETATM    8  C10 UNL     1     -36.238  17.076  -4.463  1.00 20.00     0.020 C 
ENDROOT
BRANCH   6   9
HETATM    9  C3  UNL     1     -36.412  13.935  -5.444  1.00 20.00     0.128 C 
HETATM   10  C9  UNL     1     -37.864  14.252  -5.209  1.00 20.00     0.091 C 
HETATM   11  O11 UNL     1     -35.955  12.813  -5.232  1.00 20.00    -0.298 OA
ENDBRANCH   6   9
TORSDOF 1
ENDMDL
MODEL 5
REMARK VINA RESULT:      -4.5      1.411      2.523
REMARK  1 active torsions:
REMARK  status: ('A' for Active; 'I' for Inactive)
REMARK    1  A    between atoms: C3_3  and  C7_7 
ROOT
HETATM    1  C1  UNL     1     -33.476   4.696   4.638  1.00 20.00    -0.025 C 
HETATM    2  C2  UNL     1     -33.358   4.960   3.329  1.00 20.00    -0.020 C 
HETATM    3  C4  UNL     1     -33.933   7.058   5.200  1.00 20.00     0.021 C 
HETATM    4  C5  UNL     1     -35.453   5.695   3.974  1.00 20.00     0.022 C 
HETATM    5  C6  UNL     1     -34.524   5.631   5.191  1.00 20.00     0.010 C 
HETATM    6  C7  UNL     1     -33.827   7.397   3.685  1.00 20.00     0.067 C 
HETATM    7  C8  UNL     1     -34.321   6.088   3.009  1.00 20.00    -0.016 C 
HETATM    8  C10 UNL     1     -34.745   6.201   1.561  1.00 20.00     0.020 C 
ENDROOT
BRANCH   6   9
HETATM    9  C3  UNL     1     -32.437   7.796   3.289  1.00 20.00     0.128 C 
HETATM   10  C9  UNL     1     -32.222   8.159   1.845  1.00 20.00     0.091 C 
HETATM   11  O11 UNL     1     -31.518   7.828   4.106  1.00 20.00    -0.298 OA
ENDBRANCH   6   9
TORSDOF 1
ENDMDL
MODEL 6
REMARK VINA RESULT:      -4.5     11.380     12.761
REMARK  1 active torsions:
REMARK  status: ('A' for Active; 'I' for Inactive)
REMARK    1  A    between atoms: C3_3  and  C7_7 
ROOT
HETATM    1  C1  UNL     1     -34.488  17.032  -5.464  1.00 20.00    -0.025 C 
HETATM    2  C2  UNL     1     -33.834  15.882  -5.686  1.00 20.00    -0.020 C 
HETATM    3  C4  UNL     1     -36.058  15.974  -3.875  1.00 20.00     0.021 C 
HETATM    4  C5  UNL     1     -33.743  16.277  -3.409  1.00 20.00     0.022 C 
HETATM    5  C6  UNL     1     -34.933  17.023  -4.021  1.00 20.00     0.010 C 
HETATM    6  C7  UNL     1     -35.307  14.629  -4.090  1.00 20.00     0.067 C 
HETATM    7  C8  UNL     1     -33.854  15.096  -4.388  1.00 20.00    -0.016 C 
HETATM    8  C10 UNL     1     -32.771  14.051  -4.234  1.00 20.00     0.020 C 
ENDROOT
BRANCH   6   9
HETATM    9  C3  UNL     1     -35.916  13.808  -5.186  1.00 20.00     0.128 C 
HETATM   10  C9  UNL     1     -37.123  14.386  -5.875  1.00 20.00     0.091 C 
HETATM   11  O11 UNL     1     -35.452  12.716  -5.508  1.00 20.00    -0.298 OA
ENDBRANCH   6   9
TORSDOF 1
ENDMDL
MODEL 7
REMARK VINA RESULT:      -4.3     11.958     13.686
REMARK  1 active torsions:
REMARK  status: ('A' for Active; 'I' for Inactive)
REMARK    1  A    between atoms: C3_3  and  C7_7 
ROOT
HETATM    1  C1  UNL     1     -35.635  16.793  -6.747  1.00 20.00    -0.025 C 
HETATM    2  C2  UNL     1     -35.951  15.493  -6.643  1.00 20.00    -0.020 C 
HETATM    3  C4  UNL     1     -33.394  16.453  -5.761  1.00 20.00     0.021 C 
HETATM    4  C5  UNL     1     -34.015  15.613  -7.901  1.00 20.00     0.022 C 
HETATM    5  C6  UNL     1     -34.156  16.871  -7.039  1.00 20.00     0.010 C 
HETATM    6  C7  UNL     1     -33.718  14.935  -5.648  1.00 20.00     0.067 C 
HETATM    7  C8  UNL     1     -34.674  14.702  -6.852  1.00 20.00    -0.016 C 
HETATM    8  C10 UNL     1     -34.853  13.266  -7.294  1.00 20.00     0.020 C 
ENDROOT
BRANCH   6   9
HETATM    9  C3  UNL     1     -34.318  14.582  -4.321  1.00 20.00     0.128 C 
HETATM   10  C9  UNL     1     -34.521  15.710  -3.346  1.00 20.00     0.091 C 
HETATM   11  O11 UNL     1     -34.632  13.425  -4.042  1.00 20.00    -0.298 OA
ENDBRANCH   6   9
TORSDOF 1
ENDMDL
MODEL 8
REMARK VINA RESULT:      -4.2     11.669     13.158
REMARK  1 active torsions:
REMARK  status: ('A' for Active; 'I' for Inactive)
REMARK    1  A    between atoms: C3_3  and  C7_7 
ROOT
HETATM    1  C1  UNL     1     -34.422  13.719  -7.507  1.00 20.00    -0.025 C 
HETATM    2  C2  UNL     1     -34.024  14.925  -7.075  1.00 20.00    -0.020 C 
HETATM    3  C4  UNL     1     -35.931  13.390  -5.577  1.00 20.00     0.021 C 
HETATM    4  C5  UNL     1     -36.326  15.012  -7.276  1.00 20.00     0.022 C 
HETATM    5  C6  UNL     1     -35.870  13.558  -7.112  1.00 20.00     0.010 C 
HETATM    6  C7  UNL     1     -35.510  14.796  -5.059  1.00 20.00     0.067 C 
HETATM    7  C8  UNL     1     -35.208  15.566  -6.376  1.00 20.00    -0.016 C 
HETATM    8  C10 UNL     1     -35.177  17.075  -6.276  1.00 20.00     0.020 C 
ENDROOT
BRANCH   6   9
HETATM    9  C3  UNL     1     -34.346  14.728  -4.117  1.00 20.00     0.128 C 
HETATM   10  C9  UNL     1     -34.141  15.909  -3.208  1.00 20.00     0.091 C 
HETATM   11  O11 UNL     1     -33.597  13.753  -4.087  1.00 20.00    -0.298 OA
ENDBRANCH   6   9
TORSDOF 1
ENDMDL
MODEL 9
REMARK VINA RESULT:      -4.2     11.621     13.119
REMARK  1 active torsions:
REMARK  status: ('A' for Active; 'I' for Inactive)
REMARK    1  A    between atoms: C3_3  and  C7_7 
ROOT
HETATM    1  C1  UNL     1     -33.376  14.404  -4.222  1.00 20.00    -0.025 C 
HETATM    2  C2  UNL     1     -34.663  14.036  -4.310  1.00 20.00    -0.020 C 
HETATM    3  C4  UNL     1     -33.605  16.076  -6.028  1.00 20.00     0.021 C 
HETATM    4  C5  UNL     1     -34.643  16.311  -3.898  1.00 20.00     0.022 C 
HETATM    5  C6  UNL     1     -33.312  15.882  -4.523  1.00 20.00     0.010 C 
HETATM    6  C7  UNL     1     -35.108  15.691  -6.140  1.00 20.00     0.067 C 
HETATM    7  C8  UNL     1     -35.460  15.271  -4.685  1.00 20.00    -0.016 C 
HETATM    8  C10 UNL     1     -36.931  15.237  -4.336  1.00 20.00     0.020 C 
ENDROOT
BRANCH   6   9
HETATM    9  C3  UNL     1     -35.343  14.613  -7.154  1.00 20.00     0.128 C 
HETATM   10  C9  UNL     1     -34.141  14.125  -7.915  1.00 20.00     0.091 C 
HETATM   11  O11 UNL     1     -36.465  14.149  -7.354  1.00 20.00    -0.298 OA
ENDBRANCH   6   9
TORSDOF 1
ENDMDL
