MODEL 1
REMARK VINA RESULT:      -5.5      0.000      0.000
REMARK  6 active torsions:
REMARK  status: ('A' for Active; 'I' for Inactive)
REMARK    1  A    between atoms: C2_2  and  C5_5 
REMARK    2  A    between atoms: C5_5  and  C8_8 
REMARK    3  A    between atoms: C6_6  and  C8_8 
REMARK    4  A    between atoms: C7_7  and  C9_9 
REMARK    5  A    between atoms: C9_9  and  C10_10 
REMARK    6  A    between atoms: C10_10  and  N11_11 
ROOT
HETATM    1  C1  UNL     1     -32.818   5.460   2.709  1.00 20.00     0.308 A 
HETATM    2  C2  UNL     1     -32.922   6.966   2.761  1.00 20.00     0.251 A 
HETATM    3  N11 UNL     1     -34.085   6.141   2.459  1.00 20.00     0.097 N 
ENDROOT
BRANCH   2   4
HETATM    4  C5  UNL     1     -32.328   7.796   1.679  1.00 20.00     0.037 C 
BRANCH   4   5
HETATM    5  C8  UNL     1     -32.204   9.260   2.101  1.00 20.00     0.002 C 
BRANCH   5   6
HETATM    6  C6  UNL     1     -32.731  10.198   1.016  1.00 20.00    -0.004 C 
HETATM    7  C3  UNL     1     -33.012   9.452  -0.279  1.00 20.00     0.005 C 
ENDBRANCH   5   6
ENDBRANCH   4   5
ENDBRANCH   2   4
BRANCH   3   8
HETATM    8  C10 UNL     1     -35.019   6.038   3.574  1.00 20.00     0.273 C 
BRANCH   8   9
HETATM    9  C9  UNL     1     -34.656   4.910   4.533  1.00 20.00     0.030 C 
BRANCH   9  10
HETATM   10  C7  UNL     1     -34.513   5.389   5.979  1.00 20.00    -0.003 C 
HETATM   11  C4  UNL     1     -34.076   6.845   6.040  1.00 20.00     0.005 C 
ENDBRANCH   9  10
ENDBRANCH   8   9
ENDBRANCH   3   8
TORSDOF 6
ENDMDL
MODEL 2
REMARK VINA RESULT:      -5.2      1.023      1.476
REMARK  6 active torsions:
REMARK  status: ('A' for Active; 'I' for Inactive)
REMARK    1  A    between atoms: C2_2  and  C5_5 
REMARK    2  A    between atoms: C5_5  and  C8_8 
REMARK    3  A    between atoms: C6_6  and  C8_8 
REMARK    4  A    between atoms: C7_7  and  C9_9 
REMARK    5  A    between atoms: C9_9  and  C10_10 
REMARK    6  A    between atoms: C10_10  and  N11_11 
ROOT
HETATM    1  C1  UNL     1     -32.932   7.519   4.058  1.00 20.00     0.308 A 
HETATM    2  C2  UNL     1     -32.706   7.942   2.626  1.00 20.00     0.251 A 
HETATM    3  N11 UNL     1     -32.710   6.534   3.003  1.00 20.00     0.097 N 
ENDROOT
BRANCH   2   4
HETATM    4  C5  UNL     1     -31.420   8.575   2.225  1.00 20.00     0.037 C 
BRANCH   4   5
HETATM    5  C8  UNL     1     -31.446   9.017   0.762  1.00 20.00     0.002 C 
BRANCH   5   6
HETATM    6  C6  UNL     1     -32.571  10.018   0.504  1.00 20.00    -0.004 C 
HETATM    7  C3  UNL     1     -33.451   9.583  -0.657  1.00 20.00     0.005 C 
ENDBRANCH   5   6
ENDBRANCH   4   5
ENDBRANCH   2   4
BRANCH   3   8
HETATM    8  C10 UNL     1     -33.929   5.839   2.605  1.00 20.00     0.273 C 
BRANCH   8   9
HETATM    9  C9  UNL     1     -34.963   5.791   3.725  1.00 20.00     0.030 C 
BRANCH   9  10
HETATM   10  C7  UNL     1     -34.771   4.590   4.653  1.00 20.00    -0.003 C 
HETATM   11  C4  UNL     1     -34.592   5.028   6.099  1.00 20.00     0.005 C 
ENDBRANCH   9  10
ENDBRANCH   8   9
ENDBRANCH   3   8
TORSDOF 6
ENDMDL
MODEL 3
REMARK VINA RESULT:      -5.2      1.310      5.279
REMARK  6 active torsions:
REMARK  status: ('A' for Active; 'I' for Inactive)
REMARK    1  A    between atoms: C2_2  and  C5_5 
REMARK    2  A    between atoms: C5_5  and  C8_8 
REMARK    3  A    between atoms: C6_6  and  C8_8 
REMARK    4  A    between atoms: C7_7  and  C9_9 
REMARK    5  A    between atoms: C9_9  and  C10_10 
REMARK    6  A    between atoms: C10_10  and  N11_11 
ROOT
HETATM    1  C1  UNL     1     -31.814   8.395   4.186  1.00 20.00     0.308 A 
HETATM    2  C2  UNL     1     -32.823   7.298   4.426  1.00 20.00     0.251 A 
HETATM    3  N11 UNL     1     -32.996   8.256   3.341  1.00 20.00     0.097 N 
ENDROOT
BRANCH   2   4
HETATM    4  C5  UNL     1     -33.739   7.365   5.597  1.00 20.00     0.037 C 
BRANCH   4   5
HETATM    5  C8  UNL     1     -34.461   6.037   5.819  1.00 20.00     0.002 C 
BRANCH   5   6
HETATM    6  C6  UNL     1     -34.857   5.391   4.492  1.00 20.00    -0.004 C 
HETATM    7  C3  UNL     1     -34.229   4.015   4.331  1.00 20.00     0.005 C 
ENDBRANCH   5   6
ENDBRANCH   4   5
ENDBRANCH   2   4
BRANCH   3   8
HETATM    8  C10 UNL     1     -32.697   7.693   2.029  1.00 20.00     0.273 C 
BRANCH   8   9
HETATM    9  C9  UNL     1     -31.693   8.536   1.251  1.00 20.00     0.030 C 
BRANCH   9  10
HETATM   10  C7  UNL     1     -32.320   9.796   0.650  1.00 20.00    -0.003 C 
HETATM   11  C4  UNL     1     -33.221   9.459  -0.529  1.00 20.00     0.005 C 
ENDBRANCH   9  10
ENDBRANCH   8   9
ENDBRANCH   3   8
TORSDOF 6
ENDMDL
MODEL 4
REMARK VINA RESULT:      -5.2      1.170      5.486
REMARK  6 active torsions:
REMARK  status: ('A' for Active; 'I' for Inactive)
REMARK    1  A    between atoms: C2_2  and  C5_5 
REMARK    2  A    between atoms: C5_5  and  C8_8 
REMARK    3  A    between atoms: C6_6  and  C8_8 
REMARK    4  A    between atoms: C7_7  and  C9_9 
REMARK    5  A    between atoms: C9_9  and  C10_10 
REMARK    6  A    between atoms: C10_10  and  N11_11 
ROOT
HETATM    1  C1  UNL     1     -32.174   7.765   3.810  1.00 20.00     0.308 A 
HETATM    2  C2  UNL     1     -32.779   6.911   2.721  1.00 20.00     0.251 A 
HETATM    3  N11 UNL     1     -32.873   8.365   2.677  1.00 20.00     0.097 N 
ENDROOT
BRANCH   2   4
HETATM    4  C5  UNL     1     -34.010   6.118   2.987  1.00 20.00     0.037 C 
BRANCH   4   5
HETATM    5  C8  UNL     1     -33.676   4.672   3.352  1.00 20.00     0.002 C 
BRANCH   5   6
HETATM    6  C6  UNL     1     -34.410   4.235   4.619  1.00 20.00    -0.004 C 
HETATM    7  C3  UNL     1     -34.607   5.398   5.580  1.00 20.00     0.005 C 
ENDBRANCH   5   6
ENDBRANCH   4   5
ENDBRANCH   2   4
BRANCH   3   8
HETATM    8  C10 UNL     1     -31.971   8.967   1.703  1.00 20.00     0.273 C 
BRANCH   8   9
HETATM    9  C9  UNL     1     -32.551  10.230   1.076  1.00 20.00     0.030 C 
BRANCH   9  10
HETATM   10  C7  UNL     1     -33.266   9.956  -0.248  1.00 20.00    -0.003 C 
HETATM   11  C4  UNL     1     -32.736   8.695  -0.914  1.00 20.00     0.005 C 
ENDBRANCH   9  10
ENDBRANCH   8   9
ENDBRANCH   3   8
TORSDOF 6
ENDMDL
MODEL 5
REMARK VINA RESULT:      -5.2      1.095      1.802
REMARK  6 active torsions:
REMARK  status: ('A' for Active; 'I' for Inactive)
REMARK    1  A    between atoms: C2_2  and  C5_5 
REMARK    2  A    between atoms: C5_5  and  C8_8 
REMARK    3  A    between atoms: C6_6  and  C8_8 
REMARK    4  A    between atoms: C7_7  and  C9_9 
REMARK    5  A    between atoms: C9_9  and  C10_10 
REMARK    6  A    between atoms: C10_10  and  N11_11 
ROOT
HETATM    1  C1  UNL     1     -31.922   7.896   3.814  1.00 20.00     0.308 A 
HETATM    2  C2  UNL     1     -32.634   8.436   2.597  1.00 20.00     0.251 A 
HETATM    3  N11 UNL     1     -32.541   7.002   2.840  1.00 20.00     0.097 N 
ENDROOT
BRANCH   2   4
HETATM    4  C5  UNL     1     -31.857   9.027   1.474  1.00 20.00     0.037 C 
BRANCH   4   5
HETATM    5  C8  UNL     1     -32.556  10.257   0.897  1.00 20.00     0.002 C 
BRANCH   5   6
HETATM    6  C6  UNL     1     -33.305   9.918  -0.391  1.00 20.00    -0.004 C 
HETATM    7  C3  UNL     1     -32.753   8.660  -1.043  1.00 20.00     0.005 C 
ENDBRANCH   5   6
ENDBRANCH   4   5
ENDBRANCH   2   4
BRANCH   3   8
HETATM    8  C10 UNL     1     -33.791   6.419   3.313  1.00 20.00     0.273 C 
BRANCH   8   9
HETATM    9  C9  UNL     1     -34.073   6.756   4.773  1.00 20.00     0.030 C 
BRANCH   9  10
HETATM   10  C7  UNL     1     -34.508   5.535   5.586  1.00 20.00    -0.003 C 
HETATM   11  C4  UNL     1     -34.495   4.271   4.739  1.00 20.00     0.005 C 
ENDBRANCH   9  10
ENDBRANCH   8   9
ENDBRANCH   3   8
TORSDOF 6
ENDMDL
MODEL 6
REMARK VINA RESULT:      -5.2      1.071      5.213
REMARK  6 active torsions:
REMARK  status: ('A' for Active; 'I' for Inactive)
REMARK    1  A    between atoms: C2_2  and  C5_5 
REMARK    2  A    between atoms: C5_5  and  C8_8 
REMARK    3  A    between atoms: C6_6  and  C8_8 
REMARK    4  A    between atoms: C7_7  and  C9_9 
REMARK    5  A    between atoms: C9_9  and  C10_10 
REMARK    6  A    between atoms: C10_10  and  N11_11 
ROOT
HETATM    1  C1  UNL     1     -32.618   6.397   2.612  1.00 20.00     0.308 A 
HETATM    2  C2  UNL     1     -33.709   7.315   3.109  1.00 20.00     0.251 A 
HETATM    3  N11 UNL     1     -32.340   7.441   3.594  1.00 20.00     0.097 N 
ENDROOT
BRANCH   2   4
HETATM    4  C5  UNL     1     -34.756   6.804   4.035  1.00 20.00     0.037 C 
BRANCH   4   5
HETATM    5  C8  UNL     1     -34.180   6.499   5.417  1.00 20.00     0.002 C 
BRANCH   5   6
HETATM    6  C6  UNL     1     -34.494   5.067   5.847  1.00 20.00    -0.004 C 
HETATM    7  C3  UNL     1     -34.378   4.096   4.683  1.00 20.00     0.005 C 
ENDBRANCH   5   6
ENDBRANCH   4   5
ENDBRANCH   2   4
BRANCH   3   8
HETATM    8  C10 UNL     1     -31.635   8.585   3.028  1.00 20.00     0.273 C 
BRANCH   8   9
HETATM    9  C9  UNL     1     -31.668   8.590   1.503  1.00 20.00     0.030 C 
BRANCH   9  10
HETATM   10  C7  UNL     1     -32.372   9.823   0.933  1.00 20.00    -0.003 C 
HETATM   11  C4  UNL     1     -33.126   9.490  -0.345  1.00 20.00     0.005 C 
ENDBRANCH   9  10
ENDBRANCH   8   9
ENDBRANCH   3   8
TORSDOF 6
ENDMDL
MODEL 7
REMARK VINA RESULT:      -4.8      0.886      5.049
REMARK  6 active torsions:
REMARK  status: ('A' for Active; 'I' for Inactive)
REMARK    1  A    between atoms: C2_2  and  C5_5 
REMARK    2  A    between atoms: C5_5  and  C8_8 
REMARK    3  A    between atoms: C6_6  and  C8_8 
REMARK    4  A    between atoms: C7_7  and  C9_9 
REMARK    5  A    between atoms: C9_9  and  C10_10 
REMARK    6  A    between atoms: C10_10  and  N11_11 
ROOT
HETATM    1  C1  UNL     1     -33.472   5.682   1.849  1.00 20.00     0.308 A 
HETATM    2  C2  UNL     1     -34.026   5.736   3.253  1.00 20.00     0.251 A 
HETATM    3  N11 UNL     1     -32.739   6.338   2.928  1.00 20.00     0.097 N 
ENDROOT
BRANCH   2   4
HETATM    4  C5  UNL     1     -34.054   4.510   4.096  1.00 20.00     0.037 C 
BRANCH   4   5
HETATM    5  C8  UNL     1     -34.341   4.843   5.559  1.00 20.00     0.002 C 
BRANCH   5   6
HETATM    6  C6  UNL     1     -34.794   6.293   5.721  1.00 20.00    -0.004 C 
HETATM    7  C3  UNL     1     -33.669   7.176   6.239  1.00 20.00     0.005 C 
ENDBRANCH   5   6
ENDBRANCH   4   5
ENDBRANCH   2   4
BRANCH   3   8
HETATM    8  C10 UNL     1     -32.792   7.794   2.852  1.00 20.00     0.273 C 
BRANCH   8   9
HETATM    9  C9  UNL     1     -31.908   8.350   1.741  1.00 20.00     0.030 C 
BRANCH   9  10
HETATM   10  C7  UNL     1     -32.424   9.679   1.187  1.00 20.00    -0.003 C 
HETATM   11  C4  UNL     1     -33.002   9.511  -0.211  1.00 20.00     0.005 C 
ENDBRANCH   9  10
ENDBRANCH   8   9
ENDBRANCH   3   8
TORSDOF 6
ENDMDL
MODEL 8
REMARK VINA RESULT:      -4.7      1.384      2.541
REMARK  6 active torsions:
REMARK  status: ('A' for Active; 'I' for Inactive)
REMARK    1  A    between atoms: C2_2  and  C5_5 
REMARK    2  A    between atoms: C5_5  and  C8_8 
REMARK    3  A    between atoms: C6_6  and  C8_8 
REMARK    4  A    between atoms: C7_7  and  C9_9 
REMARK    5  A    between atoms: C9_9  and  C10_10 
REMARK    6  A    between atoms: C10_10  and  N11_11 
ROOT
HETATM    1  C1  UNL     1     -33.591   7.873   5.942  1.00 20.00     0.308 A 
HETATM    2  C2  UNL     1     -33.495   7.472   4.489  1.00 20.00     0.251 A 
HETATM    3  N11 UNL     1     -33.356   6.485   5.554  1.00 20.00     0.097 N 
ENDROOT
BRANCH   2   4
HETATM    4  C5  UNL     1     -32.296   7.839   3.688  1.00 20.00     0.037 C 
BRANCH   4   5
HETATM    5  C8  UNL     1     -32.624   7.925   2.198  1.00 20.00     0.002 C 
BRANCH   5   6
HETATM    6  C6  UNL     1     -31.851   9.058   1.524  1.00 20.00    -0.004 C 
HETATM    7  C3  UNL     1     -32.789  10.094   0.923  1.00 20.00     0.005 C 
ENDBRANCH   5   6
ENDBRANCH   4   5
ENDBRANCH   2   4
BRANCH   3   8
HETATM    8  C10 UNL     1     -34.535   5.641   5.708  1.00 20.00     0.273 C 
BRANCH   8   9
HETATM    9  C9  UNL     1     -34.936   4.960   4.404  1.00 20.00     0.030 C 
BRANCH   9  10
HETATM   10  C7  UNL     1     -33.907   3.928   3.938  1.00 20.00    -0.003 C 
HETATM   11  C4  UNL     1     -33.234   4.361   2.644  1.00 20.00     0.005 C 
ENDBRANCH   9  10
ENDBRANCH   8   9
ENDBRANCH   3   8
TORSDOF 6
ENDMDL
MODEL 9
REMARK VINA RESULT:      -3.9     10.999     11.636
REMARK  6 active torsions:
REMARK  status: ('A' for Active; 'I' for Inactive)
REMARK    1  A    between atoms: C2_2  and  C5_5 
REMARK    2  A    between atoms: C5_5  and  C8_8 
REMARK    3  A    between atoms: C6_6  and  C8_8 
REMARK    4  A    between atoms: C7_7  and  C9_9 
REMARK    5  A    between atoms: C9_9  and  C10_10 
REMARK    6  A    between atoms: C10_10  and  N11_11 
ROOT
HETATM    1  C1  UNL     1     -33.005  15.730  -5.520  1.00 20.00     0.308 A 
HETATM    2  C2  UNL     1     -33.581  15.347  -4.177  1.00 20.00     0.251 A 
HETATM    3  N11 UNL     1     -34.422  15.413  -5.366  1.00 20.00     0.097 N 
ENDROOT
BRANCH   2   4
HETATM    4  C5  UNL     1     -33.754  16.375  -3.115  1.00 20.00     0.037 C 
BRANCH   4   5
HETATM    5  C8  UNL     1     -35.176  16.365  -2.555  1.00 20.00     0.002 C 
BRANCH   5   6
HETATM    6  C6  UNL     1     -35.235  17.025  -1.178  1.00 20.00    -0.004 C 
HETATM    7  C3  UNL     1     -33.925  17.715  -0.832  1.00 20.00     0.005 C 
ENDBRANCH   5   6
ENDBRANCH   4   5
ENDBRANCH   2   4
BRANCH   3   8
HETATM    8  C10 UNL     1     -34.774  14.099  -5.891  1.00 20.00     0.273 C 
BRANCH   8   9
HETATM    9  C9  UNL     1     -36.040  13.538  -5.252  1.00 20.00     0.030 C 
BRANCH   9  10
HETATM   10  C7  UNL     1     -37.304  14.268  -5.710  1.00 20.00    -0.003 C 
HETATM   11  C4  UNL     1     -37.997  14.961  -4.546  1.00 20.00     0.005 C 
ENDBRANCH   9  10
ENDBRANCH   8   9
ENDBRANCH   3   8
TORSDOF 6
ENDMDL
