MODEL 1
REMARK VINA RESULT:      -4.4      0.000      0.000
REMARK  2 active torsions:
REMARK  status: ('A' for Active; 'I' for Inactive)
REMARK    1  A    between atoms: C3_3  and  C8_8 
REMARK    2  A    between atoms: C8_8  and  C10_10 
ROOT
HETATM    1  C1  UNL     1     -34.971  16.204  -2.927  1.00 20.00    -0.026 C 
HETATM    2  C2  UNL     1     -35.843  16.429  -3.920  1.00 20.00    -0.024 C 
HETATM    3  C4  UNL     1     -33.745  16.809  -4.784  1.00 20.00     0.018 C 
HETATM    4  C5  UNL     1     -33.734  14.491  -4.229  1.00 20.00     0.025 C 
HETATM    5  C6  UNL     1     -33.641  15.888  -3.566  1.00 20.00     0.010 C 
HETATM    6  C7  UNL     1     -35.098  16.233  -5.227  1.00 20.00     0.024 C 
HETATM    7  C8  UNL     1     -34.756  14.723  -5.392  1.00 20.00     0.020 C 
ENDROOT
BRANCH   7   8
HETATM    8  C3  UNL     1     -35.973  13.847  -5.242  1.00 20.00     0.241 C 
HETATM    9  O11 UNL     1     -35.925  12.622  -5.215  1.00 20.00    -0.306 OA
ENDBRANCH   7   8
BRANCH   7  10
HETATM   10  C10 UNL     1     -34.147  14.403  -6.759  1.00 20.00     0.013 C 
HETATM   11  C9  UNL     1     -34.886  15.085  -7.861  1.00 20.00     0.006 C 
ENDBRANCH   7  10
TORSDOF 2
ENDMDL
MODEL 2
REMARK VINA RESULT:      -4.3      1.506      3.554
REMARK  2 active torsions:
REMARK  status: ('A' for Active; 'I' for Inactive)
REMARK    1  A    between atoms: C3_3  and  C8_8 
REMARK    2  A    between atoms: C8_8  and  C10_10 
ROOT
HETATM    1  C1  UNL     1     -34.791  13.567  -7.121  1.00 20.00    -0.026 C 
HETATM    2  C2  UNL     1     -34.089  14.709  -7.078  1.00 20.00    -0.024 C 
HETATM    3  C4  UNL     1     -36.183  15.189  -6.256  1.00 20.00     0.018 C 
HETATM    4  C5  UNL     1     -35.288  13.630  -4.691  1.00 20.00     0.025 C 
HETATM    5  C6  UNL     1     -35.905  13.691  -6.111  1.00 20.00     0.010 C 
HETATM    6  C7  UNL     1     -34.720  15.585  -6.013  1.00 20.00     0.024 C 
HETATM    7  C8  UNL     1     -34.452  14.952  -4.615  1.00 20.00     0.020 C 
ENDROOT
BRANCH   7   8
HETATM    8  C3  UNL     1     -32.989  14.670  -4.392  1.00 20.00     0.241 C 
HETATM    9  O11 UNL     1     -32.545  13.553  -4.147  1.00 20.00    -0.306 OA
ENDBRANCH   7   8
BRANCH   7  10
HETATM   10  C10 UNL     1     -34.910  15.851  -3.464  1.00 20.00     0.013 C 
HETATM   11  C9  UNL     1     -33.764  16.586  -2.853  1.00 20.00     0.006 C 
ENDBRANCH   7  10
TORSDOF 2
ENDMDL
MODEL 3
REMARK VINA RESULT:      -4.3      1.244      2.599
REMARK  2 active torsions:
REMARK  status: ('A' for Active; 'I' for Inactive)
REMARK    1  A    between atoms: C3_3  and  C8_8 
REMARK    2  A    between atoms: C8_8  and  C10_10 
ROOT
HETATM    1  C1  UNL     1     -32.849  15.543  -5.215  1.00 20.00    -0.026 C 
HETATM    2  C2  UNL     1     -33.246  14.490  -4.484  1.00 20.00    -0.024 C 
HETATM    3  C4  UNL     1     -34.142  16.361  -3.489  1.00 20.00     0.018 C 
HETATM    4  C5  UNL     1     -35.177  16.292  -5.635  1.00 20.00     0.025 C 
HETATM    5  C6  UNL     1     -33.833  16.658  -4.959  1.00 20.00     0.010 C 
HETATM    6  C7  UNL     1     -34.517  14.897  -3.762  1.00 20.00     0.024 C 
HETATM    7  C8  UNL     1     -35.662  15.056  -4.806  1.00 20.00     0.020 C 
ENDROOT
BRANCH   7   8
HETATM    8  C3  UNL     1     -35.813  13.832  -5.672  1.00 20.00     0.241 C 
HETATM    9  O11 UNL     1     -35.971  12.701  -5.222  1.00 20.00    -0.306 OA
ENDBRANCH   7   8
BRANCH   7  10
HETATM   10  C10 UNL     1     -37.023  15.305  -4.152  1.00 20.00     0.013 C 
HETATM   11  C9  UNL     1     -37.693  16.510  -4.723  1.00 20.00     0.006 C 
ENDBRANCH   7  10
TORSDOF 2
ENDMDL
MODEL 4
REMARK VINA RESULT:      -4.2      1.287      1.850
REMARK  2 active torsions:
REMARK  status: ('A' for Active; 'I' for Inactive)
REMARK    1  A    between atoms: C3_3  and  C8_8 
REMARK    2  A    between atoms: C8_8  and  C10_10 
ROOT
HETATM    1  C1  UNL     1     -33.291  15.135  -4.168  1.00 20.00    -0.026 C 
HETATM    2  C2  UNL     1     -34.498  15.493  -3.706  1.00 20.00    -0.024 C 
HETATM    3  C4  UNL     1     -34.090  16.787  -5.563  1.00 20.00     0.018 C 
HETATM    4  C5  UNL     1     -34.177  14.562  -6.413  1.00 20.00     0.025 C 
HETATM    5  C6  UNL     1     -33.242  15.514  -5.627  1.00 20.00     0.010 C 
HETATM    6  C7  UNL     1     -35.268  16.085  -4.871  1.00 20.00     0.024 C 
HETATM    7  C8  UNL     1     -35.599  14.952  -5.886  1.00 20.00     0.020 C 
ENDROOT
BRANCH   7   8
HETATM    8  C3  UNL     1     -36.285  13.784  -5.227  1.00 20.00     0.241 C 
HETATM    9  O11 UNL     1     -35.856  12.635  -5.271  1.00 20.00    -0.306 OA
ENDBRANCH   7   8
BRANCH   7  10
HETATM   10  C10 UNL     1     -36.516  15.424  -7.017  1.00 20.00     0.013 C 
HETATM   11  C9  UNL     1     -37.936  15.521  -6.566  1.00 20.00     0.006 C 
ENDBRANCH   7  10
TORSDOF 2
ENDMDL
MODEL 5
REMARK VINA RESULT:      -4.2      1.676      3.644
REMARK  2 active torsions:
REMARK  status: ('A' for Active; 'I' for Inactive)
REMARK    1  A    between atoms: C3_3  and  C8_8 
REMARK    2  A    between atoms: C8_8  and  C10_10 
ROOT
HETATM    1  C1  UNL     1     -34.441  14.710  -6.181  1.00 20.00    -0.026 C 
HETATM    2  C2  UNL     1     -35.060  14.130  -5.142  1.00 20.00    -0.024 C 
HETATM    3  C4  UNL     1     -32.936  14.657  -4.435  1.00 20.00     0.018 C 
HETATM    4  C5  UNL     1     -33.936  16.771  -4.896  1.00 20.00     0.025 C 
HETATM    5  C6  UNL     1     -33.319  15.548  -5.619  1.00 20.00     0.010 C 
HETATM    6  C7  UNL     1     -34.367  14.609  -3.881  1.00 20.00     0.024 C 
HETATM    7  C8  UNL     1     -34.675  16.122  -3.678  1.00 20.00     0.020 C 
ENDROOT
BRANCH   7   8
HETATM    8  C3  UNL     1     -36.155  16.408  -3.712  1.00 20.00     0.241 C 
HETATM    9  O11 UNL     1     -36.688  17.108  -4.566  1.00 20.00    -0.306 OA
ENDBRANCH   7   8
BRANCH   7  10
HETATM   10  C10 UNL     1     -34.153  16.656  -2.342  1.00 20.00     0.013 C 
HETATM   11  C9  UNL     1     -35.263  16.889  -1.373  1.00 20.00     0.006 C 
ENDBRANCH   7  10
TORSDOF 2
ENDMDL
MODEL 6
REMARK VINA RESULT:      -4.1      1.733      3.575
REMARK  2 active torsions:
REMARK  status: ('A' for Active; 'I' for Inactive)
REMARK    1  A    between atoms: C3_3  and  C8_8 
REMARK    2  A    between atoms: C8_8  and  C10_10 
ROOT
HETATM    1  C1  UNL     1     -35.699  14.204  -6.541  1.00 20.00    -0.026 C 
HETATM    2  C2  UNL     1     -35.710  15.545  -6.516  1.00 20.00    -0.024 C 
HETATM    3  C4  UNL     1     -36.911  14.840  -4.685  1.00 20.00     0.018 C 
HETATM    4  C5  UNL     1     -34.703  14.042  -4.275  1.00 20.00     0.025 C 
HETATM    5  C6  UNL     1     -35.955  13.731  -5.132  1.00 20.00     0.010 C 
HETATM    6  C7  UNL     1     -35.944  15.967  -5.078  1.00 20.00     0.024 C 
HETATM    7  C8  UNL     1     -34.684  15.607  -4.236  1.00 20.00     0.020 C 
ENDROOT
BRANCH   7   8
HETATM    8  C3  UNL     1     -33.421  16.162  -4.840  1.00 20.00     0.241 C 
HETATM    9  O11 UNL     1     -32.501  15.459  -5.248  1.00 20.00    -0.306 OA
ENDBRANCH   7   8
BRANCH   7  10
HETATM   10  C10 UNL     1     -34.762  16.143  -2.804  1.00 20.00     0.013 C 
HETATM   11  C9  UNL     1     -33.651  17.097  -2.515  1.00 20.00     0.006 C 
ENDBRANCH   7  10
TORSDOF 2
ENDMDL
MODEL 7
REMARK VINA RESULT:      -4.1      1.631      2.253
REMARK  2 active torsions:
REMARK  status: ('A' for Active; 'I' for Inactive)
REMARK    1  A    between atoms: C3_3  and  C8_8 
REMARK    2  A    between atoms: C8_8  and  C10_10 
ROOT
HETATM    1  C1  UNL     1     -34.224  16.077  -3.426  1.00 20.00    -0.026 C 
HETATM    2  C2  UNL     1     -33.494  16.685  -4.373  1.00 20.00    -0.024 C 
HETATM    3  C4  UNL     1     -32.980  14.445  -4.477  1.00 20.00     0.018 C 
HETATM    4  C5  UNL     1     -35.291  14.538  -5.054  1.00 20.00     0.025 C 
HETATM    5  C6  UNL     1     -34.353  14.628  -3.824  1.00 20.00     0.010 C 
HETATM    6  C7  UNL     1     -33.160  15.642  -5.422  1.00 20.00     0.024 C 
HETATM    7  C8  UNL     1     -34.465  15.250  -6.177  1.00 20.00     0.020 C 
ENDROOT
BRANCH   7   8
HETATM    8  C3  UNL     1     -35.190  16.455  -6.718  1.00 20.00     0.241 C 
HETATM    9  O11 UNL     1     -36.373  16.690  -6.494  1.00 20.00    -0.306 OA
ENDBRANCH   7   8
BRANCH   7  10
HETATM   10  C10 UNL     1     -34.201  14.323  -7.366  1.00 20.00     0.013 C 
HETATM   11  C9  UNL     1     -35.078  13.116  -7.326  1.00 20.00     0.006 C 
ENDBRANCH   7  10
TORSDOF 2
ENDMDL
MODEL 8
REMARK VINA RESULT:      -4.1      1.251      3.283
REMARK  2 active torsions:
REMARK  status: ('A' for Active; 'I' for Inactive)
REMARK    1  A    between atoms: C3_3  and  C8_8 
REMARK    2  A    between atoms: C8_8  and  C10_10 
ROOT
HETATM    1  C1  UNL     1     -34.923  15.800  -7.109  1.00 20.00    -0.026 C 
HETATM    2  C2  UNL     1     -33.643  15.581  -6.776  1.00 20.00    -0.024 C 
HETATM    3  C4  UNL     1     -34.220  17.618  -5.877  1.00 20.00     0.018 C 
HETATM    4  C5  UNL     1     -35.627  16.064  -4.744  1.00 20.00     0.025 C 
HETATM    5  C6  UNL     1     -35.481  16.782  -6.108  1.00 20.00     0.010 C 
HETATM    6  C7  UNL     1     -33.355  16.397  -5.530  1.00 20.00     0.024 C 
HETATM    7  C8  UNL     1     -34.142  15.786  -4.333  1.00 20.00     0.020 C 
ENDROOT
BRANCH   7   8
HETATM    8  C3  UNL     1     -33.877  14.311  -4.175  1.00 20.00     0.241 C 
HETATM    9  O11 UNL     1     -34.754  13.456  -4.246  1.00 20.00    -0.306 OA
ENDBRANCH   7   8
BRANCH   7  10
HETATM   10  C10 UNL     1     -33.787  16.444  -2.998  1.00 20.00     0.013 C 
HETATM   11  C9  UNL     1     -34.988  16.602  -2.127  1.00 20.00     0.006 C 
ENDBRANCH   7  10
TORSDOF 2
ENDMDL
MODEL 9
REMARK VINA RESULT:      -4.1      0.930      3.140
REMARK  2 active torsions:
REMARK  status: ('A' for Active; 'I' for Inactive)
REMARK    1  A    between atoms: C3_3  and  C8_8 
REMARK    2  A    between atoms: C8_8  and  C10_10 
ROOT
HETATM    1  C1  UNL     1     -35.426  15.756  -7.918  1.00 20.00    -0.026 C 
HETATM    2  C2  UNL     1     -34.838  14.587  -7.623  1.00 20.00    -0.024 C 
HETATM    3  C4  UNL     1     -33.637  16.223  -6.540  1.00 20.00     0.018 C 
HETATM    4  C5  UNL     1     -35.794  16.321  -5.530  1.00 20.00     0.025 C 
HETATM    5  C6  UNL     1     -35.053  16.730  -6.827  1.00 20.00     0.010 C 
HETATM    6  C7  UNL     1     -34.095  14.775  -6.314  1.00 20.00     0.024 C 
HETATM    7  C8  UNL     1     -35.132  14.950  -5.165  1.00 20.00     0.020 C 
ENDROOT
BRANCH   7   8
HETATM    8  C3  UNL     1     -36.144  13.834  -5.142  1.00 20.00     0.241 C 
HETATM    9  O11 UNL     1     -35.846  12.649  -5.249  1.00 20.00    -0.306 OA
ENDBRANCH   7   8
BRANCH   7  10
HETATM   10  C10 UNL     1     -34.478  14.982  -3.782  1.00 20.00     0.013 C 
HETATM   11  C9  UNL     1     -34.972  16.131  -2.968  1.00 20.00     0.006 C 
ENDBRANCH   7  10
TORSDOF 2
ENDMDL
