MODEL 1
REMARK VINA RESULT:      -4.6      0.000      0.000
REMARK  0 active torsions:
REMARK  status: ('A' for Active; 'I' for Inactive)
ROOT
HETATM    1  C1  UNL     1     -32.099   8.805   2.124  1.00 20.00     0.014 C 
HETATM    2  C2  UNL     1     -32.374   7.840   2.783  1.00 20.00    -0.081 C 
HETATM    3  C3  UNL     1     -35.615   6.201   3.613  1.00 20.00     0.035 C 
HETATM    4  C4  UNL     1     -34.205   4.613   4.899  1.00 20.00     0.035 C 
HETATM    5  C5  UNL     1     -33.601   7.027   4.796  1.00 20.00     0.053 C 
HETATM    6  C6  UNL     1     -34.721   5.976   2.385  1.00 20.00     0.274 C 
HETATM    7  C7  UNL     1     -33.429   4.360   3.595  1.00 20.00     0.274 C 
HETATM    8  C8  UNL     1     -32.711   6.654   3.590  1.00 20.00     0.300 C 
HETATM    9  C9  UNL     1     -34.776   6.039   4.889  1.00 20.00    -0.008 C 
HETATM   10  N10 UNL     1     -33.342   5.587   2.768  1.00 20.00     0.104 N 
ENDROOT
TORSDOF 0
ENDMDL
MODEL 2
REMARK VINA RESULT:      -4.1     11.347     12.482
REMARK  0 active torsions:
REMARK  status: ('A' for Active; 'I' for Inactive)
ROOT
HETATM    1  C1  UNL     1     -33.674  16.956  -2.300  1.00 20.00     0.014 C 
HETATM    2  C2  UNL     1     -33.814  16.271  -3.277  1.00 20.00    -0.081 C 
HETATM    3  C3  UNL     1     -36.804  14.671  -4.820  1.00 20.00     0.035 C 
HETATM    4  C4  UNL     1     -35.184  13.830  -6.502  1.00 20.00     0.035 C 
HETATM    5  C5  UNL     1     -34.519  14.029  -4.111  1.00 20.00     0.053 C 
HETATM    6  C6  UNL     1     -36.267  16.094  -5.036  1.00 20.00     0.274 C 
HETATM    7  C7  UNL     1     -34.782  15.295  -6.739  1.00 20.00     0.274 C 
HETATM    8  C8  UNL     1     -33.986  15.432  -4.476  1.00 20.00     0.300 C 
HETATM    9  C9  UNL     1     -35.674  13.659  -5.056  1.00 20.00    -0.008 C 
HETATM   10  N10 UNL     1     -34.855  16.088  -5.489  1.00 20.00     0.104 N 
ENDROOT
TORSDOF 0
ENDMDL
MODEL 3
REMARK VINA RESULT:      -4.1     11.538     12.579
REMARK  0 active torsions:
REMARK  status: ('A' for Active; 'I' for Inactive)
ROOT
HETATM    1  C1  UNL     1     -33.688  17.252  -1.593  1.00 20.00     0.014 C 
HETATM    2  C2  UNL     1     -34.283  16.678  -2.463  1.00 20.00    -0.081 C 
HETATM    3  C3  UNL     1     -33.316  15.643  -5.910  1.00 20.00     0.035 C 
HETATM    4  C4  UNL     1     -35.627  14.743  -6.026  1.00 20.00     0.035 C 
HETATM    5  C5  UNL     1     -35.164  16.855  -4.790  1.00 20.00     0.053 C 
HETATM    6  C6  UNL     1     -33.103  14.883  -4.592  1.00 20.00     0.274 C 
HETATM    7  C7  UNL     1     -35.295  13.929  -4.765  1.00 20.00     0.274 C 
HETATM    8  C8  UNL     1     -35.013  15.972  -3.532  1.00 20.00     0.300 C 
HETATM    9  C9  UNL     1     -34.795  16.034  -6.038  1.00 20.00    -0.008 C 
HETATM   10  N10 UNL     1     -34.378  14.668  -3.865  1.00 20.00     0.104 N 
ENDROOT
TORSDOF 0
ENDMDL
MODEL 4
REMARK VINA RESULT:      -4.1     11.562     12.689
REMARK  0 active torsions:
REMARK  status: ('A' for Active; 'I' for Inactive)
ROOT
HETATM    1  C1  UNL     1     -35.174  13.136  -7.261  1.00 20.00     0.014 C 
HETATM    2  C2  UNL     1     -35.216  13.680  -6.191  1.00 20.00    -0.081 C 
HETATM    3  C3  UNL     1     -33.603  16.770  -4.877  1.00 20.00     0.035 C 
HETATM    4  C4  UNL     1     -34.798  16.208  -2.775  1.00 20.00     0.035 C 
HETATM    5  C5  UNL     1     -33.875  14.399  -4.215  1.00 20.00     0.053 C 
HETATM    6  C6  UNL     1     -34.926  16.639  -5.646  1.00 20.00     0.274 C 
HETATM    7  C7  UNL     1     -36.096  16.207  -3.599  1.00 20.00     0.274 C 
HETATM    8  C8  UNL     1     -35.269  14.349  -4.879  1.00 20.00     0.300 C 
HETATM    9  C9  UNL     1     -33.617  15.815  -3.675  1.00 20.00    -0.008 C 
HETATM   10  N10 UNL     1     -35.866  15.708  -4.976  1.00 20.00     0.104 N 
ENDROOT
TORSDOF 0
ENDMDL
MODEL 5
REMARK VINA RESULT:      -4.1     11.693     12.608
REMARK  0 active torsions:
REMARK  status: ('A' for Active; 'I' for Inactive)
ROOT
HETATM    1  C1  UNL     1     -35.181  16.917  -1.229  1.00 20.00     0.014 C 
HETATM    2  C2  UNL     1     -34.847  16.746  -2.369  1.00 20.00    -0.081 C 
HETATM    3  C3  UNL     1     -35.322  13.904  -4.732  1.00 20.00     0.035 C 
HETATM    4  C4  UNL     1     -34.063  15.334  -6.324  1.00 20.00     0.035 C 
HETATM    5  C5  UNL     1     -33.477  15.335  -3.903  1.00 20.00     0.053 C 
HETATM    6  C6  UNL     1     -36.271  15.079  -4.451  1.00 20.00     0.274 C 
HETATM    7  C7  UNL     1     -35.121  16.421  -6.070  1.00 20.00     0.274 C 
HETATM    8  C8  UNL     1     -34.437  16.537  -3.770  1.00 20.00     0.300 C 
HETATM    9  C9  UNL     1     -33.928  14.448  -5.076  1.00 20.00    -0.008 C 
HETATM   10  N10 UNL     1     -35.611  16.388  -4.672  1.00 20.00     0.104 N 
ENDROOT
TORSDOF 0
ENDMDL
MODEL 6
REMARK VINA RESULT:      -3.9     11.352     12.469
REMARK  0 active torsions:
REMARK  status: ('A' for Active; 'I' for Inactive)
ROOT
HETATM    1  C1  UNL     1     -32.928  18.058  -1.534  1.00 20.00     0.014 C 
HETATM    2  C2  UNL     1     -33.578  17.195  -2.059  1.00 20.00    -0.081 C 
HETATM    3  C3  UNL     1     -34.800  16.738  -5.548  1.00 20.00     0.035 C 
HETATM    4  C4  UNL     1     -35.798  14.643  -4.666  1.00 20.00     0.035 C 
HETATM    5  C5  UNL     1     -35.712  16.687  -3.245  1.00 20.00     0.053 C 
HETATM    6  C6  UNL     1     -33.446  16.327  -4.951  1.00 20.00     0.274 C 
HETATM    7  C7  UNL     1     -34.386  14.254  -4.198  1.00 20.00     0.274 C 
HETATM    8  C8  UNL     1     -34.374  16.136  -2.703  1.00 20.00     0.300 C 
HETATM    9  C9  UNL     1     -35.932  16.174  -4.678  1.00 20.00    -0.008 C 
HETATM   10  N10 UNL     1     -33.608  15.442  -3.772  1.00 20.00     0.104 N 
ENDROOT
TORSDOF 0
ENDMDL
MODEL 7
REMARK VINA RESULT:      -3.8     11.634     13.008
REMARK  0 active torsions:
REMARK  status: ('A' for Active; 'I' for Inactive)
ROOT
HETATM    1  C1  UNL     1     -36.268  14.014  -7.915  1.00 20.00     0.014 C 
HETATM    2  C2  UNL     1     -36.075  14.488  -6.829  1.00 20.00    -0.081 C 
HETATM    3  C3  UNL     1     -32.959  15.198  -4.913  1.00 20.00     0.035 C 
HETATM    4  C4  UNL     1     -34.513  16.036  -3.168  1.00 20.00     0.035 C 
HETATM    5  C5  UNL     1     -35.133  14.065  -4.558  1.00 20.00     0.053 C 
HETATM    6  C6  UNL     1     -33.666  16.088  -5.947  1.00 20.00     0.274 C 
HETATM    7  C7  UNL     1     -35.091  16.977  -4.237  1.00 20.00     0.274 C 
HETATM    8  C8  UNL     1     -35.837  15.070  -5.496  1.00 20.00     0.300 C 
HETATM    9  C9  UNL     1     -33.968  14.766  -3.840  1.00 20.00    -0.008 C 
HETATM   10  N10 UNL     1     -35.079  16.348  -5.579  1.00 20.00     0.104 N 
ENDROOT
TORSDOF 0
ENDMDL
MODEL 8
REMARK VINA RESULT:      -3.7     11.714     12.997
REMARK  0 active torsions:
REMARK  status: ('A' for Active; 'I' for Inactive)
ROOT
HETATM    1  C1  UNL     1     -38.195  14.417  -5.109  1.00 20.00     0.014 C 
HETATM    2  C2  UNL     1     -37.229  15.126  -5.032  1.00 20.00    -0.081 C 
HETATM    3  C3  UNL     1     -33.634  14.415  -4.359  1.00 20.00     0.035 C 
HETATM    4  C4  UNL     1     -33.356  16.872  -4.587  1.00 20.00     0.035 C 
HETATM    5  C5  UNL     1     -35.408  15.934  -3.531  1.00 20.00     0.053 C 
HETATM    6  C6  UNL     1     -34.375  14.390  -5.704  1.00 20.00     0.274 C 
HETATM    7  C7  UNL     1     -34.007  16.743  -5.974  1.00 20.00     0.274 C 
HETATM    8  C8  UNL     1     -36.043  15.997  -4.937  1.00 20.00     0.300 C 
HETATM    9  C9  UNL     1     -33.885  15.762  -3.665  1.00 20.00    -0.008 C 
HETATM   10  N10 UNL     1     -35.042  15.682  -5.992  1.00 20.00     0.104 N 
ENDROOT
TORSDOF 0
ENDMDL
MODEL 9
REMARK VINA RESULT:      -3.6     11.351     13.200
REMARK  0 active torsions:
REMARK  status: ('A' for Active; 'I' for Inactive)
ROOT
HETATM    1  C1  UNL     1     -34.043  18.367  -7.425  1.00 20.00     0.014 C 
HETATM    2  C2  UNL     1     -34.164  17.307  -6.875  1.00 20.00    -0.081 C 
HETATM    3  C3  UNL     1     -33.932  16.287  -3.299  1.00 20.00     0.035 C 
HETATM    4  C4  UNL     1     -34.417  14.013  -4.168  1.00 20.00     0.035 C 
HETATM    5  C5  UNL     1     -33.008  15.586  -5.488  1.00 20.00     0.053 C 
HETATM    6  C6  UNL     1     -35.154  16.822  -4.060  1.00 20.00     0.274 C 
HETATM    7  C7  UNL     1     -35.684  14.607  -4.807  1.00 20.00     0.274 C 
HETATM    8  C8  UNL     1     -34.313  16.005  -6.200  1.00 20.00     0.300 C 
HETATM    9  C9  UNL     1     -33.335  15.099  -4.066  1.00 20.00    -0.008 C 
HETATM   10  N10 UNL     1     -35.464  16.002  -5.256  1.00 20.00     0.104 N 
ENDROOT
TORSDOF 0
ENDMDL
