MODEL 1
REMARK VINA RESULT:      -4.8      0.000      0.000
REMARK  2 active torsions:
REMARK  status: ('A' for Active; 'I' for Inactive)
REMARK    1  A    between atoms: C1_1  and  C4_4 
REMARK    2  A    between atoms: C1_1  and  C5_5 
ROOT
HETATM    1  C1  UNL     1     -33.637   6.914   4.389  1.00 20.00     0.144 C 
HETATM    2  O6  UNL     1     -33.271   7.489   5.413  1.00 20.00    -0.296 OA
ENDROOT
BRANCH   1   3
HETATM    3  C4  UNL     1     -34.679   5.883   4.444  1.00 20.00     0.056 A 
HETATM    4  C2  UNL     1     -34.293   4.435   4.311  1.00 20.00     0.013 A 
HETATM    5  C3  UNL     1     -34.748   4.968   5.636  1.00 20.00     0.013 A 
ENDBRANCH   1   3
BRANCH   1   6
HETATM    6  C5  UNL     1     -33.071   7.203   3.018  1.00 20.00     0.193 C 
HETATM    7 CL7  UNL     1     -31.638   8.234   3.137  1.00 20.00    -0.123 Cl
ENDBRANCH   1   6
TORSDOF 2
ENDMDL
MODEL 2
REMARK VINA RESULT:      -4.7      1.603      1.675
REMARK  2 active torsions:
REMARK  status: ('A' for Active; 'I' for Inactive)
REMARK    1  A    between atoms: C1_1  and  C4_4 
REMARK    2  A    between atoms: C1_1  and  C5_5 
ROOT
HETATM    1  C1  UNL     1     -33.595   5.935   3.170  1.00 20.00     0.144 C 
HETATM    2  O6  UNL     1     -33.054   4.917   2.739  1.00 20.00    -0.296 OA
ENDROOT
BRANCH   1   3
HETATM    3  C4  UNL     1     -34.654   5.846   4.181  1.00 20.00     0.056 A 
HETATM    4  C2  UNL     1     -34.560   4.800   5.259  1.00 20.00     0.013 A 
HETATM    5  C3  UNL     1     -34.354   6.245   5.600  1.00 20.00     0.013 A 
ENDBRANCH   1   3
BRANCH   1   6
HETATM    6  C5  UNL     1     -33.234   7.331   2.717  1.00 20.00     0.193 C 
HETATM    7 CL7  UNL     1     -31.759   7.888   3.520  1.00 20.00    -0.123 Cl
ENDBRANCH   1   6
TORSDOF 2
ENDMDL
MODEL 3
REMARK VINA RESULT:      -4.7      1.666      1.866
REMARK  2 active torsions:
REMARK  status: ('A' for Active; 'I' for Inactive)
REMARK    1  A    between atoms: C1_1  and  C4_4 
REMARK    2  A    between atoms: C1_1  and  C5_5 
ROOT
HETATM    1  C1  UNL     1     -33.356   6.486   3.405  1.00 20.00     0.144 C 
HETATM    2  O6  UNL     1     -33.371   5.520   2.643  1.00 20.00    -0.296 OA
ENDROOT
BRANCH   1   3
HETATM    3  C4  UNL     1     -34.377   6.630   4.447  1.00 20.00     0.056 A 
HETATM    4  C2  UNL     1     -34.456   5.610   5.550  1.00 20.00     0.013 A 
HETATM    5  C3  UNL     1     -33.958   6.992   5.846  1.00 20.00     0.013 A 
ENDBRANCH   1   3
BRANCH   1   6
HETATM    6  C5  UNL     1     -32.318   7.583   3.345  1.00 20.00     0.193 C 
HETATM    7 CL7  UNL     1     -32.360   8.401   1.777  1.00 20.00    -0.123 Cl
ENDBRANCH   1   6
TORSDOF 2
ENDMDL
MODEL 4
REMARK VINA RESULT:      -4.5      2.196      3.484
REMARK  2 active torsions:
REMARK  status: ('A' for Active; 'I' for Inactive)
REMARK    1  A    between atoms: C1_1  and  C4_4 
REMARK    2  A    between atoms: C1_1  and  C5_5 
ROOT
HETATM    1  C1  UNL     1     -33.709   6.849   4.123  1.00 20.00     0.144 C 
HETATM    2  O6  UNL     1     -33.664   7.469   5.185  1.00 20.00    -0.296 OA
ENDROOT
BRANCH   1   3
HETATM    3  C4  UNL     1     -32.658   7.019   3.115  1.00 20.00     0.056 A 
HETATM    4  C2  UNL     1     -32.692   8.217   2.206  1.00 20.00     0.013 A 
HETATM    5  C3  UNL     1     -31.650   8.123   3.280  1.00 20.00     0.013 A 
ENDBRANCH   1   3
BRANCH   1   6
HETATM    6  C5  UNL     1     -34.814   5.882   3.764  1.00 20.00     0.193 C 
HETATM    7 CL7  UNL     1     -34.543   4.309   4.527  1.00 20.00    -0.123 Cl
ENDBRANCH   1   6
TORSDOF 2
ENDMDL
MODEL 5
REMARK VINA RESULT:      -4.4      2.017      2.275
REMARK  2 active torsions:
REMARK  status: ('A' for Active; 'I' for Inactive)
REMARK    1  A    between atoms: C1_1  and  C4_4 
REMARK    2  A    between atoms: C1_1  and  C5_5 
ROOT
HETATM    1  C1  UNL     1     -33.261   7.019   3.548  1.00 20.00     0.144 C 
HETATM    2  O6  UNL     1     -32.200   7.643   3.560  1.00 20.00    -0.296 OA
ENDROOT
BRANCH   1   3
HETATM    3  C4  UNL     1     -34.208   7.136   4.662  1.00 20.00     0.056 A 
HETATM    4  C2  UNL     1     -34.309   6.020   5.666  1.00 20.00     0.013 A 
HETATM    5  C3  UNL     1     -33.683   7.325   6.059  1.00 20.00     0.013 A 
ENDBRANCH   1   3
BRANCH   1   6
HETATM    6  C5  UNL     1     -33.681   6.103   2.422  1.00 20.00     0.193 C 
HETATM    7 CL7  UNL     1     -32.920   4.514   2.590  1.00 20.00    -0.123 Cl
ENDBRANCH   1   6
TORSDOF 2
ENDMDL
MODEL 6
REMARK VINA RESULT:      -4.4      2.195      3.583
REMARK  2 active torsions:
REMARK  status: ('A' for Active; 'I' for Inactive)
REMARK    1  A    between atoms: C1_1  and  C4_4 
REMARK    2  A    between atoms: C1_1  and  C5_5 
ROOT
HETATM    1  C1  UNL     1     -33.529   6.236   3.459  1.00 20.00     0.144 C 
HETATM    2  O6  UNL     1     -33.106   5.345   2.723  1.00 20.00    -0.296 OA
ENDROOT
BRANCH   1   3
HETATM    3  C4  UNL     1     -33.154   7.635   3.228  1.00 20.00     0.056 A 
HETATM    4  C2  UNL     1     -31.727   8.062   3.443  1.00 20.00     0.013 A 
HETATM    5  C3  UNL     1     -32.281   7.980   2.052  1.00 20.00     0.013 A 
ENDBRANCH   1   3
BRANCH   1   6
HETATM    6  C5  UNL     1     -34.448   5.988   4.633  1.00 20.00     0.193 C 
HETATM    7 CL7  UNL     1     -34.005   7.016   6.003  1.00 20.00    -0.123 Cl
ENDBRANCH   1   6
TORSDOF 2
ENDMDL
MODEL 7
REMARK VINA RESULT:      -4.4      2.269      3.155
REMARK  2 active torsions:
REMARK  status: ('A' for Active; 'I' for Inactive)
REMARK    1  A    between atoms: C1_1  and  C4_4 
REMARK    2  A    between atoms: C1_1  and  C5_5 
ROOT
HETATM    1  C1  UNL     1     -34.459   5.117   4.535  1.00 20.00     0.144 C 
HETATM    2  O6  UNL     1     -34.426   3.913   4.283  1.00 20.00    -0.296 OA
ENDROOT
BRANCH   1   3
HETATM    3  C4  UNL     1     -34.349   6.108   3.460  1.00 20.00     0.056 A 
HETATM    4  C2  UNL     1     -32.987   6.576   3.023  1.00 20.00     0.013 A 
HETATM    5  C3  UNL     1     -33.796   5.689   2.125  1.00 20.00     0.013 A 
ENDBRANCH   1   3
BRANCH   1   6
HETATM    6  C5  UNL     1     -34.613   5.677   5.931  1.00 20.00     0.193 C 
HETATM    7 CL7  UNL     1     -33.845   7.266   6.056  1.00 20.00    -0.123 Cl
ENDBRANCH   1   6
TORSDOF 2
ENDMDL
MODEL 8
REMARK VINA RESULT:      -4.3      2.160      2.727
REMARK  2 active torsions:
REMARK  status: ('A' for Active; 'I' for Inactive)
REMARK    1  A    between atoms: C1_1  and  C4_4 
REMARK    2  A    between atoms: C1_1  and  C5_5 
ROOT
HETATM    1  C1  UNL     1     -32.095   8.183   2.566  1.00 20.00     0.144 C 
HETATM    2  O6  UNL     1     -31.311   8.288   3.509  1.00 20.00    -0.296 OA
ENDROOT
BRANCH   1   3
HETATM    3  C4  UNL     1     -33.345   7.431   2.715  1.00 20.00     0.056 A 
HETATM    4  C2  UNL     1     -33.293   5.939   2.899  1.00 20.00     0.013 A 
HETATM    5  C3  UNL     1     -33.683   6.820   4.048  1.00 20.00     0.013 A 
ENDBRANCH   1   3
BRANCH   1   6
HETATM    6  C5  UNL     1     -31.856   8.798   1.206  1.00 20.00     0.193 C 
HETATM    7 CL7  UNL     1     -32.663  10.367   1.078  1.00 20.00    -0.123 Cl
ENDBRANCH   1   6
TORSDOF 2
ENDMDL
MODEL 9
REMARK VINA RESULT:      -4.2      2.491      4.360
REMARK  2 active torsions:
REMARK  status: ('A' for Active; 'I' for Inactive)
REMARK    1  A    between atoms: C1_1  and  C4_4 
REMARK    2  A    between atoms: C1_1  and  C5_5 
ROOT
HETATM    1  C1  UNL     1     -32.335   7.933   2.944  1.00 20.00     0.144 C 
HETATM    2  O6  UNL     1     -31.274   8.241   3.484  1.00 20.00    -0.296 OA
ENDROOT
BRANCH   1   3
HETATM    3  C4  UNL     1     -32.652   8.412   1.594  1.00 20.00     0.056 A 
HETATM    4  C2  UNL     1     -32.603   9.888   1.304  1.00 20.00     0.013 A 
HETATM    5  C3  UNL     1     -31.553   8.980   0.737  1.00 20.00     0.013 A 
ENDBRANCH   1   3
BRANCH   1   6
HETATM    6  C5  UNL     1     -33.383   7.058   3.593  1.00 20.00     0.193 C 
HETATM    7 CL7  UNL     1     -33.483   7.385   5.329  1.00 20.00    -0.123 Cl
ENDBRANCH   1   6
TORSDOF 2
ENDMDL
