MODEL 1
REMARK VINA RESULT:      -6.0      0.000      0.000
REMARK  1 active torsions:
REMARK  status: ('A' for Active; 'I' for Inactive)
REMARK    1  A    between atoms: C1_1  and  C2_2 
ROOT
HETATM    1  C2  UNL     1     -33.969   7.050   3.889  1.00 20.00     0.154 A 
HETATM    2  C3  UNL     1     -32.654   7.140   3.135  1.00 20.00     0.073 A 
HETATM    3  C4  UNL     1     -33.602   6.027   2.870  1.00 20.00     0.259 A 
HETATM    4  C5  UNL     1     -32.446   8.208   2.118  1.00 20.00     0.017 C 
HETATM    5  F7  UNL     1     -33.283   4.739   3.243  1.00 20.00    -0.205 F 
HETATM    6  F8  UNL     1     -34.293   5.949   1.682  1.00 20.00    -0.205 F 
ENDROOT
BRANCH   1   7
HETATM    7  C1  UNL     1     -33.950   6.697   5.312  1.00 20.00     0.229 C 
HETATM    8  O6  UNL     1     -33.430   7.427   6.151  1.00 20.00    -0.279 OA
HETATM    9 CL9  UNL     1     -34.729   5.175   5.619  1.00 20.00    -0.043 Cl
ENDBRANCH   1   7
TORSDOF 1
ENDMDL
MODEL 2
REMARK VINA RESULT:      -5.2      3.759      4.289
REMARK  1 active torsions:
REMARK  status: ('A' for Active; 'I' for Inactive)
REMARK    1  A    between atoms: C1_1  and  C2_2 
ROOT
HETATM    1  C2  UNL     1     -32.858   8.258   2.426  1.00 20.00     0.154 A 
HETATM    2  C3  UNL     1     -32.538   6.785   2.609  1.00 20.00     0.073 A 
HETATM    3  C4  UNL     1     -32.093   7.785   3.613  1.00 20.00     0.259 A 
HETATM    4  C5  UNL     1     -33.624   5.820   2.939  1.00 20.00     0.017 C 
HETATM    5  F7  UNL     1     -30.754   8.077   3.757  1.00 20.00    -0.205 F 
HETATM    6  F8  UNL     1     -32.658   7.831   4.869  1.00 20.00    -0.205 F 
ENDROOT
BRANCH   1   7
HETATM    7  C1  UNL     1     -32.169   9.009   1.372  1.00 20.00     0.229 C 
HETATM    8  O6  UNL     1     -31.265   8.508   0.708  1.00 20.00    -0.279 OA
HETATM    9 CL9  UNL     1     -32.786  10.625   1.209  1.00 20.00    -0.043 Cl
ENDBRANCH   1   7
TORSDOF 1
ENDMDL
MODEL 3
REMARK VINA RESULT:      -5.1      2.759      3.489
REMARK  1 active torsions:
REMARK  status: ('A' for Active; 'I' for Inactive)
REMARK    1  A    between atoms: C1_1  and  C2_2 
ROOT
HETATM    1  C2  UNL     1     -33.435   6.175   4.020  1.00 20.00     0.154 A 
HETATM    2  C3  UNL     1     -34.154   7.146   4.941  1.00 20.00     0.073 A 
HETATM    3  C4  UNL     1     -34.752   5.825   4.622  1.00 20.00     0.259 A 
HETATM    4  C5  UNL     1     -33.618   7.419   6.303  1.00 20.00     0.017 C 
HETATM    5  F7  UNL     1     -35.887   5.745   3.845  1.00 20.00    -0.205 F 
HETATM    6  F8  UNL     1     -34.840   4.835   5.576  1.00 20.00    -0.205 F 
ENDROOT
BRANCH   1   7
HETATM    7  C1  UNL     1     -33.351   6.483   2.589  1.00 20.00     0.229 C 
HETATM    8  O6  UNL     1     -33.983   5.843   1.753  1.00 20.00    -0.279 OA
HETATM    9 CL9  UNL     1     -32.285   7.816   2.268  1.00 20.00    -0.043 Cl
ENDBRANCH   1   7
TORSDOF 1
ENDMDL
MODEL 4
REMARK VINA RESULT:      -5.0      2.858      3.359
REMARK  1 active torsions:
REMARK  status: ('A' for Active; 'I' for Inactive)
REMARK    1  A    between atoms: C1_1  and  C2_2 
ROOT
HETATM    1  C2  UNL     1     -33.183   7.239   2.582  1.00 20.00     0.154 A 
HETATM    2  C3  UNL     1     -32.900   5.906   3.252  1.00 20.00     0.073 A 
HETATM    3  C4  UNL     1     -33.938   6.819   3.795  1.00 20.00     0.259 A 
HETATM    4  C5  UNL     1     -33.293   4.635   2.582  1.00 20.00     0.017 C 
HETATM    5  F7  UNL     1     -33.745   7.450   5.004  1.00 20.00    -0.205 F 
HETATM    6  F8  UNL     1     -35.277   6.506   3.707  1.00 20.00    -0.205 F 
ENDROOT
BRANCH   1   7
HETATM    7  C1  UNL     1     -32.187   8.311   2.683  1.00 20.00     0.229 C 
HETATM    8  O6  UNL     1     -31.417   8.388   3.637  1.00 20.00    -0.279 OA
HETATM    9 CL9  UNL     1     -32.251   9.395   1.328  1.00 20.00    -0.043 Cl
ENDBRANCH   1   7
TORSDOF 1
ENDMDL
MODEL 5
REMARK VINA RESULT:      -4.8      2.694      2.971
REMARK  1 active torsions:
REMARK  status: ('A' for Active; 'I' for Inactive)
REMARK    1  A    between atoms: C1_1  and  C2_2 
ROOT
HETATM    1  C2  UNL     1     -32.426   6.765   2.610  1.00 20.00     0.154 A 
HETATM    2  C3  UNL     1     -32.980   8.174   2.489  1.00 20.00     0.073 A 
HETATM    3  C4  UNL     1     -32.128   7.794   3.646  1.00 20.00     0.259 A 
HETATM    4  C5  UNL     1     -32.458   9.094   1.441  1.00 20.00     0.017 C 
HETATM    5  F7  UNL     1     -32.670   7.706   4.909  1.00 20.00    -0.205 F 
HETATM    6  F8  UNL     1     -30.852   8.293   3.783  1.00 20.00    -0.205 F 
ENDROOT
BRANCH   1   7
HETATM    7  C1  UNL     1     -33.344   5.666   2.924  1.00 20.00     0.229 C 
HETATM    8  O6  UNL     1     -33.051   4.495   2.696  1.00 20.00    -0.279 OA
HETATM    9 CL9  UNL     1     -34.827   6.232   3.629  1.00 20.00    -0.043 Cl
ENDBRANCH   1   7
TORSDOF 1
ENDMDL
MODEL 6
REMARK VINA RESULT:      -4.8      2.365      3.226
REMARK  1 active torsions:
REMARK  status: ('A' for Active; 'I' for Inactive)
REMARK    1  A    between atoms: C1_1  and  C2_2 
ROOT
HETATM    1  C2  UNL     1     -32.870   6.510   3.691  1.00 20.00     0.154 A 
HETATM    2  C3  UNL     1     -34.258   6.496   4.308  1.00 20.00     0.073 A 
HETATM    3  C4  UNL     1     -33.945   5.639   3.136  1.00 20.00     0.259 A 
HETATM    4  C5  UNL     1     -34.473   5.886   5.650  1.00 20.00     0.017 C 
HETATM    5  F7  UNL     1     -34.510   5.907   1.908  1.00 20.00    -0.205 F 
HETATM    6  F8  UNL     1     -33.863   4.270   3.258  1.00 20.00    -0.205 F 
ENDROOT
BRANCH   1   7
HETATM    7  C1  UNL     1     -32.437   7.694   2.942  1.00 20.00     0.229 C 
HETATM    8  O6  UNL     1     -32.842   7.922   1.806  1.00 20.00    -0.279 OA
HETATM    9 CL9  UNL     1     -31.328   8.673   3.851  1.00 20.00    -0.043 Cl
ENDBRANCH   1   7
TORSDOF 1
ENDMDL
MODEL 7
REMARK VINA RESULT:      -4.8      2.791      3.652
REMARK  1 active torsions:
REMARK  status: ('A' for Active; 'I' for Inactive)
REMARK    1  A    between atoms: C1_1  and  C2_2 
ROOT
HETATM    1  C2  UNL     1     -34.131   6.613   4.060  1.00 20.00     0.154 A 
HETATM    2  C3  UNL     1     -33.728   5.756   5.247  1.00 20.00     0.073 A 
HETATM    3  C4  UNL     1     -33.597   7.235   5.304  1.00 20.00     0.259 A 
HETATM    4  C5  UNL     1     -34.770   5.063   6.055  1.00 20.00     0.017 C 
HETATM    5  F7  UNL     1     -32.351   7.822   5.324  1.00 20.00    -0.205 F 
HETATM    6  F8  UNL     1     -34.418   7.991   6.111  1.00 20.00    -0.205 F 
ENDROOT
BRANCH   1   7
HETATM    7  C1  UNL     1     -33.302   6.585   2.850  1.00 20.00     0.229 C 
HETATM    8  O6  UNL     1     -32.926   7.617   2.302  1.00 20.00    -0.279 OA
HETATM    9 CL9  UNL     1     -32.950   4.964   2.335  1.00 20.00    -0.043 Cl
ENDBRANCH   1   7
TORSDOF 1
ENDMDL
MODEL 8
REMARK VINA RESULT:      -4.8      2.351      2.637
REMARK  1 active torsions:
REMARK  status: ('A' for Active; 'I' for Inactive)
REMARK    1  A    between atoms: C1_1  and  C2_2 
ROOT
HETATM    1  C2  UNL     1     -33.779   6.818   3.791  1.00 20.00     0.154 A 
HETATM    2  C3  UNL     1     -33.497   5.335   3.630  1.00 20.00     0.073 A 
HETATM    3  C4  UNL     1     -34.730   5.799   4.318  1.00 20.00     0.259 A 
HETATM    4  C5  UNL     1     -33.581   4.700   2.285  1.00 20.00     0.017 C 
HETATM    5  F7  UNL     1     -34.884   5.607   5.673  1.00 20.00    -0.205 F 
HETATM    6  F8  UNL     1     -35.969   5.640   3.739  1.00 20.00    -0.205 F 
ENDROOT
BRANCH   1   7
HETATM    7  C1  UNL     1     -32.962   7.599   4.726  1.00 20.00     0.229 C 
HETATM    8  O6  UNL     1     -33.260   7.702   5.913  1.00 20.00    -0.279 OA
HETATM    9 CL9  UNL     1     -31.584   8.317   3.949  1.00 20.00    -0.043 Cl
ENDBRANCH   1   7
TORSDOF 1
ENDMDL
MODEL 9
REMARK VINA RESULT:      -4.7      2.420      2.973
REMARK  1 active torsions:
REMARK  status: ('A' for Active; 'I' for Inactive)
REMARK    1  A    between atoms: C1_1  and  C2_2 
ROOT
HETATM    1  C2  UNL     1     -34.270   6.039   4.114  1.00 20.00     0.154 A 
HETATM    2  C3  UNL     1     -33.368   6.719   5.129  1.00 20.00     0.073 A 
HETATM    3  C4  UNL     1     -33.325   7.113   3.698  1.00 20.00     0.259 A 
HETATM    4  C5  UNL     1     -33.948   7.640   6.145  1.00 20.00     0.017 C 
HETATM    5  F7  UNL     1     -32.219   6.824   2.930  1.00 20.00    -0.205 F 
HETATM    6  F8  UNL     1     -33.803   8.336   3.282  1.00 20.00    -0.205 F 
ENDROOT
BRANCH   1   7
HETATM    7  C1  UNL     1     -33.997   4.648   3.740  1.00 20.00     0.229 C 
HETATM    8  O6  UNL     1     -34.430   3.706   4.398  1.00 20.00    -0.279 OA
HETATM    9 CL9  UNL     1     -33.023   4.534   2.306  1.00 20.00    -0.043 Cl
ENDBRANCH   1   7
TORSDOF 1
ENDMDL
