MODEL 1
REMARK VINA RESULT:      -6.1      0.000      0.000
REMARK  2 active torsions:
REMARK  status: ('A' for Active; 'I' for Inactive)
REMARK    1  A    between atoms: C3_3  and  C7_7 
REMARK    2  A    between atoms: C8_8  and  C10_10 
ROOT
HETATM    1  C1  UNL     1     -32.536   9.690   0.783  1.00 20.00     0.012 C 
HETATM    2  C2  UNL     1     -32.293   8.796   1.548  1.00 20.00    -0.117 C 
HETATM    3  C10 UNL     1     -31.992   7.708   2.485  1.00 20.00     0.098 C 
ENDROOT
BRANCH   3   4
HETATM    4  C8  UNL     1     -33.169   6.756   2.621  1.00 20.00     0.008 C 
HETATM    5  C6  UNL     1     -32.749   5.313   2.893  1.00 20.00     0.006 C 
HETATM    6  C4  UNL     1     -34.043   4.650   3.346  1.00 20.00     0.001 C 
HETATM    7  C5  UNL     1     -34.872   5.750   4.017  1.00 20.00     0.013 C 
HETATM    8  C7  UNL     1     -34.134   7.067   3.763  1.00 20.00     0.060 C 
BRANCH   8   9
HETATM    9  C3  UNL     1     -33.452   7.450   5.068  1.00 20.00     0.127 C 
HETATM   10  C9  UNL     1     -34.042   6.888   6.332  1.00 20.00     0.091 C 
HETATM   11  O11 UNL     1     -32.463   8.183   5.087  1.00 20.00    -0.298 OA
ENDBRANCH   8   9
ENDBRANCH   3   4
TORSDOF 2
ENDMDL
MODEL 2
REMARK VINA RESULT:      -4.9     11.036     11.916
REMARK  2 active torsions:
REMARK  status: ('A' for Active; 'I' for Inactive)
REMARK    1  A    between atoms: C3_3  and  C7_7 
REMARK    2  A    between atoms: C8_8  and  C10_10 
ROOT
HETATM    1  C1  UNL     1     -35.137  17.076  -1.021  1.00 20.00     0.012 C 
HETATM    2  C2  UNL     1     -35.587  16.697  -2.068  1.00 20.00    -0.117 C 
HETATM    3  C10 UNL     1     -36.143  16.235  -3.345  1.00 20.00     0.098 C 
ENDROOT
BRANCH   3   4
HETATM    4  C8  UNL     1     -35.043  15.963  -4.359  1.00 20.00     0.008 C 
HETATM    5  C6  UNL     1     -33.887  15.145  -3.789  1.00 20.00     0.006 C 
HETATM    6  C4  UNL     1     -33.126  14.699  -5.030  1.00 20.00     0.001 C 
HETATM    7  C5  UNL     1     -34.166  14.592  -6.150  1.00 20.00     0.013 C 
HETATM    8  C7  UNL     1     -35.469  15.167  -5.591  1.00 20.00     0.060 C 
BRANCH   8   9
HETATM    9  C3  UNL     1     -36.379  13.987  -5.285  1.00 20.00     0.127 C 
HETATM   10  C9  UNL     1     -37.855  14.269  -5.217  1.00 20.00     0.091 C 
HETATM   11  O11 UNL     1     -35.928  12.856  -5.104  1.00 20.00    -0.298 OA
ENDBRANCH   8   9
ENDBRANCH   3   4
TORSDOF 2
ENDMDL
MODEL 3
REMARK VINA RESULT:      -4.7     11.050     11.894
REMARK  2 active torsions:
REMARK  status: ('A' for Active; 'I' for Inactive)
REMARK    1  A    between atoms: C3_3  and  C7_7 
REMARK    2  A    between atoms: C8_8  and  C10_10 
ROOT
HETATM    1  C1  UNL     1     -35.007  17.439  -0.695  1.00 20.00     0.012 C 
HETATM    2  C2  UNL     1     -34.639  16.973  -1.739  1.00 20.00    -0.117 C 
HETATM    3  C10 UNL     1     -34.184  16.407  -3.014  1.00 20.00     0.098 C 
ENDROOT
BRANCH   3   4
HETATM    4  C8  UNL     1     -35.091  15.276  -3.471  1.00 20.00     0.008 C 
HETATM    5  C6  UNL     1     -36.336  15.762  -4.208  1.00 20.00     0.006 C 
HETATM    6  C4  UNL     1     -36.871  14.498  -4.867  1.00 20.00     0.001 C 
HETATM    7  C5  UNL     1     -35.652  13.610  -5.135  1.00 20.00     0.013 C 
HETATM    8  C7  UNL     1     -34.462  14.286  -4.449  1.00 20.00     0.060 C 
BRANCH   8   9
HETATM    9  C3  UNL     1     -33.631  14.936  -5.544  1.00 20.00     0.127 C 
HETATM   10  C9  UNL     1     -34.146  14.810  -6.951  1.00 20.00     0.091 C 
HETATM   11  O11 UNL     1     -32.587  15.538  -5.290  1.00 20.00    -0.298 OA
ENDBRANCH   8   9
ENDBRANCH   3   4
TORSDOF 2
ENDMDL
MODEL 4
REMARK VINA RESULT:      -4.7     11.051     12.076
REMARK  2 active torsions:
REMARK  status: ('A' for Active; 'I' for Inactive)
REMARK    1  A    between atoms: C3_3  and  C7_7 
REMARK    2  A    between atoms: C8_8  and  C10_10 
ROOT
HETATM    1  C1  UNL     1     -34.890  14.020  -4.385  1.00 20.00     0.012 C 
HETATM    2  C2  UNL     1     -34.445  15.082  -4.043  1.00 20.00    -0.117 C 
HETATM    3  C10 UNL     1     -33.900  16.381  -3.632  1.00 20.00     0.098 C 
ENDROOT
BRANCH   3   4
HETATM    4  C8  UNL     1     -34.093  16.614  -2.142  1.00 20.00     0.008 C 
HETATM    5  C6  UNL     1     -33.300  17.805  -1.610  1.00 20.00     0.006 C 
HETATM    6  C4  UNL     1     -33.919  18.058  -0.243  1.00 20.00     0.001 C 
HETATM    7  C5  UNL     1     -35.379  17.605  -0.348  1.00 20.00     0.013 C 
HETATM    8  C7  UNL     1     -35.525  16.917  -1.707  1.00 20.00     0.060 C 
BRANCH   8   9
HETATM    9  C3  UNL     1     -36.261  17.887  -2.618  1.00 20.00     0.127 C 
HETATM   10  C9  UNL     1     -37.363  17.317  -3.468  1.00 20.00     0.091 C 
HETATM   11  O11 UNL     1     -35.968  19.083  -2.656  1.00 20.00    -0.298 OA
ENDBRANCH   8   9
ENDBRANCH   3   4
TORSDOF 2
ENDMDL
MODEL 5
REMARK VINA RESULT:      -4.6     11.160     12.641
REMARK  2 active torsions:
REMARK  status: ('A' for Active; 'I' for Inactive)
REMARK    1  A    between atoms: C3_3  and  C7_7 
REMARK    2  A    between atoms: C8_8  and  C10_10 
ROOT
HETATM    1  C1  UNL     1     -34.257  16.978  -1.831  1.00 20.00     0.012 C 
HETATM    2  C2  UNL     1     -34.390  16.173  -2.712  1.00 20.00    -0.117 C 
HETATM    3  C10 UNL     1     -34.552  15.185  -3.785  1.00 20.00     0.098 C 
ENDROOT
BRANCH   3   4
HETATM    4  C8  UNL     1     -34.882  15.857  -5.108  1.00 20.00     0.008 C 
HETATM    5  C6  UNL     1     -33.664  16.043  -6.010  1.00 20.00     0.006 C 
HETATM    6  C4  UNL     1     -34.276  16.373  -7.365  1.00 20.00     0.001 C 
HETATM    7  C5  UNL     1     -35.635  15.665  -7.401  1.00 20.00     0.013 C 
HETATM    8  C7  UNL     1     -35.871  15.105  -5.996  1.00 20.00     0.060 C 
BRANCH   8   9
HETATM    9  C3  UNL     1     -35.626  13.606  -6.070  1.00 20.00     0.127 C 
HETATM   10  C9  UNL     1     -34.983  13.086  -7.327  1.00 20.00     0.091 C 
HETATM   11  O11 UNL     1     -35.936  12.855  -5.145  1.00 20.00    -0.298 OA
ENDBRANCH   8   9
ENDBRANCH   3   4
TORSDOF 2
ENDMDL
MODEL 6
REMARK VINA RESULT:      -4.6     11.374     12.663
REMARK  2 active torsions:
REMARK  status: ('A' for Active; 'I' for Inactive)
REMARK    1  A    between atoms: C3_3  and  C7_7 
REMARK    2  A    between atoms: C8_8  and  C10_10 
ROOT
HETATM    1  C1  UNL     1     -32.684  18.134  -1.160  1.00 20.00     0.012 C 
HETATM    2  C2  UNL     1     -33.475  17.438  -1.736  1.00 20.00    -0.117 C 
HETATM    3  C10 UNL     1     -34.446  16.591  -2.438  1.00 20.00     0.098 C 
ENDROOT
BRANCH   3   4
HETATM    4  C8  UNL     1     -33.784  15.801  -3.555  1.00 20.00     0.008 C 
HETATM    5  C6  UNL     1     -34.680  14.710  -4.136  1.00 20.00     0.006 C 
HETATM    6  C4  UNL     1     -33.975  14.326  -5.429  1.00 20.00     0.001 C 
HETATM    7  C5  UNL     1     -33.245  15.586  -5.905  1.00 20.00     0.013 C 
HETATM    8  C7  UNL     1     -33.376  16.617  -4.781  1.00 20.00     0.060 C 
BRANCH   8   9
HETATM    9  C3  UNL     1     -34.418  17.630  -5.228  1.00 20.00     0.127 C 
HETATM   10  C9  UNL     1     -34.051  19.083  -5.096  1.00 20.00     0.091 C 
HETATM   11  O11 UNL     1     -35.508  17.278  -5.679  1.00 20.00    -0.298 OA
ENDBRANCH   8   9
ENDBRANCH   3   4
TORSDOF 2
ENDMDL
MODEL 7
REMARK VINA RESULT:      -4.4     11.357     12.626
REMARK  2 active torsions:
REMARK  status: ('A' for Active; 'I' for Inactive)
REMARK    1  A    between atoms: C3_3  and  C7_7 
REMARK    2  A    between atoms: C8_8  and  C10_10 
ROOT
HETATM    1  C1  UNL     1     -34.086  16.624  -2.419  1.00 20.00     0.012 C 
HETATM    2  C2  UNL     1     -33.641  16.204  -3.453  1.00 20.00    -0.117 C 
HETATM    3  C10 UNL     1     -33.092  15.695  -4.715  1.00 20.00     0.098 C 
ENDROOT
BRANCH   3   4
HETATM    4  C8  UNL     1     -33.877  14.491  -5.212  1.00 20.00     0.008 C 
HETATM    5  C6  UNL     1     -35.158  14.239  -4.421  1.00 20.00     0.006 C 
HETATM    6  C4  UNL     1     -35.928  13.262  -5.299  1.00 20.00     0.001 C 
HETATM    7  C5  UNL     1     -35.510  13.567  -6.741  1.00 20.00     0.013 C 
HETATM    8  C7  UNL     1     -34.362  14.577  -6.657  1.00 20.00     0.060 C 
BRANCH   8   9
HETATM    9  C3  UNL     1     -34.935  15.932  -7.042  1.00 20.00     0.127 C 
HETATM   10  C9  UNL     1     -34.080  16.806  -7.918  1.00 20.00     0.091 C 
HETATM   11  O11 UNL     1     -36.047  16.294  -6.657  1.00 20.00    -0.298 OA
ENDBRANCH   8   9
ENDBRANCH   3   4
TORSDOF 2
ENDMDL
MODEL 8
REMARK VINA RESULT:      -4.2     11.124     12.518
REMARK  2 active torsions:
REMARK  status: ('A' for Active; 'I' for Inactive)
REMARK    1  A    between atoms: C3_3  and  C7_7 
REMARK    2  A    between atoms: C8_8  and  C10_10 
ROOT
HETATM    1  C1  UNL     1     -34.967  18.753  -6.152  1.00 20.00     0.012 C 
HETATM    2  C2  UNL     1     -34.423  17.718  -6.427  1.00 20.00    -0.117 C 
HETATM    3  C10 UNL     1     -33.753  16.457  -6.762  1.00 20.00     0.098 C 
ENDROOT
BRANCH   3   4
HETATM    4  C8  UNL     1     -34.749  15.313  -6.863  1.00 20.00     0.008 C 
HETATM    5  C6  UNL     1     -34.157  14.051  -7.485  1.00 20.00     0.006 C 
HETATM    6  C4  UNL     1     -35.183  12.977  -7.149  1.00 20.00     0.001 C 
HETATM    7  C5  UNL     1     -35.836  13.411  -5.833  1.00 20.00     0.013 C 
HETATM    8  C7  UNL     1     -35.320  14.821  -5.535  1.00 20.00     0.060 C 
BRANCH   8   9
HETATM    9  C3  UNL     1     -34.288  14.689  -4.425  1.00 20.00     0.127 C 
HETATM   10  C9  UNL     1     -34.323  15.730  -3.340  1.00 20.00     0.091 C 
HETATM   11  O11 UNL     1     -33.465  13.773  -4.416  1.00 20.00    -0.298 OA
ENDBRANCH   8   9
ENDBRANCH   3   4
TORSDOF 2
ENDMDL
MODEL 9
REMARK VINA RESULT:      -4.2     11.232     12.265
REMARK  2 active torsions:
REMARK  status: ('A' for Active; 'I' for Inactive)
REMARK    1  A    between atoms: C3_3  and  C7_7 
REMARK    2  A    between atoms: C8_8  and  C10_10 
ROOT
HETATM    1  C1  UNL     1     -35.314  17.779   1.303  1.00 20.00     0.012 C 
HETATM    2  C2  UNL     1     -35.472  17.836   0.114  1.00 20.00    -0.117 C 
HETATM    3  C10 UNL     1     -35.668  17.911  -1.338  1.00 20.00     0.098 C 
ENDROOT
BRANCH   3   4
HETATM    4  C8  UNL     1     -35.146  16.662  -2.030  1.00 20.00     0.008 C 
HETATM    5  C6  UNL     1     -35.929  16.300  -3.290  1.00 20.00     0.006 C 
HETATM    6  C4  UNL     1     -35.030  15.285  -3.983  1.00 20.00     0.001 C 
HETATM    7  C5  UNL     1     -33.595  15.648  -3.588  1.00 20.00     0.013 C 
HETATM    8  C7  UNL     1     -33.701  16.739  -2.518  1.00 20.00     0.060 C 
BRANCH   8   9
HETATM    9  C3  UNL     1     -33.340  18.054  -3.191  1.00 20.00     0.127 C 
HETATM   10  C9  UNL     1     -33.684  18.187  -4.649  1.00 20.00     0.091 C 
HETATM   11  O11 UNL     1     -32.795  18.967  -2.570  1.00 20.00    -0.298 OA
ENDBRANCH   8   9
ENDBRANCH   3   4
TORSDOF 2
ENDMDL
