MODEL 1
REMARK VINA RESULT:      -5.0      0.000      0.000
REMARK  2 active torsions:
REMARK  status: ('A' for Active; 'I' for Inactive)
REMARK    1  A    between atoms: C2_2  and  C3_3 
REMARK    2  A    between atoms: C3_3  and  C6_6 
ROOT
HETATM    1  C3  UNL     1     -32.323   7.936   2.942  1.00 20.00     0.170 C 
HETATM    2  O7  UNL     1     -31.312   8.336   3.507  1.00 20.00    -0.291 OA
ENDROOT
BRANCH   1   3
HETATM    3  C2  UNL     1     -33.259   6.958   3.576  1.00 20.00     0.047 C 
HETATM    4  C1  UNL     1     -33.804   5.940   2.896  1.00 20.00     0.035 C 
HETATM    5 BR8  UNL     1     -33.673   7.230   5.384  1.00 20.00    -0.048 Br
ENDBRANCH   1   3
BRANCH   1   6
HETATM    6  C6  UNL     1     -32.650   8.446   1.578  1.00 20.00     0.061 A 
HETATM    7  C4  UNL     1     -32.532   9.911   1.317  1.00 20.00     0.013 A 
HETATM    8  C5  UNL     1     -31.539   8.957   0.724  1.00 20.00     0.013 A 
ENDBRANCH   1   6
TORSDOF 2
ENDMDL
MODEL 2
REMARK VINA RESULT:      -4.9      2.455      4.025
REMARK  2 active torsions:
REMARK  status: ('A' for Active; 'I' for Inactive)
REMARK    1  A    between atoms: C2_2  and  C3_3 
REMARK    2  A    between atoms: C3_3  and  C6_6 
ROOT
HETATM    1  C3  UNL     1     -33.084   6.659   3.120  1.00 20.00     0.170 C 
HETATM    2  O7  UNL     1     -32.844   5.576   2.599  1.00 20.00    -0.291 OA
ENDROOT
BRANCH   1   3
HETATM    3  C2  UNL     1     -32.232   7.865   2.885  1.00 20.00     0.047 C 
HETATM    4  C1  UNL     1     -31.334   8.296   3.782  1.00 20.00     0.035 C 
HETATM    5 BR8  UNL     1     -32.491   8.786   1.274  1.00 20.00    -0.048 Br
ENDBRANCH   1   3
BRANCH   1   6
HETATM    6  C6  UNL     1     -34.275   6.796   4.009  1.00 20.00     0.061 A 
HETATM    7  C4  UNL     1     -34.800   5.577   4.690  1.00 20.00     0.013 A 
HETATM    8  C5  UNL     1     -34.086   6.632   5.480  1.00 20.00     0.013 A 
ENDBRANCH   1   6
TORSDOF 2
ENDMDL
MODEL 3
REMARK VINA RESULT:      -4.9      1.882      2.408
REMARK  2 active torsions:
REMARK  status: ('A' for Active; 'I' for Inactive)
REMARK    1  A    between atoms: C2_2  and  C3_3 
REMARK    2  A    between atoms: C3_3  and  C6_6 
ROOT
HETATM    1  C3  UNL     1     -33.351   6.614   3.465  1.00 20.00     0.170 C 
HETATM    2  O7  UNL     1     -33.238   5.706   2.649  1.00 20.00    -0.291 OA
ENDROOT
BRANCH   1   3
HETATM    3  C2  UNL     1     -33.899   6.392   4.837  1.00 20.00     0.047 C 
HETATM    4  C1  UNL     1     -33.796   7.309   5.809  1.00 20.00     0.035 C 
HETATM    5 BR8  UNL     1     -34.728   4.743   5.163  1.00 20.00    -0.048 Br
ENDBRANCH   1   3
BRANCH   1   6
HETATM    6  C6  UNL     1     -32.915   7.992   3.090  1.00 20.00     0.061 A 
HETATM    7  C4  UNL     1     -31.466   8.335   3.193  1.00 20.00     0.013 A 
HETATM    8  C5  UNL     1     -32.109   8.170   1.848  1.00 20.00     0.013 A 
ENDBRANCH   1   6
TORSDOF 2
ENDMDL
MODEL 4
REMARK VINA RESULT:      -4.7      2.536      4.278
REMARK  2 active torsions:
REMARK  status: ('A' for Active; 'I' for Inactive)
REMARK    1  A    between atoms: C2_2  and  C3_3 
REMARK    2  A    between atoms: C3_3  and  C6_6 
ROOT
HETATM    1  C3  UNL     1     -33.712   6.845   4.636  1.00 20.00     0.170 C 
HETATM    2  O7  UNL     1     -33.395   7.488   5.630  1.00 20.00    -0.291 OA
ENDROOT
BRANCH   1   3
HETATM    3  C2  UNL     1     -33.074   7.069   3.303  1.00 20.00     0.047 C 
HETATM    4  C1  UNL     1     -33.472   6.424   2.198  1.00 20.00     0.035 C 
HETATM    5 BR8  UNL     1     -31.652   8.288   3.238  1.00 20.00    -0.048 Br
ENDBRANCH   1   3
BRANCH   1   6
HETATM    6  C6  UNL     1     -34.761   5.789   4.750  1.00 20.00     0.061 A 
HETATM    7  C4  UNL     1     -34.362   4.364   4.561  1.00 20.00     0.013 A 
HETATM    8  C5  UNL     1     -34.721   4.871   5.925  1.00 20.00     0.013 A 
ENDBRANCH   1   6
TORSDOF 2
ENDMDL
MODEL 5
REMARK VINA RESULT:      -4.4      1.649      2.050
REMARK  2 active torsions:
REMARK  status: ('A' for Active; 'I' for Inactive)
REMARK    1  A    between atoms: C2_2  and  C3_3 
REMARK    2  A    between atoms: C3_3  and  C6_6 
ROOT
HETATM    1  C3  UNL     1     -33.383   6.840   3.403  1.00 20.00     0.170 C 
HETATM    2  O7  UNL     1     -34.067   7.621   4.054  1.00 20.00    -0.291 OA
ENDROOT
BRANCH   1   3
HETATM    3  C2  UNL     1     -33.613   5.363   3.428  1.00 20.00     0.047 C 
HETATM    4  C1  UNL     1     -33.102   4.540   2.502  1.00 20.00     0.035 C 
HETATM    5 BR8  UNL     1     -34.684   4.696   4.813  1.00 20.00    -0.048 Br
ENDBRANCH   1   3
BRANCH   1   6
HETATM    6  C6  UNL     1     -32.287   7.371   2.539  1.00 20.00     0.061 A 
HETATM    7  C4  UNL     1     -32.445   8.729   1.941  1.00 20.00     0.013 A 
HETATM    8  C5  UNL     1     -31.464   8.504   3.052  1.00 20.00     0.013 A 
ENDBRANCH   1   6
TORSDOF 2
ENDMDL
MODEL 6
REMARK VINA RESULT:      -4.3      2.076      3.920
REMARK  2 active torsions:
REMARK  status: ('A' for Active; 'I' for Inactive)
REMARK    1  A    between atoms: C2_2  and  C3_3 
REMARK    2  A    between atoms: C3_3  and  C6_6 
ROOT
HETATM    1  C3  UNL     1     -33.296   6.315   3.038  1.00 20.00     0.170 C 
HETATM    2  O7  UNL     1     -32.923   5.221   2.632  1.00 20.00    -0.291 OA
ENDROOT
BRANCH   1   3
HETATM    3  C2  UNL     1     -32.634   7.590   2.622  1.00 20.00     0.047 C 
HETATM    4  C1  UNL     1     -32.904   8.193   1.457  1.00 20.00     0.035 C 
HETATM    5 BR8  UNL     1     -31.368   8.311   3.801  1.00 20.00    -0.048 Br
ENDBRANCH   1   3
BRANCH   1   6
HETATM    6  C6  UNL     1     -34.459   6.394   3.970  1.00 20.00     0.061 A 
HETATM    7  C4  UNL     1     -34.728   5.238   4.875  1.00 20.00     0.013 A 
HETATM    8  C5  UNL     1     -34.193   6.523   5.432  1.00 20.00     0.013 A 
ENDBRANCH   1   6
TORSDOF 2
ENDMDL
MODEL 7
REMARK VINA RESULT:      -4.3      1.973      3.592
REMARK  2 active torsions:
REMARK  status: ('A' for Active; 'I' for Inactive)
REMARK    1  A    between atoms: C2_2  and  C3_3 
REMARK    2  A    between atoms: C3_3  and  C6_6 
ROOT
HETATM    1  C3  UNL     1     -32.325   8.003   2.666  1.00 20.00     0.170 C 
HETATM    2  O7  UNL     1     -31.646   8.083   3.683  1.00 20.00    -0.291 OA
ENDROOT
BRANCH   1   3
HETATM    3  C2  UNL     1     -32.069   8.854   1.464  1.00 20.00     0.047 C 
HETATM    4  C1  UNL     1     -31.267   8.463   0.464  1.00 20.00     0.035 C 
HETATM    5 BR8  UNL     1     -32.904  10.531   1.419  1.00 20.00    -0.048 Br
ENDBRANCH   1   3
BRANCH   1   6
HETATM    6  C6  UNL     1     -33.442   7.014   2.608  1.00 20.00     0.061 A 
HETATM    7  C4  UNL     1     -33.146   5.584   2.914  1.00 20.00     0.013 A 
HETATM    8  C5  UNL     1     -33.930   6.416   3.884  1.00 20.00     0.013 A 
ENDBRANCH   1   6
TORSDOF 2
ENDMDL
MODEL 8
REMARK VINA RESULT:      -4.3      2.804      3.549
REMARK  2 active torsions:
REMARK  status: ('A' for Active; 'I' for Inactive)
REMARK    1  A    between atoms: C2_2  and  C3_3 
REMARK    2  A    between atoms: C3_3  and  C6_6 
ROOT
HETATM    1  C3  UNL     1     -34.999   5.976   3.738  1.00 20.00     0.170 C 
HETATM    2  O7  UNL     1     -36.189   6.176   3.526  1.00 20.00    -0.291 OA
ENDROOT
BRANCH   1   3
HETATM    3  C2  UNL     1     -34.449   5.815   5.118  1.00 20.00     0.047 C 
HETATM    4  C1  UNL     1     -34.496   4.650   5.779  1.00 20.00     0.035 C 
HETATM    5 BR8  UNL     1     -33.701   7.337   5.915  1.00 20.00    -0.048 Br
ENDBRANCH   1   3
BRANCH   1   6
HETATM    6  C6  UNL     1     -34.057   5.874   2.584  1.00 20.00     0.061 A 
HETATM    7  C4  UNL     1     -32.699   6.479   2.715  1.00 20.00     0.013 A 
HETATM    8  C5  UNL     1     -32.864   4.989   2.716  1.00 20.00     0.013 A 
ENDBRANCH   1   6
TORSDOF 2
ENDMDL
MODEL 9
REMARK VINA RESULT:      -3.7     10.346     11.256
REMARK  2 active torsions:
REMARK  status: ('A' for Active; 'I' for Inactive)
REMARK    1  A    between atoms: C2_2  and  C3_3 
REMARK    2  A    between atoms: C3_3  and  C6_6 
ROOT
HETATM    1  C3  UNL     1     -35.362  13.800  -5.321  1.00 20.00     0.170 C 
HETATM    2  O7  UNL     1     -35.906  12.709  -5.201  1.00 20.00    -0.291 OA
ENDROOT
BRANCH   1   3
HETATM    3  C2  UNL     1     -35.478  14.619  -6.566  1.00 20.00     0.047 C 
HETATM    4  C1  UNL     1     -36.446  15.530  -6.739  1.00 20.00     0.035 C 
HETATM    5 BR8  UNL     1     -34.214  14.300  -7.912  1.00 20.00    -0.048 Br
ENDBRANCH   1   3
BRANCH   1   6
HETATM    6  C6  UNL     1     -34.563  14.349  -4.185  1.00 20.00     0.061 A 
HETATM    7  C4  UNL     1     -33.078  14.402  -4.318  1.00 20.00     0.013 A 
HETATM    8  C5  UNL     1     -33.884  15.665  -4.363  1.00 20.00     0.013 A 
ENDBRANCH   1   6
TORSDOF 2
ENDMDL
