MODEL 1
REMARK VINA RESULT:      -3.8      0.000      0.000
REMARK  0 active torsions:
REMARK  status: ('A' for Active; 'I' for Inactive)
ROOT
HETATM    1  C1  UNL     1     -32.762  14.404  -4.163  1.00 20.00     0.015 C 
HETATM    2  C2  UNL     1     -33.810  14.524  -4.735  1.00 20.00    -0.073 C 
HETATM    3  C3  UNL     1     -35.924  13.388  -5.294  1.00 20.00     0.225 C 
HETATM    4  C4  UNL     1     -34.829  13.334  -7.303  1.00 20.00     0.442 C 
HETATM    5  C5  UNL     1     -35.103  14.674  -5.440  1.00 20.00     0.240 C 
HETATM    6  C6  UNL     1     -35.862  15.876  -4.878  1.00 20.00     0.066 C 
HETATM    7  C7  UNL     1     -33.986  15.613  -7.461  1.00 20.00     0.315 C 
HETATM    8  N8  UNL     1     -34.992  14.726  -6.902  1.00 20.00     0.130 N 
HETATM    9  O9  UNL     1     -35.447  12.496  -6.317  1.00 20.00    -0.359 OA
ENDROOT
TORSDOF 0
ENDMDL
MODEL 2
REMARK VINA RESULT:      -3.7      2.159      2.643
REMARK  0 active torsions:
REMARK  status: ('A' for Active; 'I' for Inactive)
ROOT
HETATM    1  C1  UNL     1     -34.805  16.654  -1.851  1.00 20.00     0.015 C 
HETATM    2  C2  UNL     1     -34.937  16.145  -2.929  1.00 20.00    -0.073 C 
HETATM    3  C3  UNL     1     -34.773  14.022  -4.170  1.00 20.00     0.225 C 
HETATM    4  C4  UNL     1     -32.918  15.135  -4.918  1.00 20.00     0.442 C 
HETATM    5  C5  UNL     1     -35.100  15.517  -4.259  1.00 20.00     0.240 C 
HETATM    6  C6  UNL     1     -36.527  15.738  -4.763  1.00 20.00     0.066 C 
HETATM    7  C7  UNL     1     -33.826  17.348  -5.371  1.00 20.00     0.315 C 
HETATM    8  N8  UNL     1     -34.097  15.926  -5.249  1.00 20.00     0.130 N 
HETATM    9  O9  UNL     1     -33.342  13.923  -4.278  1.00 20.00    -0.359 OA
ENDROOT
TORSDOF 0
ENDMDL
MODEL 3
REMARK VINA RESULT:      -3.6      1.750      2.449
REMARK  0 active torsions:
REMARK  status: ('A' for Active; 'I' for Inactive)
ROOT
HETATM    1  C1  UNL     1     -33.644  16.160  -6.524  1.00 20.00     0.015 C 
HETATM    2  C2  UNL     1     -34.220  15.740  -5.558  1.00 20.00    -0.073 C 
HETATM    3  C3  UNL     1     -34.598  13.739  -4.170  1.00 20.00     0.225 C 
HETATM    4  C4  UNL     1     -36.588  13.903  -5.290  1.00 20.00     0.442 C 
HETATM    5  C5  UNL     1     -34.929  15.223  -4.367  1.00 20.00     0.240 C 
HETATM    6  C6  UNL     1     -34.537  16.041  -3.136  1.00 20.00     0.066 C 
HETATM    7  C7  UNL     1     -37.070  16.281  -5.080  1.00 20.00     0.315 C 
HETATM    8  N8  UNL     1     -36.386  15.127  -4.523  1.00 20.00     0.130 N 
HETATM    9  O9  UNL     1     -35.489  13.017  -5.038  1.00 20.00    -0.359 OA
ENDROOT
TORSDOF 0
ENDMDL
MODEL 4
REMARK VINA RESULT:      -3.6      1.443      2.812
REMARK  0 active torsions:
REMARK  status: ('A' for Active; 'I' for Inactive)
ROOT
HETATM    1  C1  UNL     1     -36.579  16.552  -6.572  1.00 20.00     0.015 C 
HETATM    2  C2  UNL     1     -35.806  15.635  -6.603  1.00 20.00    -0.073 C 
HETATM    3  C3  UNL     1     -35.619  13.178  -6.563  1.00 20.00     0.225 C 
HETATM    4  C4  UNL     1     -34.889  13.727  -4.465  1.00 20.00     0.442 C 
HETATM    5  C5  UNL     1     -34.853  14.503  -6.642  1.00 20.00     0.240 C 
HETATM    6  C6  UNL     1     -34.014  14.578  -7.918  1.00 20.00     0.066 C 
HETATM    7  C7  UNL     1     -33.380  15.578  -4.942  1.00 20.00     0.315 C 
HETATM    8  N8  UNL     1     -34.019  14.373  -5.441  1.00 20.00     0.130 N 
HETATM    9  O9  UNL     1     -35.866  12.946  -5.166  1.00 20.00    -0.359 OA
ENDROOT
TORSDOF 0
ENDMDL
MODEL 5
REMARK VINA RESULT:      -3.6      1.990      3.057
REMARK  0 active torsions:
REMARK  status: ('A' for Active; 'I' for Inactive)
ROOT
HETATM    1  C1  UNL     1     -35.148  16.269  -2.597  1.00 20.00     0.015 C 
HETATM    2  C2  UNL     1     -34.593  15.756  -3.529  1.00 20.00    -0.073 C 
HETATM    3  C3  UNL     1     -33.300  16.202  -5.579  1.00 20.00     0.225 C 
HETATM    4  C4  UNL     1     -35.329  15.589  -6.441  1.00 20.00     0.442 C 
HETATM    5  C5  UNL     1     -33.909  15.122  -4.678  1.00 20.00     0.240 C 
HETATM    6  C6  UNL     1     -32.835  14.159  -4.173  1.00 20.00     0.066 C 
HETATM    7  C7  UNL     1     -35.849  13.618  -5.109  1.00 20.00     0.315 C 
HETATM    8  N8  UNL     1     -34.812  14.483  -5.643  1.00 20.00     0.130 N 
HETATM    9  O9  UNL     1     -34.365  16.650  -6.435  1.00 20.00    -0.359 OA
ENDROOT
TORSDOF 0
ENDMDL
MODEL 6
REMARK VINA RESULT:      -3.5     10.826     12.292
REMARK  0 active torsions:
REMARK  status: ('A' for Active; 'I' for Inactive)
ROOT
HETATM    1  C1  UNL     1     -43.355   4.852  -1.678  1.00 20.00     0.015 C 
HETATM    2  C2  UNL     1     -43.080   5.716  -0.893  1.00 20.00    -0.073 C 
HETATM    3  C3  UNL     1     -43.414   8.095  -0.340  1.00 20.00     0.225 C 
HETATM    4  C4  UNL     1     -41.258   8.101  -1.108  1.00 20.00     0.442 C 
HETATM    5  C5  UNL     1     -42.741   6.782   0.077  1.00 20.00     0.240 C 
HETATM    6  C6  UNL     1     -43.179   6.362   1.480  1.00 20.00     0.066 C 
HETATM    7  C7  UNL     1     -40.327   6.164   0.037  1.00 20.00     0.315 C 
HETATM    8  N8  UNL     1     -41.337   7.208   0.042  1.00 20.00     0.130 N 
HETATM    9  O9  UNL     1     -42.549   8.688  -1.323  1.00 20.00    -0.359 OA
ENDROOT
TORSDOF 0
ENDMDL
MODEL 7
REMARK VINA RESULT:      -3.5      1.353      1.422
REMARK  0 active torsions:
REMARK  status: ('A' for Active; 'I' for Inactive)
ROOT
HETATM    1  C1  UNL     1     -34.778  15.886  -3.069  1.00 20.00     0.015 C 
HETATM    2  C2  UNL     1     -35.299  15.603  -4.112  1.00 20.00    -0.073 C 
HETATM    3  C3  UNL     1     -36.593  13.870  -5.294  1.00 20.00     0.225 C 
HETATM    4  C4  UNL     1     -34.529  13.636  -6.255  1.00 20.00     0.442 C 
HETATM    5  C5  UNL     1     -35.941  15.253  -5.399  1.00 20.00     0.240 C 
HETATM    6  C6  UNL     1     -36.972  16.320  -5.768  1.00 20.00     0.066 C 
HETATM    7  C7  UNL     1     -33.927  15.955  -6.689  1.00 20.00     0.315 C 
HETATM    8  N8  UNL     1     -35.000  14.995  -6.495  1.00 20.00     0.130 N 
HETATM    9  O9  UNL     1     -35.543  12.918  -5.538  1.00 20.00    -0.359 OA
ENDROOT
TORSDOF 0
ENDMDL
MODEL 8
REMARK VINA RESULT:      -3.5      1.979      2.824
REMARK  0 active torsions:
REMARK  status: ('A' for Active; 'I' for Inactive)
ROOT
HETATM    1  C1  UNL     1     -35.486  16.423  -2.620  1.00 20.00     0.015 C 
HETATM    2  C2  UNL     1     -35.191  15.755  -3.572  1.00 20.00    -0.073 C 
HETATM    3  C3  UNL     1     -33.355  14.517  -4.654  1.00 20.00     0.225 C 
HETATM    4  C4  UNL     1     -33.513  16.366  -5.994  1.00 20.00     0.442 C 
HETATM    5  C5  UNL     1     -34.828  14.931  -4.747  1.00 20.00     0.240 C 
HETATM    6  C6  UNL     1     -35.739  13.705  -4.819  1.00 20.00     0.066 C 
HETATM    7  C7  UNL     1     -35.922  16.533  -6.312  1.00 20.00     0.315 C 
HETATM    8  N8  UNL     1     -34.793  15.668  -6.016  1.00 20.00     0.130 N 
HETATM    9  O9  UNL     1     -32.599  15.625  -5.174  1.00 20.00    -0.359 OA
ENDROOT
TORSDOF 0
ENDMDL
MODEL 9
REMARK VINA RESULT:      -3.3      1.319      2.484
REMARK  0 active torsions:
REMARK  status: ('A' for Active; 'I' for Inactive)
ROOT
HETATM    1  C1  UNL     1     -36.645  16.893  -4.601  1.00 20.00     0.015 C 
HETATM    2  C2  UNL     1     -36.177  15.961  -5.194  1.00 20.00    -0.073 C 
HETATM    3  C3  UNL     1     -35.759  13.534  -5.093  1.00 20.00     0.225 C 
HETATM    4  C4  UNL     1     -33.659  14.376  -4.748  1.00 20.00     0.442 C 
HETATM    5  C5  UNL     1     -35.599  14.811  -5.926  1.00 20.00     0.240 C 
HETATM    6  C6  UNL     1     -36.283  14.669  -7.286  1.00 20.00     0.066 C 
HETATM    7  C7  UNL     1     -33.531  16.091  -6.471  1.00 20.00     0.315 C 
HETATM    8  N8  UNL     1     -34.137  14.842  -6.045  1.00 20.00     0.130 N 
HETATM    9  O9  UNL     1     -34.657  13.524  -4.169  1.00 20.00    -0.359 OA
ENDROOT
TORSDOF 0
ENDMDL
