MODEL 1
REMARK VINA RESULT:      -5.0      0.000      0.000
REMARK  2 active torsions:
REMARK  status: ('A' for Active; 'I' for Inactive)
REMARK    1  A    between atoms: C5_5  and  C7_7 
REMARK    2  A    between atoms: C5_5  and  O11_11 
ROOT
HETATM    1  C1  UNL     1     -31.433   8.674   2.571  1.00 20.00     0.003 A 
HETATM    2  C2  UNL     1     -31.579   7.536   3.254  1.00 20.00    -0.007 A 
HETATM    3  C3  UNL     1     -32.635   9.002   1.853  1.00 20.00    -0.066 A 
HETATM    4  C4  UNL     1     -32.835  10.104   1.126  1.00 20.00     0.019 C 
HETATM    5  C6  UNL     1     -33.627   7.886   2.064  1.00 20.00     0.061 A 
HETATM    6  C7  UNL     1     -32.952   6.951   3.091  1.00 20.00     0.066 A 
HETATM    7  C8  UNL     1     -32.920   5.500   2.624  1.00 20.00     0.031 C 
ENDROOT
BRANCH   6   8
HETATM    8  C5  UNL     1     -33.618   7.047   4.437  1.00 20.00     0.271 C 
HETATM    9  O10 UNL     1     -33.247   7.794   5.333  1.00 20.00    -0.264 OA
BRANCH   8  10
HETATM   10  O11 UNL     1     -34.674   6.186   4.487  1.00 20.00    -0.326 OA
HETATM   11  C9  UNL     1     -34.689   5.295   5.606  1.00 20.00     0.213 C 
ENDBRANCH   8  10
ENDBRANCH   6   8
TORSDOF 2
ENDMDL
MODEL 2
REMARK VINA RESULT:      -4.6     10.677     11.475
REMARK  2 active torsions:
REMARK  status: ('A' for Active; 'I' for Inactive)
REMARK    1  A    between atoms: C5_5  and  C7_7 
REMARK    2  A    between atoms: C5_5  and  O11_11 
ROOT
HETATM    1  C1  UNL     1     -33.322  15.087  -3.817  1.00 20.00     0.003 A 
HETATM    2  C2  UNL     1     -33.861  14.513  -4.895  1.00 20.00    -0.007 A 
HETATM    3  C3  UNL     1     -34.189  16.106  -3.289  1.00 20.00    -0.066 A 
HETATM    4  C4  UNL     1     -33.970  16.821  -2.182  1.00 20.00     0.019 C 
HETATM    5  C6  UNL     1     -35.384  16.225  -4.200  1.00 20.00     0.061 A 
HETATM    6  C7  UNL     1     -35.212  15.080  -5.223  1.00 20.00     0.066 A 
HETATM    7  C8  UNL     1     -35.310  15.568  -6.664  1.00 20.00     0.031 C 
ENDROOT
BRANCH   6   8
HETATM    8  C5  UNL     1     -36.206  13.976  -4.980  1.00 20.00     0.271 C 
HETATM    9  O10 UNL     1     -36.009  12.803  -5.264  1.00 20.00    -0.264 OA
BRANCH   8  10
HETATM   10  O11 UNL     1     -37.330  14.493  -4.406  1.00 20.00    -0.326 OA
HETATM   11  C9  UNL     1     -38.493  14.509  -5.238  1.00 20.00     0.213 C 
ENDBRANCH   8  10
ENDBRANCH   6   8
TORSDOF 2
ENDMDL
MODEL 3
REMARK VINA RESULT:      -4.6     10.639     11.303
REMARK  2 active torsions:
REMARK  status: ('A' for Active; 'I' for Inactive)
REMARK    1  A    between atoms: C5_5  and  C7_7 
REMARK    2  A    between atoms: C5_5  and  O11_11 
ROOT
HETATM    1  C1  UNL     1     -33.646  16.954  -2.106  1.00 20.00     0.003 A 
HETATM    2  C2  UNL     1     -33.510  16.549  -3.371  1.00 20.00    -0.007 A 
HETATM    3  C3  UNL     1     -35.023  16.903  -1.694  1.00 20.00    -0.066 A 
HETATM    4  C4  UNL     1     -35.484  17.184  -0.472  1.00 20.00     0.019 C 
HETATM    5  C6  UNL     1     -35.853  16.481  -2.880  1.00 20.00     0.061 A 
HETATM    6  C7  UNL     1     -34.822  16.143  -3.979  1.00 20.00     0.066 A 
HETATM    7  C8  UNL     1     -35.109  16.866  -5.290  1.00 20.00     0.031 C 
ENDROOT
BRANCH   6   8
HETATM    8  C5  UNL     1     -34.740  14.659  -4.212  1.00 20.00     0.271 C 
HETATM    9  O10 UNL     1     -33.709  14.006  -4.118  1.00 20.00    -0.264 OA
BRANCH   8  10
HETATM   10  O11 UNL     1     -35.974  14.179  -4.538  1.00 20.00    -0.326 OA
HETATM   11  C9  UNL     1     -36.019  13.324  -5.684  1.00 20.00     0.213 C 
ENDBRANCH   8  10
ENDBRANCH   6   8
TORSDOF 2
ENDMDL
MODEL 4
REMARK VINA RESULT:      -4.3      1.972      4.192
REMARK  2 active torsions:
REMARK  status: ('A' for Active; 'I' for Inactive)
REMARK    1  A    between atoms: C5_5  and  C7_7 
REMARK    2  A    between atoms: C5_5  and  O11_11 
ROOT
HETATM    1  C1  UNL     1     -33.274   5.400   2.898  1.00 20.00     0.003 A 
HETATM    2  C2  UNL     1     -32.298   6.226   2.515  1.00 20.00    -0.007 A 
HETATM    3  C3  UNL     1     -34.240   6.087   3.712  1.00 20.00    -0.066 A 
HETATM    4  C4  UNL     1     -35.366   5.559   4.200  1.00 20.00     0.019 C 
HETATM    5  C6  UNL     1     -33.762   7.501   3.917  1.00 20.00     0.061 A 
HETATM    6  C7  UNL     1     -32.506   7.623   3.025  1.00 20.00     0.066 A 
HETATM    7  C8  UNL     1     -31.298   8.155   3.788  1.00 20.00     0.031 C 
ENDROOT
BRANCH   6   8
HETATM    8  C5  UNL     1     -32.775   8.479   1.817  1.00 20.00     0.271 C 
HETATM    9  O10 UNL     1     -33.412   8.107   0.841  1.00 20.00    -0.264 OA
BRANCH   8  10
HETATM   10  O11 UNL     1     -32.206   9.706   1.992  1.00 20.00    -0.326 OA
HETATM   11  C9  UNL     1     -32.458  10.655   0.951  1.00 20.00     0.213 C 
ENDBRANCH   8  10
ENDBRANCH   6   8
TORSDOF 2
ENDMDL
MODEL 5
REMARK VINA RESULT:      -4.3     11.046     12.155
REMARK  2 active torsions:
REMARK  status: ('A' for Active; 'I' for Inactive)
REMARK    1  A    between atoms: C5_5  and  C7_7 
REMARK    2  A    between atoms: C5_5  and  O11_11 
ROOT
HETATM    1  C1  UNL     1     -35.262  16.810  -1.874  1.00 20.00     0.003 A 
HETATM    2  C2  UNL     1     -35.759  16.067  -2.865  1.00 20.00    -0.007 A 
HETATM    3  C3  UNL     1     -33.859  17.057  -2.070  1.00 20.00    -0.066 A 
HETATM    4  C4  UNL     1     -33.083  17.816  -1.291  1.00 20.00     0.019 C 
HETATM    5  C6  UNL     1     -33.418  16.310  -3.303  1.00 20.00     0.061 A 
HETATM    6  C7  UNL     1     -34.721  15.728  -3.895  1.00 20.00     0.066 A 
HETATM    7  C8  UNL     1     -34.622  14.230  -4.160  1.00 20.00     0.031 C 
ENDROOT
BRANCH   6   8
HETATM    8  C5  UNL     1     -35.119  16.452  -5.153  1.00 20.00     0.271 C 
HETATM    9  O10 UNL     1     -36.278  16.631  -5.503  1.00 20.00    -0.264 OA
BRANCH   8  10
HETATM   10  O11 UNL     1     -34.001  16.863  -5.817  1.00 20.00    -0.326 OA
HETATM   11  C9  UNL     1     -33.897  16.426  -7.176  1.00 20.00     0.213 C 
ENDBRANCH   8  10
ENDBRANCH   6   8
TORSDOF 2
ENDMDL
MODEL 6
REMARK VINA RESULT:      -4.0     11.144     12.227
REMARK  2 active torsions:
REMARK  status: ('A' for Active; 'I' for Inactive)
REMARK    1  A    between atoms: C5_5  and  C7_7 
REMARK    2  A    between atoms: C5_5  and  O11_11 
ROOT
HETATM    1  C1  UNL     1     -33.957  14.537  -4.247  1.00 20.00     0.003 A 
HETATM    2  C2  UNL     1     -33.669  15.622  -3.526  1.00 20.00    -0.007 A 
HETATM    3  C3  UNL     1     -35.370  14.451  -4.506  1.00 20.00    -0.066 A 
HETATM    4  C4  UNL     1     -35.972  13.519  -5.249  1.00 20.00     0.019 C 
HETATM    5  C6  UNL     1     -36.049  15.592  -3.791  1.00 20.00     0.061 A 
HETATM    6  C7  UNL     1     -34.891  16.438  -3.217  1.00 20.00     0.066 A 
HETATM    7  C8  UNL     1     -35.053  16.713  -1.727  1.00 20.00     0.031 C 
ENDROOT
BRANCH   6   8
HETATM    8  C5  UNL     1     -34.738  17.733  -3.969  1.00 20.00     0.271 C 
HETATM    9  O10 UNL     1     -35.650  18.293  -4.562  1.00 20.00    -0.264 OA
BRANCH   8  10
HETATM   10  O11 UNL     1     -33.446  18.163  -3.880  1.00 20.00    -0.326 OA
HETATM   11  C9  UNL     1     -33.103  19.261  -4.729  1.00 20.00     0.213 C 
ENDBRANCH   8  10
ENDBRANCH   6   8
TORSDOF 2
ENDMDL
MODEL 7
REMARK VINA RESULT:      -4.0     10.465     11.613
REMARK  2 active torsions:
REMARK  status: ('A' for Active; 'I' for Inactive)
REMARK    1  A    between atoms: C5_5  and  C7_7 
REMARK    2  A    between atoms: C5_5  and  O11_11 
ROOT
HETATM    1  C1  UNL     1     -33.573  17.629  -3.174  1.00 20.00     0.003 A 
HETATM    2  C2  UNL     1     -33.673  16.323  -2.914  1.00 20.00    -0.007 A 
HETATM    3  C3  UNL     1     -33.585  17.874  -4.592  1.00 20.00    -0.066 A 
HETATM    4  C4  UNL     1     -33.562  19.074  -5.177  1.00 20.00     0.019 C 
HETATM    5  C6  UNL     1     -33.626  16.543  -5.298  1.00 20.00     0.061 A 
HETATM    6  C7  UNL     1     -33.790  15.504  -4.167  1.00 20.00     0.066 A 
HETATM    7  C8  UNL     1     -32.750  14.392  -4.241  1.00 20.00     0.031 C 
ENDROOT
BRANCH   6   8
HETATM    8  C5  UNL     1     -35.176  14.917  -4.162  1.00 20.00     0.271 C 
HETATM    9  O10 UNL     1     -36.178  15.529  -3.818  1.00 20.00    -0.264 OA
BRANCH   8  10
HETATM   10  O11 UNL     1     -35.126  13.624  -4.594  1.00 20.00    -0.326 OA
HETATM   11  C9  UNL     1     -35.977  13.312  -5.701  1.00 20.00     0.213 C 
ENDBRANCH   8  10
ENDBRANCH   6   8
TORSDOF 2
ENDMDL
MODEL 8
REMARK VINA RESULT:      -4.0      1.283      2.164
REMARK  2 active torsions:
REMARK  status: ('A' for Active; 'I' for Inactive)
REMARK    1  A    between atoms: C5_5  and  C7_7 
REMARK    2  A    between atoms: C5_5  and  O11_11 
ROOT
HETATM    1  C1  UNL     1     -33.406   8.753   1.747  1.00 20.00     0.003 A 
HETATM    2  C2  UNL     1     -34.004   8.138   2.770  1.00 20.00    -0.007 A 
HETATM    3  C3  UNL     1     -32.002   8.445   1.711  1.00 20.00    -0.066 A 
HETATM    4  C4  UNL     1     -31.137   8.852   0.778  1.00 20.00     0.019 C 
HETATM    5  C6  UNL     1     -31.677   7.587   2.907  1.00 20.00     0.061 A 
HETATM    6  C7  UNL     1     -33.046   7.296   3.562  1.00 20.00     0.066 A 
HETATM    7  C8  UNL     1     -33.063   7.630   5.050  1.00 20.00     0.031 C 
ENDROOT
BRANCH   6   8
HETATM    8  C5  UNL     1     -33.460   5.865   3.347  1.00 20.00     0.271 C 
HETATM    9  O10 UNL     1     -32.877   5.087   2.605  1.00 20.00    -0.264 OA
BRANCH   8  10
HETATM   10  O11 UNL     1     -34.566   5.592   4.098  1.00 20.00    -0.326 OA
HETATM   11  C9  UNL     1     -34.571   4.315   4.743  1.00 20.00     0.213 C 
ENDBRANCH   8  10
ENDBRANCH   6   8
TORSDOF 2
ENDMDL
MODEL 9
REMARK VINA RESULT:      -3.9      1.445      2.565
REMARK  2 active torsions:
REMARK  status: ('A' for Active; 'I' for Inactive)
REMARK    1  A    between atoms: C5_5  and  C7_7 
REMARK    2  A    between atoms: C5_5  and  O11_11 
ROOT
HETATM    1  C1  UNL     1     -32.646   5.850   2.531  1.00 20.00     0.003 A 
HETATM    2  C2  UNL     1     -33.678   5.211   3.086  1.00 20.00    -0.007 A 
HETATM    3  C3  UNL     1     -32.694   7.257   2.824  1.00 20.00    -0.066 A 
HETATM    4  C4  UNL     1     -31.778   8.161   2.468  1.00 20.00     0.019 C 
HETATM    5  C6  UNL     1     -33.957   7.533   3.600  1.00 20.00     0.061 A 
HETATM    6  C7  UNL     1     -34.566   6.138   3.865  1.00 20.00     0.066 A 
HETATM    7  C8  UNL     1     -36.026   6.049   3.438  1.00 20.00     0.031 C 
ENDROOT
BRANCH   6   8
HETATM    8  C5  UNL     1     -34.424   5.746   5.311  1.00 20.00     0.271 C 
HETATM    9  O10 UNL     1     -34.295   4.593   5.700  1.00 20.00    -0.264 OA
BRANCH   8  10
HETATM   10  O11 UNL     1     -34.462   6.864   6.093  1.00 20.00    -0.326 OA
HETATM   11  C9  UNL     1     -33.217   7.553   6.242  1.00 20.00     0.213 C 
ENDBRANCH   8  10
ENDBRANCH   6   8
TORSDOF 2
ENDMDL
