MODEL 1
REMARK VINA RESULT:      -5.9      0.000      0.000
REMARK  3 active torsions:
REMARK  status: ('A' for Active; 'I' for Inactive)
REMARK    1  A    between atoms: C7_7  and  C8_8 
REMARK    2  A    between atoms: C8_8  and  C9_9 
REMARK    3  A    between atoms: C9_9  and  N10_10 
ROOT
HETATM    1  C1  UNL     1     -32.902   9.446   0.052  1.00 20.00     0.012 C 
HETATM    2  C3  UNL     1     -32.444   9.105   1.108  1.00 20.00    -0.117 C 
HETATM    3  C7  UNL     1     -31.880   8.692   2.401  1.00 20.00     0.096 C 
ENDROOT
BRANCH   3   4
HETATM    4  C8  UNL     1     -32.282   7.262   2.784  1.00 20.00     0.061 C 
BRANCH   4   5
HETATM    5  C9  UNL     1     -33.681   7.138   3.419  1.00 20.00     0.300 C 
HETATM    6  C4  UNL     1     -33.628   7.305   4.881  1.00 20.00    -0.081 C 
HETATM    7  C2  UNL     1     -33.589   7.448   6.073  1.00 20.00     0.014 C 
BRANCH   5   8
HETATM    8  N10 UNL     1     -34.230   5.817   3.101  1.00 20.00     0.095 N 
HETATM    9  C5  UNL     1     -35.003   5.302   4.229  1.00 20.00     0.310 C 
HETATM   10  C6  UNL     1     -33.155   4.891   2.750  1.00 20.00     0.310 C 
ENDBRANCH   5   8
ENDBRANCH   4   5
ENDBRANCH   3   4
TORSDOF 3
ENDMDL
MODEL 2
REMARK VINA RESULT:      -5.3      1.390      4.441
REMARK  3 active torsions:
REMARK  status: ('A' for Active; 'I' for Inactive)
REMARK    1  A    between atoms: C7_7  and  C8_8 
REMARK    2  A    between atoms: C8_8  and  C9_9 
REMARK    3  A    between atoms: C9_9  and  N10_10 
ROOT
HETATM    1  C1  UNL     1     -34.732   4.711   5.745  1.00 20.00     0.012 C 
HETATM    2  C3  UNL     1     -34.401   5.862   5.659  1.00 20.00    -0.117 C 
HETATM    3  C7  UNL     1     -34.000   7.273   5.557  1.00 20.00     0.096 C 
ENDROOT
BRANCH   3   4
HETATM    4  C8  UNL     1     -32.809   7.475   4.612  1.00 20.00     0.061 C 
BRANCH   4   5
HETATM    5  C9  UNL     1     -33.133   7.267   3.120  1.00 20.00     0.300 C 
HETATM    6  C4  UNL     1     -33.094   5.841   2.751  1.00 20.00    -0.081 C 
HETATM    7  C2  UNL     1     -33.069   4.679   2.449  1.00 20.00     0.014 C 
BRANCH   5   8
HETATM    8  N10 UNL     1     -32.154   8.003   2.316  1.00 20.00     0.095 N 
HETATM    9  C5  UNL     1     -31.140   8.607   3.178  1.00 20.00     0.310 C 
HETATM   10  C6  UNL     1     -32.821   9.027   1.514  1.00 20.00     0.310 C 
ENDBRANCH   5   8
ENDBRANCH   4   5
ENDBRANCH   3   4
TORSDOF 3
ENDMDL
MODEL 3
REMARK VINA RESULT:      -5.2      0.994      2.341
REMARK  3 active torsions:
REMARK  status: ('A' for Active; 'I' for Inactive)
REMARK    1  A    between atoms: C7_7  and  C8_8 
REMARK    2  A    between atoms: C8_8  and  C9_9 
REMARK    3  A    between atoms: C9_9  and  N10_10 
ROOT
HETATM    1  C1  UNL     1     -32.514  10.287   0.684  1.00 20.00     0.012 C 
HETATM    2  C3  UNL     1     -32.307   9.365   1.425  1.00 20.00    -0.117 C 
HETATM    3  C7  UNL     1     -32.049   8.236   2.329  1.00 20.00     0.096 C 
ENDROOT
BRANCH   3   4
HETATM    4  C8  UNL     1     -33.307   7.799   3.093  1.00 20.00     0.061 C 
BRANCH   4   5
HETATM    5  C9  UNL     1     -33.165   6.465   3.850  1.00 20.00     0.300 C 
HETATM    6  C4  UNL     1     -33.175   5.316   2.930  1.00 20.00    -0.081 C 
HETATM    7  C2  UNL     1     -33.176   4.377   2.180  1.00 20.00     0.014 C 
BRANCH   5   8
HETATM    8  N10 UNL     1     -34.276   6.339   4.797  1.00 20.00     0.095 N 
HETATM    9  C5  UNL     1     -34.006   7.115   6.006  1.00 20.00     0.310 C 
HETATM   10  C6  UNL     1     -34.504   4.934   5.130  1.00 20.00     0.310 C 
ENDBRANCH   5   8
ENDBRANCH   4   5
ENDBRANCH   3   4
TORSDOF 3
ENDMDL
MODEL 4
REMARK VINA RESULT:      -4.7      1.149      3.965
REMARK  3 active torsions:
REMARK  status: ('A' for Active; 'I' for Inactive)
REMARK    1  A    between atoms: C7_7  and  C8_8 
REMARK    2  A    between atoms: C8_8  and  C9_9 
REMARK    3  A    between atoms: C9_9  and  N10_10 
ROOT
HETATM    1  C1  UNL     1     -34.733   4.897   6.030  1.00 20.00     0.012 C 
HETATM    2  C3  UNL     1     -34.217   5.959   5.811  1.00 20.00    -0.117 C 
HETATM    3  C7  UNL     1     -33.583   7.259   5.550  1.00 20.00     0.096 C 
ENDROOT
BRANCH   3   4
HETATM    4  C8  UNL     1     -33.776   7.722   4.100  1.00 20.00     0.061 C 
BRANCH   4   5
HETATM    5  C9  UNL     1     -32.759   7.137   3.101  1.00 20.00     0.300 C 
HETATM    6  C4  UNL     1     -32.259   8.166   2.173  1.00 20.00    -0.081 C 
HETATM    7  C2  UNL     1     -31.844   9.005   1.420  1.00 20.00     0.014 C 
BRANCH   5   8
HETATM    8  N10 UNL     1     -33.409   6.069   2.336  1.00 20.00     0.095 N 
HETATM    9  C5  UNL     1     -34.861   6.151   2.479  1.00 20.00     0.310 C 
HETATM   10  C6  UNL     1     -32.924   4.762   2.775  1.00 20.00     0.310 C 
ENDBRANCH   5   8
ENDBRANCH   4   5
ENDBRANCH   3   4
TORSDOF 3
ENDMDL
MODEL 5
REMARK VINA RESULT:      -4.3     10.771     11.304
REMARK  3 active torsions:
REMARK  status: ('A' for Active; 'I' for Inactive)
REMARK    1  A    between atoms: C7_7  and  C8_8 
REMARK    2  A    between atoms: C8_8  and  C9_9 
REMARK    3  A    between atoms: C9_9  and  N10_10 
ROOT
HETATM    1  C1  UNL     1     -32.850  18.004  -1.370  1.00 20.00     0.012 C 
HETATM    2  C3  UNL     1     -33.892  17.420  -1.489  1.00 20.00    -0.117 C 
HETATM    3  C7  UNL     1     -35.169  16.705  -1.628  1.00 20.00     0.096 C 
ENDROOT
BRANCH   3   4
HETATM    4  C8  UNL     1     -35.592  16.545  -3.094  1.00 20.00     0.061 C 
BRANCH   4   5
HETATM    5  C9  UNL     1     -35.389  15.129  -3.667  1.00 20.00     0.300 C 
HETATM    6  C4  UNL     1     -34.000  14.918  -4.110  1.00 20.00    -0.081 C 
HETATM    7  C2  UNL     1     -32.866  14.741  -4.466  1.00 20.00     0.014 C 
BRANCH   5   8
HETATM    8  N10 UNL     1     -36.294  14.945  -4.805  1.00 20.00     0.095 N 
HETATM    9  C5  UNL     1     -37.668  15.260  -4.418  1.00 20.00     0.310 C 
HETATM   10  C6  UNL     1     -36.205  13.577  -5.311  1.00 20.00     0.310 C 
ENDBRANCH   5   8
ENDBRANCH   4   5
ENDBRANCH   3   4
TORSDOF 3
ENDMDL
MODEL 6
REMARK VINA RESULT:      -4.2      1.383      4.409
REMARK  3 active torsions:
REMARK  status: ('A' for Active; 'I' for Inactive)
REMARK    1  A    between atoms: C7_7  and  C8_8 
REMARK    2  A    between atoms: C8_8  and  C9_9 
REMARK    3  A    between atoms: C9_9  and  N10_10 
ROOT
HETATM    1  C1  UNL     1     -34.583   4.647   5.639  1.00 20.00     0.012 C 
HETATM    2  C3  UNL     1     -34.762   5.181   4.578  1.00 20.00    -0.117 C 
HETATM    3  C7  UNL     1     -34.986   5.834   3.281  1.00 20.00     0.096 C 
ENDROOT
BRANCH   3   4
HETATM    4  C8  UNL     1     -33.676   6.268   2.611  1.00 20.00     0.061 C 
BRANCH   4   5
HETATM    5  C9  UNL     1     -33.221   7.698   2.962  1.00 20.00     0.300 C 
HETATM    6  C4  UNL     1     -32.585   8.362   1.812  1.00 20.00    -0.081 C 
HETATM    7  C2  UNL     1     -32.071   8.908   0.873  1.00 20.00     0.014 C 
BRANCH   5   8
HETATM    8  N10 UNL     1     -32.267   7.631   4.073  1.00 20.00     0.095 N 
HETATM    9  C5  UNL     1     -32.928   7.971   5.332  1.00 20.00     0.310 C 
HETATM   10  C6  UNL     1     -31.138   8.526   3.829  1.00 20.00     0.310 C 
ENDBRANCH   5   8
ENDBRANCH   4   5
ENDBRANCH   3   4
TORSDOF 3
ENDMDL
MODEL 7
REMARK VINA RESULT:      -4.2     10.879     11.993
REMARK  3 active torsions:
REMARK  status: ('A' for Active; 'I' for Inactive)
REMARK    1  A    between atoms: C7_7  and  C8_8 
REMARK    2  A    between atoms: C8_8  and  C9_9 
REMARK    3  A    between atoms: C9_9  and  N10_10 
ROOT
HETATM    1  C1  UNL     1     -35.246  17.101  -1.201  1.00 20.00     0.012 C 
HETATM    2  C3  UNL     1     -34.591  16.664  -2.108  1.00 20.00    -0.117 C 
HETATM    3  C7  UNL     1     -33.786  16.134  -3.217  1.00 20.00     0.096 C 
ENDROOT
BRANCH   3   4
HETATM    4  C8  UNL     1     -34.535  15.064  -4.024  1.00 20.00     0.061 C 
BRANCH   4   5
HETATM    5  C9  UNL     1     -34.176  15.024  -5.522  1.00 20.00     0.300 C 
HETATM    6  C4  UNL     1     -34.102  16.378  -6.097  1.00 20.00    -0.081 C 
HETATM    7  C2  UNL     1     -34.035  17.481  -6.567  1.00 20.00     0.014 C 
BRANCH   5   8
HETATM    8  N10 UNL     1     -35.198  14.249  -6.232  1.00 20.00     0.095 N 
HETATM    9  C5  UNL     1     -35.952  13.422  -5.293  1.00 20.00     0.310 C 
HETATM   10  C6  UNL     1     -34.580  13.420  -7.265  1.00 20.00     0.310 C 
ENDBRANCH   5   8
ENDBRANCH   4   5
ENDBRANCH   3   4
TORSDOF 3
ENDMDL
MODEL 8
REMARK VINA RESULT:      -4.1      1.404      4.069
REMARK  3 active torsions:
REMARK  status: ('A' for Active; 'I' for Inactive)
REMARK    1  A    between atoms: C7_7  and  C8_8 
REMARK    2  A    between atoms: C8_8  and  C9_9 
REMARK    3  A    between atoms: C9_9  and  N10_10 
ROOT
HETATM    1  C1  UNL     1     -34.396   3.927   4.999  1.00 20.00     0.012 C 
HETATM    2  C3  UNL     1     -34.048   4.358   3.934  1.00 20.00    -0.117 C 
HETATM    3  C7  UNL     1     -33.621   4.880   2.628  1.00 20.00     0.096 C 
ENDROOT
BRANCH   3   4
HETATM    4  C8  UNL     1     -33.686   6.411   2.562  1.00 20.00     0.061 C 
BRANCH   4   5
HETATM    5  C9  UNL     1     -32.707   7.135   3.507  1.00 20.00     0.300 C 
HETATM    6  C4  UNL     1     -33.298   7.346   4.839  1.00 20.00    -0.081 C 
HETATM    7  C2  UNL     1     -33.774   7.514   5.929  1.00 20.00     0.014 C 
BRANCH   5   8
HETATM    8  N10 UNL     1     -32.355   8.431   2.921  1.00 20.00     0.095 N 
HETATM    9  C5  UNL     1     -32.532   8.398   1.470  1.00 20.00     0.310 C 
HETATM   10  C6  UNL     1     -30.979   8.787   3.261  1.00 20.00     0.310 C 
ENDBRANCH   5   8
ENDBRANCH   4   5
ENDBRANCH   3   4
TORSDOF 3
ENDMDL
MODEL 9
REMARK VINA RESULT:      -4.0     11.069     12.073
REMARK  3 active torsions:
REMARK  status: ('A' for Active; 'I' for Inactive)
REMARK    1  A    between atoms: C7_7  and  C8_8 
REMARK    2  A    between atoms: C8_8  and  C9_9 
REMARK    3  A    between atoms: C9_9  and  N10_10 
ROOT
HETATM    1  C1  UNL     1     -32.792  18.140  -1.033  1.00 20.00     0.012 C 
HETATM    2  C3  UNL     1     -33.648  17.449  -1.516  1.00 20.00    -0.117 C 
HETATM    3  C7  UNL     1     -34.698  16.606  -2.102  1.00 20.00     0.096 C 
ENDROOT
BRANCH   3   4
HETATM    4  C8  UNL     1     -34.209  15.836  -3.336  1.00 20.00     0.061 C 
BRANCH   4   5
HETATM    5  C9  UNL     1     -35.172  15.875  -4.538  1.00 20.00     0.300 C 
HETATM    6  C4  UNL     1     -35.620  14.524  -4.917  1.00 20.00    -0.081 C 
HETATM    7  C2  UNL     1     -35.992  13.425  -5.224  1.00 20.00     0.014 C 
BRANCH   5   8
HETATM    8  N10 UNL     1     -34.484  16.495  -5.674  1.00 20.00     0.095 N 
HETATM    9  C5  UNL     1     -35.357  16.518  -6.846  1.00 20.00     0.310 C 
HETATM   10  C6  UNL     1     -33.245  15.779  -5.972  1.00 20.00     0.310 C 
ENDBRANCH   5   8
ENDBRANCH   4   5
ENDBRANCH   3   4
TORSDOF 3
ENDMDL
