MODEL 1
REMARK VINA RESULT:      -4.7      0.000      0.000
REMARK  0 active torsions:
REMARK  status: ('A' for Active; 'I' for Inactive)
ROOT
HETATM    1  C1  UNL     1     -33.965   6.447   4.112  1.00 20.00     0.007 C 
HETATM    2  C2  UNL     1     -32.160   7.851   3.854  1.00 20.00     0.226 C 
HETATM    3  C3  UNL     1     -35.009   5.889   4.733  1.00 20.00     0.038 C 
HETATM    4  C4  UNL     1     -33.529   6.218   2.691  1.00 20.00     0.043 C 
HETATM    5  C5  UNL     1     -32.464   7.321   2.463  1.00 20.00     0.083 C 
HETATM    6  C6  UNL     1     -32.926   4.825   2.508  1.00 20.00     0.017 C 
HETATM    7  C7  UNL     1     -32.992   8.458   1.596  1.00 20.00     0.020 C 
HETATM    8  N8  UNL     1     -33.116   7.331   4.710  1.00 20.00    -0.331 N 
HETATM    9  O9  UNL     1     -31.265   8.633   4.135  1.00 20.00    -0.273 OA
HETATM   10  H20 UNL     1     -33.185   7.580   5.690  1.00 20.00     0.168 HD
ENDROOT
TORSDOF 0
ENDMDL
MODEL 2
REMARK VINA RESULT:      -4.4      2.263      3.581
REMARK  0 active torsions:
REMARK  status: ('A' for Active; 'I' for Inactive)
ROOT
HETATM    1  C1  UNL     1     -32.748   7.214   3.332  1.00 20.00     0.007 C 
HETATM    2  C2  UNL     1     -33.605   5.082   3.468  1.00 20.00     0.226 C 
HETATM    3  C3  UNL     1     -31.976   8.200   2.864  1.00 20.00     0.038 C 
HETATM    4  C4  UNL     1     -33.833   7.326   4.366  1.00 20.00     0.043 C 
HETATM    5  C5  UNL     1     -34.544   5.951   4.288  1.00 20.00     0.083 C 
HETATM    6  C6  UNL     1     -33.254   7.567   5.761  1.00 20.00     0.017 C 
HETATM    7  C7  UNL     1     -35.891   6.041   3.582  1.00 20.00     0.020 C 
HETATM    8  N8  UNL     1     -32.647   5.917   2.919  1.00 20.00    -0.331 N 
HETATM    9  O9  UNL     1     -33.723   3.879   3.293  1.00 20.00    -0.273 OA
HETATM   10  H20 UNL     1     -31.935   5.603   2.270  1.00 20.00     0.168 HD
ENDROOT
TORSDOF 0
ENDMDL
MODEL 3
REMARK VINA RESULT:      -4.4      1.925      3.265
REMARK  0 active torsions:
REMARK  status: ('A' for Active; 'I' for Inactive)
ROOT
HETATM    1  C1  UNL     1     -32.965   7.011   3.426  1.00 20.00     0.007 C 
HETATM    2  C2  UNL     1     -34.270   6.371   5.210  1.00 20.00     0.226 C 
HETATM    3  C3  UNL     1     -32.009   7.690   2.785  1.00 20.00     0.038 C 
HETATM    4  C4  UNL     1     -33.810   5.896   2.875  1.00 20.00     0.043 C 
HETATM    5  C5  UNL     1     -34.518   5.330   4.131  1.00 20.00     0.083 C 
HETATM    6  C6  UNL     1     -34.826   6.415   1.857  1.00 20.00     0.017 C 
HETATM    7  C7  UNL     1     -33.925   3.997   4.572  1.00 20.00     0.020 C 
HETATM    8  N8  UNL     1     -33.321   7.251   4.721  1.00 20.00    -0.331 N 
HETATM    9  O9  UNL     1     -34.783   6.378   6.319  1.00 20.00    -0.273 OA
HETATM   10  H20 UNL     1     -32.923   8.007   5.267  1.00 20.00     0.168 HD
ENDROOT
TORSDOF 0
ENDMDL
MODEL 4
REMARK VINA RESULT:      -4.3      1.812      3.126
REMARK  0 active torsions:
REMARK  status: ('A' for Active; 'I' for Inactive)
ROOT
HETATM    1  C1  UNL     1     -32.681   7.720   4.134  1.00 20.00     0.007 C 
HETATM    2  C2  UNL     1     -34.469   6.304   3.824  1.00 20.00     0.226 C 
HETATM    3  C3  UNL     1     -31.868   8.544   4.802  1.00 20.00     0.038 C 
HETATM    4  C4  UNL     1     -32.507   7.219   2.727  1.00 20.00     0.043 C 
HETATM    5  C5  UNL     1     -33.579   6.108   2.608  1.00 20.00     0.083 C 
HETATM    6  C6  UNL     1     -32.749   8.329   1.704  1.00 20.00     0.017 C 
HETATM    7  C7  UNL     1     -32.967   4.713   2.653  1.00 20.00     0.020 C 
HETATM    8  N8  UNL     1     -33.831   7.205   4.659  1.00 20.00    -0.331 N 
HETATM    9  O9  UNL     1     -35.523   5.724   4.033  1.00 20.00    -0.273 OA
HETATM   10  H20 UNL     1     -34.178   7.462   5.576  1.00 20.00     0.168 HD
ENDROOT
TORSDOF 0
ENDMDL
MODEL 5
REMARK VINA RESULT:      -4.0      1.350      2.519
REMARK  0 active torsions:
REMARK  status: ('A' for Active; 'I' for Inactive)
ROOT
HETATM    1  C1  UNL     1     -33.296   5.454   3.105  1.00 20.00     0.007 C 
HETATM    2  C2  UNL     1     -32.664   7.642   3.434  1.00 20.00     0.226 C 
HETATM    3  C3  UNL     1     -33.198   4.203   2.644  1.00 20.00     0.038 C 
HETATM    4  C4  UNL     1     -34.342   5.996   4.039  1.00 20.00     0.043 C 
HETATM    5  C5  UNL     1     -33.787   7.390   4.426  1.00 20.00     0.083 C 
HETATM    6  C6  UNL     1     -35.701   6.118   3.348  1.00 20.00     0.017 C 
HETATM    7  C7  UNL     1     -33.223   7.409   5.841  1.00 20.00     0.020 C 
HETATM    8  N8  UNL     1     -32.426   6.451   2.771  1.00 20.00    -0.331 N 
HETATM    9  O9  UNL     1     -32.059   8.695   3.301  1.00 20.00    -0.273 OA
HETATM   10  H20 UNL     1     -31.678   6.322   2.100  1.00 20.00     0.168 HD
ENDROOT
TORSDOF 0
ENDMDL
MODEL 6
REMARK VINA RESULT:      -4.0     10.998     11.922
REMARK  0 active torsions:
REMARK  status: ('A' for Active; 'I' for Inactive)
ROOT
HETATM    1  C1  UNL     1     -34.187  14.580  -4.358  1.00 20.00     0.007 C 
HETATM    2  C2  UNL     1     -36.421  14.225  -4.784  1.00 20.00     0.226 C 
HETATM    3  C3  UNL     1     -32.888  14.276  -4.282  1.00 20.00     0.038 C 
HETATM    4  C4  UNL     1     -34.819  15.923  -4.119  1.00 20.00     0.043 C 
HETATM    5  C5  UNL     1     -36.272  15.729  -4.620  1.00 20.00     0.083 C 
HETATM    6  C6  UNL     1     -34.794  16.298  -2.637  1.00 20.00     0.017 C 
HETATM    7  C7  UNL     1     -36.512  16.408  -5.963  1.00 20.00     0.020 C 
HETATM    8  N8  UNL     1     -35.157  13.673  -4.673  1.00 20.00    -0.331 N 
HETATM    9  O9  UNL     1     -37.465  13.638  -5.024  1.00 20.00    -0.273 OA
HETATM   10  H20 UNL     1     -34.962  12.688  -4.811  1.00 20.00     0.168 HD
ENDROOT
TORSDOF 0
ENDMDL
MODEL 7
REMARK VINA RESULT:      -4.0     11.265     12.304
REMARK  0 active torsions:
REMARK  status: ('A' for Active; 'I' for Inactive)
ROOT
HETATM    1  C1  UNL     1     -34.324  15.603  -4.297  1.00 20.00     0.007 C 
HETATM    2  C2  UNL     1     -35.406  13.777  -5.188  1.00 20.00     0.226 C 
HETATM    3  C3  UNL     1     -33.632  16.298  -3.390  1.00 20.00     0.038 C 
HETATM    4  C4  UNL     1     -34.714  16.051  -5.678  1.00 20.00     0.043 C 
HETATM    5  C5  UNL     1     -35.238  14.753  -6.341  1.00 20.00     0.083 C 
HETATM    6  C6  UNL     1     -35.803  17.123  -5.632  1.00 20.00     0.017 C 
HETATM    7  C7  UNL     1     -34.244  14.179  -7.344  1.00 20.00     0.020 C 
HETATM    8  N8  UNL     1     -34.796  14.340  -4.081  1.00 20.00    -0.331 N 
HETATM    9  O9  UNL     1     -35.937  12.679  -5.260  1.00 20.00    -0.273 OA
HETATM   10  H20 UNL     1     -34.703  13.866  -3.190  1.00 20.00     0.168 HD
ENDROOT
TORSDOF 0
ENDMDL
MODEL 8
REMARK VINA RESULT:      -3.9      1.454      1.948
REMARK  0 active torsions:
REMARK  status: ('A' for Active; 'I' for Inactive)
ROOT
HETATM    1  C1  UNL     1     -33.959   6.595   5.062  1.00 20.00     0.007 C 
HETATM    2  C2  UNL     1     -32.817   6.917   3.089  1.00 20.00     0.226 C 
HETATM    3  C3  UNL     1     -34.354   6.864   6.310  1.00 20.00     0.038 C 
HETATM    4  C4  UNL     1     -34.458   5.492   4.171  1.00 20.00     0.043 C 
HETATM    5  C5  UNL     1     -33.856   5.849   2.788  1.00 20.00     0.083 C 
HETATM    6  C6  UNL     1     -33.970   4.124   4.646  1.00 20.00     0.017 C 
HETATM    7  C7  UNL     1     -34.902   6.419   1.837  1.00 20.00     0.020 C 
HETATM    8  N8  UNL     1     -33.004   7.313   4.402  1.00 20.00    -0.331 N 
HETATM    9  O9  UNL     1     -32.011   7.367   2.289  1.00 20.00    -0.273 OA
HETATM   10  H20 UNL     1     -32.485   8.066   4.839  1.00 20.00     0.168 HD
ENDROOT
TORSDOF 0
ENDMDL
MODEL 9
REMARK VINA RESULT:      -3.9     11.324     12.191
REMARK  0 active torsions:
REMARK  status: ('A' for Active; 'I' for Inactive)
ROOT
HETATM    1  C1  UNL     1     -34.325  15.728  -4.965  1.00 20.00     0.007 C 
HETATM    2  C2  UNL     1     -35.597  13.811  -5.028  1.00 20.00     0.226 C 
HETATM    3  C3  UNL     1     -33.294  16.528  -5.253  1.00 20.00     0.038 C 
HETATM    4  C4  UNL     1     -35.558  16.085  -4.181  1.00 20.00     0.043 C 
HETATM    5  C5  UNL     1     -36.494  14.874  -4.417  1.00 20.00     0.083 C 
HETATM    6  C6  UNL     1     -35.245  16.257  -2.695  1.00 20.00     0.017 C 
HETATM    7  C7  UNL     1     -37.621  15.200  -5.390  1.00 20.00     0.020 C 
HETATM    8  N8  UNL     1     -34.400  14.423  -5.357  1.00 20.00    -0.331 N 
HETATM    9  O9  UNL     1     -35.912  12.648  -5.232  1.00 20.00    -0.273 OA
HETATM   10  H20 UNL     1     -33.645  13.953  -5.844  1.00 20.00     0.168 HD
ENDROOT
TORSDOF 0
ENDMDL
