MODEL 1
REMARK VINA RESULT:      -5.0      0.000      0.000
REMARK  2 active torsions:
REMARK  status: ('A' for Active; 'I' for Inactive)
REMARK    1  A    between atoms: C1_1  and  N9_9 
REMARK    2  A    between atoms: C4_4  and  C8_8 
ROOT
HETATM    1  C2  UNL     1     -33.342   6.474   2.193  1.00 20.00     0.031 C 
HETATM    2  C3  UNL     1     -32.571   7.864   3.973  1.00 20.00     0.130 C 
HETATM    3  C4  UNL     1     -32.907   7.914   2.486  1.00 20.00     0.005 C 
HETATM    4  C5  UNL     1     -34.090   6.057   3.466  1.00 20.00     0.083 C 
HETATM    5  C6  UNL     1     -33.939   4.566   3.742  1.00 20.00     0.032 C 
HETATM    6  N9  UNL     1     -33.519   6.905   4.511  1.00 20.00    -0.355 N 
ENDROOT
BRANCH   3   7
HETATM    7  C8  UNL     1     -31.748   8.377   1.623  1.00 20.00     0.002 C 
HETATM    8  C7  UNL     1     -32.142   9.495   0.707  1.00 20.00     0.005 C 
ENDBRANCH   3   7
BRANCH   6   9
HETATM    9  C1  UNL     1     -33.924   6.908   5.827  1.00 20.00     0.351 C 
HETATM   10  O10 UNL     1     -34.753   6.169   6.347  1.00 20.00    -0.284 OA
ENDBRANCH   6   9
TORSDOF 2
ENDMDL
MODEL 2
REMARK VINA RESULT:      -4.9      1.160      2.119
REMARK  2 active torsions:
REMARK  status: ('A' for Active; 'I' for Inactive)
REMARK    1  A    between atoms: C1_1  and  N9_9 
REMARK    2  A    between atoms: C4_4  and  C8_8 
ROOT
HETATM    1  C2  UNL     1     -32.091   8.029   4.006  1.00 20.00     0.031 C 
HETATM    2  C3  UNL     1     -33.600   7.119   2.398  1.00 20.00     0.130 C 
HETATM    3  C4  UNL     1     -32.151   7.571   2.546  1.00 20.00     0.005 C 
HETATM    4  C5  UNL     1     -33.001   7.032   4.735  1.00 20.00     0.083 C 
HETATM    5  C6  UNL     1     -33.692   7.674   5.931  1.00 20.00     0.032 C 
HETATM    6  N9  UNL     1     -33.928   6.572   3.703  1.00 20.00    -0.355 N 
ENDROOT
BRANCH   3   7
HETATM    7  C8  UNL     1     -31.757   8.656   1.560  1.00 20.00     0.002 C 
HETATM    8  C7  UNL     1     -32.829   9.690   1.405  1.00 20.00     0.005 C 
ENDBRANCH   3   7
BRANCH   6   9
HETATM    9  C1  UNL     1     -34.908   5.624   3.894  1.00 20.00     0.351 C 
HETATM   10  O10 UNL     1     -34.788   4.543   4.460  1.00 20.00    -0.284 OA
ENDBRANCH   6   9
TORSDOF 2
ENDMDL
MODEL 3
REMARK VINA RESULT:      -4.3      2.452      4.495
REMARK  2 active torsions:
REMARK  status: ('A' for Active; 'I' for Inactive)
REMARK    1  A    between atoms: C1_1  and  N9_9 
REMARK    2  A    between atoms: C4_4  and  C8_8 
ROOT
HETATM    1  C2  UNL     1     -33.390   7.138   4.663  1.00 20.00     0.031 C 
HETATM    2  C3  UNL     1     -33.616   6.284   2.447  1.00 20.00     0.130 C 
HETATM    3  C4  UNL     1     -34.368   6.368   3.771  1.00 20.00     0.005 C 
HETATM    4  C5  UNL     1     -32.750   8.153   3.707  1.00 20.00     0.083 C 
HETATM    5  C6  UNL     1     -31.312   8.467   4.100  1.00 20.00     0.032 C 
HETATM    6  N9  UNL     1     -32.873   7.531   2.390  1.00 20.00    -0.355 N 
ENDROOT
BRANCH   3   7
HETATM    7  C8  UNL     1     -34.750   5.010   4.332  1.00 20.00     0.002 C 
HETATM    8  C7  UNL     1     -34.577   4.949   5.819  1.00 20.00     0.005 C 
ENDBRANCH   3   7
BRANCH   6   9
HETATM    9  C1  UNL     1     -32.469   8.109   1.208  1.00 20.00     0.351 C 
HETATM   10  O10 UNL     1     -32.513   9.299   0.915  1.00 20.00    -0.284 OA
ENDBRANCH   6   9
TORSDOF 2
ENDMDL
MODEL 4
REMARK VINA RESULT:      -4.3     10.883     11.579
REMARK  2 active torsions:
REMARK  status: ('A' for Active; 'I' for Inactive)
REMARK    1  A    between atoms: C1_1  and  N9_9 
REMARK    2  A    between atoms: C4_4  and  C8_8 
ROOT
HETATM    1  C2  UNL     1     -33.729  16.217  -3.162  1.00 20.00     0.031 C 
HETATM    2  C3  UNL     1     -35.951  15.381  -3.399  1.00 20.00     0.130 C 
HETATM    3  C4  UNL     1     -35.191  16.643  -3.002  1.00 20.00     0.005 C 
HETATM    4  C5  UNL     1     -33.752  15.300  -4.393  1.00 20.00     0.083 C 
HETATM    5  C6  UNL     1     -32.692  14.209  -4.300  1.00 20.00     0.032 C 
HETATM    6  N9  UNL     1     -35.119  14.785  -4.430  1.00 20.00    -0.355 N 
ENDROOT
BRANCH   3   7
HETATM    7  C8  UNL     1     -35.525  17.129  -1.604  1.00 20.00     0.002 C 
HETATM    8  C7  UNL     1     -34.302  17.563  -0.854  1.00 20.00     0.005 C 
ENDBRANCH   3   7
BRANCH   6   9
HETATM    9  C1  UNL     1     -35.616  13.947  -5.403  1.00 20.00     0.351 C 
HETATM   10  O10 UNL     1     -35.948  12.774  -5.268  1.00 20.00    -0.284 OA
ENDBRANCH   6   9
TORSDOF 2
ENDMDL
MODEL 5
REMARK VINA RESULT:      -4.3     11.240     12.263
REMARK  2 active torsions:
REMARK  status: ('A' for Active; 'I' for Inactive)
REMARK    1  A    between atoms: C1_1  and  N9_9 
REMARK    2  A    between atoms: C4_4  and  C8_8 
ROOT
HETATM    1  C2  UNL     1     -33.771  16.807  -5.146  1.00 20.00     0.031 C 
HETATM    2  C3  UNL     1     -34.735  15.058  -3.840  1.00 20.00     0.130 C 
HETATM    3  C4  UNL     1     -34.415  16.549  -3.781  1.00 20.00     0.005 C 
HETATM    4  C5  UNL     1     -34.563  15.899  -6.097  1.00 20.00     0.083 C 
HETATM    5  C6  UNL     1     -33.698  15.400  -7.248  1.00 20.00     0.032 C 
HETATM    6  N9  UNL     1     -35.063  14.829  -5.237  1.00 20.00    -0.355 N 
ENDROOT
BRANCH   3   7
HETATM    7  C8  UNL     1     -33.520  16.925  -2.615  1.00 20.00     0.002 C 
HETATM    8  C7  UNL     1     -34.304  17.172  -1.363  1.00 20.00     0.005 C 
ENDBRANCH   3   7
BRANCH   6   9
HETATM    9  C1  UNL     1     -35.872  13.797  -5.657  1.00 20.00     0.351 C 
HETATM   10  O10 UNL     1     -35.885  12.648  -5.229  1.00 20.00    -0.284 OA
ENDBRANCH   6   9
TORSDOF 2
ENDMDL
MODEL 6
REMARK VINA RESULT:      -4.3     11.256     11.867
REMARK  2 active torsions:
REMARK  status: ('A' for Active; 'I' for Inactive)
REMARK    1  A    between atoms: C1_1  and  N9_9 
REMARK    2  A    between atoms: C4_4  and  C8_8 
ROOT
HETATM    1  C2  UNL     1     -36.112  16.643  -3.117  1.00 20.00     0.031 C 
HETATM    2  C3  UNL     1     -34.216  15.406  -3.870  1.00 20.00     0.130 C 
HETATM    3  C4  UNL     1     -34.765  16.101  -2.629  1.00 20.00     0.005 C 
HETATM    4  C5  UNL     1     -36.619  15.549  -4.067  1.00 20.00     0.083 C 
HETATM    5  C6  UNL     1     -37.459  16.132  -5.196  1.00 20.00     0.032 C 
HETATM    6  N9  UNL     1     -35.402  14.884  -4.529  1.00 20.00    -0.355 N 
ENDROOT
BRANCH   3   7
HETATM    7  C8  UNL     1     -33.845  17.180  -2.089  1.00 20.00     0.002 C 
HETATM    8  C7  UNL     1     -34.289  17.677  -0.748  1.00 20.00     0.005 C 
ENDBRANCH   3   7
BRANCH   6   9
HETATM    9  C1  UNL     1     -35.373  13.798  -5.374  1.00 20.00     0.351 C 
HETATM   10  O10 UNL     1     -35.970  12.737  -5.233  1.00 20.00    -0.284 OA
ENDBRANCH   6   9
TORSDOF 2
ENDMDL
MODEL 7
REMARK VINA RESULT:      -4.3     11.422     12.003
REMARK  2 active torsions:
REMARK  status: ('A' for Active; 'I' for Inactive)
REMARK    1  A    between atoms: C1_1  and  N9_9 
REMARK    2  A    between atoms: C4_4  and  C8_8 
ROOT
HETATM    1  C2  UNL     1     -35.927  15.376  -3.872  1.00 20.00     0.031 C 
HETATM    2  C3  UNL     1     -33.961  15.021  -5.177  1.00 20.00     0.130 C 
HETATM    3  C4  UNL     1     -34.406  15.258  -3.737  1.00 20.00     0.005 C 
HETATM    4  C5  UNL     1     -36.273  14.356  -4.965  1.00 20.00     0.083 C 
HETATM    5  C6  UNL     1     -37.480  14.798  -5.783  1.00 20.00     0.032 C 
HETATM    6  N9  UNL     1     -35.046  14.244  -5.751  1.00 20.00    -0.355 N 
ENDROOT
BRANCH   3   7
HETATM    7  C8  UNL     1     -33.763  16.479  -3.103  1.00 20.00     0.002 C 
HETATM    8  C7  UNL     1     -34.445  16.874  -1.830  1.00 20.00     0.005 C 
ENDBRANCH   3   7
BRANCH   6   9
HETATM    9  C1  UNL     1     -34.875  13.397  -6.824  1.00 20.00     0.351 C 
HETATM   10  O10 UNL     1     -35.101  12.193  -6.857  1.00 20.00    -0.284 OA
ENDBRANCH   6   9
TORSDOF 2
ENDMDL
MODEL 8
REMARK VINA RESULT:      -3.9     11.691     12.349
REMARK  2 active torsions:
REMARK  status: ('A' for Active; 'I' for Inactive)
REMARK    1  A    between atoms: C1_1  and  N9_9 
REMARK    2  A    between atoms: C4_4  and  C8_8 
ROOT
HETATM    1  C2  UNL     1     -35.017  16.663  -1.709  1.00 20.00     0.031 C 
HETATM    2  C3  UNL     1     -33.367  17.915  -2.893  1.00 20.00     0.130 C 
HETATM    3  C4  UNL     1     -33.674  17.370  -1.502  1.00 20.00     0.005 C 
HETATM    4  C5  UNL     1     -34.893  16.056  -3.113  1.00 20.00     0.083 C 
HETATM    5  C6  UNL     1     -36.241  15.996  -3.819  1.00 20.00     0.032 C 
HETATM    6  N9  UNL     1     -33.919  16.912  -3.788  1.00 20.00    -0.355 N 
ENDROOT
BRANCH   3   7
HETATM    7  C8  UNL     1     -33.722  18.447  -0.433  1.00 20.00     0.002 C 
HETATM    8  C7  UNL     1     -34.770  18.165   0.600  1.00 20.00     0.005 C 
ENDBRANCH   3   7
BRANCH   6   9
HETATM    9  C1  UNL     1     -33.459  16.718  -5.071  1.00 20.00     0.351 C 
HETATM   10  O10 UNL     1     -32.884  15.726  -5.506  1.00 20.00    -0.284 OA
ENDBRANCH   6   9
TORSDOF 2
ENDMDL
MODEL 9
REMARK VINA RESULT:      -3.9     11.194     11.990
REMARK  2 active torsions:
REMARK  status: ('A' for Active; 'I' for Inactive)
REMARK    1  A    between atoms: C1_1  and  N9_9 
REMARK    2  A    between atoms: C4_4  and  C8_8 
ROOT
HETATM    1  C2  UNL     1     -34.775  16.150  -3.226  1.00 20.00     0.031 C 
HETATM    2  C3  UNL     1     -35.568  14.641  -4.895  1.00 20.00     0.130 C 
HETATM    3  C4  UNL     1     -34.457  14.793  -3.862  1.00 20.00     0.005 C 
HETATM    4  C5  UNL     1     -36.309  16.181  -3.189  1.00 20.00     0.083 C 
HETATM    5  C6  UNL     1     -36.845  17.599  -3.339  1.00 20.00     0.032 C 
HETATM    6  N9  UNL     1     -36.711  15.287  -4.274  1.00 20.00    -0.355 N 
ENDROOT
BRANCH   3   7
HETATM    7  C8  UNL     1     -33.064  14.724  -4.462  1.00 20.00     0.002 C 
HETATM    8  C7  UNL     1     -32.932  15.594  -5.674  1.00 20.00     0.005 C 
ENDBRANCH   3   7
BRANCH   6   9
HETATM    9  C1  UNL     1     -38.013  14.971  -4.588  1.00 20.00     0.351 C 
HETATM   10  O10 UNL     1     -38.425  13.914  -5.054  1.00 20.00    -0.284 OA
ENDBRANCH   6   9
TORSDOF 2
ENDMDL
