MODEL 1
REMARK VINA RESULT:      -5.2      0.000      0.000
REMARK  0 active torsions:
REMARK  status: ('A' for Active; 'I' for Inactive)
ROOT
HETATM    1  C1  UNL     1     -33.668  17.131  -1.913  1.00 20.00     0.012 C 
HETATM    2  C2  UNL     1     -34.288  16.486  -2.714  1.00 20.00    -0.111 C 
HETATM    3  C3  UNL     1     -35.443  13.870  -5.045  1.00 20.00     0.132 C 
HETATM    4  C4  UNL     1     -35.736  15.088  -5.898  1.00 20.00     0.084 C 
HETATM    5  C5  UNL     1     -33.147  14.469  -4.572  1.00 20.00     0.014 C 
HETATM    6  C6  UNL     1     -33.354  15.744  -5.416  1.00 20.00     0.007 C 
HETATM    7  C7  UNL     1     -35.044  15.697  -3.689  1.00 20.00     0.080 C 
HETATM    8  C8  UNL     1     -34.518  14.273  -3.909  1.00 20.00     0.071 C 
HETATM    9  C9  UNL     1     -34.836  16.107  -5.157  1.00 20.00     0.009 C 
HETATM   10  O10 UNL     1     -35.858  12.741  -5.256  1.00 20.00    -0.298 OA
ENDROOT
TORSDOF 0
ENDMDL
MODEL 2
REMARK VINA RESULT:      -4.7     11.279     12.335
REMARK  0 active torsions:
REMARK  status: ('A' for Active; 'I' for Inactive)
ROOT
HETATM    1  C1  UNL     1     -31.826   8.490   2.301  1.00 20.00     0.012 C 
HETATM    2  C2  UNL     1     -32.266   7.619   3.001  1.00 20.00    -0.111 C 
HETATM    3  C3  UNL     1     -34.111   4.712   4.326  1.00 20.00     0.132 C 
HETATM    4  C4  UNL     1     -34.288   5.654   5.500  1.00 20.00     0.084 C 
HETATM    5  C5  UNL     1     -34.893   6.278   2.655  1.00 20.00     0.014 C 
HETATM    6  C6  UNL     1     -35.097   7.310   3.784  1.00 20.00     0.007 C 
HETATM    7  C7  UNL     1     -32.802   6.555   3.854  1.00 20.00     0.080 C 
HETATM    8  C8  UNL     1     -33.648   5.508   3.118  1.00 20.00     0.071 C 
HETATM    9  C9  UNL     1     -33.955   6.983   4.777  1.00 20.00     0.009 C 
HETATM   10  O10 UNL     1     -34.336   3.512   4.342  1.00 20.00    -0.298 OA
ENDROOT
TORSDOF 0
ENDMDL
MODEL 3
REMARK VINA RESULT:      -4.3      1.869      2.401
REMARK  0 active torsions:
REMARK  status: ('A' for Active; 'I' for Inactive)
ROOT
HETATM    1  C1  UNL     1     -32.450  14.103  -4.201  1.00 20.00     0.012 C 
HETATM    2  C2  UNL     1     -33.613  14.377  -4.325  1.00 20.00    -0.111 C 
HETATM    3  C3  UNL     1     -37.203  14.348  -5.173  1.00 20.00     0.132 C 
HETATM    4  C4  UNL     1     -36.894  15.792  -5.518  1.00 20.00     0.084 C 
HETATM    5  C5  UNL     1     -35.402  13.409  -6.489  1.00 20.00     0.014 C 
HETATM    6  C6  UNL     1     -35.005  14.846  -6.887  1.00 20.00     0.007 C 
HETATM    7  C7  UNL     1     -35.032  14.710  -4.474  1.00 20.00     0.080 C 
HETATM    8  C8  UNL     1     -35.899  13.581  -5.046  1.00 20.00     0.071 C 
HETATM    9  C9  UNL     1     -35.354  15.675  -5.627  1.00 20.00     0.009 C 
HETATM   10  O10 UNL     1     -38.321  13.874  -5.051  1.00 20.00    -0.298 OA
ENDROOT
TORSDOF 0
ENDMDL
MODEL 4
REMARK VINA RESULT:      -4.2     11.122     12.098
REMARK  0 active torsions:
REMARK  status: ('A' for Active; 'I' for Inactive)
ROOT
HETATM    1  C1  UNL     1     -31.755   8.481   2.143  1.00 20.00     0.012 C 
HETATM    2  C2  UNL     1     -32.576   7.893   2.793  1.00 20.00    -0.111 C 
HETATM    3  C3  UNL     1     -34.433   5.361   4.729  1.00 20.00     0.132 C 
HETATM    4  C4  UNL     1     -35.576   5.896   3.889  1.00 20.00     0.084 C 
HETATM    5  C5  UNL     1     -32.951   4.948   2.861  1.00 20.00     0.014 C 
HETATM    6  C6  UNL     1     -34.054   5.487   1.926  1.00 20.00     0.007 C 
HETATM    7  C7  UNL     1     -33.577   7.177   3.587  1.00 20.00     0.080 C 
HETATM    8  C8  UNL     1     -33.118   5.813   4.119  1.00 20.00     0.071 C 
HETATM    9  C9  UNL     1     -34.742   6.581   2.779  1.00 20.00     0.009 C 
HETATM   10  O10 UNL     1     -34.552   4.654   5.717  1.00 20.00    -0.298 OA
ENDROOT
TORSDOF 0
ENDMDL
MODEL 5
REMARK VINA RESULT:      -4.2      1.284      1.852
REMARK  0 active torsions:
REMARK  status: ('A' for Active; 'I' for Inactive)
ROOT
HETATM    1  C1  UNL     1     -35.302  18.576  -4.748  1.00 20.00     0.012 C 
HETATM    2  C2  UNL     1     -35.341  17.445  -5.149  1.00 20.00    -0.111 C 
HETATM    3  C3  UNL     1     -35.368  13.766  -5.419  1.00 20.00     0.132 C 
HETATM    4  C4  UNL     1     -34.451  14.078  -6.585  1.00 20.00     0.084 C 
HETATM    5  C5  UNL     1     -34.140  15.086  -3.804  1.00 20.00     0.014 C 
HETATM    6  C6  UNL     1     -33.158  15.467  -4.931  1.00 20.00     0.007 C 
HETATM    7  C7  UNL     1     -35.391  16.065  -5.638  1.00 20.00     0.080 C 
HETATM    8  C8  UNL     1     -35.486  14.999  -4.539  1.00 20.00     0.071 C 
HETATM    9  C9  UNL     1     -34.061  15.523  -6.187  1.00 20.00     0.009 C 
HETATM   10  O10 UNL     1     -35.899  12.688  -5.205  1.00 20.00    -0.298 OA
ENDROOT
TORSDOF 0
ENDMDL
MODEL 6
REMARK VINA RESULT:      -4.2      1.755      2.576
REMARK  0 active torsions:
REMARK  status: ('A' for Active; 'I' for Inactive)
ROOT
HETATM    1  C1  UNL     1     -34.580  17.175  -1.194  1.00 20.00     0.012 C 
HETATM    2  C2  UNL     1     -34.218  16.668  -2.220  1.00 20.00    -0.111 C 
HETATM    3  C3  UNL     1     -33.707  15.787  -5.766  1.00 20.00     0.132 C 
HETATM    4  C4  UNL     1     -33.831  14.389  -5.195  1.00 20.00     0.084 C 
HETATM    5  C5  UNL     1     -35.746  16.623  -4.766  1.00 20.00     0.014 C 
HETATM    6  C6  UNL     1     -35.951  15.232  -4.132  1.00 20.00     0.007 C 
HETATM    7  C7  UNL     1     -33.775  16.050  -3.472  1.00 20.00     0.080 C 
HETATM    8  C8  UNL     1     -34.219  16.786  -4.742  1.00 20.00     0.071 C 
HETATM    9  C9  UNL     1     -34.507  14.752  -3.850  1.00 20.00     0.009 C 
HETATM   10  O10 UNL     1     -33.293  16.062  -6.881  1.00 20.00    -0.298 OA
ENDROOT
TORSDOF 0
ENDMDL
MODEL 7
REMARK VINA RESULT:      -4.2      2.834      4.304
REMARK  0 active torsions:
REMARK  status: ('A' for Active; 'I' for Inactive)
ROOT
HETATM    1  C1  UNL     1     -34.766  14.029  -4.175  1.00 20.00     0.012 C 
HETATM    2  C2  UNL     1     -34.325  15.126  -3.966  1.00 20.00    -0.111 C 
HETATM    3  C3  UNL     1     -33.184  18.259  -2.385  1.00 20.00     0.132 C 
HETATM    4  C4  UNL     1     -33.913  18.851  -3.575  1.00 20.00     0.084 C 
HETATM    5  C5  UNL     1     -35.025  16.864  -1.661  1.00 20.00     0.014 C 
HETATM    6  C6  UNL     1     -35.842  17.404  -2.853  1.00 20.00     0.007 C 
HETATM    7  C7  UNL     1     -33.786  16.464  -3.709  1.00 20.00     0.080 C 
HETATM    8  C8  UNL     1     -33.598  16.806  -2.226  1.00 20.00     0.071 C 
HETATM    9  C9  UNL     1     -34.773  17.619  -3.951  1.00 20.00     0.009 C 
HETATM   10  O10 UNL     1     -32.415  18.863  -1.655  1.00 20.00    -0.298 OA
ENDROOT
TORSDOF 0
ENDMDL
MODEL 8
REMARK VINA RESULT:      -4.2      1.173      2.535
REMARK  0 active torsions:
REMARK  status: ('A' for Active; 'I' for Inactive)
ROOT
HETATM    1  C1  UNL     1     -34.302  18.571  -5.729  1.00 20.00     0.012 C 
HETATM    2  C2  UNL     1     -34.318  17.381  -5.563  1.00 20.00    -0.111 C 
HETATM    3  C3  UNL     1     -35.321  13.901  -4.862  1.00 20.00     0.132 C 
HETATM    4  C4  UNL     1     -34.012  13.924  -4.098  1.00 20.00     0.084 C 
HETATM    5  C5  UNL     1     -36.221  15.898  -3.832  1.00 20.00     0.014 C 
HETATM    6  C6  UNL     1     -34.916  16.010  -3.016  1.00 20.00     0.007 C 
HETATM    7  C7  UNL     1     -34.338  15.930  -5.362  1.00 20.00     0.080 C 
HETATM    8  C8  UNL     1     -35.736  15.329  -5.173  1.00 20.00     0.071 C 
HETATM    9  C9  UNL     1     -33.841  15.459  -3.985  1.00 20.00     0.009 C 
HETATM   10  O10 UNL     1     -35.955  12.898  -5.150  1.00 20.00    -0.298 OA
ENDROOT
TORSDOF 0
ENDMDL
MODEL 9
REMARK VINA RESULT:      -4.1      2.149      3.536
REMARK  0 active torsions:
REMARK  status: ('A' for Active; 'I' for Inactive)
ROOT
HETATM    1  C1  UNL     1     -34.070  15.366  -7.844  1.00 20.00     0.012 C 
HETATM    2  C2  UNL     1     -34.251  15.756  -6.723  1.00 20.00    -0.111 C 
HETATM    3  C3  UNL     1     -33.973  16.451  -3.111  1.00 20.00     0.132 C 
HETATM    4  C4  UNL     1     -35.459  16.154  -3.177  1.00 20.00     0.084 C 
HETATM    5  C5  UNL     1     -33.287  14.428  -4.248  1.00 20.00     0.014 C 
HETATM    6  C6  UNL     1     -34.777  14.047  -4.372  1.00 20.00     0.007 C 
HETATM    7  C7  UNL     1     -34.471  16.233  -5.356  1.00 20.00     0.080 C 
HETATM    8  C8  UNL     1     -33.314  15.957  -4.387  1.00 20.00     0.071 C 
HETATM    9  C9  UNL     1     -35.482  15.414  -4.537  1.00 20.00     0.009 C 
HETATM   10  O10 UNL     1     -33.397  16.971  -2.169  1.00 20.00    -0.298 OA
ENDROOT
TORSDOF 0
ENDMDL
