MODEL 1
REMARK VINA RESULT:      -5.2      0.000      0.000
REMARK  1 active torsions:
REMARK  status: ('A' for Active; 'I' for Inactive)
REMARK    1  A    between atoms: C1_1  and  C4_4 
ROOT
HETATM    1  C2  UNL     1     -32.682   6.018   2.855  1.00 20.00     0.037 C 
HETATM    2  C3  UNL     1     -33.752   7.376   4.108  1.00 20.00     0.037 C 
HETATM    3  C4  UNL     1     -34.093   5.994   3.495  1.00 20.00     0.058 C 
HETATM    4  C5  UNL     1     -32.676   7.564   3.004  1.00 20.00     0.035 C 
HETATM    5  C7  UNL     1     -33.201   8.297   1.763  1.00 20.00     0.032 C 
HETATM    6 CL9  UNL     1     -31.125   8.291   3.540  1.00 20.00    -0.120 Cl
ENDROOT
BRANCH   3   7
HETATM    7  C1  UNL     1     -34.421   4.856   4.466  1.00 20.00     0.127 C 
HETATM    8  C6  UNL     1     -34.702   5.243   5.893  1.00 20.00     0.091 C 
HETATM    9  O8  UNL     1     -34.456   3.683   4.097  1.00 20.00    -0.298 OA
ENDBRANCH   3   7
TORSDOF 1
ENDMDL
MODEL 2
REMARK VINA RESULT:      -5.1      2.727      4.127
REMARK  1 active torsions:
REMARK  status: ('A' for Active; 'I' for Inactive)
REMARK    1  A    between atoms: C1_1  and  C4_4 
ROOT
HETATM    1  C2  UNL     1     -33.724   7.151   4.515  1.00 20.00     0.037 C 
HETATM    2  C3  UNL     1     -33.379   5.891   2.826  1.00 20.00     0.037 C 
HETATM    3  C4  UNL     1     -33.300   7.423   3.049  1.00 20.00     0.058 C 
HETATM    4  C5  UNL     1     -34.322   5.792   4.056  1.00 20.00     0.035 C 
HETATM    5  C7  UNL     1     -35.808   5.875   3.691  1.00 20.00     0.032 C 
HETATM    6 CL9  UNL     1     -34.031   4.401   5.152  1.00 20.00    -0.120 Cl
ENDROOT
BRANCH   3   7
HETATM    7  C1  UNL     1     -31.948   8.100   2.806  1.00 20.00     0.127 C 
HETATM    8  C6  UNL     1     -31.685   8.606   1.415  1.00 20.00     0.091 C 
HETATM    9  O8  UNL     1     -31.119   8.225   3.706  1.00 20.00    -0.298 OA
ENDBRANCH   3   7
TORSDOF 1
ENDMDL
MODEL 3
REMARK VINA RESULT:      -4.6      1.537      1.978
REMARK  1 active torsions:
REMARK  status: ('A' for Active; 'I' for Inactive)
REMARK    1  A    between atoms: C1_1  and  C4_4 
ROOT
HETATM    1  C2  UNL     1     -33.745   7.987   3.650  1.00 20.00     0.037 C 
HETATM    2  C3  UNL     1     -32.706   6.380   2.703  1.00 20.00     0.037 C 
HETATM    3  C4  UNL     1     -33.511   6.501   4.022  1.00 20.00     0.058 C 
HETATM    4  C5  UNL     1     -32.498   7.918   2.726  1.00 20.00     0.035 C 
HETATM    5  C7  UNL     1     -31.201   8.345   3.423  1.00 20.00     0.032 C 
HETATM    6 CL9  UNL     1     -32.652   8.751   1.144  1.00 20.00    -0.120 Cl
ENDROOT
BRANCH   3   7
HETATM    7  C1  UNL     1     -34.738   5.599   4.182  1.00 20.00     0.127 C 
HETATM    8  C6  UNL     1     -34.550   4.335   4.976  1.00 20.00     0.091 C 
HETATM    9  O8  UNL     1     -35.825   5.895   3.688  1.00 20.00    -0.298 OA
ENDBRANCH   3   7
TORSDOF 1
ENDMDL
MODEL 4
REMARK VINA RESULT:      -4.6      2.109      2.699
REMARK  1 active torsions:
REMARK  status: ('A' for Active; 'I' for Inactive)
REMARK    1  A    between atoms: C1_1  and  C4_4 
ROOT
HETATM    1  C2  UNL     1     -31.777   8.652   3.149  1.00 20.00     0.037 C 
HETATM    2  C3  UNL     1     -33.462   8.097   1.961  1.00 20.00     0.037 C 
HETATM    3  C4  UNL     1     -32.663   7.382   3.079  1.00 20.00     0.058 C 
HETATM    4  C5  UNL     1     -32.230   9.008   1.706  1.00 20.00     0.035 C 
HETATM    5  C7  UNL     1     -31.289   8.468   0.623  1.00 20.00     0.032 C 
HETATM    6 CL9  UNL     1     -32.588  10.741   1.406  1.00 20.00    -0.120 Cl
ENDROOT
BRANCH   3   7
HETATM    7  C1  UNL     1     -33.430   6.971   4.339  1.00 20.00     0.127 C 
HETATM    8  C6  UNL     1     -34.498   5.926   4.171  1.00 20.00     0.091 C 
HETATM    9  O8  UNL     1     -33.183   7.470   5.436  1.00 20.00    -0.298 OA
ENDBRANCH   3   7
TORSDOF 1
ENDMDL
MODEL 5
REMARK VINA RESULT:      -4.4      2.999      4.437
REMARK  1 active torsions:
REMARK  status: ('A' for Active; 'I' for Inactive)
REMARK    1  A    between atoms: C1_1  and  C4_4 
ROOT
HETATM    1  C2  UNL     1     -32.527   6.827   2.972  1.00 20.00     0.037 C 
HETATM    2  C3  UNL     1     -33.935   8.416   3.194  1.00 20.00     0.037 C 
HETATM    3  C4  UNL     1     -32.438   8.364   2.799  1.00 20.00     0.058 C 
HETATM    4  C5  UNL     1     -33.769   7.033   3.882  1.00 20.00     0.035 C 
HETATM    5  C7  UNL     1     -33.421   7.134   5.372  1.00 20.00     0.032 C 
HETATM    6 CL9  UNL     1     -35.116   5.873   3.639  1.00 20.00    -0.120 Cl
ENDROOT
BRANCH   3   7
HETATM    7  C1  UNL     1     -32.055   8.910   1.420  1.00 20.00     0.127 C 
HETATM    8  C6  UNL     1     -32.752  10.166   0.972  1.00 20.00     0.091 C 
HETATM    9  O8  UNL     1     -31.217   8.351   0.715  1.00 20.00    -0.298 OA
ENDBRANCH   3   7
TORSDOF 1
ENDMDL
MODEL 6
REMARK VINA RESULT:      -4.4      2.788      4.371
REMARK  1 active torsions:
REMARK  status: ('A' for Active; 'I' for Inactive)
REMARK    1  A    between atoms: C1_1  and  C4_4 
ROOT
HETATM    1  C2  UNL     1     -34.004   8.120   2.957  1.00 20.00     0.037 C 
HETATM    2  C3  UNL     1     -32.091   7.218   3.250  1.00 20.00     0.037 C 
HETATM    3  C4  UNL     1     -32.825   7.786   2.009  1.00 20.00     0.058 C 
HETATM    4  C5  UNL     1     -33.468   7.050   3.948  1.00 20.00     0.035 C 
HETATM    5  C7  UNL     1     -34.089   5.664   3.740  1.00 20.00     0.032 C 
HETATM    6 CL9  UNL     1     -33.523   7.497   5.685  1.00 20.00    -0.120 Cl
ENDROOT
BRANCH   3   7
HETATM    7  C1  UNL     1     -32.154   8.943   1.263  1.00 20.00     0.127 C 
HETATM    8  C6  UNL     1     -32.814  10.290   1.368  1.00 20.00     0.091 C 
HETATM    9  O8  UNL     1     -31.123   8.778   0.611  1.00 20.00    -0.298 OA
ENDBRANCH   3   7
TORSDOF 1
ENDMDL
MODEL 7
REMARK VINA RESULT:      -4.4      2.869      4.152
REMARK  1 active torsions:
REMARK  status: ('A' for Active; 'I' for Inactive)
REMARK    1  A    between atoms: C1_1  and  C4_4 
ROOT
HETATM    1  C2  UNL     1     -33.659   6.084   2.572  1.00 20.00     0.037 C 
HETATM    2  C3  UNL     1     -33.883   7.012   4.481  1.00 20.00     0.037 C 
HETATM    3  C4  UNL     1     -32.673   6.786   3.540  1.00 20.00     0.058 C 
HETATM    4  C5  UNL     1     -34.613   5.839   3.773  1.00 20.00     0.035 C 
HETATM    5  C7  UNL     1     -34.394   4.485   4.458  1.00 20.00     0.032 C 
HETATM    6 CL9  UNL     1     -36.360   6.090   3.446  1.00 20.00    -0.120 Cl
ENDROOT
BRANCH   3   7
HETATM    7  C1  UNL     1     -31.934   8.028   3.035  1.00 20.00     0.127 C 
HETATM    8  C6  UNL     1     -32.304   8.526   1.664  1.00 20.00     0.091 C 
HETATM    9  O8  UNL     1     -31.080   8.592   3.717  1.00 20.00    -0.298 OA
ENDBRANCH   3   7
TORSDOF 1
ENDMDL
MODEL 8
REMARK VINA RESULT:      -4.1     11.892     12.421
REMARK  1 active torsions:
REMARK  status: ('A' for Active; 'I' for Inactive)
REMARK    1  A    between atoms: C1_1  and  C4_4 
ROOT
HETATM    1  C2  UNL     1     -35.393  16.129  -4.322  1.00 20.00     0.037 C 
HETATM    2  C3  UNL     1     -33.444  15.276  -4.151  1.00 20.00     0.037 C 
HETATM    3  C4  UNL     1     -34.871  14.675  -4.204  1.00 20.00     0.058 C 
HETATM    4  C5  UNL     1     -34.063  16.624  -3.692  1.00 20.00     0.035 C 
HETATM    5  C7  UNL     1     -34.131  16.774  -2.168  1.00 20.00     0.032 C 
HETATM    6 CL9  UNL     1     -33.353  18.100  -4.426  1.00 20.00    -0.120 Cl
ENDROOT
BRANCH   3   7
HETATM    7  C1  UNL     1     -35.183  13.704  -5.346  1.00 20.00     0.127 C 
HETATM    8  C6  UNL     1     -34.514  13.973  -6.666  1.00 20.00     0.091 C 
HETATM    9  O8  UNL     1     -35.943  12.749  -5.191  1.00 20.00    -0.298 OA
ENDBRANCH   3   7
TORSDOF 1
ENDMDL
MODEL 9
REMARK VINA RESULT:      -4.0      1.811      2.324
REMARK  1 active torsions:
REMARK  status: ('A' for Active; 'I' for Inactive)
REMARK    1  A    between atoms: C1_1  and  C4_4 
ROOT
HETATM    1  C2  UNL     1     -33.403   7.890   1.714  1.00 20.00     0.037 C 
HETATM    2  C3  UNL     1     -31.829   8.455   3.041  1.00 20.00     0.037 C 
HETATM    3  C4  UNL     1     -33.307   8.040   3.254  1.00 20.00     0.058 C 
HETATM    4  C5  UNL     1     -32.180   8.838   1.577  1.00 20.00     0.035 C 
HETATM    5  C7  UNL     1     -32.570  10.312   1.412  1.00 20.00     0.032 C 
HETATM    6 CL9  UNL     1     -30.969   8.376   0.337  1.00 20.00    -0.120 Cl
ENDROOT
BRANCH   3   7
HETATM    7  C1  UNL     1     -33.572   6.800   4.114  1.00 20.00     0.127 C 
HETATM    8  C6  UNL     1     -33.753   7.027   5.590  1.00 20.00     0.091 C 
HETATM    9  O8  UNL     1     -33.636   5.675   3.621  1.00 20.00    -0.298 OA
ENDBRANCH   3   7
TORSDOF 1
ENDMDL
