MODEL 1
REMARK VINA RESULT:      -5.6      0.000      0.000
REMARK  1 active torsions:
REMARK  status: ('A' for Active; 'I' for Inactive)
REMARK    1  A    between atoms: C2_2  and  C3_3 
ROOT
HETATM    1  C1  UNL     1     -33.439   6.833   2.842  1.00 20.00    -0.010 A 
HETATM    2  C2  UNL     1     -33.175   7.221   4.098  1.00 20.00    -0.016 A 
HETATM    3  C4  UNL     1     -32.000   8.156   4.124  1.00 20.00     0.048 A 
HETATM    4  C5  UNL     1     -32.504   7.393   1.850  1.00 20.00     0.022 A 
HETATM    5  C6  UNL     1     -31.557   8.261   2.675  1.00 20.00     0.007 A 
HETATM    6  C7  UNL     1     -32.390   8.876   1.561  1.00 20.00    -0.036 A 
HETATM    7  C9  UNL     1     -31.655   9.266   0.300  1.00 20.00     0.016 C 
HETATM    8  C10 UNL     1     -33.529   9.809   1.888  1.00 20.00     0.016 C 
ENDROOT
BRANCH   2   9
HETATM    9  C3  UNL     1     -33.934   6.814   5.264  1.00 20.00     0.151 C 
HETATM   10  C8  UNL     1     -34.703   5.510   5.210  1.00 20.00     0.096 C 
HETATM   11  O11 UNL     1     -33.966   7.515   6.288  1.00 20.00    -0.293 OA
ENDBRANCH   2   9
TORSDOF 1
ENDMDL
MODEL 2
REMARK VINA RESULT:      -5.5      2.234      4.496
REMARK  1 active torsions:
REMARK  status: ('A' for Active; 'I' for Inactive)
REMARK    1  A    between atoms: C2_2  and  C3_3 
ROOT
HETATM    1  C1  UNL     1     -34.018   7.559   2.131  1.00 20.00    -0.010 A 
HETATM    2  C2  UNL     1     -32.797   8.085   2.304  1.00 20.00    -0.016 A 
HETATM    3  C4  UNL     1     -32.218   7.654   3.621  1.00 20.00     0.048 A 
HETATM    4  C5  UNL     1     -34.467   6.742   3.273  1.00 20.00     0.022 A 
HETATM    5  C6  UNL     1     -33.299   6.793   4.255  1.00 20.00     0.007 A 
HETATM    6  C7  UNL     1     -33.777   5.461   3.699  1.00 20.00    -0.036 A 
HETATM    7  C9  UNL     1     -34.539   4.564   4.646  1.00 20.00     0.016 C 
HETATM    8  C10 UNL     1     -32.921   4.692   2.724  1.00 20.00     0.016 C 
ENDROOT
BRANCH   2   9
HETATM    9  C3  UNL     1     -32.120   8.932   1.341  1.00 20.00     0.151 C 
HETATM   10  C8  UNL     1     -32.654  10.330   1.103  1.00 20.00     0.096 C 
HETATM   11  O11 UNL     1     -31.127   8.528   0.716  1.00 20.00    -0.293 OA
ENDBRANCH   2   9
TORSDOF 1
ENDMDL
MODEL 3
REMARK VINA RESULT:      -5.4      1.720      2.359
REMARK  1 active torsions:
REMARK  status: ('A' for Active; 'I' for Inactive)
REMARK    1  A    between atoms: C2_2  and  C3_3 
ROOT
HETATM    1  C1  UNL     1     -34.363   7.013   3.741  1.00 20.00    -0.010 A 
HETATM    2  C2  UNL     1     -33.926   5.745   3.708  1.00 20.00    -0.016 A 
HETATM    3  C4  UNL     1     -32.969   5.547   2.568  1.00 20.00     0.048 A 
HETATM    4  C5  UNL     1     -33.819   7.844   2.653  1.00 20.00     0.022 A 
HETATM    5  C6  UNL     1     -32.904   6.899   1.878  1.00 20.00     0.007 A 
HETATM    6  C7  UNL     1     -32.345   8.164   2.509  1.00 20.00    -0.036 A 
HETATM    7  C9  UNL     1     -31.985   9.290   1.569  1.00 20.00     0.016 C 
HETATM    8  C10 UNL     1     -31.423   8.078   3.700  1.00 20.00     0.016 C 
ENDROOT
BRANCH   2   9
HETATM    9  C3  UNL     1     -34.308   4.716   4.656  1.00 20.00     0.151 C 
HETATM   10  C8  UNL     1     -34.664   5.128   6.069  1.00 20.00     0.096 C 
HETATM   11  O11 UNL     1     -34.340   3.519   4.328  1.00 20.00    -0.293 OA
ENDBRANCH   2   9
TORSDOF 1
ENDMDL
MODEL 4
REMARK VINA RESULT:      -5.4      2.143      4.514
REMARK  1 active torsions:
REMARK  status: ('A' for Active; 'I' for Inactive)
REMARK    1  A    between atoms: C2_2  and  C3_3 
ROOT
HETATM    1  C1  UNL     1     -32.348   6.633   2.885  1.00 20.00    -0.010 A 
HETATM    2  C2  UNL     1     -32.930   7.720   2.358  1.00 20.00    -0.016 A 
HETATM    3  C4  UNL     1     -34.395   7.747   2.690  1.00 20.00     0.048 A 
HETATM    4  C5  UNL     1     -33.290   5.760   3.607  1.00 20.00     0.022 A 
HETATM    5  C6  UNL     1     -34.633   6.476   3.490  1.00 20.00     0.007 A 
HETATM    6  C7  UNL     1     -34.032   6.192   4.856  1.00 20.00    -0.036 A 
HETATM    7  C9  UNL     1     -34.683   5.098   5.670  1.00 20.00     0.016 C 
HETATM    8  C10 UNL     1     -33.505   7.321   5.707  1.00 20.00     0.016 C 
ENDROOT
BRANCH   2   9
HETATM    9  C3  UNL     1     -32.237   8.739   1.595  1.00 20.00     0.151 C 
HETATM   10  C8  UNL     1     -32.852  10.120   1.503  1.00 20.00     0.096 C 
HETATM   11  O11 UNL     1     -31.164   8.494   1.020  1.00 20.00    -0.293 OA
ENDBRANCH   2   9
TORSDOF 1
ENDMDL
MODEL 5
REMARK VINA RESULT:      -5.0     10.274     11.280
REMARK  1 active torsions:
REMARK  status: ('A' for Active; 'I' for Inactive)
REMARK    1  A    between atoms: C2_2  and  C3_3 
ROOT
HETATM    1  C1  UNL     1     -35.550  16.232  -4.755  1.00 20.00    -0.010 A 
HETATM    2  C2  UNL     1     -35.399  14.907  -4.620  1.00 20.00    -0.016 A 
HETATM    3  C4  UNL     1     -34.127  14.594  -3.884  1.00 20.00     0.048 A 
HETATM    4  C5  UNL     1     -34.434  17.007  -4.185  1.00 20.00     0.022 A 
HETATM    5  C6  UNL     1     -33.496  15.949  -3.610  1.00 20.00     0.007 A 
HETATM    6  C7  UNL     1     -34.098  17.014  -2.707  1.00 20.00    -0.036 A 
HETATM    7  C9  UNL     1     -33.168  18.104  -2.229  1.00 20.00     0.016 C 
HETATM    8  C10 UNL     1     -35.142  16.643  -1.683  1.00 20.00     0.016 C 
ENDROOT
BRANCH   2   9
HETATM    9  C3  UNL     1     -36.344  13.916  -5.095  1.00 20.00     0.151 C 
HETATM   10  C8  UNL     1     -37.773  14.343  -5.358  1.00 20.00     0.096 C 
HETATM   11  O11 UNL     1     -36.001  12.737  -5.282  1.00 20.00    -0.293 OA
ENDBRANCH   2   9
TORSDOF 1
ENDMDL
MODEL 6
REMARK VINA RESULT:      -4.7     10.275     11.458
REMARK  1 active torsions:
REMARK  status: ('A' for Active; 'I' for Inactive)
REMARK    1  A    between atoms: C2_2  and  C3_3 
ROOT
HETATM    1  C1  UNL     1     -34.925  15.986  -5.392  1.00 20.00    -0.010 A 
HETATM    2  C2  UNL     1     -34.820  14.662  -5.204  1.00 20.00    -0.016 A 
HETATM    3  C4  UNL     1     -33.779  14.359  -4.164  1.00 20.00     0.048 A 
HETATM    4  C5  UNL     1     -33.988  16.768  -4.566  1.00 20.00     0.022 A 
HETATM    5  C6  UNL     1     -33.233  15.717  -3.757  1.00 20.00     0.007 A 
HETATM    6  C7  UNL     1     -34.040  16.795  -3.052  1.00 20.00    -0.036 A 
HETATM    7  C9  UNL     1     -33.258  17.891  -2.367  1.00 20.00     0.016 C 
HETATM    8  C10 UNL     1     -35.312  16.440  -2.323  1.00 20.00     0.016 C 
ENDROOT
BRANCH   2   9
HETATM    9  C3  UNL     1     -35.616  13.665  -5.892  1.00 20.00     0.151 C 
HETATM   10  C8  UNL     1     -35.981  13.903  -7.343  1.00 20.00     0.096 C 
HETATM   11  O11 UNL     1     -36.001  12.637  -5.312  1.00 20.00    -0.293 OA
ENDBRANCH   2   9
TORSDOF 1
ENDMDL
MODEL 7
REMARK VINA RESULT:      -4.7     10.605     11.640
REMARK  1 active torsions:
REMARK  status: ('A' for Active; 'I' for Inactive)
REMARK    1  A    between atoms: C2_2  and  C3_3 
ROOT
HETATM    1  C1  UNL     1     -33.231  14.555  -4.812  1.00 20.00    -0.010 A 
HETATM    2  C2  UNL     1     -34.419  14.318  -5.387  1.00 20.00    -0.016 A 
HETATM    3  C4  UNL     1     -35.526  14.950  -4.592  1.00 20.00     0.048 A 
HETATM    4  C5  UNL     1     -33.333  15.330  -3.563  1.00 20.00     0.022 A 
HETATM    5  C6  UNL     1     -34.828  15.598  -3.407  1.00 20.00     0.007 A 
HETATM    6  C7  UNL     1     -33.848  16.755  -3.510  1.00 20.00    -0.036 A 
HETATM    7  C9  UNL     1     -33.573  17.527  -2.241  1.00 20.00     0.016 C 
HETATM    8  C10 UNL     1     -33.822  17.624  -4.742  1.00 20.00     0.016 C 
ENDROOT
BRANCH   2   9
HETATM    9  C3  UNL     1     -34.607  13.575  -6.618  1.00 20.00     0.151 C 
HETATM   10  C8  UNL     1     -34.135  14.194  -7.918  1.00 20.00     0.096 C 
HETATM   11  O11 UNL     1     -35.146  12.457  -6.619  1.00 20.00    -0.293 OA
ENDBRANCH   2   9
TORSDOF 1
ENDMDL
MODEL 8
REMARK VINA RESULT:      -4.5     10.379     11.486
REMARK  1 active torsions:
REMARK  status: ('A' for Active; 'I' for Inactive)
REMARK    1  A    between atoms: C2_2  and  C3_3 
ROOT
HETATM    1  C1  UNL     1     -34.340  14.781  -3.947  1.00 20.00    -0.010 A 
HETATM    2  C2  UNL     1     -34.037  16.046  -3.622  1.00 20.00    -0.016 A 
HETATM    3  C4  UNL     1     -33.335  16.729  -4.760  1.00 20.00     0.048 A 
HETATM    4  C5  UNL     1     -33.882  14.401  -5.295  1.00 20.00     0.022 A 
HETATM    5  C6  UNL     1     -33.224  15.666  -5.840  1.00 20.00     0.007 A 
HETATM    6  C7  UNL     1     -34.409  15.044  -6.562  1.00 20.00    -0.036 A 
HETATM    7  C9  UNL     1     -34.113  14.328  -7.859  1.00 20.00     0.016 C 
HETATM    8  C10 UNL     1     -35.747  15.739  -6.569  1.00 20.00     0.016 C 
ENDROOT
BRANCH   2   9
HETATM    9  C3  UNL     1     -34.365  16.673  -2.356  1.00 20.00     0.151 C 
HETATM   10  C8  UNL     1     -33.318  17.535  -1.682  1.00 20.00     0.096 C 
HETATM   11  O11 UNL     1     -35.475  16.510  -1.826  1.00 20.00    -0.293 OA
ENDBRANCH   2   9
TORSDOF 1
ENDMDL
MODEL 9
REMARK VINA RESULT:      -4.5     10.594     11.194
REMARK  1 active torsions:
REMARK  status: ('A' for Active; 'I' for Inactive)
REMARK    1  A    between atoms: C2_2  and  C3_3 
ROOT
HETATM    1  C1  UNL     1     -35.608  15.190  -4.006  1.00 20.00    -0.010 A 
HETATM    2  C2  UNL     1     -34.565  15.731  -3.359  1.00 20.00    -0.016 A 
HETATM    3  C4  UNL     1     -33.271  15.266  -3.965  1.00 20.00     0.048 A 
HETATM    4  C5  UNL     1     -35.211  14.280  -5.094  1.00 20.00     0.022 A 
HETATM    5  C6  UNL     1     -33.685  14.320  -5.081  1.00 20.00     0.007 A 
HETATM    6  C7  UNL     1     -34.453  14.737  -6.324  1.00 20.00    -0.036 A 
HETATM    7  C9  UNL     1     -34.422  13.782  -7.494  1.00 20.00     0.016 C 
HETATM    8  C10 UNL     1     -34.487  16.184  -6.750  1.00 20.00     0.016 C 
ENDROOT
BRANCH   2   9
HETATM    9  C3  UNL     1     -34.672  16.654  -2.247  1.00 20.00     0.151 C 
HETATM   10  C8  UNL     1     -33.432  17.404  -1.805  1.00 20.00     0.096 C 
HETATM   11  O11 UNL     1     -35.750  16.829  -1.657  1.00 20.00    -0.293 OA
ENDBRANCH   2   9
TORSDOF 1
ENDMDL
