MODEL 1
REMARK VINA RESULT:      -4.5      0.000      0.000
REMARK  3 active torsions:
REMARK  status: ('A' for Active; 'I' for Inactive)
REMARK    1  A    between atoms: C1_1  and  C10_10 
REMARK    2  A    between atoms: C7_7  and  C8_8 
REMARK    3  A    between atoms: C9_9  and  C10_10 
ROOT
HETATM    1  C2  UNL     1     -35.410  16.818  -7.534  1.00 20.00     0.006 C 
HETATM    2  C3  UNL     1     -33.737  15.012  -7.918  1.00 20.00     0.006 C 
HETATM    3  C4  UNL     1     -36.313  15.819  -6.774  1.00 20.00     0.019 C 
HETATM    4  C5  UNL     1     -34.634  14.016  -7.157  1.00 20.00     0.019 C 
HETATM    5  C7  UNL     1     -33.922  16.433  -7.349  1.00 20.00    -0.010 C 
HETATM    6  C10 UNL     1     -35.440  14.753  -6.063  1.00 20.00     0.040 C 
ENDROOT
BRANCH   6   7
HETATM    7  C1  UNL     1     -36.299  13.765  -5.333  1.00 20.00     0.228 C 
HETATM    8  O11 UNL     1     -35.938  12.605  -5.152  1.00 20.00    -0.279 OA
HETATM    9 CL12 UNL     1     -37.800  14.465  -4.808  1.00 20.00    -0.043 Cl
ENDBRANCH   6   7
BRANCH   6  10
HETATM   10  C9  UNL     1     -34.518  15.505  -5.108  1.00 20.00     0.007 A 
HETATM   11  C6  UNL     1     -34.650  15.527  -3.606  1.00 20.00     0.011 A 
HETATM   12  C8  UNL     1     -33.713  14.547  -4.266  1.00 20.00    -0.005 A 
ENDBRANCH   6  10
TORSDOF 3
ENDMDL
MODEL 2
REMARK VINA RESULT:      -4.5      1.163      2.857
REMARK  3 active torsions:
REMARK  status: ('A' for Active; 'I' for Inactive)
REMARK    1  A    between atoms: C1_1  and  C10_10 
REMARK    2  A    between atoms: C7_7  and  C8_8 
REMARK    3  A    between atoms: C9_9  and  C10_10 
ROOT
HETATM    1  C2  UNL     1     -33.273  15.914  -4.147  1.00 20.00     0.006 C 
HETATM    2  C3  UNL     1     -35.024  17.408  -5.100  1.00 20.00     0.006 C 
HETATM    3  C4  UNL     1     -34.277  14.739  -4.144  1.00 20.00     0.019 C 
HETATM    4  C5  UNL     1     -36.026  16.236  -5.102  1.00 20.00     0.019 C 
HETATM    5  C7  UNL     1     -33.591  16.881  -5.313  1.00 20.00    -0.010 C 
HETATM    6  C10 UNL     1     -35.280  14.899  -5.315  1.00 20.00     0.040 C 
ENDROOT
BRANCH   6   7
HETATM    7  C1  UNL     1     -36.273  13.776  -5.320  1.00 20.00     0.228 C 
HETATM    8  O11 UNL     1     -35.924  12.605  -5.203  1.00 20.00    -0.279 OA
HETATM    9 CL12 UNL     1     -37.905  14.346  -5.504  1.00 20.00    -0.043 Cl
ENDBRANCH   6   7
BRANCH   6  10
HETATM   10  C9  UNL     1     -34.457  14.922  -6.599  1.00 20.00     0.007 A 
HETATM   11  C6  UNL     1     -34.342  13.784  -7.582  1.00 20.00     0.011 A 
HETATM   12  C8  UNL     1     -35.349  14.883  -7.815  1.00 20.00    -0.005 A 
ENDBRANCH   6  10
TORSDOF 3
ENDMDL
MODEL 3
REMARK VINA RESULT:      -4.4      1.664      2.846
REMARK  3 active torsions:
REMARK  status: ('A' for Active; 'I' for Inactive)
REMARK    1  A    between atoms: C1_1  and  C10_10 
REMARK    2  A    between atoms: C7_7  and  C8_8 
REMARK    3  A    between atoms: C9_9  and  C10_10 
ROOT
HETATM    1  C2  UNL     1     -33.579  16.832  -5.832  1.00 20.00     0.006 C 
HETATM    2  C3  UNL     1     -33.873  15.952  -3.520  1.00 20.00     0.006 C 
HETATM    3  C4  UNL     1     -34.070  15.484  -6.407  1.00 20.00     0.019 C 
HETATM    4  C5  UNL     1     -34.367  14.608  -4.091  1.00 20.00     0.019 C 
HETATM    5  C7  UNL     1     -34.257  17.105  -4.468  1.00 20.00    -0.010 C 
HETATM    6  C10 UNL     1     -35.093  14.837  -5.437  1.00 20.00     0.040 C 
ENDROOT
BRANCH   6   7
HETATM    7  C1  UNL     1     -35.570  13.520  -5.970  1.00 20.00     0.228 C 
HETATM    8  O11 UNL     1     -35.897  12.602  -5.224  1.00 20.00    -0.279 OA
HETATM    9 CL12 UNL     1     -35.591  13.486  -7.707  1.00 20.00    -0.043 Cl
ENDBRANCH   6   7
BRANCH   6  10
HETATM   10  C9  UNL     1     -36.243  15.828  -5.285  1.00 20.00     0.007 A 
HETATM   11  C6  UNL     1     -37.615  15.669  -5.888  1.00 20.00     0.011 A 
HETATM   12  C8  UNL     1     -37.362  15.237  -4.466  1.00 20.00    -0.005 A 
ENDBRANCH   6  10
TORSDOF 3
ENDMDL
MODEL 4
REMARK VINA RESULT:      -4.3      2.934      3.868
REMARK  3 active torsions:
REMARK  status: ('A' for Active; 'I' for Inactive)
REMARK    1  A    between atoms: C1_1  and  C10_10 
REMARK    2  A    between atoms: C7_7  and  C8_8 
REMARK    3  A    between atoms: C9_9  and  C10_10 
ROOT
HETATM    1  C2  UNL     1     -32.920  15.550  -5.347  1.00 20.00     0.006 C 
HETATM    2  C3  UNL     1     -34.752  14.229  -4.296  1.00 20.00     0.006 C 
HETATM    3  C4  UNL     1     -33.773  16.833  -5.220  1.00 20.00     0.019 C 
HETATM    4  C5  UNL     1     -35.603  15.508  -4.166  1.00 20.00     0.019 C 
HETATM    5  C7  UNL     1     -33.254  14.575  -4.192  1.00 20.00    -0.010 C 
HETATM    6  C10 UNL     1     -34.688  16.738  -3.972  1.00 20.00     0.040 C 
ENDROOT
BRANCH   6   7
HETATM    7  C1  UNL     1     -35.535  17.968  -3.841  1.00 20.00     0.228 C 
HETATM    8  O11 UNL     1     -35.094  19.086  -4.091  1.00 20.00    -0.279 OA
HETATM    9 CL12 UNL     1     -37.148  17.597  -3.311  1.00 20.00    -0.043 Cl
ENDBRANCH   6   7
BRANCH   6  10
HETATM   10  C9  UNL     1     -33.770  16.561  -2.766  1.00 20.00     0.007 A 
HETATM   11  C6  UNL     1     -33.239  17.679  -1.903  1.00 20.00     0.011 A 
HETATM   12  C8  UNL     1     -34.479  16.927  -1.487  1.00 20.00    -0.005 A 
ENDBRANCH   6  10
TORSDOF 3
ENDMDL
MODEL 5
REMARK VINA RESULT:      -4.3      2.395      4.054
REMARK  3 active torsions:
REMARK  status: ('A' for Active; 'I' for Inactive)
REMARK    1  A    between atoms: C1_1  and  C10_10 
REMARK    2  A    between atoms: C7_7  and  C8_8 
REMARK    3  A    between atoms: C9_9  and  C10_10 
ROOT
HETATM    1  C2  UNL     1     -34.687  17.061  -1.302  1.00 20.00     0.006 C 
HETATM    2  C3  UNL     1     -33.545  18.581  -2.913  1.00 20.00     0.006 C 
HETATM    3  C4  UNL     1     -35.658  16.610  -2.417  1.00 20.00     0.019 C 
HETATM    4  C5  UNL     1     -34.510  18.129  -4.027  1.00 20.00     0.019 C 
HETATM    5  C7  UNL     1     -33.314  17.431  -1.913  1.00 20.00    -0.010 C 
HETATM    6  C10 UNL     1     -34.944  16.664  -3.793  1.00 20.00     0.040 C 
ENDROOT
BRANCH   6   7
HETATM    7  C1  UNL     1     -35.875  16.244  -4.890  1.00 20.00     0.228 C 
HETATM    8  O11 UNL     1     -35.820  16.744  -6.010  1.00 20.00    -0.279 OA
HETATM    9 CL12 UNL     1     -36.982  15.009  -4.372  1.00 20.00    -0.043 Cl
ENDBRANCH   6   7
BRANCH   6  10
HETATM   10  C9  UNL     1     -33.736  15.736  -3.699  1.00 20.00     0.007 A 
HETATM   11  C6  UNL     1     -33.620  14.387  -4.362  1.00 20.00     0.011 A 
HETATM   12  C8  UNL     1     -33.046  15.609  -5.034  1.00 20.00    -0.005 A 
ENDBRANCH   6  10
TORSDOF 3
ENDMDL
MODEL 6
REMARK VINA RESULT:      -4.3      3.004      3.900
REMARK  3 active torsions:
REMARK  status: ('A' for Active; 'I' for Inactive)
REMARK    1  A    between atoms: C1_1  and  C10_10 
REMARK    2  A    between atoms: C7_7  and  C8_8 
REMARK    3  A    between atoms: C9_9  and  C10_10 
ROOT
HETATM    1  C2  UNL     1     -32.942  15.425  -5.210  1.00 20.00     0.006 C 
HETATM    2  C3  UNL     1     -34.878  14.099  -4.373  1.00 20.00     0.006 C 
HETATM    3  C4  UNL     1     -33.796  16.712  -5.145  1.00 20.00     0.019 C 
HETATM    4  C5  UNL     1     -35.729  15.382  -4.303  1.00 20.00     0.019 C 
HETATM    5  C7  UNL     1     -33.395  14.432  -4.113  1.00 20.00    -0.010 C 
HETATM    6  C10 UNL     1     -34.831  16.602  -3.996  1.00 20.00     0.040 C 
ENDROOT
BRANCH   6   7
HETATM    7  C1  UNL     1     -35.680  17.835  -3.927  1.00 20.00     0.228 C 
HETATM    8  O11 UNL     1     -36.856  17.791  -3.577  1.00 20.00    -0.279 OA
HETATM    9 CL12 UNL     1     -34.800  19.261  -4.388  1.00 20.00    -0.043 Cl
ENDBRANCH   6   7
BRANCH   6  10
HETATM   10  C9  UNL     1     -34.038  16.395  -2.709  1.00 20.00     0.007 A 
HETATM   11  C6  UNL     1     -33.515  17.497  -1.822  1.00 20.00     0.011 A 
HETATM   12  C8  UNL     1     -34.834  16.837  -1.507  1.00 20.00    -0.005 A 
ENDBRANCH   6  10
TORSDOF 3
ENDMDL
MODEL 7
REMARK VINA RESULT:      -4.1      1.793      2.575
REMARK  3 active torsions:
REMARK  status: ('A' for Active; 'I' for Inactive)
REMARK    1  A    between atoms: C1_1  and  C10_10 
REMARK    2  A    between atoms: C7_7  and  C8_8 
REMARK    3  A    between atoms: C9_9  and  C10_10 
ROOT
HETATM    1  C2  UNL     1     -37.080  16.559  -3.921  1.00 20.00     0.006 C 
HETATM    2  C3  UNL     1     -36.181  17.404  -6.085  1.00 20.00     0.006 C 
HETATM    3  C4  UNL     1     -36.954  15.107  -4.436  1.00 20.00     0.019 C 
HETATM    4  C5  UNL     1     -36.049  15.956  -6.599  1.00 20.00     0.019 C 
HETATM    5  C7  UNL     1     -35.982  17.444  -4.557  1.00 20.00    -0.010 C 
HETATM    6  C10 UNL     1     -35.761  14.998  -5.421  1.00 20.00     0.040 C 
ENDROOT
BRANCH   6   7
HETATM    7  C1  UNL     1     -35.630  13.599  -5.944  1.00 20.00     0.228 C 
HETATM    8  O11 UNL     1     -35.841  12.621  -5.231  1.00 20.00    -0.279 OA
HETATM    9 CL12 UNL     1     -35.164  13.567  -7.617  1.00 20.00    -0.043 Cl
ENDBRANCH   6   7
BRANCH   6  10
HETATM   10  C9  UNL     1     -34.514  15.425  -4.652  1.00 20.00     0.007 A 
HETATM   11  C6  UNL     1     -33.343  14.533  -4.326  1.00 20.00     0.011 A 
HETATM   12  C8  UNL     1     -33.299  15.421  -5.544  1.00 20.00    -0.005 A 
ENDBRANCH   6  10
TORSDOF 3
ENDMDL
MODEL 8
REMARK VINA RESULT:      -4.1      1.649      2.420
REMARK  3 active torsions:
REMARK  status: ('A' for Active; 'I' for Inactive)
REMARK    1  A    between atoms: C1_1  and  C10_10 
REMARK    2  A    between atoms: C7_7  and  C8_8 
REMARK    3  A    between atoms: C9_9  and  C10_10 
ROOT
HETATM    1  C2  UNL     1     -33.442  15.664  -6.456  1.00 20.00     0.006 C 
HETATM    2  C3  UNL     1     -33.484  14.415  -4.301  1.00 20.00     0.006 C 
HETATM    3  C4  UNL     1     -34.895  15.219  -6.741  1.00 20.00     0.019 C 
HETATM    4  C5  UNL     1     -34.935  13.974  -4.582  1.00 20.00     0.019 C 
HETATM    5  C7  UNL     1     -33.218  15.796  -4.931  1.00 20.00    -0.010 C 
HETATM    6  C10 UNL     1     -35.669  15.055  -5.407  1.00 20.00     0.040 C 
ENDROOT
BRANCH   6   7
HETATM    7  C1  UNL     1     -37.077  14.610  -5.662  1.00 20.00     0.228 C 
HETATM    8  O11 UNL     1     -37.658  13.839  -4.903  1.00 20.00    -0.279 OA
HETATM    9 CL12 UNL     1     -37.732  15.307  -7.113  1.00 20.00    -0.043 Cl
ENDBRANCH   6   7
BRANCH   6  10
HETATM   10  C9  UNL     1     -35.630  16.410  -4.706  1.00 20.00     0.007 A 
HETATM   11  C6  UNL     1     -36.818  17.310  -4.484  1.00 20.00     0.011 A 
HETATM   12  C8  UNL     1     -36.376  16.363  -3.397  1.00 20.00    -0.005 A 
ENDBRANCH   6  10
TORSDOF 3
ENDMDL
MODEL 9
REMARK VINA RESULT:      -4.1      2.500      4.150
REMARK  3 active torsions:
REMARK  status: ('A' for Active; 'I' for Inactive)
REMARK    1  A    between atoms: C1_1  and  C10_10 
REMARK    2  A    between atoms: C7_7  and  C8_8 
REMARK    3  A    between atoms: C9_9  and  C10_10 
ROOT
HETATM    1  C2  UNL     1     -35.645  17.327  -1.828  1.00 20.00     0.006 C 
HETATM    2  C3  UNL     1     -33.282  17.980  -2.270  1.00 20.00     0.006 C 
HETATM    3  C4  UNL     1     -35.910  17.257  -3.349  1.00 20.00     0.019 C 
HETATM    4  C5  UNL     1     -33.543  17.906  -3.787  1.00 20.00     0.019 C 
HETATM    5  C7  UNL     1     -34.171  16.962  -1.529  1.00 20.00    -0.010 C 
HETATM    6  C10 UNL     1     -34.616  16.835  -4.092  1.00 20.00     0.040 C 
ENDROOT
BRANCH   6   7
HETATM    7  C1  UNL     1     -34.849  16.776  -5.571  1.00 20.00     0.228 C 
HETATM    8  O11 UNL     1     -33.965  17.057  -6.376  1.00 20.00    -0.279 OA
HETATM    9 CL12 UNL     1     -36.468  16.278  -5.960  1.00 20.00    -0.043 Cl
ENDBRANCH   6   7
BRANCH   6  10
HETATM   10  C9  UNL     1     -34.213  15.473  -3.535  1.00 20.00     0.007 A 
HETATM   11  C6  UNL     1     -34.474  14.147  -4.203  1.00 20.00     0.011 A 
HETATM   12  C8  UNL     1     -33.144  14.835  -4.386  1.00 20.00    -0.005 A 
ENDBRANCH   6  10
TORSDOF 3
ENDMDL
