MODEL 1
REMARK VINA RESULT:      -7.2      0.000      0.000
REMARK  1 active torsions:
REMARK  status: ('A' for Active; 'I' for Inactive)
REMARK    1  A    between atoms: C9_9  and  C10_10 
ROOT
HETATM    1  C1  UNL     1     -34.871   5.376   4.878  1.00 20.00     0.001 A 
HETATM    2  C2  UNL     1     -34.448   6.284   5.951  1.00 20.00     0.001 A 
HETATM    3  C3  UNL     1     -34.394   5.482   3.620  1.00 20.00     0.012 A 
HETATM    4  C4  UNL     1     -33.559   7.277   5.743  1.00 20.00     0.012 A 
HETATM    5  C5  UNL     1     -32.813   6.859   2.208  1.00 20.00     0.001 A 
HETATM    6  C6  UNL     1     -32.134   8.315   3.930  1.00 20.00     0.001 A 
HETATM    7  C7  UNL     1     -33.440   6.530   3.345  1.00 20.00    -0.029 A 
HETATM    8  C8  UNL     1     -33.020   7.432   4.413  1.00 20.00    -0.029 A 
HETATM    9  C10 UNL     1     -31.910   8.037   2.466  1.00 20.00     0.094 A 
ENDROOT
BRANCH   9  10
HETATM   10  C9  UNL     1     -32.381   9.208   1.662  1.00 20.00     0.243 C 
HETATM   11  O11 UNL     1     -31.969   9.463   0.535  1.00 20.00    -0.306 OA
ENDBRANCH   9  10
TORSDOF 1
ENDMDL
MODEL 2
REMARK VINA RESULT:      -6.3      2.339      4.126
REMARK  1 active torsions:
REMARK  status: ('A' for Active; 'I' for Inactive)
REMARK    1  A    between atoms: C9_9  and  C10_10 
ROOT
HETATM    1  C1  UNL     1     -31.940   8.200   1.991  1.00 20.00     0.001 A 
HETATM    2  C2  UNL     1     -31.475   8.748   3.270  1.00 20.00     0.001 A 
HETATM    3  C3  UNL     1     -32.942   7.299   1.918  1.00 20.00     0.012 A 
HETATM    4  C4  UNL     1     -32.021   8.383   4.449  1.00 20.00     0.012 A 
HETATM    5  C5  UNL     1     -34.560   6.011   3.372  1.00 20.00     0.001 A 
HETATM    6  C6  UNL     1     -33.813   6.890   5.426  1.00 20.00     0.001 A 
HETATM    7  C7  UNL     1     -33.560   6.876   3.152  1.00 20.00    -0.029 A 
HETATM    8  C8  UNL     1     -33.097   7.420   4.424  1.00 20.00    -0.029 A 
HETATM    9  C10 UNL     1     -34.825   5.931   4.853  1.00 20.00     0.094 A 
ENDROOT
BRANCH   9  10
HETATM   10  C9  UNL     1     -34.526   4.547   5.337  1.00 20.00     0.243 C 
HETATM   11  O11 UNL     1     -34.243   3.616   4.590  1.00 20.00    -0.306 OA
ENDBRANCH   9  10
TORSDOF 1
ENDMDL
MODEL 3
REMARK VINA RESULT:      -6.3      0.977      2.076
REMARK  1 active torsions:
REMARK  status: ('A' for Active; 'I' for Inactive)
REMARK    1  A    between atoms: C9_9  and  C10_10 
ROOT
HETATM    1  C1  UNL     1     -34.518   5.298   6.005  1.00 20.00     0.001 A 
HETATM    2  C2  UNL     1     -34.444   4.239   4.993  1.00 20.00     0.001 A 
HETATM    3  C3  UNL     1     -34.219   6.584   5.722  1.00 20.00     0.012 A 
HETATM    4  C4  UNL     1     -34.073   4.487   3.719  1.00 20.00     0.012 A 
HETATM    5  C5  UNL     1     -33.469   8.072   3.822  1.00 20.00     0.001 A 
HETATM    6  C6  UNL     1     -33.351   6.372   2.196  1.00 20.00     0.001 A 
HETATM    7  C7  UNL     1     -33.815   6.901   4.373  1.00 20.00    -0.029 A 
HETATM    8  C8  UNL     1     -33.741   5.847   3.366  1.00 20.00    -0.029 A 
HETATM    9  C10 UNL     1     -33.136   7.854   2.368  1.00 20.00     0.094 A 
ENDROOT
BRANCH   9  10
HETATM   10  C9  UNL     1     -31.693   8.176   2.136  1.00 20.00     0.243 C 
HETATM   11  O11 UNL     1     -31.255   8.580   1.064  1.00 20.00    -0.306 OA
ENDBRANCH   9  10
TORSDOF 1
ENDMDL
MODEL 4
REMARK VINA RESULT:      -5.3     10.682     11.419
REMARK  1 active torsions:
REMARK  status: ('A' for Active; 'I' for Inactive)
REMARK    1  A    between atoms: C9_9  and  C10_10 
ROOT
HETATM    1  C1  UNL     1     -33.415  18.228  -0.411  1.00 20.00     0.001 A 
HETATM    2  C2  UNL     1     -34.788  17.910   0.001  1.00 20.00     0.001 A 
HETATM    3  C3  UNL     1     -32.897  17.792  -1.578  1.00 20.00     0.012 A 
HETATM    4  C4  UNL     1     -35.612  17.164  -0.763  1.00 20.00     0.012 A 
HETATM    5  C5  UNL     1     -33.490  16.433  -3.626  1.00 20.00     0.001 A 
HETATM    6  C6  UNL     1     -35.693  15.923  -2.965  1.00 20.00     0.001 A 
HETATM    7  C7  UNL     1     -33.739  16.988  -2.432  1.00 20.00    -0.029 A 
HETATM    8  C8  UNL     1     -35.104  16.672  -2.022  1.00 20.00    -0.029 A 
HETATM    9  C10 UNL     1     -34.718  15.693  -4.091  1.00 20.00     0.094 A 
ENDROOT
BRANCH   9  10
HETATM   10  C9  UNL     1     -34.409  14.232  -4.189  1.00 20.00     0.243 C 
HETATM   11  O11 UNL     1     -35.221  13.394  -4.566  1.00 20.00    -0.306 OA
ENDBRANCH   9  10
TORSDOF 1
ENDMDL
MODEL 5
REMARK VINA RESULT:      -4.9     11.161     11.801
REMARK  1 active torsions:
REMARK  status: ('A' for Active; 'I' for Inactive)
REMARK    1  A    between atoms: C9_9  and  C10_10 
ROOT
HETATM    1  C1  UNL     1     -35.081  16.703  -2.000  1.00 20.00     0.001 A 
HETATM    2  C2  UNL     1     -33.715  17.057  -2.405  1.00 20.00     0.001 A 
HETATM    3  C3  UNL     1     -35.593  17.072  -0.807  1.00 20.00     0.012 A 
HETATM    4  C4  UNL     1     -32.892  17.770  -1.608  1.00 20.00     0.012 A 
HETATM    5  C5  UNL     1     -34.997  18.327   1.305  1.00 20.00     0.001 A 
HETATM    6  C6  UNL     1     -32.805  18.894   0.655  1.00 20.00     0.001 A 
HETATM    7  C7  UNL     1     -34.751  17.836   0.083  1.00 20.00    -0.029 A 
HETATM    8  C8  UNL     1     -33.393  18.186  -0.320  1.00 20.00    -0.029 A 
HETATM    9  C10 UNL     1     -33.774  19.057   1.798  1.00 20.00     0.094 A 
ENDROOT
BRANCH   9  10
HETATM   10  C9  UNL     1     -33.235  18.361   3.008  1.00 20.00     0.243 C 
HETATM   11  O11 UNL     1     -33.593  18.620   4.152  1.00 20.00    -0.306 OA
ENDBRANCH   9  10
TORSDOF 1
ENDMDL
MODEL 6
REMARK VINA RESULT:      -4.8     11.292     11.881
REMARK  1 active torsions:
REMARK  status: ('A' for Active; 'I' for Inactive)
REMARK    1  A    between atoms: C9_9  and  C10_10 
ROOT
HETATM    1  C1  UNL     1     -33.556  18.855   1.205  1.00 20.00     0.001 A 
HETATM    2  C2  UNL     1     -32.331  18.970   0.406  1.00 20.00     0.001 A 
HETATM    3  C3  UNL     1     -34.644  18.192   0.759  1.00 20.00     0.012 A 
HETATM    4  C4  UNL     1     -32.220  18.420  -0.822  1.00 20.00     0.012 A 
HETATM    5  C5  UNL     1     -35.490  16.880  -1.229  1.00 20.00     0.001 A 
HETATM    6  C6  UNL     1     -33.523  17.064  -2.512  1.00 20.00     0.001 A 
HETATM    7  C7  UNL     1     -34.576  17.586  -0.550  1.00 20.00    -0.029 A 
HETATM    8  C8  UNL     1     -33.358  17.701  -1.344  1.00 20.00    -0.029 A 
HETATM    9  C10 UNL     1     -34.908  16.472  -2.558  1.00 20.00     0.094 A 
ENDROOT
BRANCH   9  10
HETATM   10  C9  UNL     1     -35.687  17.117  -3.661  1.00 20.00     0.243 C 
HETATM   11  O11 UNL     1     -35.456  16.931  -4.850  1.00 20.00    -0.306 OA
ENDBRANCH   9  10
TORSDOF 1
ENDMDL
MODEL 7
REMARK VINA RESULT:      -4.8     11.270     11.702
REMARK  1 active torsions:
REMARK  status: ('A' for Active; 'I' for Inactive)
REMARK    1  A    between atoms: C9_9  and  C10_10 
ROOT
HETATM    1  C1  UNL     1     -34.689  18.262   0.725  1.00 20.00     0.001 A 
HETATM    2  C2  UNL     1     -33.316  18.578   0.316  1.00 20.00     0.001 A 
HETATM    3  C3  UNL     1     -35.519  17.531  -0.048  1.00 20.00     0.012 A 
HETATM    4  C4  UNL     1     -32.802  18.156  -0.858  1.00 20.00     0.012 A 
HETATM    5  C5  UNL     1     -35.609  16.321  -2.266  1.00 20.00     0.001 A 
HETATM    6  C6  UNL     1     -33.405  16.828  -2.924  1.00 20.00     0.001 A 
HETATM    7  C7  UNL     1     -35.016  17.056  -1.316  1.00 20.00    -0.029 A 
HETATM    8  C8  UNL     1     -33.650  17.371  -1.723  1.00 20.00    -0.029 A 
HETATM    9  C10 UNL     1     -34.636  16.098  -3.395  1.00 20.00     0.094 A 
ENDROOT
BRANCH   9  10
HETATM   10  C9  UNL     1     -35.157  16.755  -4.636  1.00 20.00     0.243 C 
HETATM   11  O11 UNL     1     -35.458  16.137  -5.652  1.00 20.00    -0.306 OA
ENDBRANCH   9  10
TORSDOF 1
ENDMDL
MODEL 8
REMARK VINA RESULT:      -4.7     11.222     11.717
REMARK  1 active torsions:
REMARK  status: ('A' for Active; 'I' for Inactive)
REMARK    1  A    between atoms: C9_9  and  C10_10 
ROOT
HETATM    1  C1  UNL     1     -33.509  17.137  -1.908  1.00 20.00     0.001 A 
HETATM    2  C2  UNL     1     -34.826  17.394  -1.314  1.00 20.00     0.001 A 
HETATM    3  C3  UNL     1     -33.365  16.487  -3.082  1.00 20.00     0.012 A 
HETATM    4  C4  UNL     1     -35.971  16.995  -1.906  1.00 20.00     0.012 A 
HETATM    5  C5  UNL     1     -34.712  15.382  -4.914  1.00 20.00     0.001 A 
HETATM    6  C6  UNL     1     -36.826  15.794  -3.961  1.00 20.00     0.001 A 
HETATM    7  C7  UNL     1     -34.561  16.038  -3.756  1.00 20.00    -0.029 A 
HETATM    8  C8  UNL     1     -35.871  16.294  -3.164  1.00 20.00    -0.029 A 
HETATM    9  C10 UNL     1     -36.181  15.158  -5.165  1.00 20.00     0.094 A 
ENDROOT
BRANCH   9  10
HETATM   10  C9  UNL     1     -36.466  13.689  -5.163  1.00 20.00     0.243 C 
HETATM   11  O11 UNL     1     -35.593  12.831  -5.243  1.00 20.00    -0.306 OA
ENDBRANCH   9  10
TORSDOF 1
ENDMDL
MODEL 9
REMARK VINA RESULT:      -4.7     10.727     12.347
REMARK  1 active torsions:
REMARK  status: ('A' for Active; 'I' for Inactive)
REMARK    1  A    between atoms: C9_9  and  C10_10 
ROOT
HETATM    1  C1  UNL     1     -33.519  18.012  -2.575  1.00 20.00     0.001 A 
HETATM    2  C2  UNL     1     -33.414  18.681  -3.877  1.00 20.00     0.001 A 
HETATM    3  C3  UNL     1     -33.726  16.682  -2.466  1.00 20.00     0.012 A 
HETATM    4  C4  UNL     1     -33.519  18.007  -5.041  1.00 20.00     0.012 A 
HETATM    5  C5  UNL     1     -34.049  14.604  -3.869  1.00 20.00     0.001 A 
HETATM    6  C6  UNL     1     -33.881  15.678  -5.958  1.00 20.00     0.001 A 
HETATM    7  C7  UNL     1     -33.847  15.916  -3.684  1.00 20.00    -0.029 A 
HETATM    8  C8  UNL     1     -33.743  16.581  -4.978  1.00 20.00    -0.029 A 
HETATM    9  C10 UNL     1     -34.092  14.316  -5.347  1.00 20.00     0.094 A 
ENDROOT
BRANCH   9  10
HETATM   10  C9  UNL     1     -35.452  13.812  -5.716  1.00 20.00     0.243 C 
HETATM   11  O11 UNL     1     -35.925  12.767  -5.284  1.00 20.00    -0.306 OA
ENDBRANCH   9  10
TORSDOF 1
ENDMDL
