MODEL 1
REMARK VINA RESULT:      -6.9      0.000      0.000
REMARK  2 active torsions:
REMARK  status: ('A' for Active; 'I' for Inactive)
REMARK    1  A    between atoms: C4_4  and  C5_5 
REMARK    2  A    between atoms: C5_5  and  C8_8 
ROOT
HETATM    1  C1  UNL     1     -34.593   4.966   4.367  1.00 20.00    -0.027 A 
HETATM    2  C2  UNL     1     -34.533   6.076   5.116  1.00 20.00    -0.026 A 
HETATM    3  C3  UNL     1     -32.896   5.940   2.778  1.00 20.00    -0.012 A 
HETATM    4  C4  UNL     1     -32.843   7.047   3.533  1.00 20.00    -0.003 A 
HETATM    5  C6  UNL     1     -33.781   4.773   3.118  1.00 20.00     0.054 A 
HETATM    6  C7  UNL     1     -33.647   7.244   4.784  1.00 20.00     0.069 A 
ENDROOT
BRANCH   4   7
HETATM    7  C5  UNL     1     -31.944   8.122   3.107  1.00 20.00     0.261 C 
HETATM    8  O9  UNL     1     -31.053   8.533   3.853  1.00 20.00    -0.283 OA
BRANCH   7   9
HETATM    9  C8  UNL     1     -32.156   8.694   1.734  1.00 20.00     0.455 C 
HETATM   10  F10 UNL     1     -33.303   8.247   1.159  1.00 20.00    -0.163 F 
HETATM   11  F11 UNL     1     -31.143   8.370   0.891  1.00 20.00    -0.163 F 
HETATM   12  F12 UNL     1     -32.232  10.049   1.758  1.00 20.00    -0.163 F 
ENDBRANCH   7   9
ENDBRANCH   4   7
TORSDOF 2
ENDMDL
MODEL 2
REMARK VINA RESULT:      -6.8      0.259      1.456
REMARK  2 active torsions:
REMARK  status: ('A' for Active; 'I' for Inactive)
REMARK    1  A    between atoms: C4_4  and  C5_5 
REMARK    2  A    between atoms: C5_5  and  C8_8 
ROOT
HETATM    1  C1  UNL     1     -34.659   5.154   4.653  1.00 20.00    -0.027 A 
HETATM    2  C2  UNL     1     -34.081   4.910   3.468  1.00 20.00    -0.026 A 
HETATM    3  C3  UNL     1     -33.411   7.338   4.818  1.00 20.00    -0.012 A 
HETATM    4  C4  UNL     1     -32.837   7.085   3.633  1.00 20.00    -0.003 A 
HETATM    5  C6  UNL     1     -34.391   6.394   5.458  1.00 20.00     0.054 A 
HETATM    6  C7  UNL     1     -33.104   5.851   2.822  1.00 20.00     0.069 A 
ENDROOT
BRANCH   4   7
HETATM    7  C5  UNL     1     -31.896   8.076   3.104  1.00 20.00     0.261 C 
HETATM    8  O9  UNL     1     -30.912   8.425   3.759  1.00 20.00    -0.283 OA
BRANCH   7   9
HETATM    9  C8  UNL     1     -32.184   8.639   1.741  1.00 20.00     0.455 C 
HETATM   10  F10 UNL     1     -33.319   8.127   1.199  1.00 20.00    -0.163 F 
HETATM   11  F11 UNL     1     -31.179   8.379   0.866  1.00 20.00    -0.163 F 
HETATM   12  F12 UNL     1     -32.338   9.987   1.775  1.00 20.00    -0.163 F 
ENDBRANCH   7   9
ENDBRANCH   4   7
TORSDOF 2
ENDMDL
MODEL 3
REMARK VINA RESULT:      -6.8      0.262      1.813
REMARK  2 active torsions:
REMARK  status: ('A' for Active; 'I' for Inactive)
REMARK    1  A    between atoms: C4_4  and  C5_5 
REMARK    2  A    between atoms: C5_5  and  C8_8 
ROOT
HETATM    1  C1  UNL     1     -34.656   5.160   4.659  1.00 20.00    -0.027 A 
HETATM    2  C2  UNL     1     -34.077   4.916   3.474  1.00 20.00    -0.026 A 
HETATM    3  C3  UNL     1     -33.404   7.341   4.828  1.00 20.00    -0.012 A 
HETATM    4  C4  UNL     1     -32.829   7.089   3.643  1.00 20.00    -0.003 A 
HETATM    5  C6  UNL     1     -34.387   6.399   5.465  1.00 20.00     0.054 A 
HETATM    6  C7  UNL     1     -33.098   5.856   2.830  1.00 20.00     0.069 A 
ENDROOT
BRANCH   4   7
HETATM    7  C5  UNL     1     -31.886   8.078   3.116  1.00 20.00     0.261 C 
HETATM    8  O9  UNL     1     -30.899   8.419   3.770  1.00 20.00    -0.283 OA
BRANCH   7   9
HETATM    9  C8  UNL     1     -32.176   8.651   1.757  1.00 20.00     0.455 C 
HETATM   10  F10 UNL     1     -32.323  10.000   1.786  1.00 20.00    -0.163 F 
HETATM   11  F11 UNL     1     -33.319   8.143   1.230  1.00 20.00    -0.163 F 
HETATM   12  F12 UNL     1     -31.181   8.383   0.874  1.00 20.00    -0.163 F 
ENDBRANCH   7   9
ENDBRANCH   4   7
TORSDOF 2
ENDMDL
MODEL 4
REMARK VINA RESULT:      -6.1      1.544      1.962
REMARK  2 active torsions:
REMARK  status: ('A' for Active; 'I' for Inactive)
REMARK    1  A    between atoms: C4_4  and  C5_5 
REMARK    2  A    between atoms: C5_5  and  C8_8 
ROOT
HETATM    1  C1  UNL     1     -34.514   5.510   5.719  1.00 20.00    -0.027 A 
HETATM    2  C2  UNL     1     -34.070   6.760   5.918  1.00 20.00    -0.026 A 
HETATM    3  C3  UNL     1     -33.948   5.692   3.270  1.00 20.00    -0.012 A 
HETATM    4  C4  UNL     1     -33.506   6.941   3.478  1.00 20.00    -0.003 A 
HETATM    5  C6  UNL     1     -34.501   4.837   4.376  1.00 20.00     0.054 A 
HETATM    6  C7  UNL     1     -33.511   7.617   4.818  1.00 20.00     0.069 A 
ENDROOT
BRANCH   4   7
HETATM    7  C5  UNL     1     -32.987   7.683   2.326  1.00 20.00     0.261 C 
HETATM    8  O9  UNL     1     -33.593   7.688   1.253  1.00 20.00    -0.283 OA
BRANCH   7   9
HETATM    9  C8  UNL     1     -31.695   8.428   2.512  1.00 20.00     0.455 C 
HETATM   10  F10 UNL     1     -30.932   7.900   3.504  1.00 20.00    -0.163 F 
HETATM   11  F11 UNL     1     -31.907   9.731   2.831  1.00 20.00    -0.163 F 
HETATM   12  F12 UNL     1     -30.938   8.415   1.386  1.00 20.00    -0.163 F 
ENDBRANCH   7   9
ENDBRANCH   4   7
TORSDOF 2
ENDMDL
MODEL 5
REMARK VINA RESULT:      -5.9      1.659      2.230
REMARK  2 active torsions:
REMARK  status: ('A' for Active; 'I' for Inactive)
REMARK    1  A    between atoms: C4_4  and  C5_5 
REMARK    2  A    between atoms: C5_5  and  C8_8 
ROOT
HETATM    1  C1  UNL     1     -33.854   6.686   4.819  1.00 20.00    -0.027 A 
HETATM    2  C2  UNL     1     -32.967   7.664   5.052  1.00 20.00    -0.026 A 
HETATM    3  C3  UNL     1     -33.583   7.023   2.336  1.00 20.00    -0.012 A 
HETATM    4  C4  UNL     1     -32.697   8.001   2.578  1.00 20.00    -0.003 A 
HETATM    5  C6  UNL     1     -34.258   6.255   3.438  1.00 20.00     0.054 A 
HETATM    6  C7  UNL     1     -32.285   8.432   3.955  1.00 20.00     0.069 A 
ENDROOT
BRANCH   4   7
HETATM    7  C5  UNL     1     -32.099   8.682   1.428  1.00 20.00     0.261 C 
HETATM    8  O9  UNL     1     -31.032   8.294   0.949  1.00 20.00    -0.283 OA
BRANCH   7   9
HETATM    9  C8  UNL     1     -32.840   9.862   0.864  1.00 20.00     0.455 C 
HETATM   10  F10 UNL     1     -32.033  10.940   0.683  1.00 20.00    -0.163 F 
HETATM   11  F11 UNL     1     -33.848  10.261   1.682  1.00 20.00    -0.163 F 
HETATM   12  F12 UNL     1     -33.396   9.581  -0.341  1.00 20.00    -0.163 F 
ENDBRANCH   7   9
ENDBRANCH   4   7
TORSDOF 2
ENDMDL
MODEL 6
REMARK VINA RESULT:      -5.9      3.140      4.549
REMARK  2 active torsions:
REMARK  status: ('A' for Active; 'I' for Inactive)
REMARK    1  A    between atoms: C4_4  and  C5_5 
REMARK    2  A    between atoms: C5_5  and  C8_8 
ROOT
HETATM    1  C1  UNL     1     -31.756   8.402   1.820  1.00 20.00    -0.027 A 
HETATM    2  C2  UNL     1     -32.829   7.654   1.522  1.00 20.00    -0.026 A 
HETATM    3  C3  UNL     1     -32.143   7.988   4.276  1.00 20.00    -0.012 A 
HETATM    4  C4  UNL     1     -33.214   7.241   3.969  1.00 20.00    -0.003 A 
HETATM    5  C6  UNL     1     -31.294   8.650   3.228  1.00 20.00     0.054 A 
HETATM    6  C7  UNL     1     -33.679   6.986   2.565  1.00 20.00     0.069 A 
ENDROOT
BRANCH   4   7
HETATM    7  C5  UNL     1     -33.970   6.642   5.071  1.00 20.00     0.261 C 
HETATM    8  O9  UNL     1     -34.013   7.187   6.176  1.00 20.00    -0.283 OA
BRANCH   7   9
HETATM    9  C8  UNL     1     -34.681   5.347   4.796  1.00 20.00     0.455 C 
HETATM   10  F10 UNL     1     -33.910   4.472   4.100  1.00 20.00    -0.163 F 
HETATM   11  F11 UNL     1     -35.811   5.538   4.069  1.00 20.00    -0.163 F 
HETATM   12  F12 UNL     1     -35.049   4.721   5.942  1.00 20.00    -0.163 F 
ENDBRANCH   7   9
ENDBRANCH   4   7
TORSDOF 2
ENDMDL
MODEL 7
REMARK VINA RESULT:      -5.7      3.131      4.411
REMARK  2 active torsions:
REMARK  status: ('A' for Active; 'I' for Inactive)
REMARK    1  A    between atoms: C4_4  and  C5_5 
REMARK    2  A    between atoms: C5_5  and  C8_8 
ROOT
HETATM    1  C1  UNL     1     -31.760   8.404   1.802  1.00 20.00    -0.027 A 
HETATM    2  C2  UNL     1     -31.371   8.691   3.053  1.00 20.00    -0.026 A 
HETATM    3  C3  UNL     1     -33.610   6.950   2.704  1.00 20.00    -0.012 A 
HETATM    4  C4  UNL     1     -33.215   7.242   3.952  1.00 20.00    -0.003 A 
HETATM    5  C6  UNL     1     -32.922   7.505   1.489  1.00 20.00     0.054 A 
HETATM    6  C7  UNL     1     -32.058   8.143   4.272  1.00 20.00     0.069 A 
ENDROOT
BRANCH   4   7
HETATM    7  C5  UNL     1     -33.959   6.645   5.063  1.00 20.00     0.261 C 
HETATM    8  O9  UNL     1     -33.991   7.191   6.167  1.00 20.00    -0.283 OA
BRANCH   7   9
HETATM    9  C8  UNL     1     -34.675   5.351   4.796  1.00 20.00     0.455 C 
HETATM   10  F10 UNL     1     -33.903   4.464   4.117  1.00 20.00    -0.163 F 
HETATM   11  F11 UNL     1     -35.798   5.540   4.057  1.00 20.00    -0.163 F 
HETATM   12  F12 UNL     1     -35.057   4.739   5.946  1.00 20.00    -0.163 F 
ENDBRANCH   7   9
ENDBRANCH   4   7
TORSDOF 2
ENDMDL
MODEL 8
REMARK VINA RESULT:      -5.5      3.056      4.540
REMARK  2 active torsions:
REMARK  status: ('A' for Active; 'I' for Inactive)
REMARK    1  A    between atoms: C4_4  and  C5_5 
REMARK    2  A    between atoms: C5_5  and  C8_8 
ROOT
HETATM    1  C1  UNL     1     -31.910   9.322   2.003  1.00 20.00    -0.027 A 
HETATM    2  C2  UNL     1     -32.790   8.732   1.181  1.00 20.00    -0.026 A 
HETATM    3  C3  UNL     1     -32.160   7.423   3.642  1.00 20.00    -0.012 A 
HETATM    4  C4  UNL     1     -33.039   6.840   2.814  1.00 20.00    -0.003 A 
HETATM    5  C6  UNL     1     -31.495   8.733   3.322  1.00 20.00     0.054 A 
HETATM    6  C7  UNL     1     -33.453   7.421   1.493  1.00 20.00     0.069 A 
ENDROOT
BRANCH   4   7
HETATM    7  C5  UNL     1     -33.625   5.563   3.227  1.00 20.00     0.261 C 
HETATM    8  O9  UNL     1     -33.189   4.497   2.788  1.00 20.00    -0.283 OA
BRANCH   7   9
HETATM    9  C8  UNL     1     -34.770   5.612   4.199  1.00 20.00     0.455 C 
HETATM   10  F10 UNL     1     -34.550   6.492   5.211  1.00 20.00    -0.163 F 
HETATM   11  F11 UNL     1     -34.995   4.403   4.773  1.00 20.00    -0.163 F 
HETATM   12  F12 UNL     1     -35.927   5.986   3.598  1.00 20.00    -0.163 F 
ENDBRANCH   7   9
ENDBRANCH   4   7
TORSDOF 2
ENDMDL
MODEL 9
REMARK VINA RESULT:      -5.5      3.020      4.401
REMARK  2 active torsions:
REMARK  status: ('A' for Active; 'I' for Inactive)
REMARK    1  A    between atoms: C4_4  and  C5_5 
REMARK    2  A    between atoms: C5_5  and  C8_8 
ROOT
HETATM    1  C1  UNL     1     -31.966   9.405   1.879  1.00 20.00    -0.027 A 
HETATM    2  C2  UNL     1     -31.561   8.922   3.063  1.00 20.00    -0.026 A 
HETATM    3  C3  UNL     1     -33.443   7.388   1.555  1.00 20.00    -0.012 A 
HETATM    4  C4  UNL     1     -33.032   6.912   2.740  1.00 20.00    -0.003 A 
HETATM    5  C6  UNL     1     -32.952   8.694   0.996  1.00 20.00     0.054 A 
HETATM    6  C7  UNL     1     -32.052   7.620   3.630  1.00 20.00     0.069 A 
ENDROOT
BRANCH   4   7
HETATM    7  C5  UNL     1     -33.577   5.629   3.188  1.00 20.00     0.261 C 
HETATM    8  O9  UNL     1     -33.108   4.566   2.776  1.00 20.00    -0.283 OA
BRANCH   7   9
HETATM    9  C8  UNL     1     -34.722   5.667   4.161  1.00 20.00     0.455 C 
HETATM   10  F10 UNL     1     -34.513   6.553   5.168  1.00 20.00    -0.163 F 
HETATM   11  F11 UNL     1     -34.931   4.457   4.740  1.00 20.00    -0.163 F 
HETATM   12  F12 UNL     1     -35.884   6.024   3.559  1.00 20.00    -0.163 F 
ENDBRANCH   7   9
ENDBRANCH   4   7
TORSDOF 2
ENDMDL
