MODEL 1
REMARK VINA RESULT:      -5.3      0.000      0.000
REMARK  1 active torsions:
REMARK  status: ('A' for Active; 'I' for Inactive)
REMARK    1  A    between atoms: C6_6  and  C9_9 
ROOT
HETATM    1  C1  UNL     1     -34.289   5.683   5.161  1.00 20.00     0.119 C 
HETATM    2  C2  UNL     1     -32.925   7.632   4.576  1.00 20.00     0.043 A 
HETATM    3  C3  UNL     1     -32.358   8.413   3.575  1.00 20.00     0.012 A 
HETATM    4  C4  UNL     1     -33.321   6.953   1.963  1.00 20.00     0.125 A 
HETATM    5  C5  UNL     1     -33.675   6.530   4.193  1.00 20.00     0.136 A 
HETATM    6  C6  UNL     1     -32.555   8.074   2.242  1.00 20.00    -0.036 A 
HETATM    7  N10 UNL     1     -34.790   4.992   5.948  1.00 20.00    -0.190 NA
HETATM    8  N11 UNL     1     -33.888   6.170   2.907  1.00 20.00    -0.249 NA
ENDROOT
BRANCH   6   9
HETATM    9  C9  UNL     1     -31.959   8.887   1.149  1.00 20.00     0.020 A 
HETATM   10  C7  UNL     1     -32.343  10.340   1.021  1.00 20.00     0.010 A 
HETATM   11  C8  UNL     1     -32.837   9.351   0.013  1.00 20.00     0.010 A 
ENDBRANCH   6   9
TORSDOF 1
ENDMDL
MODEL 2
REMARK VINA RESULT:      -5.0     10.521     11.093
REMARK  1 active torsions:
REMARK  status: ('A' for Active; 'I' for Inactive)
REMARK    1  A    between atoms: C6_6  and  C9_9 
ROOT
HETATM    1  C1  UNL     1     -35.609  13.731  -4.951  1.00 20.00     0.119 C 
HETATM    2  C2  UNL     1     -33.862  15.136  -3.963  1.00 20.00     0.043 A 
HETATM    3  C3  UNL     1     -33.543  16.233  -3.170  1.00 20.00     0.012 A 
HETATM    4  C4  UNL     1     -35.870  16.610  -2.848  1.00 20.00     0.125 A 
HETATM    5  C5  UNL     1     -35.203  14.840  -4.152  1.00 20.00     0.136 A 
HETATM    6  C6  UNL     1     -34.561  16.989  -2.599  1.00 20.00    -0.036 A 
HETATM    7  N10 UNL     1     -35.940  12.828  -5.600  1.00 20.00    -0.190 NA
HETATM    8  N11 UNL     1     -36.218  15.552  -3.613  1.00 20.00    -0.249 NA
ENDROOT
BRANCH   6   9
HETATM    9  C9  UNL     1     -34.252  18.169  -1.748  1.00 20.00     0.020 A 
HETATM   10  C7  UNL     1     -32.895  18.271  -1.096  1.00 20.00     0.010 A 
HETATM   11  C8  UNL     1     -34.101  17.985  -0.258  1.00 20.00     0.010 A 
ENDBRANCH   6   9
TORSDOF 1
ENDMDL
MODEL 3
REMARK VINA RESULT:      -4.8     10.559     11.110
REMARK  1 active torsions:
REMARK  status: ('A' for Active; 'I' for Inactive)
REMARK    1  A    between atoms: C6_6  and  C9_9 
ROOT
HETATM    1  C1  UNL     1     -35.585  13.748  -4.869  1.00 20.00     0.119 C 
HETATM    2  C2  UNL     1     -36.210  15.698  -3.526  1.00 20.00     0.043 A 
HETATM    3  C3  UNL     1     -35.792  16.799  -2.785  1.00 20.00     0.012 A 
HETATM    4  C4  UNL     1     -33.539  16.191  -3.248  1.00 20.00     0.125 A 
HETATM    5  C5  UNL     1     -35.236  14.893  -4.095  1.00 20.00     0.136 A 
HETATM    6  C6  UNL     1     -34.434  17.057  -2.639  1.00 20.00    -0.036 A 
HETATM    7  N10 UNL     1     -35.868  12.815  -5.499  1.00 20.00    -0.190 NA
HETATM    8  N11 UNL     1     -33.907  15.112  -3.974  1.00 20.00    -0.249 NA
ENDROOT
BRANCH   6   9
HETATM    9  C9  UNL     1     -33.957  18.224  -1.851  1.00 20.00     0.020 A 
HETATM   10  C7  UNL     1     -32.631  18.137  -1.137  1.00 20.00     0.010 A 
HETATM   11  C8  UNL     1     -33.902  18.125  -0.347  1.00 20.00     0.010 A 
ENDBRANCH   6   9
TORSDOF 1
ENDMDL
MODEL 4
REMARK VINA RESULT:      -4.6      1.812      4.871
REMARK  1 active torsions:
REMARK  status: ('A' for Active; 'I' for Inactive)
REMARK    1  A    between atoms: C6_6  and  C9_9 
ROOT
HETATM    1  C1  UNL     1     -31.851   8.680   1.287  1.00 20.00     0.119 C 
HETATM    2  C2  UNL     1     -32.519   8.096   3.570  1.00 20.00     0.043 A 
HETATM    3  C3  UNL     1     -33.288   7.288   4.400  1.00 20.00     0.012 A 
HETATM    4  C4  UNL     1     -34.130   6.190   2.465  1.00 20.00     0.125 A 
HETATM    5  C5  UNL     1     -32.609   7.892   2.202  1.00 20.00     0.136 A 
HETATM    6  C6  UNL     1     -34.111   6.315   3.845  1.00 20.00    -0.036 A 
HETATM    7  N10 UNL     1     -31.233   9.320   0.541  1.00 20.00    -0.190 NA
HETATM    8  N11 UNL     1     -33.398   6.956   1.627  1.00 20.00    -0.249 NA
ENDROOT
BRANCH   6   9
HETATM    9  C9  UNL     1     -34.948   5.437   4.706  1.00 20.00     0.020 A 
HETATM   10  C7  UNL     1     -34.507   5.161   6.122  1.00 20.00     0.010 A 
HETATM   11  C8  UNL     1     -34.428   4.075   5.096  1.00 20.00     0.010 A 
ENDBRANCH   6   9
TORSDOF 1
ENDMDL
MODEL 5
REMARK VINA RESULT:      -4.5     10.657     11.056
REMARK  1 active torsions:
REMARK  status: ('A' for Active; 'I' for Inactive)
REMARK    1  A    between atoms: C6_6  and  C9_9 
ROOT
HETATM    1  C1  UNL     1     -34.276  18.586   1.068  1.00 20.00     0.119 C 
HETATM    2  C2  UNL     1     -35.414  17.229  -0.625  1.00 20.00     0.043 A 
HETATM    3  C3  UNL     1     -35.358  16.612  -1.870  1.00 20.00     0.012 A 
HETATM    4  C4  UNL     1     -33.138  17.432  -2.119  1.00 20.00     0.125 A 
HETATM    5  C5  UNL     1     -34.296  17.928  -0.197  1.00 20.00     0.136 A 
HETATM    6  C6  UNL     1     -34.203  16.711  -2.637  1.00 20.00    -0.036 A 
HETATM    7  N10 UNL     1     -34.258  19.122   2.097  1.00 20.00    -0.190 NA
HETATM    8  N11 UNL     1     -33.155  18.045  -0.915  1.00 20.00    -0.249 NA
ENDROOT
BRANCH   6   9
HETATM    9  C9  UNL     1     -34.113  16.064  -3.973  1.00 20.00     0.020 A 
HETATM   10  C7  UNL     1     -34.771  14.723  -4.187  1.00 20.00     0.010 A 
HETATM   11  C8  UNL     1     -33.278  14.818  -4.135  1.00 20.00     0.010 A 
ENDBRANCH   6   9
TORSDOF 1
ENDMDL
MODEL 6
REMARK VINA RESULT:      -4.5     10.528     10.955
REMARK  1 active torsions:
REMARK  status: ('A' for Active; 'I' for Inactive)
REMARK    1  A    between atoms: C6_6  and  C9_9 
ROOT
HETATM    1  C1  UNL     1     -34.618  18.451   1.280  1.00 20.00     0.119 C 
HETATM    2  C2  UNL     1     -33.258  18.090  -0.725  1.00 20.00     0.043 A 
HETATM    3  C3  UNL     1     -33.159  17.531  -1.994  1.00 20.00     0.012 A 
HETATM    4  C4  UNL     1     -35.368  16.687  -1.738  1.00 20.00     0.125 A 
HETATM    5  C5  UNL     1     -34.440  17.906  -0.026  1.00 20.00     0.136 A 
HETATM    6  C6  UNL     1     -34.229  16.814  -2.517  1.00 20.00    -0.036 A 
HETATM    7  N10 UNL     1     -34.764  18.894   2.343  1.00 20.00    -0.190 NA
HETATM    8  N11 UNL     1     -35.501  17.216  -0.502  1.00 20.00    -0.249 NA
ENDROOT
BRANCH   6   9
HETATM    9  C9  UNL     1     -34.153  16.202  -3.870  1.00 20.00     0.020 A 
HETATM   10  C7  UNL     1     -34.795  14.857  -4.106  1.00 20.00     0.010 A 
HETATM   11  C8  UNL     1     -33.303  14.972  -4.075  1.00 20.00     0.010 A 
ENDBRANCH   6   9
TORSDOF 1
ENDMDL
MODEL 7
REMARK VINA RESULT:      -4.5     10.794     11.342
REMARK  1 active torsions:
REMARK  status: ('A' for Active; 'I' for Inactive)
REMARK    1  A    between atoms: C6_6  and  C9_9 
ROOT
HETATM    1  C1  UNL     1     -37.312  14.680  -4.761  1.00 20.00     0.119 C 
HETATM    2  C2  UNL     1     -34.928  14.927  -4.256  1.00 20.00     0.043 A 
HETATM    3  C3  UNL     1     -33.942  15.585  -3.529  1.00 20.00     0.012 A 
HETATM    4  C4  UNL     1     -35.644  16.895  -2.505  1.00 20.00     0.125 A 
HETATM    5  C5  UNL     1     -36.245  15.308  -4.054  1.00 20.00     0.136 A 
HETATM    6  C6  UNL     1     -34.298  16.588  -2.635  1.00 20.00    -0.036 A 
HETATM    7  N10 UNL     1     -38.181  14.169  -5.335  1.00 20.00    -0.190 NA
HETATM    8  N11 UNL     1     -36.629  16.279  -3.194  1.00 20.00    -0.249 NA
ENDROOT
BRANCH   6   9
HETATM    9  C9  UNL     1     -33.267  17.312  -1.846  1.00 20.00     0.020 A 
HETATM   10  C7  UNL     1     -33.701  18.191  -0.699  1.00 20.00     0.010 A 
HETATM   11  C8  UNL     1     -33.175  18.814  -1.953  1.00 20.00     0.010 A 
ENDBRANCH   6   9
TORSDOF 1
ENDMDL
MODEL 8
REMARK VINA RESULT:      -4.3     10.795     11.309
REMARK  1 active torsions:
REMARK  status: ('A' for Active; 'I' for Inactive)
REMARK    1  A    between atoms: C6_6  and  C9_9 
ROOT
HETATM    1  C1  UNL     1     -33.557  17.058  -2.213  1.00 20.00     0.119 C 
HETATM    2  C2  UNL     1     -35.572  16.127  -3.247  1.00 20.00     0.043 A 
HETATM    3  C3  UNL     1     -36.119  15.248  -4.175  1.00 20.00     0.012 A 
HETATM    4  C4  UNL     1     -33.912  14.592  -4.776  1.00 20.00     0.125 A 
HETATM    5  C5  UNL     1     -34.191  16.183  -3.142  1.00 20.00     0.136 A 
HETATM    6  C6  UNL     1     -35.280  14.462  -4.958  1.00 20.00    -0.036 A 
HETATM    7  N10 UNL     1     -33.039  17.770  -1.457  1.00 20.00    -0.190 NA
HETATM    8  N11 UNL     1     -33.345  15.435  -3.885  1.00 20.00    -0.249 NA
ENDROOT
BRANCH   6   9
HETATM    9  C9  UNL     1     -35.835  13.514  -5.960  1.00 20.00     0.020 A 
HETATM   10  C7  UNL     1     -35.009  13.159  -7.172  1.00 20.00     0.010 A 
HETATM   11  C8  UNL     1     -36.218  14.027  -7.327  1.00 20.00     0.010 A 
ENDBRANCH   6   9
TORSDOF 1
ENDMDL
MODEL 9
REMARK VINA RESULT:      -4.2     10.620     11.216
REMARK  1 active torsions:
REMARK  status: ('A' for Active; 'I' for Inactive)
REMARK    1  A    between atoms: C6_6  and  C9_9 
ROOT
HETATM    1  C1  UNL     1     -34.429  16.953  -1.869  1.00 20.00     0.119 C 
HETATM    2  C2  UNL     1     -33.772  15.346  -3.598  1.00 20.00     0.043 A 
HETATM    3  C3  UNL     1     -34.166  14.510  -4.636  1.00 20.00     0.012 A 
HETATM    4  C4  UNL     1     -36.414  15.196  -4.268  1.00 20.00     0.125 A 
HETATM    5  C5  UNL     1     -34.754  16.073  -2.943  1.00 20.00     0.136 A 
HETATM    6  C6  UNL     1     -35.509  14.428  -4.984  1.00 20.00    -0.036 A 
HETATM    7  N10 UNL     1     -34.165  17.670  -0.995  1.00 20.00    -0.190 NA
HETATM    8  N11 UNL     1     -36.069  16.019  -3.253  1.00 20.00    -0.249 NA
ENDROOT
BRANCH   6   9
HETATM    9  C9  UNL     1     -35.961  13.541  -6.088  1.00 20.00     0.020 A 
HETATM   10  C7  UNL     1     -35.001  13.205  -7.202  1.00 20.00     0.010 A 
HETATM   11  C8  UNL     1     -36.154  14.121  -7.468  1.00 20.00     0.010 A 
ENDBRANCH   6   9
TORSDOF 1
ENDMDL
