MODEL 1
REMARK VINA RESULT:      -5.7      0.000      0.000
REMARK  3 active torsions:
REMARK  status: ('A' for Active; 'I' for Inactive)
REMARK    1  A    between atoms: C1_1  and  C5_5 
REMARK    2  A    between atoms: C6_6  and  C8_8 
REMARK    3  A    between atoms: C8_8  and  C9_9 
ROOT
HETATM    1  C2  UNL     1     -32.778   6.345   2.775  1.00 20.00     0.030 C 
HETATM    2  C3  UNL     1     -32.128   7.929   4.037  1.00 20.00     0.030 C 
HETATM    3  C4  UNL     1     -33.924   8.130   2.918  1.00 20.00     0.030 C 
HETATM    4  C5  UNL     1     -33.432   7.097   3.960  1.00 20.00     0.050 C 
HETATM    5  C6  UNL     1     -32.425   7.861   2.483  1.00 20.00    -0.037 C 
ENDROOT
BRANCH   4   6
HETATM    6  C1  UNL     1     -34.179   6.535   5.054  1.00 20.00     0.181 C 
HETATM    7  O10 UNL     1     -34.912   5.551   4.758  1.00 20.00    -0.647 OA
HETATM    8  O11 UNL     1     -33.998   7.106   6.167  1.00 20.00    -0.647 OA
ENDBRANCH   4   6
BRANCH   5   9
HETATM    9  C8  UNL     1     -31.661   8.441   1.358  1.00 20.00     0.009 C 
BRANCH   9  10
HETATM   10  C9  UNL     1     -32.312   9.717   0.785  1.00 20.00    -0.004 C 
HETATM   11  C7  UNL     1     -33.136   9.451  -0.465  1.00 20.00     0.005 C 
ENDBRANCH   9  10
ENDBRANCH   5   9
TORSDOF 3
ENDMDL
MODEL 2
REMARK VINA RESULT:      -5.7      0.024      1.478
REMARK  3 active torsions:
REMARK  status: ('A' for Active; 'I' for Inactive)
REMARK    1  A    between atoms: C1_1  and  C5_5 
REMARK    2  A    between atoms: C6_6  and  C8_8 
REMARK    3  A    between atoms: C8_8  and  C9_9 
ROOT
HETATM    1  C2  UNL     1     -32.127   7.937   4.035  1.00 20.00     0.030 C 
HETATM    2  C3  UNL     1     -33.933   8.133   2.930  1.00 20.00     0.030 C 
HETATM    3  C4  UNL     1     -32.792   6.345   2.793  1.00 20.00     0.030 C 
HETATM    4  C5  UNL     1     -33.433   7.108   3.978  1.00 20.00     0.050 C 
HETATM    5  C6  UNL     1     -32.439   7.858   2.485  1.00 20.00    -0.037 C 
ENDROOT
BRANCH   4   6
HETATM    6  C1  UNL     1     -34.171   6.551   5.081  1.00 20.00     0.181 C 
HETATM    7  O10 UNL     1     -34.005   7.131   6.189  1.00 20.00    -0.647 OA
HETATM    8  O11 UNL     1     -34.887   5.552   4.787  1.00 20.00    -0.647 OA
ENDBRANCH   4   6
BRANCH   5   9
HETATM    9  C8  UNL     1     -31.681   8.426   1.350  1.00 20.00     0.009 C 
BRANCH   9  10
HETATM   10  C9  UNL     1     -32.323   9.709   0.781  1.00 20.00    -0.004 C 
HETATM   11  C7  UNL     1     -33.149   9.454  -0.470  1.00 20.00     0.005 C 
ENDBRANCH   9  10
ENDBRANCH   5   9
TORSDOF 3
ENDMDL
MODEL 3
REMARK VINA RESULT:      -5.7      0.098      1.478
REMARK  3 active torsions:
REMARK  status: ('A' for Active; 'I' for Inactive)
REMARK    1  A    between atoms: C1_1  and  C5_5 
REMARK    2  A    between atoms: C6_6  and  C8_8 
REMARK    3  A    between atoms: C8_8  and  C9_9 
ROOT
HETATM    1  C2  UNL     1     -33.972   8.072   2.923  1.00 20.00     0.030 C 
HETATM    2  C3  UNL     1     -32.787   6.314   2.759  1.00 20.00     0.030 C 
HETATM    3  C4  UNL     1     -32.191   7.880   4.068  1.00 20.00     0.030 C 
HETATM    4  C5  UNL     1     -33.476   7.024   3.950  1.00 20.00     0.050 C 
HETATM    5  C6  UNL     1     -32.461   7.842   2.508  1.00 20.00    -0.037 C 
ENDROOT
BRANCH   4   6
HETATM    6  C1  UNL     1     -34.224   6.417   5.019  1.00 20.00     0.181 C 
HETATM    7  O10 UNL     1     -34.096   6.969   6.147  1.00 20.00    -0.647 OA
HETATM    8  O11 UNL     1     -34.908   5.411   4.682  1.00 20.00    -0.647 OA
ENDBRANCH   4   6
BRANCH   5   9
HETATM    9  C8  UNL     1     -31.690   8.467   1.412  1.00 20.00     0.009 C 
BRANCH   9  10
HETATM   10  C9  UNL     1     -32.376   9.722   0.833  1.00 20.00    -0.004 C 
HETATM   11  C7  UNL     1     -33.132   9.442  -0.455  1.00 20.00     0.005 C 
ENDBRANCH   9  10
ENDBRANCH   5   9
TORSDOF 3
ENDMDL
MODEL 4
REMARK VINA RESULT:      -5.1      2.797      4.650
REMARK  3 active torsions:
REMARK  status: ('A' for Active; 'I' for Inactive)
REMARK    1  A    between atoms: C1_1  and  C5_5 
REMARK    2  A    between atoms: C6_6  and  C8_8 
REMARK    3  A    between atoms: C8_8  and  C9_9 
ROOT
HETATM    1  C2  UNL     1     -32.835   6.743   2.516  1.00 20.00     0.030 C 
HETATM    2  C3  UNL     1     -33.851   8.492   3.174  1.00 20.00     0.030 C 
HETATM    3  C4  UNL     1     -31.831   8.157   3.746  1.00 20.00     0.030 C 
HETATM    4  C5  UNL     1     -32.545   8.257   2.375  1.00 20.00     0.050 C 
HETATM    5  C6  UNL     1     -33.151   7.310   3.961  1.00 20.00    -0.037 C 
ENDROOT
BRANCH   4   6
HETATM    6  C1  UNL     1     -32.095   8.962   1.204  1.00 20.00     0.181 C 
HETATM    7  O10 UNL     1     -32.753   9.999   0.912  1.00 20.00    -0.647 OA
HETATM    8  O11 UNL     1     -31.098   8.444   0.625  1.00 20.00    -0.647 OA
ENDBRANCH   4   6
BRANCH   5   9
HETATM    9  C8  UNL     1     -33.610   6.588   5.167  1.00 20.00     0.009 C 
BRANCH   9  10
HETATM   10  C9  UNL     1     -34.817   5.667   4.893  1.00 20.00    -0.004 C 
HETATM   11  C7  UNL     1     -34.413   4.233   4.591  1.00 20.00     0.005 C 
ENDBRANCH   9  10
ENDBRANCH   5   9
TORSDOF 3
ENDMDL
MODEL 5
REMARK VINA RESULT:      -5.1      2.807      4.629
REMARK  3 active torsions:
REMARK  status: ('A' for Active; 'I' for Inactive)
REMARK    1  A    between atoms: C1_1  and  C5_5 
REMARK    2  A    between atoms: C6_6  and  C8_8 
REMARK    3  A    between atoms: C8_8  and  C9_9 
ROOT
HETATM    1  C2  UNL     1     -31.821   8.115   3.699  1.00 20.00     0.030 C 
HETATM    2  C3  UNL     1     -32.901   6.737   2.492  1.00 20.00     0.030 C 
HETATM    3  C4  UNL     1     -33.843   8.515   3.179  1.00 20.00     0.030 C 
HETATM    4  C5  UNL     1     -32.565   8.242   2.348  1.00 20.00     0.050 C 
HETATM    5  C6  UNL     1     -33.161   7.309   3.945  1.00 20.00    -0.037 C 
ENDROOT
BRANCH   4   6
HETATM    6  C1  UNL     1     -32.128   8.933   1.164  1.00 20.00     0.181 C 
HETATM    7  O10 UNL     1     -31.071   8.486   0.638  1.00 20.00    -0.647 OA
HETATM    8  O11 UNL     1     -32.864   9.897   0.811  1.00 20.00    -0.647 OA
ENDBRANCH   4   6
BRANCH   5   9
HETATM    9  C8  UNL     1     -33.615   6.601   5.162  1.00 20.00     0.009 C 
BRANCH   9  10
HETATM   10  C9  UNL     1     -34.817   5.669   4.901  1.00 20.00    -0.004 C 
HETATM   11  C7  UNL     1     -34.402   4.245   4.568  1.00 20.00     0.005 C 
ENDBRANCH   9  10
ENDBRANCH   5   9
TORSDOF 3
ENDMDL
MODEL 6
REMARK VINA RESULT:      -5.1      2.792      4.647
REMARK  3 active torsions:
REMARK  status: ('A' for Active; 'I' for Inactive)
REMARK    1  A    between atoms: C1_1  and  C5_5 
REMARK    2  A    between atoms: C6_6  and  C8_8 
REMARK    3  A    between atoms: C8_8  and  C9_9 
ROOT
HETATM    1  C2  UNL     1     -33.873   8.502   3.205  1.00 20.00     0.030 C 
HETATM    2  C3  UNL     1     -31.845   8.168   3.748  1.00 20.00     0.030 C 
HETATM    3  C4  UNL     1     -32.871   6.747   2.545  1.00 20.00     0.030 C 
HETATM    4  C5  UNL     1     -32.580   8.260   2.389  1.00 20.00     0.050 C 
HETATM    5  C6  UNL     1     -33.163   7.325   3.990  1.00 20.00    -0.037 C 
ENDROOT
BRANCH   4   6
HETATM    6  C1  UNL     1     -32.146   8.949   1.202  1.00 20.00     0.181 C 
HETATM    7  O10 UNL     1     -32.868   9.924   0.850  1.00 20.00    -0.647 OA
HETATM    8  O11 UNL     1     -31.099   8.483   0.673  1.00 20.00    -0.647 OA
ENDBRANCH   4   6
BRANCH   5   9
HETATM    9  C8  UNL     1     -33.607   6.612   5.207  1.00 20.00     0.009 C 
BRANCH   9  10
HETATM   10  C9  UNL     1     -34.809   5.680   4.952  1.00 20.00    -0.004 C 
HETATM   11  C7  UNL     1     -34.395   4.249   4.649  1.00 20.00     0.005 C 
ENDBRANCH   9  10
ENDBRANCH   5   9
TORSDOF 3
ENDMDL
MODEL 7
REMARK VINA RESULT:      -4.7     10.269     11.142
REMARK  3 active torsions:
REMARK  status: ('A' for Active; 'I' for Inactive)
REMARK    1  A    between atoms: C1_1  and  C5_5 
REMARK    2  A    between atoms: C6_6  and  C8_8 
REMARK    3  A    between atoms: C8_8  and  C9_9 
ROOT
HETATM    1  C2  UNL     1     -34.078  14.558  -3.927  1.00 20.00     0.030 C 
HETATM    2  C3  UNL     1     -35.871  15.607  -3.471  1.00 20.00     0.030 C 
HETATM    3  C4  UNL     1     -34.915  15.902  -5.347  1.00 20.00     0.030 C 
HETATM    4  C5  UNL     1     -35.461  14.650  -4.617  1.00 20.00     0.050 C 
HETATM    5  C6  UNL     1     -34.418  16.103  -3.857  1.00 20.00    -0.037 C 
ENDROOT
BRANCH   4   6
HETATM    6  C1  UNL     1     -36.236  13.576  -5.181  1.00 20.00     0.181 C 
HETATM    7  O10 UNL     1     -37.487  13.692  -5.060  1.00 20.00    -0.647 OA
HETATM    8  O11 UNL     1     -35.555  12.661  -5.723  1.00 20.00    -0.647 OA
ENDBRANCH   4   6
BRANCH   5   9
HETATM    9  C8  UNL     1     -33.623  17.209  -3.281  1.00 20.00     0.009 C 
BRANCH   9  10
HETATM   10  C9  UNL     1     -33.702  17.267  -1.742  1.00 20.00    -0.004 C 
HETATM   11  C7  UNL     1     -32.593  18.103  -1.122  1.00 20.00     0.005 C 
ENDBRANCH   9  10
ENDBRANCH   5   9
TORSDOF 3
ENDMDL
MODEL 8
REMARK VINA RESULT:      -4.7     10.298     11.567
REMARK  3 active torsions:
REMARK  status: ('A' for Active; 'I' for Inactive)
REMARK    1  A    between atoms: C1_1  and  C5_5 
REMARK    2  A    between atoms: C6_6  and  C8_8 
REMARK    3  A    between atoms: C8_8  and  C9_9 
ROOT
HETATM    1  C2  UNL     1     -34.268  14.090  -4.122  1.00 20.00     0.030 C 
HETATM    2  C3  UNL     1     -35.184  15.695  -5.175  1.00 20.00     0.030 C 
HETATM    3  C4  UNL     1     -33.083  15.398  -5.308  1.00 20.00     0.030 C 
HETATM    4  C5  UNL     1     -34.306  14.498  -5.615  1.00 20.00     0.050 C 
HETATM    5  C6  UNL     1     -34.044  15.657  -4.077  1.00 20.00    -0.037 C 
ENDROOT
BRANCH   4   6
HETATM    6  C1  UNL     1     -34.498  13.643  -6.757  1.00 20.00     0.181 C 
HETATM    7  O10 UNL     1     -34.020  14.076  -7.841  1.00 20.00    -0.647 OA
HETATM    8  O11 UNL     1     -35.122  12.572  -6.516  1.00 20.00    -0.647 OA
ENDBRANCH   4   6
BRANCH   5   9
HETATM    9  C8  UNL     1     -33.843  16.538  -2.906  1.00 20.00     0.009 C 
BRANCH   9  10
HETATM   10  C9  UNL     1     -35.103  16.663  -2.025  1.00 20.00    -0.004 C 
HETATM   11  C7  UNL     1     -34.839  17.380  -0.711  1.00 20.00     0.005 C 
ENDBRANCH   9  10
ENDBRANCH   5   9
TORSDOF 3
ENDMDL
MODEL 9
REMARK VINA RESULT:      -3.8     10.659     11.381
REMARK  3 active torsions:
REMARK  status: ('A' for Active; 'I' for Inactive)
REMARK    1  A    between atoms: C1_1  and  C5_5 
REMARK    2  A    between atoms: C6_6  and  C8_8 
REMARK    3  A    between atoms: C8_8  and  C9_9 
ROOT
HETATM    1  C2  UNL     1     -34.779  18.136  -3.053  1.00 20.00     0.030 C 
HETATM    2  C3  UNL     1     -35.311  16.707  -1.570  1.00 20.00     0.030 C 
HETATM    3  C4  UNL     1     -33.619  16.371  -2.812  1.00 20.00     0.030 C 
HETATM    4  C5  UNL     1     -34.022  17.517  -1.853  1.00 20.00     0.050 C 
HETATM    5  C6  UNL     1     -35.151  16.599  -3.141  1.00 20.00    -0.037 C 
ENDROOT
BRANCH   4   6
HETATM    6  C1  UNL     1     -33.184  18.194  -0.897  1.00 20.00     0.181 C 
HETATM    7  O10 UNL     1     -33.648  18.262   0.274  1.00 20.00    -0.647 OA
HETATM    8  O11 UNL     1     -32.094  18.629  -1.364  1.00 20.00    -0.647 OA
ENDBRANCH   4   6
BRANCH   5   9
HETATM    9  C8  UNL     1     -36.008  15.901  -4.123  1.00 20.00     0.009 C 
BRANCH   9  10
HETATM   10  C9  UNL     1     -35.497  14.487  -4.468  1.00 20.00    -0.004 C 
HETATM   11  C7  UNL     1     -34.850  14.409  -5.841  1.00 20.00     0.005 C 
ENDBRANCH   9  10
ENDBRANCH   5   9
TORSDOF 3
ENDMDL
