MODEL 1
REMARK VINA RESULT:      -5.0      0.000      0.000
REMARK  0 active torsions:
REMARK  status: ('A' for Active; 'I' for Inactive)
ROOT
HETATM    1  C1  UNL     1     -34.377   4.196   5.595  1.00 20.00     0.015 C 
HETATM    2  C2  UNL     1     -34.527   5.014   4.729  1.00 20.00    -0.075 C 
HETATM    3  C3  UNL     1     -31.713   8.389   3.845  1.00 20.00     0.001 C 
HETATM    4  C4  UNL     1     -31.850   7.592   2.528  1.00 20.00     0.005 C 
HETATM    5  C5  UNL     1     -32.886   7.928   4.741  1.00 20.00     0.009 C 
HETATM    6  C6  UNL     1     -33.990   5.740   2.303  1.00 20.00     0.060 C 
HETATM    7  C7  UNL     1     -32.767   6.461   2.937  1.00 20.00    -0.003 C 
HETATM    8  C8  UNL     1     -33.823   7.283   3.738  1.00 20.00     0.040 C 
HETATM    9  C9  UNL     1     -34.705   5.998   3.687  1.00 20.00     0.162 C 
HETATM   10  O10 UNL     1     -36.071   6.287   3.529  1.00 20.00    -0.214 OA
ENDROOT
TORSDOF 0
ENDMDL
MODEL 2
REMARK VINA RESULT:      -4.8     11.463     12.364
REMARK  0 active torsions:
REMARK  status: ('A' for Active; 'I' for Inactive)
ROOT
HETATM    1  C1  UNL     1     -35.034  14.619  -7.770  1.00 20.00     0.015 C 
HETATM    2  C2  UNL     1     -35.325  14.322  -6.644  1.00 20.00    -0.075 C 
HETATM    3  C3  UNL     1     -33.789  16.347  -2.953  1.00 20.00     0.001 C 
HETATM    4  C4  UNL     1     -35.329  16.435  -2.877  1.00 20.00     0.005 C 
HETATM    5  C5  UNL     1     -33.479  15.276  -4.024  1.00 20.00     0.009 C 
HETATM    6  C6  UNL     1     -36.850  14.768  -4.600  1.00 20.00     0.060 C 
HETATM    7  C7  UNL     1     -35.748  15.778  -4.174  1.00 20.00    -0.003 C 
HETATM    8  C8  UNL     1     -34.801  14.540  -4.133  1.00 20.00     0.040 C 
HETATM    9  C9  UNL     1     -35.677  13.966  -5.289  1.00 20.00     0.162 C 
HETATM   10  O10 UNL     1     -35.859  12.577  -5.190  1.00 20.00    -0.214 OA
ENDROOT
TORSDOF 0
ENDMDL
MODEL 3
REMARK VINA RESULT:      -4.5     11.682     12.841
REMARK  0 active torsions:
REMARK  status: ('A' for Active; 'I' for Inactive)
ROOT
HETATM    1  C1  UNL     1     -38.301  14.845  -4.853  1.00 20.00     0.015 C 
HETATM    2  C2  UNL     1     -37.178  14.437  -4.975  1.00 20.00    -0.075 C 
HETATM    3  C3  UNL     1     -33.835  16.624  -7.007  1.00 20.00     0.001 C 
HETATM    4  C4  UNL     1     -33.338  16.318  -5.577  1.00 20.00     0.005 C 
HETATM    5  C5  UNL     1     -35.064  15.711  -7.230  1.00 20.00     0.009 C 
HETATM    6  C6  UNL     1     -34.763  14.398  -4.047  1.00 20.00     0.060 C 
HETATM    7  C7  UNL     1     -34.539  15.633  -4.963  1.00 20.00    -0.003 C 
HETATM    8  C8  UNL     1     -34.895  14.672  -6.138  1.00 20.00     0.040 C 
HETATM    9  C9  UNL     1     -35.828  13.946  -5.121  1.00 20.00     0.162 C 
HETATM   10  O10 UNL     1     -35.841  12.553  -5.298  1.00 20.00    -0.214 OA
ENDROOT
TORSDOF 0
ENDMDL
MODEL 4
REMARK VINA RESULT:      -4.4      1.498      2.776
REMARK  0 active torsions:
REMARK  status: ('A' for Active; 'I' for Inactive)
ROOT
HETATM    1  C1  UNL     1     -32.466   3.825   2.247  1.00 20.00     0.015 C 
HETATM    2  C2  UNL     1     -33.098   4.834   2.401  1.00 20.00    -0.075 C 
HETATM    3  C3  UNL     1     -34.369   6.514   6.357  1.00 20.00     0.001 C 
HETATM    4  C4  UNL     1     -33.561   7.630   5.659  1.00 20.00     0.005 C 
HETATM    5  C5  UNL     1     -34.720   5.493   5.249  1.00 20.00     0.009 C 
HETATM    6  C6  UNL     1     -33.056   7.377   2.877  1.00 20.00     0.060 C 
HETATM    7  C7  UNL     1     -33.138   6.958   4.371  1.00 20.00    -0.003 C 
HETATM    8  C8  UNL     1     -34.498   6.301   3.985  1.00 20.00     0.040 C 
HETATM    9  C9  UNL     1     -33.857   6.048   2.586  1.00 20.00     0.162 C 
HETATM   10  O10 UNL     1     -34.775   6.205   1.534  1.00 20.00    -0.214 OA
ENDROOT
TORSDOF 0
ENDMDL
MODEL 5
REMARK VINA RESULT:      -4.3      1.589      2.145
REMARK  0 active torsions:
REMARK  status: ('A' for Active; 'I' for Inactive)
ROOT
HETATM    1  C1  UNL     1     -33.619   7.481   5.976  1.00 20.00     0.015 C 
HETATM    2  C2  UNL     1     -33.683   7.169   4.818  1.00 20.00    -0.075 C 
HETATM    3  C3  UNL     1     -32.348   9.711   1.377  1.00 20.00     0.001 C 
HETATM    4  C4  UNL     1     -31.570   8.382   1.253  1.00 20.00     0.005 C 
HETATM    5  C5  UNL     1     -33.507   9.430   2.361  1.00 20.00     0.009 C 
HETATM    6  C6  UNL     1     -32.473   6.157   2.767  1.00 20.00     0.060 C 
HETATM    7  C7  UNL     1     -32.045   7.621   2.471  1.00 20.00    -0.003 C 
HETATM    8  C8  UNL     1     -33.573   7.915   2.358  1.00 20.00     0.040 C 
HETATM    9  C9  UNL     1     -33.759   6.794   3.426  1.00 20.00     0.162 C 
HETATM   10  O10 UNL     1     -34.907   6.018   3.200  1.00 20.00    -0.214 OA
ENDROOT
TORSDOF 0
ENDMDL
MODEL 6
REMARK VINA RESULT:      -4.3     11.824     12.894
REMARK  0 active torsions:
REMARK  status: ('A' for Active; 'I' for Inactive)
ROOT
HETATM    1  C1  UNL     1     -33.969  17.914  -6.074  1.00 20.00     0.015 C 
HETATM    2  C2  UNL     1     -33.900  17.087  -5.207  1.00 20.00    -0.075 C 
HETATM    3  C3  UNL     1     -34.169  17.919  -0.811  1.00 20.00     0.001 C 
HETATM    4  C4  UNL     1     -35.278  16.888  -1.118  1.00 20.00     0.005 C 
HETATM    5  C5  UNL     1     -33.223  17.898  -2.034  1.00 20.00     0.009 C 
HETATM    6  C6  UNL     1     -35.170  15.508  -3.597  1.00 20.00     0.060 C 
HETATM    7  C7  UNL     1     -35.140  16.712  -2.615  1.00 20.00    -0.003 C 
HETATM    8  C8  UNL     1     -33.589  16.586  -2.701  1.00 20.00     0.040 C 
HETATM    9  C9  UNL     1     -33.817  16.092  -4.163  1.00 20.00     0.162 C 
HETATM   10  O10 UNL     1     -32.920  15.078  -4.537  1.00 20.00    -0.214 OA
ENDROOT
TORSDOF 0
ENDMDL
MODEL 7
REMARK VINA RESULT:      -4.3      1.337      3.761
REMARK  0 active torsions:
REMARK  status: ('A' for Active; 'I' for Inactive)
ROOT
HETATM    1  C1  UNL     1     -31.029   7.960   3.322  1.00 20.00     0.015 C 
HETATM    2  C2  UNL     1     -32.198   7.819   3.558  1.00 20.00    -0.075 C 
HETATM    3  C3  UNL     1     -34.219   3.902   4.370  1.00 20.00     0.001 C 
HETATM    4  C4  UNL     1     -34.515   4.797   5.595  1.00 20.00     0.005 C 
HETATM    5  C5  UNL     1     -33.721   4.857   3.261  1.00 20.00     0.009 C 
HETATM    6  C6  UNL     1     -34.043   7.586   5.358  1.00 20.00     0.060 C 
HETATM    7  C7  UNL     1     -33.759   6.061   5.253  1.00 20.00    -0.003 C 
HETATM    8  C8  UNL     1     -34.194   6.207   3.763  1.00 20.00     0.040 C 
HETATM    9  C9  UNL     1     -33.603   7.649   3.843  1.00 20.00     0.162 C 
HETATM   10  O10 UNL     1     -34.357   8.583   3.113  1.00 20.00    -0.214 OA
ENDROOT
TORSDOF 0
ENDMDL
MODEL 8
REMARK VINA RESULT:      -4.3     11.999     12.595
REMARK  0 active torsions:
REMARK  status: ('A' for Active; 'I' for Inactive)
ROOT
HETATM    1  C1  UNL     1     -35.866  13.448  -5.262  1.00 20.00     0.015 C 
HETATM    2  C2  UNL     1     -35.439  14.570  -5.228  1.00 20.00    -0.075 C 
HETATM    3  C3  UNL     1     -34.937  17.034  -1.518  1.00 20.00     0.001 C 
HETATM    4  C4  UNL     1     -33.544  16.978  -2.185  1.00 20.00     0.005 C 
HETATM    5  C5  UNL     1     -35.942  16.577  -2.601  1.00 20.00     0.009 C 
HETATM    6  C6  UNL     1     -33.387  16.108  -4.882  1.00 20.00     0.060 C 
HETATM    7  C7  UNL     1     -33.803  16.094  -3.385  1.00 20.00    -0.003 C 
HETATM    8  C8  UNL     1     -35.135  16.739  -3.876  1.00 20.00     0.040 C 
HETATM    9  C9  UNL     1     -34.925  15.918  -5.186  1.00 20.00     0.162 C 
HETATM   10  O10 UNL     1     -35.327  16.621  -6.333  1.00 20.00    -0.214 OA
ENDROOT
TORSDOF 0
ENDMDL
MODEL 9
REMARK VINA RESULT:      -4.3     11.644     12.911
REMARK  0 active torsions:
REMARK  status: ('A' for Active; 'I' for Inactive)
ROOT
HETATM    1  C1  UNL     1     -37.173  14.939  -7.918  1.00 20.00     0.015 C 
HETATM    2  C2  UNL     1     -36.402  14.357  -7.206  1.00 20.00    -0.075 C 
HETATM    3  C3  UNL     1     -33.140  16.277  -4.806  1.00 20.00     0.001 C 
HETATM    4  C4  UNL     1     -34.006  15.491  -3.796  1.00 20.00     0.005 C 
HETATM    5  C5  UNL     1     -33.526  15.737  -6.202  1.00 20.00     0.009 C 
HETATM    6  C6  UNL     1     -35.825  13.562  -4.811  1.00 20.00     0.060 C 
HETATM    7  C7  UNL     1     -35.095  14.928  -4.684  1.00 20.00    -0.003 C 
HETATM    8  C8  UNL     1     -34.207  14.425  -5.863  1.00 20.00     0.040 C 
HETATM    9  C9  UNL     1     -35.475  13.657  -6.348  1.00 20.00     0.162 C 
HETATM   10  O10 UNL     1     -35.168  12.401  -6.897  1.00 20.00    -0.214 OA
ENDROOT
TORSDOF 0
ENDMDL
