MODEL 1
REMARK VINA RESULT:      -5.5      0.000      0.000
REMARK  0 active torsions:
REMARK  status: ('A' for Active; 'I' for Inactive)
ROOT
HETATM    1  C1  UNL     1     -33.323   7.269   5.647  1.00 20.00     0.013 A 
HETATM    2  C2  UNL     1     -34.213   6.377   6.104  1.00 20.00    -0.025 A 
HETATM    3  C3  UNL     1     -33.056   7.336   4.248  1.00 20.00     0.035 A 
HETATM    4  C4  UNL     1     -33.643   6.554   3.337  1.00 20.00    -0.046 A 
HETATM    5  C5  UNL     1     -32.127   8.231   3.534  1.00 20.00     0.254 A 
HETATM    6  C6  UNL     1     -34.962   5.421   5.205  1.00 20.00     0.031 A 
HETATM    7  C7  UNL     1     -34.654   5.513   3.689  1.00 20.00     0.040 A 
HETATM    8  C8  UNL     1     -33.185   6.829   1.949  1.00 20.00     0.161 A 
HETATM    9  C9  UNL     1     -31.484   8.547   1.137  1.00 20.00     0.153 C 
HETATM   10  N10 UNL     1     -32.237   7.896   2.188  1.00 20.00    -0.348 N 
HETATM   11  O11 UNL     1     -31.425   9.076   4.064  1.00 20.00    -0.267 OA
ENDROOT
TORSDOF 0
ENDMDL
MODEL 2
REMARK VINA RESULT:      -4.8     11.626     11.958
REMARK  0 active torsions:
REMARK  status: ('A' for Active; 'I' for Inactive)
ROOT
HETATM    1  C1  UNL     1     -33.328  17.346  -2.148  1.00 20.00     0.013 A 
HETATM    2  C2  UNL     1     -34.470  16.931  -2.716  1.00 20.00    -0.025 A 
HETATM    3  C3  UNL     1     -33.354  17.846  -0.813  1.00 20.00     0.035 A 
HETATM    4  C4  UNL     1     -34.461  17.933  -0.069  1.00 20.00    -0.046 A 
HETATM    5  C5  UNL     1     -32.231  18.349  -0.001  1.00 20.00     0.254 A 
HETATM    6  C6  UNL     1     -35.805  16.965  -2.010  1.00 20.00     0.031 A 
HETATM    7  C7  UNL     1     -35.807  17.512  -0.561  1.00 20.00     0.040 A 
HETATM    8  C8  UNL     1     -34.211  18.490   1.287  1.00 20.00     0.161 A 
HETATM    9  C9  UNL     1     -32.010  19.263   2.317  1.00 20.00     0.153 C 
HETATM   10  N10 UNL     1     -32.783  18.715   1.223  1.00 20.00    -0.348 N 
HETATM   11  O11 UNL     1     -31.072  18.411  -0.374  1.00 20.00    -0.267 OA
ENDROOT
TORSDOF 0
ENDMDL
MODEL 3
REMARK VINA RESULT:      -4.5     11.393     11.975
REMARK  0 active torsions:
REMARK  status: ('A' for Active; 'I' for Inactive)
ROOT
HETATM    1  C1  UNL     1     -32.809  18.099  -1.193  1.00 20.00     0.013 A 
HETATM    2  C2  UNL     1     -33.180  17.521  -2.345  1.00 20.00    -0.025 A 
HETATM    3  C3  UNL     1     -33.724  18.128  -0.100  1.00 20.00     0.035 A 
HETATM    4  C4  UNL     1     -34.955  17.609  -0.142  1.00 20.00    -0.046 A 
HETATM    5  C5  UNL     1     -33.529  18.704   1.243  1.00 20.00     0.254 A 
HETATM    6  C6  UNL     1     -34.537  16.889  -2.554  1.00 20.00     0.031 A 
HETATM    7  C7  UNL     1     -35.513  16.934  -1.351  1.00 20.00     0.040 A 
HETATM    8  C8  UNL     1     -35.702  17.775   1.134  1.00 20.00     0.161 A 
HETATM    9  C9  UNL     1     -34.942  18.885   3.300  1.00 20.00     0.153 C 
HETATM   10  N10 UNL     1     -34.717  18.473   1.931  1.00 20.00    -0.348 N 
HETATM   11  O11 UNL     1     -32.513  19.260   1.624  1.00 20.00    -0.267 OA
ENDROOT
TORSDOF 0
ENDMDL
MODEL 4
REMARK VINA RESULT:      -4.5      1.404      2.300
REMARK  0 active torsions:
REMARK  status: ('A' for Active; 'I' for Inactive)
ROOT
HETATM    1  C1  UNL     1     -34.631   5.407   3.962  1.00 20.00     0.013 A 
HETATM    2  C2  UNL     1     -34.965   5.254   5.252  1.00 20.00    -0.025 A 
HETATM    3  C3  UNL     1     -33.745   6.460   3.590  1.00 20.00     0.035 A 
HETATM    4  C4  UNL     1     -33.208   7.326   4.455  1.00 20.00    -0.046 A 
HETATM    5  C5  UNL     1     -33.248   6.807   2.246  1.00 20.00     0.254 A 
HETATM    6  C6  UNL     1     -34.445   6.150   6.352  1.00 20.00     0.031 A 
HETATM    7  C7  UNL     1     -33.483   7.286   5.922  1.00 20.00     0.040 A 
HETATM    8  C8  UNL     1     -32.318   8.324   3.805  1.00 20.00     0.161 A 
HETATM    9  C9  UNL     1     -31.718   8.566   1.338  1.00 20.00     0.153 C 
HETATM   10  N10 UNL     1     -32.415   7.908   2.422  1.00 20.00    -0.348 N 
HETATM   11  O11 UNL     1     -33.541   6.218   1.219  1.00 20.00    -0.267 OA
ENDROOT
TORSDOF 0
ENDMDL
MODEL 5
REMARK VINA RESULT:      -4.5     11.489     12.111
REMARK  0 active torsions:
REMARK  status: ('A' for Active; 'I' for Inactive)
ROOT
HETATM    1  C1  UNL     1     -35.452  17.051  -1.151  1.00 20.00     0.013 A 
HETATM    2  C2  UNL     1     -34.724  16.847  -2.258  1.00 20.00    -0.025 A 
HETATM    3  C3  UNL     1     -34.869  17.745  -0.050  1.00 20.00     0.035 A 
HETATM    4  C4  UNL     1     -33.620  18.219  -0.043  1.00 20.00    -0.046 A 
HETATM    5  C5  UNL     1     -35.480  18.078   1.250  1.00 20.00     0.254 A 
HETATM    6  C6  UNL     1     -33.297  17.319  -2.408  1.00 20.00     0.031 A 
HETATM    7  C7  UNL     1     -32.686  18.071  -1.199  1.00 20.00     0.040 A 
HETATM    8  C8  UNL     1     -33.262  18.902   1.229  1.00 20.00     0.161 A 
HETATM    9  C9  UNL     1     -34.694  19.263   3.309  1.00 20.00     0.153 C 
HETATM   10  N10 UNL     1     -34.499  18.756   1.967  1.00 20.00    -0.348 N 
HETATM   11  O11 UNL     1     -36.618  17.791   1.581  1.00 20.00    -0.267 OA
ENDROOT
TORSDOF 0
ENDMDL
MODEL 6
REMARK VINA RESULT:      -4.5     11.162     11.769
REMARK  0 active torsions:
REMARK  status: ('A' for Active; 'I' for Inactive)
ROOT
HETATM    1  C1  UNL     1     -33.549  16.533  -2.494  1.00 20.00     0.013 A 
HETATM    2  C2  UNL     1     -33.855  17.609  -1.754  1.00 20.00    -0.025 A 
HETATM    3  C3  UNL     1     -34.578  15.877  -3.230  1.00 20.00     0.035 A 
HETATM    4  C4  UNL     1     -35.856  16.267  -3.238  1.00 20.00    -0.046 A 
HETATM    5  C5  UNL     1     -34.469  14.691  -4.100  1.00 20.00     0.254 A 
HETATM    6  C6  UNL     1     -35.252  18.176  -1.656  1.00 20.00     0.031 A 
HETATM    7  C7  UNL     1     -36.352  17.445  -2.467  1.00 20.00     0.040 A 
HETATM    8  C8  UNL     1     -36.724  15.409  -4.089  1.00 20.00     0.161 A 
HETATM    9  C9  UNL     1     -36.084  13.368  -5.478  1.00 20.00     0.153 C 
HETATM   10  N10 UNL     1     -35.753  14.454  -4.580  1.00 20.00    -0.348 N 
HETATM   11  O11 UNL     1     -33.438  14.078  -4.318  1.00 20.00    -0.267 OA
ENDROOT
TORSDOF 0
ENDMDL
MODEL 7
REMARK VINA RESULT:      -4.5     11.616     11.985
REMARK  0 active torsions:
REMARK  status: ('A' for Active; 'I' for Inactive)
ROOT
HETATM    1  C1  UNL     1     -35.746  16.986  -1.269  1.00 20.00     0.013 A 
HETATM    2  C2  UNL     1     -35.047  17.638  -0.329  1.00 20.00    -0.025 A 
HETATM    3  C3  UNL     1     -35.113  16.647  -2.501  1.00 20.00     0.035 A 
HETATM    4  C4  UNL     1     -33.841  16.939  -2.792  1.00 20.00    -0.046 A 
HETATM    5  C5  UNL     1     -35.684  15.939  -3.660  1.00 20.00     0.254 A 
HETATM    6  C6  UNL     1     -33.601  18.040  -0.503  1.00 20.00     0.031 A 
HETATM    7  C7  UNL     1     -32.935  17.660  -1.850  1.00 20.00     0.040 A 
HETATM    8  C8  UNL     1     -33.430  16.472  -4.143  1.00 20.00     0.161 A 
HETATM    9  C9  UNL     1     -34.808  15.232  -5.895  1.00 20.00     0.153 C 
HETATM   10  N10 UNL     1     -34.660  15.860  -4.599  1.00 20.00    -0.348 N 
HETATM   11  O11 UNL     1     -36.830  15.526  -3.732  1.00 20.00    -0.267 OA
ENDROOT
TORSDOF 0
ENDMDL
MODEL 8
REMARK VINA RESULT:      -4.4     11.414     12.611
REMARK  0 active torsions:
REMARK  status: ('A' for Active; 'I' for Inactive)
ROOT
HETATM    1  C1  UNL     1     -33.931  16.262  -2.768  1.00 20.00     0.013 A 
HETATM    2  C2  UNL     1     -33.657  17.529  -2.424  1.00 20.00    -0.025 A 
HETATM    3  C3  UNL     1     -33.966  15.905  -4.148  1.00 20.00     0.035 A 
HETATM    4  C4  UNL     1     -33.739  16.763  -5.148  1.00 20.00    -0.046 A 
HETATM    5  C5  UNL     1     -34.243  14.586  -4.747  1.00 20.00     0.254 A 
HETATM    6  C6  UNL     1     -33.378  18.618  -3.433  1.00 20.00     0.031 A 
HETATM    7  C7  UNL     1     -33.422  18.205  -4.926  1.00 20.00     0.040 A 
HETATM    8  C8  UNL     1     -33.837  16.132  -6.491  1.00 20.00     0.161 A 
HETATM    9  C9  UNL     1     -34.363  13.709  -7.087  1.00 20.00     0.153 C 
HETATM   10  N10 UNL     1     -34.156  14.770  -6.124  1.00 20.00    -0.348 N 
HETATM   11  O11 UNL     1     -34.493  13.572  -4.117  1.00 20.00    -0.267 OA
ENDROOT
TORSDOF 0
ENDMDL
MODEL 9
REMARK VINA RESULT:      -4.4     11.578     11.998
REMARK  0 active torsions:
REMARK  status: ('A' for Active; 'I' for Inactive)
ROOT
HETATM    1  C1  UNL     1     -32.945  17.711  -2.083  1.00 20.00     0.013 A 
HETATM    2  C2  UNL     1     -33.158  18.136  -0.829  1.00 20.00    -0.025 A 
HETATM    3  C3  UNL     1     -33.976  17.002  -2.766  1.00 20.00     0.035 A 
HETATM    4  C4  UNL     1     -35.170  16.724  -2.233  1.00 20.00    -0.046 A 
HETATM    5  C5  UNL     1     -33.959  16.451  -4.133  1.00 20.00     0.254 A 
HETATM    6  C6  UNL     1     -34.452  17.901  -0.086  1.00 20.00     0.031 A 
HETATM    7  C7  UNL     1     -35.557  17.128  -0.849  1.00 20.00     0.040 A 
HETATM    8  C8  UNL     1     -36.061  15.974  -3.157  1.00 20.00     0.161 A 
HETATM    9  C9  UNL     1     -35.600  15.192  -5.541  1.00 20.00     0.153 C 
HETATM   10  N10 UNL     1     -35.204  15.856  -4.317  1.00 20.00    -0.348 N 
HETATM   11  O11 UNL     1     -33.018  16.527  -4.905  1.00 20.00    -0.267 OA
ENDROOT
TORSDOF 0
ENDMDL
