MODEL 1
REMARK VINA RESULT:      -5.6      0.000      0.000
REMARK  1 active torsions:
REMARK  status: ('A' for Active; 'I' for Inactive)
REMARK    1  A    between atoms: C3_3  and  C6_6 
ROOT
HETATM    1  C1  UNL     1     -34.663   5.700   5.373  1.00 20.00    -0.003 C 
HETATM    2  C2  UNL     1     -33.957   6.759   5.789  1.00 20.00     0.131 C 
HETATM    3  C4  UNL     1     -34.637   5.252   3.946  1.00 20.00     0.032 C 
HETATM    4  C5  UNL     1     -33.491   5.925   3.192  1.00 20.00     0.045 C 
HETATM    5  C6  UNL     1     -33.398   7.394   3.595  1.00 20.00     0.214 C 
HETATM    6  O8  UNL     1     -33.188   7.574   4.999  1.00 20.00    -0.349 OA
ENDROOT
BRANCH   5   7
HETATM    7  C3  UNL     1     -32.212   8.042   2.961  1.00 20.00     0.248 C 
HETATM    8  O7  UNL     1     -31.146   8.161   3.558  1.00 20.00    -0.277 OA
HETATM    9 CL9  UNL     1     -32.544   8.573   1.340  1.00 20.00    -0.041 Cl
ENDBRANCH   5   7
TORSDOF 1
ENDMDL
MODEL 2
REMARK VINA RESULT:      -5.6      1.318      1.318
REMARK  1 active torsions:
REMARK  status: ('A' for Active; 'I' for Inactive)
REMARK    1  A    between atoms: C3_3  and  C6_6 
ROOT
HETATM    1  C1  UNL     1     -34.618   5.363   5.557  1.00 20.00    -0.003 C 
HETATM    2  C2  UNL     1     -34.099   6.569   5.820  1.00 20.00     0.131 C 
HETATM    3  C4  UNL     1     -34.556   4.765   4.188  1.00 20.00     0.032 C 
HETATM    4  C5  UNL     1     -33.572   5.533   3.309  1.00 20.00     0.045 C 
HETATM    5  C6  UNL     1     -33.729   7.032   3.544  1.00 20.00     0.214 C 
HETATM    6  O8  UNL     1     -33.512   7.407   4.909  1.00 20.00    -0.349 OA
ENDROOT
BRANCH   5   7
HETATM    7  C3  UNL     1     -32.697   7.799   2.785  1.00 20.00     0.248 C 
HETATM    8  O7  UNL     1     -32.842   8.076   1.599  1.00 20.00    -0.277 OA
HETATM    9 CL9  UNL     1     -31.333   8.219   3.777  1.00 20.00    -0.041 Cl
ENDBRANCH   5   7
TORSDOF 1
ENDMDL
MODEL 3
REMARK VINA RESULT:      -5.0      1.074      1.692
REMARK  1 active torsions:
REMARK  status: ('A' for Active; 'I' for Inactive)
REMARK    1  A    between atoms: C3_3  and  C6_6 
ROOT
HETATM    1  C1  UNL     1     -35.031   5.534   4.566  1.00 20.00    -0.003 C 
HETATM    2  C2  UNL     1     -34.733   5.750   3.278  1.00 20.00     0.131 C 
HETATM    3  C4  UNL     1     -34.275   6.205   5.668  1.00 20.00     0.032 C 
HETATM    4  C5  UNL     1     -33.426   7.349   5.119  1.00 20.00     0.045 C 
HETATM    5  C6  UNL     1     -32.766   6.922   3.811  1.00 20.00     0.214 C 
HETATM    6  O8  UNL     1     -33.713   6.536   2.810  1.00 20.00    -0.349 OA
ENDROOT
BRANCH   5   7
HETATM    7  C3  UNL     1     -32.026   8.063   3.194  1.00 20.00     0.248 C 
HETATM    8  O7  UNL     1     -31.105   8.626   3.778  1.00 20.00    -0.277 OA
HETATM    9 CL9  UNL     1     -32.629   8.455   1.612  1.00 20.00    -0.041 Cl
ENDBRANCH   5   7
TORSDOF 1
ENDMDL
MODEL 4
REMARK VINA RESULT:      -4.2      2.460      3.689
REMARK  1 active torsions:
REMARK  status: ('A' for Active; 'I' for Inactive)
REMARK    1  A    between atoms: C3_3  and  C6_6 
ROOT
HETATM    1  C1  UNL     1     -31.659   8.435   3.235  1.00 20.00    -0.003 C 
HETATM    2  C2  UNL     1     -32.118   8.243   4.478  1.00 20.00     0.131 C 
HETATM    3  C4  UNL     1     -32.223   7.690   2.067  1.00 20.00     0.032 C 
HETATM    4  C5  UNL     1     -33.535   7.007   2.448  1.00 20.00     0.045 C 
HETATM    5  C6  UNL     1     -33.410   6.386   3.837  1.00 20.00     0.214 C 
HETATM    6  O8  UNL     1     -33.085   7.346   4.848  1.00 20.00    -0.349 OA
ENDROOT
BRANCH   5   7
HETATM    7  C3  UNL     1     -34.717   5.815   4.280  1.00 20.00     0.248 C 
HETATM    8  O7  UNL     1     -35.738   5.947   3.613  1.00 20.00    -0.277 OA
HETATM    9 CL9  UNL     1     -34.585   4.979   5.798  1.00 20.00    -0.041 Cl
ENDBRANCH   5   7
TORSDOF 1
ENDMDL
MODEL 5
REMARK VINA RESULT:      -4.1      1.497      1.830
REMARK  1 active torsions:
REMARK  status: ('A' for Active; 'I' for Inactive)
REMARK    1  A    between atoms: C3_3  and  C6_6 
ROOT
HETATM    1  C1  UNL     1     -34.481   6.353   6.374  1.00 20.00    -0.003 C 
HETATM    2  C2  UNL     1     -33.717   7.283   5.789  1.00 20.00     0.131 C 
HETATM    3  C4  UNL     1     -34.905   5.116   5.647  1.00 20.00     0.032 C 
HETATM    4  C5  UNL     1     -34.093   4.940   4.366  1.00 20.00     0.045 C 
HETATM    5  C6  UNL     1     -33.928   6.287   3.669  1.00 20.00     0.214 C 
HETATM    6  O8  UNL     1     -33.279   7.263   4.491  1.00 20.00    -0.349 OA
ENDROOT
BRANCH   5   7
HETATM    7  C3  UNL     1     -33.038   6.161   2.477  1.00 20.00     0.248 C 
HETATM    8  O7  UNL     1     -32.847   5.082   1.926  1.00 20.00    -0.277 OA
HETATM    9 CL9  UNL     1     -32.350   7.687   2.010  1.00 20.00    -0.041 Cl
ENDBRANCH   5   7
TORSDOF 1
ENDMDL
MODEL 6
REMARK VINA RESULT:      -4.0      2.900      4.083
REMARK  1 active torsions:
REMARK  status: ('A' for Active; 'I' for Inactive)
REMARK    1  A    between atoms: C3_3  and  C6_6 
ROOT
HETATM    1  C1  UNL     1     -32.603   7.811   2.627  1.00 20.00    -0.003 C 
HETATM    2  C2  UNL     1     -32.505   6.526   2.264  1.00 20.00     0.131 C 
HETATM    3  C4  UNL     1     -33.416   8.231   3.810  1.00 20.00     0.032 C 
HETATM    4  C5  UNL     1     -33.783   7.022   4.668  1.00 20.00     0.045 C 
HETATM    5  C6  UNL     1     -34.181   5.853   3.771  1.00 20.00     0.214 C 
HETATM    6  O8  UNL     1     -33.142   5.471   2.863  1.00 20.00    -0.349 OA
ENDROOT
BRANCH   5   7
HETATM    7  C3  UNL     1     -34.429   4.625   4.582  1.00 20.00     0.248 C 
HETATM    8  O7  UNL     1     -34.339   3.502   4.096  1.00 20.00    -0.277 OA
HETATM    9 CL9  UNL     1     -34.841   4.999   6.228  1.00 20.00    -0.041 Cl
ENDBRANCH   5   7
TORSDOF 1
ENDMDL
MODEL 7
REMARK VINA RESULT:      -4.0      2.324      3.462
REMARK  1 active torsions:
REMARK  status: ('A' for Active; 'I' for Inactive)
REMARK    1  A    between atoms: C3_3  and  C6_6 
ROOT
HETATM    1  C1  UNL     1     -32.794   8.271   5.016  1.00 20.00    -0.003 C 
HETATM    2  C2  UNL     1     -32.411   7.719   3.858  1.00 20.00     0.131 C 
HETATM    3  C4  UNL     1     -33.726   7.566   5.950  1.00 20.00     0.032 C 
HETATM    4  C5  UNL     1     -33.866   6.096   5.562  1.00 20.00     0.045 C 
HETATM    5  C6  UNL     1     -33.970   5.968   4.045  1.00 20.00     0.214 C 
HETATM    6  O8  UNL     1     -32.836   6.515   3.362  1.00 20.00    -0.349 OA
ENDROOT
BRANCH   5   7
HETATM    7  C3  UNL     1     -33.988   4.533   3.635  1.00 20.00     0.248 C 
HETATM    8  O7  UNL     1     -34.613   3.688   4.269  1.00 20.00    -0.277 OA
HETATM    9 CL9  UNL     1     -33.046   4.250   2.203  1.00 20.00    -0.041 Cl
ENDBRANCH   5   7
TORSDOF 1
ENDMDL
MODEL 8
REMARK VINA RESULT:      -4.0     11.443     12.594
REMARK  1 active torsions:
REMARK  status: ('A' for Active; 'I' for Inactive)
REMARK    1  A    between atoms: C3_3  and  C6_6 
ROOT
HETATM    1  C1  UNL     1     -33.591  17.069  -4.331  1.00 20.00    -0.003 C 
HETATM    2  C2  UNL     1     -33.715  16.773  -5.631  1.00 20.00     0.131 C 
HETATM    3  C4  UNL     1     -34.086  16.143  -3.266  1.00 20.00     0.032 C 
HETATM    4  C5  UNL     1     -34.397  14.767  -3.851  1.00 20.00     0.045 C 
HETATM    5  C6  UNL     1     -35.102  14.924  -5.195  1.00 20.00     0.214 C 
HETATM    6  O8  UNL     1     -34.326  15.660  -6.148  1.00 20.00    -0.349 OA
ENDROOT
BRANCH   5   7
HETATM    7  C3  UNL     1     -35.310  13.595  -5.842  1.00 20.00     0.248 C 
HETATM    8  O7  UNL     1     -35.946  12.702  -5.291  1.00 20.00    -0.277 OA
HETATM    9 CL9  UNL     1     -34.560  13.504  -7.407  1.00 20.00    -0.041 Cl
ENDBRANCH   5   7
TORSDOF 1
ENDMDL
MODEL 9
REMARK VINA RESULT:      -4.0     11.433     11.905
REMARK  1 active torsions:
REMARK  status: ('A' for Active; 'I' for Inactive)
REMARK    1  A    between atoms: C3_3  and  C6_6 
ROOT
HETATM    1  C1  UNL     1     -35.038  16.974  -2.577  1.00 20.00    -0.003 C 
HETATM    2  C2  UNL     1     -36.156  16.478  -3.122  1.00 20.00     0.131 C 
HETATM    3  C4  UNL     1     -33.694  16.390  -2.877  1.00 20.00     0.032 C 
HETATM    4  C5  UNL     1     -33.771  15.452  -4.080  1.00 20.00     0.045 C 
HETATM    5  C6  UNL     1     -35.036  14.603  -3.994  1.00 20.00     0.214 C 
HETATM    6  O8  UNL     1     -36.232  15.388  -3.950  1.00 20.00    -0.349 OA
ENDROOT
BRANCH   5   7
HETATM    7  C3  UNL     1     -35.194  13.763  -5.218  1.00 20.00     0.248 C 
HETATM    8  O7  UNL     1     -35.925  12.777  -5.235  1.00 20.00    -0.277 OA
HETATM    9 CL9  UNL     1     -34.244  14.357  -6.546  1.00 20.00    -0.041 Cl
ENDBRANCH   5   7
TORSDOF 1
ENDMDL
