MODEL 1
REMARK VINA RESULT:      -4.5      0.000      0.000
REMARK  0 active torsions:
REMARK  status: ('A' for Active; 'I' for Inactive)
ROOT
HETATM    1  C1  UNL     1     -33.585   6.852   4.370  1.00 20.00     0.169 C 
HETATM    2  C2  UNL     1     -33.504   5.894   2.465  1.00 20.00     0.062 C 
HETATM    3  C3  UNL     1     -32.552   6.851   3.230  1.00 20.00     0.058 C 
HETATM    4  C4  UNL     1     -34.406   5.699   3.720  1.00 20.00     0.174 C 
HETATM    5  C5  UNL     1     -32.292   8.194   2.578  1.00 20.00     0.018 C 
HETATM    6  O6  UNL     1     -33.701   7.501   5.390  1.00 20.00    -0.294 OA
HETATM    7 CL7  UNL     1     -34.194   4.162   4.624  1.00 20.00    -0.093 Cl
HETATM    8 CL8  UNL     1     -36.133   6.135   3.520  1.00 20.00    -0.093 Cl
ENDROOT
TORSDOF 0
ENDMDL
MODEL 2
REMARK VINA RESULT:      -4.2      1.740      2.800
REMARK  0 active torsions:
REMARK  status: ('A' for Active; 'I' for Inactive)
ROOT
HETATM    1  C1  UNL     1     -33.178   7.054   3.457  1.00 20.00     0.169 C 
HETATM    2  C2  UNL     1     -34.743   5.811   4.204  1.00 20.00     0.062 C 
HETATM    3  C3  UNL     1     -34.184   7.199   4.612  1.00 20.00     0.058 C 
HETATM    4  C4  UNL     1     -33.902   5.796   2.893  1.00 20.00     0.174 C 
HETATM    5  C5  UNL     1     -33.583   7.294   6.000  1.00 20.00     0.018 C 
HETATM    6  O6  UNL     1     -32.201   7.690   3.118  1.00 20.00    -0.294 OA
HETATM    7 CL7  UNL     1     -34.783   6.181   1.376  1.00 20.00    -0.093 Cl
HETATM    8 CL8  UNL     1     -32.783   4.410   2.695  1.00 20.00    -0.093 Cl
ENDROOT
TORSDOF 0
ENDMDL
MODEL 3
REMARK VINA RESULT:      -4.1      1.594      2.346
REMARK  0 active torsions:
REMARK  status: ('A' for Active; 'I' for Inactive)
ROOT
HETATM    1  C1  UNL     1     -33.296   5.974   3.191  1.00 20.00     0.169 C 
HETATM    2  C2  UNL     1     -33.895   7.570   4.475  1.00 20.00     0.062 C 
HETATM    3  C3  UNL     1     -32.992   7.482   3.216  1.00 20.00     0.058 C 
HETATM    4  C4  UNL     1     -34.398   6.108   4.284  1.00 20.00     0.174 C 
HETATM    5  C5  UNL     1     -31.536   7.856   3.414  1.00 20.00     0.018 C 
HETATM    6  O6  UNL     1     -32.849   5.044   2.551  1.00 20.00    -0.294 OA
HETATM    7 CL7  UNL     1     -36.038   5.914   3.578  1.00 20.00    -0.093 Cl
HETATM    8 CL8  UNL     1     -34.116   4.996   5.660  1.00 20.00    -0.093 Cl
ENDROOT
TORSDOF 0
ENDMDL
MODEL 4
REMARK VINA RESULT:      -3.8      2.265      3.279
REMARK  0 active torsions:
REMARK  status: ('A' for Active; 'I' for Inactive)
ROOT
HETATM    1  C1  UNL     1     -33.807   7.089   4.335  1.00 20.00     0.169 C 
HETATM    2  C2  UNL     1     -33.253   6.043   2.559  1.00 20.00     0.062 C 
HETATM    3  C3  UNL     1     -34.333   5.816   3.650  1.00 20.00     0.058 C 
HETATM    4  C4  UNL     1     -32.909   7.456   3.116  1.00 20.00     0.174 C 
HETATM    5  C5  UNL     1     -34.209   4.538   4.455  1.00 20.00     0.018 C 
HETATM    6  O6  UNL     1     -34.024   7.608   5.411  1.00 20.00    -0.294 OA
HETATM    7 CL7  UNL     1     -33.581   8.855   2.213  1.00 20.00    -0.093 Cl
HETATM    8 CL8  UNL     1     -31.202   7.715   3.595  1.00 20.00    -0.093 Cl
ENDROOT
TORSDOF 0
ENDMDL
MODEL 5
REMARK VINA RESULT:      -3.7     11.829     12.639
REMARK  0 active torsions:
REMARK  status: ('A' for Active; 'I' for Inactive)
ROOT
HETATM    1  C1  UNL     1     -35.742  13.765  -5.125  1.00 20.00     0.169 C 
HETATM    2  C2  UNL     1     -35.684  15.898  -5.129  1.00 20.00     0.062 C 
HETATM    3  C3  UNL     1     -36.675  14.849  -4.560  1.00 20.00     0.058 C 
HETATM    4  C4  UNL     1     -34.629  14.801  -5.462  1.00 20.00     0.174 C 
HETATM    5  C5  UNL     1     -38.077  14.876  -5.136  1.00 20.00     0.018 C 
HETATM    6  O6  UNL     1     -35.841  12.561  -5.247  1.00 20.00    -0.294 OA
HETATM    7 CL7  UNL     1     -33.244  14.656  -4.329  1.00 20.00    -0.093 Cl
HETATM    8 CL8  UNL     1     -34.116  14.701  -7.176  1.00 20.00    -0.093 Cl
ENDROOT
TORSDOF 0
ENDMDL
MODEL 6
REMARK VINA RESULT:      -3.7     11.652     12.482
REMARK  0 active torsions:
REMARK  status: ('A' for Active; 'I' for Inactive)
ROOT
HETATM    1  C1  UNL     1     -34.705  13.954  -5.362  1.00 20.00     0.169 C 
HETATM    2  C2  UNL     1     -33.392  15.537  -5.933  1.00 20.00     0.062 C 
HETATM    3  C3  UNL     1     -34.622  14.865  -6.600  1.00 20.00     0.058 C 
HETATM    4  C4  UNL     1     -33.646  14.794  -4.588  1.00 20.00     0.174 C 
HETATM    5  C5  UNL     1     -34.364  14.162  -7.917  1.00 20.00     0.018 C 
HETATM    6  O6  UNL     1     -35.358  12.966  -5.097  1.00 20.00    -0.294 OA
HETATM    7 CL7  UNL     1     -34.411  15.754  -3.278  1.00 20.00    -0.093 Cl
HETATM    8 CL8  UNL     1     -32.296  13.780  -3.985  1.00 20.00    -0.093 Cl
ENDROOT
TORSDOF 0
ENDMDL
MODEL 7
REMARK VINA RESULT:      -3.6     11.978     12.764
REMARK  0 active torsions:
REMARK  status: ('A' for Active; 'I' for Inactive)
ROOT
HETATM    1  C1  UNL     1     -35.758  13.775  -5.558  1.00 20.00     0.169 C 
HETATM    2  C2  UNL     1     -35.363  15.770  -6.204  1.00 20.00     0.062 C 
HETATM    3  C3  UNL     1     -35.571  14.421  -6.942  1.00 20.00     0.058 C 
HETATM    4  C4  UNL     1     -35.809  15.157  -4.843  1.00 20.00     0.174 C 
HETATM    5  C5  UNL     1     -34.393  13.914  -7.749  1.00 20.00     0.018 C 
HETATM    6  O6  UNL     1     -35.843  12.624  -5.180  1.00 20.00    -0.294 OA
HETATM    7 CL7  UNL     1     -37.476  15.547  -4.301  1.00 20.00    -0.093 Cl
HETATM    8 CL8  UNL     1     -34.619  15.266  -3.507  1.00 20.00    -0.093 Cl
ENDROOT
TORSDOF 0
ENDMDL
MODEL 8
REMARK VINA RESULT:      -3.6      2.823      3.488
REMARK  0 active torsions:
REMARK  status: ('A' for Active; 'I' for Inactive)
ROOT
HETATM    1  C1  UNL     1     -33.029   6.125   3.071  1.00 20.00     0.169 C 
HETATM    2  C2  UNL     1     -33.906   7.795   4.069  1.00 20.00     0.062 C 
HETATM    3  C3  UNL     1     -33.991   6.258   4.265  1.00 20.00     0.058 C 
HETATM    4  C4  UNL     1     -32.742   7.655   3.044  1.00 20.00     0.174 C 
HETATM    5  C5  UNL     1     -35.361   5.638   4.076  1.00 20.00     0.018 C 
HETATM    6  O6  UNL     1     -32.640   5.180   2.416  1.00 20.00    -0.294 OA
HETATM    7 CL7  UNL     1     -31.092   8.017   3.655  1.00 20.00    -0.093 Cl
HETATM    8 CL8  UNL     1     -33.034   8.364   1.424  1.00 20.00    -0.093 Cl
ENDROOT
TORSDOF 0
ENDMDL
MODEL 9
REMARK VINA RESULT:      -3.6     11.560     12.330
REMARK  0 active torsions:
REMARK  status: ('A' for Active; 'I' for Inactive)
ROOT
HETATM    1  C1  UNL     1     -33.495  14.489  -4.654  1.00 20.00     0.169 C 
HETATM    2  C2  UNL     1     -34.918  15.962  -5.252  1.00 20.00     0.062 C 
HETATM    3  C3  UNL     1     -33.592  16.010  -4.447  1.00 20.00     0.058 C 
HETATM    4  C4  UNL     1     -34.673  14.482  -5.672  1.00 20.00     0.174 C 
HETATM    5  C5  UNL     1     -33.703  16.472  -3.008  1.00 20.00     0.018 C 
HETATM    6  O6  UNL     1     -32.766  13.631  -4.199  1.00 20.00    -0.294 OA
HETATM    7 CL7  UNL     1     -34.082  14.216  -7.347  1.00 20.00    -0.093 Cl
HETATM    8 CL8  UNL     1     -35.952  13.314  -5.211  1.00 20.00    -0.093 Cl
ENDROOT
TORSDOF 0
ENDMDL
