MODEL 1
REMARK VINA RESULT:      -5.0      0.000      0.000
REMARK  1 active torsions:
REMARK  status: ('A' for Active; 'I' for Inactive)
REMARK    1  A    between atoms: C5_5  and  C9_9 
ROOT
HETATM    1  C1  UNL     1     -35.121  16.280  -6.284  1.00 20.00    -0.029 C 
HETATM    2  C2  UNL     1     -35.878  16.416  -5.178  1.00 20.00    -0.021 C 
HETATM    3  C3  UNL     1     -34.297  16.089  -3.314  1.00 20.00    -0.021 C 
HETATM    4  C4  UNL     1     -33.244  15.518  -3.923  1.00 20.00    -0.024 C 
HETATM    5  C6  UNL     1     -33.950  15.312  -6.333  1.00 20.00     0.036 C 
HETATM    6  C7  UNL     1     -35.574  15.584  -3.946  1.00 20.00     0.045 C 
HETATM    7  C8  UNL     1     -33.730  14.560  -4.993  1.00 20.00     0.026 C 
HETATM    8  C9  UNL     1     -35.082  14.188  -4.367  1.00 20.00     0.106 C 
ENDROOT
BRANCH   8   9
HETATM    9  C5  UNL     1     -36.021  13.385  -5.248  1.00 20.00     0.178 C 
HETATM   10  O10 UNL     1     -37.252  13.578  -5.042  1.00 20.00    -0.648 OA
HETATM   11  O11 UNL     1     -35.449  12.624  -6.076  1.00 20.00    -0.648 OA
ENDBRANCH   8   9
TORSDOF 1
ENDMDL
MODEL 2
REMARK VINA RESULT:      -4.8      0.818      2.624
REMARK  1 active torsions:
REMARK  status: ('A' for Active; 'I' for Inactive)
REMARK    1  A    between atoms: C5_5  and  C9_9 
ROOT
HETATM    1  C1  UNL     1     -34.266  15.282  -3.588  1.00 20.00    -0.029 C 
HETATM    2  C2  UNL     1     -33.642  14.591  -4.562  1.00 20.00    -0.021 C 
HETATM    3  C3  UNL     1     -33.804  16.050  -6.542  1.00 20.00    -0.021 C 
HETATM    4  C4  UNL     1     -34.763  16.920  -6.184  1.00 20.00    -0.024 C 
HETATM    5  C6  UNL     1     -35.464  16.169  -3.883  1.00 20.00     0.036 C 
HETATM    6  C7  UNL     1     -34.139  14.682  -5.991  1.00 20.00     0.045 C 
HETATM    7  C8  UNL     1     -35.836  16.201  -5.390  1.00 20.00     0.026 C 
HETATM    8  C9  UNL     1     -35.673  14.803  -6.005  1.00 20.00     0.106 C 
ENDROOT
BRANCH   8   9
HETATM    9  C5  UNL     1     -36.438  13.685  -5.319  1.00 20.00     0.178 C 
HETATM   10  O10 UNL     1     -35.833  12.579  -5.253  1.00 20.00    -0.648 OA
HETATM   11  O11 UNL     1     -37.586  14.007  -4.903  1.00 20.00    -0.648 OA
ENDBRANCH   8   9
TORSDOF 1
ENDMDL
MODEL 3
REMARK VINA RESULT:      -4.6      0.909      1.030
REMARK  1 active torsions:
REMARK  status: ('A' for Active; 'I' for Inactive)
REMARK    1  A    between atoms: C5_5  and  C9_9 
ROOT
HETATM    1  C1  UNL     1     -35.177  16.707  -5.810  1.00 20.00    -0.029 C 
HETATM    2  C2  UNL     1     -36.129  16.343  -4.929  1.00 20.00    -0.021 C 
HETATM    3  C3  UNL     1     -34.970  16.333  -2.752  1.00 20.00    -0.021 C 
HETATM    4  C4  UNL     1     -33.675  16.330  -3.112  1.00 20.00    -0.024 C 
HETATM    5  C6  UNL     1     -33.725  16.292  -5.631  1.00 20.00     0.036 C 
HETATM    6  C7  UNL     1     -35.762  15.492  -3.728  1.00 20.00     0.045 C 
HETATM    7  C8  UNL     1     -33.488  15.462  -4.341  1.00 20.00     0.026 C 
HETATM    8  C9  UNL     1     -34.657  14.492  -4.114  1.00 20.00     0.106 C 
ENDROOT
BRANCH   8   9
HETATM    9  C5  UNL     1     -34.974  13.556  -5.266  1.00 20.00     0.178 C 
HETATM   10  O10 UNL     1     -36.075  12.944  -5.176  1.00 20.00    -0.648 OA
HETATM   11  O11 UNL     1     -34.092  13.509  -6.168  1.00 20.00    -0.648 OA
ENDBRANCH   8   9
TORSDOF 1
ENDMDL
MODEL 4
REMARK VINA RESULT:      -4.5      1.002      2.557
REMARK  1 active torsions:
REMARK  status: ('A' for Active; 'I' for Inactive)
REMARK    1  A    between atoms: C5_5  and  C9_9 
ROOT
HETATM    1  C1  UNL     1     -33.179  15.245  -4.598  1.00 20.00    -0.029 C 
HETATM    2  C2  UNL     1     -33.210  15.572  -5.905  1.00 20.00    -0.021 C 
HETATM    3  C3  UNL     1     -35.083  17.164  -6.090  1.00 20.00    -0.021 C 
HETATM    4  C4  UNL     1     -35.747  16.967  -4.939  1.00 20.00    -0.024 C 
HETATM    5  C6  UNL     1     -34.451  15.148  -3.771  1.00 20.00     0.036 C 
HETATM    6  C7  UNL     1     -34.538  15.844  -6.585  1.00 20.00     0.045 C 
HETATM    7  C8  UNL     1     -35.728  15.493  -4.584  1.00 20.00     0.026 C 
HETATM    8  C9  UNL     1     -35.622  14.919  -6.005  1.00 20.00     0.106 C 
ENDROOT
BRANCH   8   9
HETATM    9  C5  UNL     1     -35.351  13.429  -6.098  1.00 20.00     0.178 C 
HETATM   10  O10 UNL     1     -34.588  13.078  -7.041  1.00 20.00    -0.648 OA
HETATM   11  O11 UNL     1     -35.926  12.729  -5.219  1.00 20.00    -0.648 OA
ENDBRANCH   8   9
TORSDOF 1
ENDMDL
MODEL 5
REMARK VINA RESULT:      -4.4      0.900      1.463
REMARK  1 active torsions:
REMARK  status: ('A' for Active; 'I' for Inactive)
REMARK    1  A    between atoms: C5_5  and  C9_9 
ROOT
HETATM    1  C1  UNL     1     -36.372  16.296  -5.078  1.00 20.00    -0.029 C 
HETATM    2  C2  UNL     1     -36.005  15.558  -4.012  1.00 20.00    -0.021 C 
HETATM    3  C3  UNL     1     -33.566  15.883  -3.857  1.00 20.00    -0.021 C 
HETATM    4  C4  UNL     1     -33.263  16.387  -5.066  1.00 20.00    -0.024 C 
HETATM    5  C6  UNL     1     -35.465  16.452  -6.289  1.00 20.00     0.036 C 
HETATM    6  C7  UNL     1     -34.662  14.853  -4.006  1.00 20.00     0.045 C 
HETATM    7  C8  UNL     1     -34.110  15.713  -6.127  1.00 20.00     0.026 C 
HETATM    8  C9  UNL     1     -34.322  14.364  -5.425  1.00 20.00     0.106 C 
ENDROOT
BRANCH   8   9
HETATM    9  C5  UNL     1     -35.332  13.433  -6.072  1.00 20.00     0.178 C 
HETATM   10  O10 UNL     1     -35.969  12.690  -5.274  1.00 20.00    -0.648 OA
HETATM   11  O11 UNL     1     -35.404  13.521  -7.329  1.00 20.00    -0.648 OA
ENDBRANCH   8   9
TORSDOF 1
ENDMDL
MODEL 6
REMARK VINA RESULT:      -4.2      1.580      2.984
REMARK  1 active torsions:
REMARK  status: ('A' for Active; 'I' for Inactive)
REMARK    1  A    between atoms: C5_5  and  C9_9 
ROOT
HETATM    1  C1  UNL     1     -34.891  16.410  -2.432  1.00 20.00    -0.029 C 
HETATM    2  C2  UNL     1     -33.661  16.646  -2.931  1.00 20.00    -0.021 C 
HETATM    3  C3  UNL     1     -34.080  17.864  -5.033  1.00 20.00    -0.021 C 
HETATM    4  C4  UNL     1     -35.383  17.621  -5.255  1.00 20.00    -0.024 C 
HETATM    5  C6  UNL     1     -36.080  16.138  -3.340  1.00 20.00     0.036 C 
HETATM    6  C7  UNL     1     -33.439  16.634  -4.431  1.00 20.00     0.045 C 
HETATM    7  C8  UNL     1     -35.715  16.198  -4.848  1.00 20.00     0.026 C 
HETATM    8  C9  UNL     1     -34.335  15.568  -5.085  1.00 20.00     0.106 C 
ENDROOT
BRANCH   8   9
HETATM    9  C5  UNL     1     -34.161  14.147  -4.579  1.00 20.00     0.178 C 
HETATM   10  O10 UNL     1     -32.986  13.836  -4.238  1.00 20.00    -0.648 OA
HETATM   11  O11 UNL     1     -35.218  13.456  -4.567  1.00 20.00    -0.648 OA
ENDBRANCH   8   9
TORSDOF 1
ENDMDL
MODEL 7
REMARK VINA RESULT:      -4.1      1.320      1.812
REMARK  1 active torsions:
REMARK  status: ('A' for Active; 'I' for Inactive)
REMARK    1  A    between atoms: C5_5  and  C9_9 
ROOT
HETATM    1  C1  UNL     1     -35.121  15.425  -6.743  1.00 20.00    -0.029 C 
HETATM    2  C2  UNL     1     -35.136  16.473  -5.896  1.00 20.00    -0.021 C 
HETATM    3  C3  UNL     1     -33.904  15.671  -3.916  1.00 20.00    -0.021 C 
HETATM    4  C4  UNL     1     -33.897  14.340  -4.097  1.00 20.00    -0.024 C 
HETATM    5  C6  UNL     1     -35.179  13.992  -6.238  1.00 20.00     0.036 C 
HETATM    6  C7  UNL     1     -35.220  16.235  -4.400  1.00 20.00     0.045 C 
HETATM    7  C8  UNL     1     -35.221  13.898  -4.689  1.00 20.00     0.026 C 
HETATM    8  C9  UNL     1     -36.109  15.011  -4.115  1.00 20.00     0.106 C 
ENDROOT
BRANCH   8   9
HETATM    9  C5  UNL     1     -37.526  15.073  -4.656  1.00 20.00     0.178 C 
HETATM   10  O10 UNL     1     -38.005  16.234  -4.782  1.00 20.00    -0.648 OA
HETATM   11  O11 UNL     1     -38.045  13.950  -4.909  1.00 20.00    -0.648 OA
ENDBRANCH   8   9
TORSDOF 1
ENDMDL
MODEL 8
REMARK VINA RESULT:      -4.1      2.064      3.352
REMARK  1 active torsions:
REMARK  status: ('A' for Active; 'I' for Inactive)
REMARK    1  A    between atoms: C5_5  and  C9_9 
ROOT
HETATM    1  C1  UNL     1     -34.143  14.126  -7.917  1.00 20.00    -0.029 C 
HETATM    2  C2  UNL     1     -34.750  13.210  -7.136  1.00 20.00    -0.021 C 
HETATM    3  C3  UNL     1     -36.868  14.283  -6.473  1.00 20.00    -0.021 C 
HETATM    4  C4  UNL     1     -36.644  15.575  -6.768  1.00 20.00    -0.024 C 
HETATM    5  C6  UNL     1     -34.285  15.616  -7.654  1.00 20.00     0.036 C 
HETATM    6  C7  UNL     1     -35.591  13.660  -5.957  1.00 20.00     0.045 C 
HETATM    7  C8  UNL     1     -35.206  15.931  -6.445  1.00 20.00     0.026 C 
HETATM    8  C9  UNL     1     -34.969  14.914  -5.319  1.00 20.00     0.106 C 
ENDROOT
BRANCH   8   9
HETATM    9  C5  UNL     1     -33.534  14.780  -4.841  1.00 20.00     0.178 C 
HETATM   10  O10 UNL     1     -33.233  13.657  -4.348  1.00 20.00    -0.648 OA
HETATM   11  O11 UNL     1     -32.825  15.813  -4.995  1.00 20.00    -0.648 OA
ENDBRANCH   8   9
TORSDOF 1
ENDMDL
MODEL 9
REMARK VINA RESULT:      -4.0      1.653      2.332
REMARK  1 active torsions:
REMARK  status: ('A' for Active; 'I' for Inactive)
REMARK    1  A    between atoms: C5_5  and  C9_9 
ROOT
HETATM    1  C1  UNL     1     -36.152  16.845  -4.355  1.00 20.00    -0.029 C 
HETATM    2  C2  UNL     1     -35.883  16.301  -3.152  1.00 20.00    -0.021 C 
HETATM    3  C3  UNL     1     -33.835  17.455  -2.407  1.00 20.00    -0.021 C 
HETATM    4  C4  UNL     1     -33.384  18.009  -3.545  1.00 20.00    -0.024 C 
HETATM    5  C6  UNL     1     -35.043  17.283  -5.297  1.00 20.00     0.036 C 
HETATM    6  C7  UNL     1     -34.443  16.106  -2.716  1.00 20.00     0.045 C 
HETATM    7  C8  UNL     1     -33.625  17.063  -4.705  1.00 20.00     0.026 C 
HETATM    8  C9  UNL     1     -33.574  15.738  -3.931  1.00 20.00     0.106 C 
ENDROOT
BRANCH   8   9
HETATM    9  C5  UNL     1     -33.995  14.502  -4.705  1.00 20.00     0.178 C 
HETATM   10  O10 UNL     1     -34.480  13.568  -4.008  1.00 20.00    -0.648 OA
HETATM   11  O11 UNL     1     -33.804  14.568  -5.952  1.00 20.00    -0.648 OA
ENDBRANCH   8   9
TORSDOF 1
ENDMDL
