MODEL 1
REMARK VINA RESULT:      -5.7      0.000      0.000
REMARK  2 active torsions:
REMARK  status: ('A' for Active; 'I' for Inactive)
REMARK    1  A    between atoms: C1_1  and  C5_5 
REMARK    2  A    between atoms: C6_6  and  C9_9 
ROOT
HETATM    1  C2  UNL     1     -34.043   4.835   3.468  1.00 20.00     0.012 C 
HETATM    2  C3  UNL     1     -32.769   5.448   2.902  1.00 20.00     0.006 C 
HETATM    3  C4  UNL     1     -34.105   7.278   3.687  1.00 20.00     0.016 C 
HETATM    4  C5  UNL     1     -34.732   5.980   4.215  1.00 20.00     0.047 C 
HETATM    5  C6  UNL     1     -33.212   6.855   2.518  1.00 20.00    -0.010 C 
ENDROOT
BRANCH   5   6
HETATM    6  C9  UNL     1     -32.050   7.804   2.277  1.00 20.00    -0.019 C 
HETATM    7  C7  UNL     1     -32.481   8.982   1.402  1.00 20.00     0.010 C 
HETATM    8  C8  UNL     1     -31.476   8.309   3.601  1.00 20.00     0.010 C 
ENDBRANCH   5   6
BRANCH   4   9
HETATM    9  C1  UNL     1     -34.506   5.858   5.690  1.00 20.00     0.235 C 
HETATM   10  O10 UNL     1     -34.149   6.793   6.399  1.00 20.00    -0.306 OA
ENDBRANCH   4   9
TORSDOF 2
ENDMDL
MODEL 2
REMARK VINA RESULT:      -5.3      0.548      1.223
REMARK  2 active torsions:
REMARK  status: ('A' for Active; 'I' for Inactive)
REMARK    1  A    between atoms: C1_1  and  C5_5 
REMARK    2  A    between atoms: C6_6  and  C9_9 
ROOT
HETATM    1  C2  UNL     1     -33.726   4.791   3.112  1.00 20.00     0.012 C 
HETATM    2  C3  UNL     1     -32.611   5.776   2.784  1.00 20.00     0.006 C 
HETATM    3  C4  UNL     1     -34.424   7.080   3.657  1.00 20.00     0.016 C 
HETATM    4  C5  UNL     1     -34.738   5.602   3.926  1.00 20.00     0.047 C 
HETATM    5  C6  UNL     1     -33.368   7.079   2.549  1.00 20.00    -0.010 C 
ENDROOT
BRANCH   5   6
HETATM    6  C9  UNL     1     -32.471   8.304   2.574  1.00 20.00    -0.019 C 
HETATM    7  C7  UNL     1     -31.434   8.198   3.695  1.00 20.00     0.010 C 
HETATM    8  C8  UNL     1     -31.776   8.499   1.226  1.00 20.00     0.010 C 
ENDBRANCH   5   6
BRANCH   4   9
HETATM    9  C1  UNL     1     -34.600   5.301   5.387  1.00 20.00     0.235 C 
HETATM   10  O10 UNL     1     -34.344   6.153   6.231  1.00 20.00    -0.306 OA
ENDBRANCH   4   9
TORSDOF 2
ENDMDL
MODEL 3
REMARK VINA RESULT:      -5.0      2.340      4.112
REMARK  2 active torsions:
REMARK  status: ('A' for Active; 'I' for Inactive)
REMARK    1  A    between atoms: C1_1  and  C5_5 
REMARK    2  A    between atoms: C6_6  and  C9_9 
ROOT
HETATM    1  C2  UNL     1     -32.844   6.628   1.637  1.00 20.00     0.012 C 
HETATM    2  C3  UNL     1     -33.975   6.232   2.578  1.00 20.00     0.006 C 
HETATM    3  C4  UNL     1     -32.525   7.668   3.838  1.00 20.00     0.016 C 
HETATM    4  C5  UNL     1     -32.109   7.758   2.363  1.00 20.00     0.047 C 
HETATM    5  C6  UNL     1     -33.336   6.375   3.955  1.00 20.00    -0.010 C 
ENDROOT
BRANCH   5   6
HETATM    6  C9  UNL     1     -34.352   6.404   5.085  1.00 20.00    -0.019 C 
HETATM    7  C7  UNL     1     -34.614   4.993   5.617  1.00 20.00     0.010 C 
HETATM    8  C8  UNL     1     -33.882   7.319   6.216  1.00 20.00     0.010 C 
ENDBRANCH   5   6
BRANCH   4   9
HETATM    9  C1  UNL     1     -32.496   9.089   1.796  1.00 20.00     0.235 C 
HETATM   10  O10 UNL     1     -32.134   9.485   0.693  1.00 20.00    -0.306 OA
ENDBRANCH   4   9
TORSDOF 2
ENDMDL
MODEL 4
REMARK VINA RESULT:      -4.9      1.512      2.781
REMARK  2 active torsions:
REMARK  status: ('A' for Active; 'I' for Inactive)
REMARK    1  A    between atoms: C1_1  and  C5_5 
REMARK    2  A    between atoms: C6_6  and  C9_9 
ROOT
HETATM    1  C2  UNL     1     -31.832   7.644   3.848  1.00 20.00     0.012 C 
HETATM    2  C3  UNL     1     -31.718   8.945   3.065  1.00 20.00     0.006 C 
HETATM    3  C4  UNL     1     -32.995   7.448   1.696  1.00 20.00     0.016 C 
HETATM    4  C5  UNL     1     -32.881   6.824   3.094  1.00 20.00     0.047 C 
HETATM    5  C6  UNL     1     -31.873   8.487   1.620  1.00 20.00    -0.010 C 
ENDROOT
BRANCH   5   6
HETATM    6  C9  UNL     1     -32.174   9.625   0.660  1.00 20.00    -0.019 C 
HETATM    7  C7  UNL     1     -33.110   9.162  -0.459  1.00 20.00     0.010 C 
HETATM    8  C8  UNL     1     -32.783  10.816   1.401  1.00 20.00     0.010 C 
ENDBRANCH   5   6
BRANCH   4   9
HETATM    9  C1  UNL     1     -34.202   6.883   3.797  1.00 20.00     0.235 C 
HETATM   10  O10 UNL     1     -34.966   5.927   3.882  1.00 20.00    -0.306 OA
ENDBRANCH   4   9
TORSDOF 2
ENDMDL
MODEL 5
REMARK VINA RESULT:      -4.6      1.803      4.023
REMARK  2 active torsions:
REMARK  status: ('A' for Active; 'I' for Inactive)
REMARK    1  A    between atoms: C1_1  and  C5_5 
REMARK    2  A    between atoms: C6_6  and  C9_9 
ROOT
HETATM    1  C2  UNL     1     -33.714   8.252   3.906  1.00 20.00     0.012 C 
HETATM    2  C3  UNL     1     -34.128   7.126   4.845  1.00 20.00     0.006 C 
HETATM    3  C4  UNL     1     -33.669   6.100   2.727  1.00 20.00     0.016 C 
HETATM    4  C5  UNL     1     -33.154   7.544   2.669  1.00 20.00     0.047 C 
HETATM    5  C6  UNL     1     -34.665   6.068   3.889  1.00 20.00    -0.010 C 
ENDROOT
BRANCH   5   6
HETATM    6  C9  UNL     1     -34.796   4.696   4.529  1.00 20.00    -0.019 C 
HETATM    7  C7  UNL     1     -33.803   3.709   3.911  1.00 20.00     0.010 C 
HETATM    8  C8  UNL     1     -34.590   4.778   6.042  1.00 20.00     0.010 C 
ENDBRANCH   5   6
BRANCH   4   9
HETATM    9  C1  UNL     1     -31.656   7.561   2.685  1.00 20.00     0.235 C 
HETATM   10  O10 UNL     1     -30.997   8.250   3.457  1.00 20.00    -0.306 OA
ENDBRANCH   4   9
TORSDOF 2
ENDMDL
MODEL 6
REMARK VINA RESULT:      -4.6     11.436     11.951
REMARK  2 active torsions:
REMARK  status: ('A' for Active; 'I' for Inactive)
REMARK    1  A    between atoms: C1_1  and  C5_5 
REMARK    2  A    between atoms: C6_6  and  C9_9 
ROOT
HETATM    1  C2  UNL     1     -34.013  14.723  -5.493  1.00 20.00     0.012 C 
HETATM    2  C3  UNL     1     -33.418  15.047  -4.129  1.00 20.00     0.006 C 
HETATM    3  C4  UNL     1     -35.623  15.986  -4.140  1.00 20.00     0.016 C 
HETATM    4  C5  UNL     1     -35.498  15.070  -5.365  1.00 20.00     0.047 C 
HETATM    5  C6  UNL     1     -34.187  16.295  -3.711  1.00 20.00    -0.010 C 
ENDROOT
BRANCH   5   6
HETATM    6  C9  UNL     1     -34.057  16.610  -2.231  1.00 20.00    -0.019 C 
HETATM    7  C7  UNL     1     -33.146  17.819  -2.009  1.00 20.00     0.010 C 
HETATM    8  C8  UNL     1     -35.429  16.858  -1.604  1.00 20.00     0.010 C 
ENDBRANCH   5   6
BRANCH   4   9
HETATM    9  C1  UNL     1     -36.315  13.830  -5.171  1.00 20.00     0.235 C 
HETATM   10  O10 UNL     1     -35.843  12.699  -5.203  1.00 20.00    -0.306 OA
ENDBRANCH   4   9
TORSDOF 2
ENDMDL
MODEL 7
REMARK VINA RESULT:      -4.5      2.527      4.430
REMARK  2 active torsions:
REMARK  status: ('A' for Active; 'I' for Inactive)
REMARK    1  A    between atoms: C1_1  and  C5_5 
REMARK    2  A    between atoms: C6_6  and  C9_9 
ROOT
HETATM    1  C2  UNL     1     -31.423   8.644   2.957  1.00 20.00     0.012 C 
HETATM    2  C3  UNL     1     -31.898   7.237   3.294  1.00 20.00     0.006 C 
HETATM    3  C4  UNL     1     -33.662   8.257   2.031  1.00 20.00     0.016 C 
HETATM    4  C5  UNL     1     -32.424   9.158   1.920  1.00 20.00     0.047 C 
HETATM    5  C6  UNL     1     -33.416   7.373   3.256  1.00 20.00    -0.010 C 
ENDROOT
BRANCH   5   6
HETATM    6  C9  UNL     1     -34.135   6.036   3.186  1.00 20.00    -0.019 C 
HETATM    7  C7  UNL     1     -33.175   4.924   2.758  1.00 20.00     0.010 C 
HETATM    8  C8  UNL     1     -34.778   5.693   4.530  1.00 20.00     0.010 C 
ENDBRANCH   5   6
BRANCH   4   9
HETATM    9  C1  UNL     1     -31.845   9.075   0.541  1.00 20.00     0.235 C 
HETATM   10  O10 UNL     1     -32.521   9.128  -0.481  1.00 20.00    -0.306 OA
ENDBRANCH   4   9
TORSDOF 2
ENDMDL
MODEL 8
REMARK VINA RESULT:      -4.4     11.160     12.039
REMARK  2 active torsions:
REMARK  status: ('A' for Active; 'I' for Inactive)
REMARK    1  A    between atoms: C1_1  and  C5_5 
REMARK    2  A    between atoms: C6_6  and  C9_9 
ROOT
HETATM    1  C2  UNL     1     -36.751  14.816  -4.738  1.00 20.00     0.012 C 
HETATM    2  C3  UNL     1     -35.928  16.042  -4.365  1.00 20.00     0.006 C 
HETATM    3  C4  UNL     1     -34.454  14.160  -4.176  1.00 20.00     0.016 C 
HETATM    4  C5  UNL     1     -35.727  13.688  -4.892  1.00 20.00     0.047 C 
HETATM    5  C6  UNL     1     -34.841  15.461  -3.468  1.00 20.00    -0.010 C 
ENDROOT
BRANCH   5   6
HETATM    6  C9  UNL     1     -33.669  16.404  -3.261  1.00 20.00    -0.019 C 
HETATM    7  C7  UNL     1     -33.581  17.422  -4.400  1.00 20.00     0.010 C 
HETATM    8  C8  UNL     1     -33.778  17.122  -1.915  1.00 20.00     0.010 C 
ENDBRANCH   5   6
BRANCH   4   9
HETATM    9  C1  UNL     1     -35.441  13.429  -6.339  1.00 20.00     0.235 C 
HETATM   10  O10 UNL     1     -35.095  12.336  -6.774  1.00 20.00    -0.306 OA
ENDBRANCH   4   9
TORSDOF 2
ENDMDL
MODEL 9
REMARK VINA RESULT:      -4.3      2.334      4.128
REMARK  2 active torsions:
REMARK  status: ('A' for Active; 'I' for Inactive)
REMARK    1  A    between atoms: C1_1  and  C5_5 
REMARK    2  A    between atoms: C6_6  and  C9_9 
ROOT
HETATM    1  C2  UNL     1     -32.549   7.502   1.359  1.00 20.00     0.012 C 
HETATM    2  C3  UNL     1     -33.554   6.742   2.215  1.00 20.00     0.006 C 
HETATM    3  C4  UNL     1     -32.162   7.964   3.738  1.00 20.00     0.016 C 
HETATM    4  C5  UNL     1     -31.877   8.484   2.322  1.00 20.00     0.047 C 
HETATM    5  C6  UNL     1     -32.825   6.598   3.546  1.00 20.00    -0.010 C 
ENDROOT
BRANCH   5   6
HETATM    6  C9  UNL     1     -33.743   6.210   4.692  1.00 20.00    -0.019 C 
HETATM    7  C7  UNL     1     -33.821   7.331   5.731  1.00 20.00     0.010 C 
HETATM    8  C8  UNL     1     -35.141   5.865   4.178  1.00 20.00     0.010 C 
ENDBRANCH   5   6
BRANCH   4   9
HETATM    9  C1  UNL     1     -32.442   9.860   2.152  1.00 20.00     0.235 C 
HETATM   10  O10 UNL     1     -32.700  10.355   1.060  1.00 20.00    -0.306 OA
ENDBRANCH   4   9
TORSDOF 2
ENDMDL
