MODEL 1
REMARK VINA RESULT:      -5.5      0.000      0.000
REMARK  0 active torsions:
REMARK  status: ('A' for Active; 'I' for Inactive)
ROOT
HETATM    1  C1  UNL     1     -33.607   6.140   2.431  1.00 20.00     0.041 A 
HETATM    2  C2  UNL     1     -34.016   6.102   3.798  1.00 20.00    -0.008 A 
HETATM    3  C3  UNL     1     -32.741   7.184   2.429  1.00 20.00     0.041 A 
HETATM    4  C4  UNL     1     -33.384   7.099   4.508  1.00 20.00     0.064 A 
HETATM    5  C5  UNL     1     -31.806   8.144   1.927  1.00 20.00     0.047 A 
HETATM    6  C6  UNL     1     -33.789   7.059   5.855  1.00 20.00     0.141 A 
HETATM    7  C7  UNL     1     -31.730   8.655   3.191  1.00 20.00     0.100 A 
HETATM    8  C8  UNL     1     -34.881   5.372   4.739  1.00 20.00     0.189 A 
HETATM    9  N9  UNL     1     -34.648   6.097   6.073  1.00 20.00    -0.295 NA
HETATM   10  N10 UNL     1     -32.620   7.729   3.632  1.00 20.00    -0.320 N 
ENDROOT
TORSDOF 0
ENDMDL
MODEL 2
REMARK VINA RESULT:      -5.0      0.982      3.461
REMARK  0 active torsions:
REMARK  status: ('A' for Active; 'I' for Inactive)
ROOT
HETATM    1  C1  UNL     1     -34.003   5.987   2.592  1.00 20.00     0.041 A 
HETATM    2  C2  UNL     1     -33.045   7.042   2.681  1.00 20.00    -0.008 A 
HETATM    3  C3  UNL     1     -34.323   5.792   3.895  1.00 20.00     0.041 A 
HETATM    4  C4  UNL     1     -32.860   7.401   3.999  1.00 20.00     0.064 A 
HETATM    5  C5  UNL     1     -34.965   5.229   5.044  1.00 20.00     0.047 A 
HETATM    6  C6  UNL     1     -31.915   8.440   4.083  1.00 20.00     0.141 A 
HETATM    7  C7  UNL     1     -34.247   6.102   5.809  1.00 20.00     0.100 A 
HETATM    8  C8  UNL     1     -32.170   7.898   1.864  1.00 20.00     0.189 A 
HETATM    9  N9  UNL     1     -31.469   8.785   2.903  1.00 20.00    -0.295 NA
HETATM   10  N10 UNL     1     -33.658   6.613   4.697  1.00 20.00    -0.320 N 
ENDROOT
TORSDOF 0
ENDMDL
MODEL 3
REMARK VINA RESULT:      -5.0      1.153      3.920
REMARK  0 active torsions:
REMARK  status: ('A' for Active; 'I' for Inactive)
ROOT
HETATM    1  C1  UNL     1     -33.351   7.365   5.704  1.00 20.00     0.041 A 
HETATM    2  C2  UNL     1     -32.819   7.687   4.420  1.00 20.00    -0.008 A 
HETATM    3  C3  UNL     1     -34.060   6.240   5.437  1.00 20.00     0.041 A 
HETATM    4  C4  UNL     1     -33.233   6.758   3.490  1.00 20.00     0.064 A 
HETATM    5  C5  UNL     1     -34.899   5.102   5.664  1.00 20.00     0.047 A 
HETATM    6  C6  UNL     1     -32.707   7.079   2.225  1.00 20.00     0.141 A 
HETATM    7  C7  UNL     1     -34.777   4.811   4.336  1.00 20.00     0.100 A 
HETATM    8  C8  UNL     1     -31.975   8.667   3.717  1.00 20.00     0.189 A 
HETATM    9  N9  UNL     1     -31.973   8.160   2.267  1.00 20.00    -0.295 NA
HETATM   10  N10 UNL     1     -33.985   5.900   4.157  1.00 20.00    -0.320 N 
ENDROOT
TORSDOF 0
ENDMDL
MODEL 4
REMARK VINA RESULT:      -4.9      1.171      2.017
REMARK  0 active torsions:
REMARK  status: ('A' for Active; 'I' for Inactive)
ROOT
HETATM    1  C1  UNL     1     -33.280   7.612   5.364  1.00 20.00     0.041 A 
HETATM    2  C2  UNL     1     -33.849   6.332   5.092  1.00 20.00    -0.008 A 
HETATM    3  C3  UNL     1     -32.660   7.895   4.191  1.00 20.00     0.041 A 
HETATM    4  C4  UNL     1     -33.542   5.942   3.806  1.00 20.00     0.064 A 
HETATM    5  C5  UNL     1     -31.891   8.621   3.227  1.00 20.00     0.047 A 
HETATM    6  C6  UNL     1     -34.104   4.679   3.542  1.00 20.00     0.141 A 
HETATM    7  C7  UNL     1     -32.094   7.585   2.361  1.00 20.00     0.100 A 
HETATM    8  C8  UNL     1     -34.658   5.260   5.696  1.00 20.00     0.189 A 
HETATM    9  N9  UNL     1     -34.762   4.217   4.574  1.00 20.00    -0.295 NA
HETATM   10  N10 UNL     1     -32.819   6.925   3.301  1.00 20.00    -0.320 N 
ENDROOT
TORSDOF 0
ENDMDL
MODEL 5
REMARK VINA RESULT:      -4.3     11.399     11.845
REMARK  0 active torsions:
REMARK  status: ('A' for Active; 'I' for Inactive)
ROOT
HETATM    1  C1  UNL     1     -33.959  14.597  -4.180  1.00 20.00     0.041 A 
HETATM    2  C2  UNL     1     -35.294  14.321  -4.606  1.00 20.00    -0.008 A 
HETATM    3  C3  UNL     1     -34.136  15.697  -3.406  1.00 20.00     0.041 A 
HETATM    4  C4  UNL     1     -36.161  15.250  -4.073  1.00 20.00     0.064 A 
HETATM    5  C5  UNL     1     -33.809  16.795  -2.549  1.00 20.00     0.047 A 
HETATM    6  C6  UNL     1     -37.475  14.976  -4.496  1.00 20.00     0.141 A 
HETATM    7  C7  UNL     1     -35.135  17.115  -2.537  1.00 20.00     0.100 A 
HETATM    8  C8  UNL     1     -36.091  13.391  -5.422  1.00 20.00     0.189 A 
HETATM    9  N9  UNL     1     -37.523  13.925  -5.273  1.00 20.00    -0.295 NA
HETATM   10  N10 UNL     1     -35.410  16.064  -3.352  1.00 20.00    -0.320 N 
ENDROOT
TORSDOF 0
ENDMDL
MODEL 6
REMARK VINA RESULT:      -4.3     11.458     12.171
REMARK  0 active torsions:
REMARK  status: ('A' for Active; 'I' for Inactive)
ROOT
HETATM    1  C1  UNL     1     -33.142  15.713  -5.525  1.00 20.00     0.041 A 
HETATM    2  C2  UNL     1     -34.043  14.644  -5.810  1.00 20.00    -0.008 A 
HETATM    3  C3  UNL     1     -33.591  16.141  -4.319  1.00 20.00     0.041 A 
HETATM    4  C4  UNL     1     -34.950  14.504  -4.782  1.00 20.00     0.064 A 
HETATM    5  C5  UNL     1     -33.667  16.920  -3.120  1.00 20.00     0.047 A 
HETATM    6  C6  UNL     1     -35.838  13.450  -5.066  1.00 20.00     0.141 A 
HETATM    7  C7  UNL     1     -34.736  16.154  -2.752  1.00 20.00     0.100 A 
HETATM    8  C8  UNL     1     -34.361  13.621  -6.820  1.00 20.00     0.189 A 
HETATM    9  N9  UNL     1     -35.569  12.889  -6.217  1.00 20.00    -0.295 NA
HETATM   10  N10 UNL     1     -34.633  15.436  -3.900  1.00 20.00    -0.320 N 
ENDROOT
TORSDOF 0
ENDMDL
MODEL 7
REMARK VINA RESULT:      -4.1     11.612     12.016
REMARK  0 active torsions:
REMARK  status: ('A' for Active; 'I' for Inactive)
ROOT
HETATM    1  C1  UNL     1     -35.484  17.023  -1.030  1.00 20.00     0.041 A 
HETATM    2  C2  UNL     1     -34.381  17.760  -0.504  1.00 20.00    -0.008 A 
HETATM    3  C3  UNL     1     -34.965  16.530  -2.182  1.00 20.00     0.041 A 
HETATM    4  C4  UNL     1     -33.300  17.663  -1.352  1.00 20.00     0.064 A 
HETATM    5  C5  UNL     1     -34.897  15.813  -3.419  1.00 20.00     0.047 A 
HETATM    6  C6  UNL     1     -32.215  18.391  -0.831  1.00 20.00     0.141 A 
HETATM    7  C7  UNL     1     -33.605  16.237  -3.535  1.00 20.00     0.100 A 
HETATM    8  C8  UNL     1     -33.973  18.600   0.635  1.00 20.00     0.189 A 
HETATM    9  N9  UNL     1     -32.516  18.960   0.307  1.00 20.00    -0.295 NA
HETATM   10  N10 UNL     1     -33.705  16.905  -2.357  1.00 20.00    -0.320 N 
ENDROOT
TORSDOF 0
ENDMDL
MODEL 8
REMARK VINA RESULT:      -4.0     11.452     11.863
REMARK  0 active torsions:
REMARK  status: ('A' for Active; 'I' for Inactive)
ROOT
HETATM    1  C1  UNL     1     -36.328  16.023  -3.402  1.00 20.00     0.041 A 
HETATM    2  C2  UNL     1     -35.451  15.190  -4.160  1.00 20.00    -0.008 A 
HETATM    3  C3  UNL     1     -35.461  16.660  -2.576  1.00 20.00     0.041 A 
HETATM    4  C4  UNL     1     -34.149  15.378  -3.751  1.00 20.00     0.064 A 
HETATM    5  C5  UNL     1     -34.995  17.543  -1.551  1.00 20.00     0.047 A 
HETATM    6  C6  UNL     1     -33.287  14.556  -4.500  1.00 20.00     0.141 A 
HETATM    7  C7  UNL     1     -33.730  17.107  -1.821  1.00 20.00     0.100 A 
HETATM    8  C8  UNL     1     -35.433  14.187  -5.238  1.00 20.00     0.189 A 
HETATM    9  N9  UNL     1     -33.944  13.839  -5.375  1.00 20.00    -0.295 NA
HETATM   10  N10 UNL     1     -34.207  16.281  -2.787  1.00 20.00    -0.320 N 
ENDROOT
TORSDOF 0
ENDMDL
MODEL 9
REMARK VINA RESULT:      -3.9     11.369     11.980
REMARK  0 active torsions:
REMARK  status: ('A' for Active; 'I' for Inactive)
ROOT
HETATM    1  C1  UNL     1     -33.977  14.586  -4.110  1.00 20.00     0.041 A 
HETATM    2  C2  UNL     1     -34.383  15.740  -3.375  1.00 20.00    -0.008 A 
HETATM    3  C3  UNL     1     -35.147  14.185  -4.667  1.00 20.00     0.041 A 
HETATM    4  C4  UNL     1     -35.736  15.951  -3.536  1.00 20.00     0.064 A 
HETATM    5  C5  UNL     1     -36.060  13.400  -5.441  1.00 20.00     0.047 A 
HETATM    6  C6  UNL     1     -36.133  17.089  -2.810  1.00 20.00     0.141 A 
HETATM    7  C7  UNL     1     -37.047  14.258  -5.053  1.00 20.00     0.100 A 
HETATM    8  C8  UNL     1     -33.873  16.803  -2.493  1.00 20.00     0.189 A 
HETATM    9  N9  UNL     1     -35.125  17.638  -2.183  1.00 20.00    -0.295 NA
HETATM   10  N10 UNL     1     -36.154  14.980  -4.329  1.00 20.00    -0.320 N 
ENDROOT
TORSDOF 0
ENDMDL
