MODEL 1
REMARK VINA RESULT:      -4.7      0.000      0.000
REMARK  1 active torsions:
REMARK  status: ('A' for Active; 'I' for Inactive)
REMARK    1  A    between atoms: C2_2  and  C4_4 
ROOT
HETATM    1  C1  UNL     1     -32.715   7.616   3.851  1.00 20.00     0.131 C 
HETATM    2  C3  UNL     1     -34.173   6.779   5.226  1.00 20.00     0.191 C 
HETATM    3  C4  UNL     1     -34.416   6.236   3.834  1.00 20.00     0.219 C 
HETATM    4  C5  UNL     1     -31.594   8.342   3.205  1.00 20.00     0.099 C 
HETATM    5  N7  UNL     1     -32.930   7.558   5.126  1.00 20.00    -0.268 NA
HETATM    6  O9  UNL     1     -33.543   6.973   2.998  1.00 20.00    -0.323 OA
ENDROOT
BRANCH   3   7
HETATM    7  C2  UNL     1     -34.034   4.797   3.701  1.00 20.00     0.153 C 
HETATM    8  C6  UNL     1     -33.063   4.451   2.604  1.00 20.00     0.093 C 
HETATM    9  O8  UNL     1     -34.489   3.936   4.453  1.00 20.00    -0.295 OA
ENDBRANCH   3   7
TORSDOF 1
ENDMDL
MODEL 2
REMARK VINA RESULT:      -4.5      1.241      1.433
REMARK  1 active torsions:
REMARK  status: ('A' for Active; 'I' for Inactive)
REMARK    1  A    between atoms: C2_2  and  C4_4 
ROOT
HETATM    1  C1  UNL     1     -32.486   7.867   2.848  1.00 20.00     0.131 C 
HETATM    2  C3  UNL     1     -33.343   7.256   4.747  1.00 20.00     0.191 C 
HETATM    3  C4  UNL     1     -34.081   6.575   3.612  1.00 20.00     0.219 C 
HETATM    4  C5  UNL     1     -31.676   8.464   1.757  1.00 20.00     0.099 C 
HETATM    5  N7  UNL     1     -32.220   7.959   4.110  1.00 20.00    -0.268 NA
HETATM    6  O9  UNL     1     -33.571   7.175   2.436  1.00 20.00    -0.323 OA
ENDROOT
BRANCH   3   7
HETATM    7  C2  UNL     1     -33.780   5.114   3.523  1.00 20.00     0.153 C 
HETATM    8  C6  UNL     1     -34.413   4.227   4.561  1.00 20.00     0.093 C 
HETATM    9  O8  UNL     1     -33.052   4.657   2.643  1.00 20.00    -0.295 OA
ENDBRANCH   3   7
TORSDOF 1
ENDMDL
MODEL 3
REMARK VINA RESULT:      -4.3      2.150      4.216
REMARK  1 active torsions:
REMARK  status: ('A' for Active; 'I' for Inactive)
REMARK    1  A    between atoms: C2_2  and  C4_4 
ROOT
HETATM    1  C1  UNL     1     -33.199   7.206   3.246  1.00 20.00     0.131 C 
HETATM    2  C3  UNL     1     -31.423   8.456   3.219  1.00 20.00     0.191 C 
HETATM    3  C4  UNL     1     -31.904   8.224   1.802  1.00 20.00     0.219 C 
HETATM    4  C5  UNL     1     -34.371   6.375   3.616  1.00 20.00     0.099 C 
HETATM    5  N7  UNL     1     -32.453   7.856   4.080  1.00 20.00    -0.268 NA
HETATM    6  O9  UNL     1     -32.939   7.266   1.922  1.00 20.00    -0.323 OA
ENDROOT
BRANCH   3   7
HETATM    7  C2  UNL     1     -32.511   9.447   1.192  1.00 20.00     0.153 C 
HETATM    8  C6  UNL     1     -33.020   9.319  -0.219  1.00 20.00     0.093 C 
HETATM    9  O8  UNL     1     -32.593  10.506   1.813  1.00 20.00    -0.295 OA
ENDBRANCH   3   7
TORSDOF 1
ENDMDL
MODEL 4
REMARK VINA RESULT:      -4.2      1.781      3.484
REMARK  1 active torsions:
REMARK  status: ('A' for Active; 'I' for Inactive)
REMARK    1  A    between atoms: C2_2  and  C4_4 
ROOT
HETATM    1  C1  UNL     1     -34.203   5.456   4.388  1.00 20.00     0.131 C 
HETATM    2  C3  UNL     1     -33.346   5.450   2.392  1.00 20.00     0.191 C 
HETATM    3  C4  UNL     1     -33.709   6.867   2.786  1.00 20.00     0.219 C 
HETATM    4  C5  UNL     1     -34.717   5.114   5.737  1.00 20.00     0.099 C 
HETATM    5  N7  UNL     1     -33.583   4.641   3.597  1.00 20.00    -0.268 NA
HETATM    6  O9  UNL     1     -34.414   6.736   4.007  1.00 20.00    -0.323 OA
ENDROOT
BRANCH   3   7
HETATM    7  C2  UNL     1     -32.509   7.714   3.065  1.00 20.00     0.153 C 
HETATM    8  C6  UNL     1     -31.846   8.361   1.879  1.00 20.00     0.093 C 
HETATM    9  O8  UNL     1     -32.084   7.875   4.208  1.00 20.00    -0.295 OA
ENDBRANCH   3   7
TORSDOF 1
ENDMDL
MODEL 5
REMARK VINA RESULT:      -4.2      1.718      2.917
REMARK  1 active torsions:
REMARK  status: ('A' for Active; 'I' for Inactive)
REMARK    1  A    between atoms: C2_2  and  C4_4 
ROOT
HETATM    1  C1  UNL     1     -33.178   5.515   2.730  1.00 20.00     0.131 C 
HETATM    2  C3  UNL     1     -33.219   7.565   3.444  1.00 20.00     0.191 C 
HETATM    3  C4  UNL     1     -34.387   6.799   4.029  1.00 20.00     0.219 C 
HETATM    4  C5  UNL     1     -32.852   4.220   2.083  1.00 20.00     0.099 C 
HETATM    5  N7  UNL     1     -32.417   6.562   2.729  1.00 20.00    -0.268 NA
HETATM    6  O9  UNL     1     -34.370   5.548   3.366  1.00 20.00    -0.323 OA
ENDROOT
BRANCH   3   7
HETATM    7  C2  UNL     1     -34.222   6.522   5.488  1.00 20.00     0.153 C 
HETATM    8  C6  UNL     1     -34.612   5.148   5.965  1.00 20.00     0.093 C 
HETATM    9  O8  UNL     1     -33.788   7.373   6.262  1.00 20.00    -0.295 OA
ENDBRANCH   3   7
TORSDOF 1
ENDMDL
MODEL 6
REMARK VINA RESULT:      -4.2      1.742      2.494
REMARK  1 active torsions:
REMARK  status: ('A' for Active; 'I' for Inactive)
REMARK    1  A    between atoms: C2_2  and  C4_4 
ROOT
HETATM    1  C1  UNL     1     -34.227   6.460   5.553  1.00 20.00     0.131 C 
HETATM    2  C3  UNL     1     -34.657   4.587   4.542  1.00 20.00     0.191 C 
HETATM    3  C4  UNL     1     -34.525   5.698   3.521  1.00 20.00     0.219 C 
HETATM    4  C5  UNL     1     -33.933   7.536   6.532  1.00 20.00     0.099 C 
HETATM    5  N7  UNL     1     -34.286   5.197   5.827  1.00 20.00    -0.268 NA
HETATM    6  O9  UNL     1     -34.429   6.885   4.286  1.00 20.00    -0.323 OA
ENDROOT
BRANCH   3   7
HETATM    7  C2  UNL     1     -33.270   5.596   2.715  1.00 20.00     0.153 C 
HETATM    8  C6  UNL     1     -32.552   6.884   2.413  1.00 20.00     0.093 C 
HETATM    9  O8  UNL     1     -32.844   4.512   2.319  1.00 20.00    -0.295 OA
ENDBRANCH   3   7
TORSDOF 1
ENDMDL
MODEL 7
REMARK VINA RESULT:      -3.9     12.066     12.785
REMARK  1 active torsions:
REMARK  status: ('A' for Active; 'I' for Inactive)
REMARK    1  A    between atoms: C2_2  and  C4_4 
ROOT
HETATM    1  C1  UNL     1     -34.125  14.350  -5.215  1.00 20.00     0.131 C 
HETATM    2  C3  UNL     1     -35.115  13.663  -7.021  1.00 20.00     0.191 C 
HETATM    3  C4  UNL     1     -35.956  13.307  -5.813  1.00 20.00     0.219 C 
HETATM    4  C5  UNL     1     -33.211  14.947  -4.210  1.00 20.00     0.099 C 
HETATM    5  N7  UNL     1     -34.012  14.482  -6.497  1.00 20.00    -0.268 NA
HETATM    6  O9  UNL     1     -35.146  13.631  -4.698  1.00 20.00    -0.323 OA
ENDROOT
BRANCH   3   7
HETATM    7  C2  UNL     1     -37.195  14.136  -5.707  1.00 20.00     0.153 C 
HETATM    8  C6  UNL     1     -37.421  15.158  -6.789  1.00 20.00     0.093 C 
HETATM    9  O8  UNL     1     -37.993  13.990  -4.782  1.00 20.00    -0.295 OA
ENDBRANCH   3   7
TORSDOF 1
ENDMDL
MODEL 8
REMARK VINA RESULT:      -3.8     12.077     12.525
REMARK  1 active torsions:
REMARK  status: ('A' for Active; 'I' for Inactive)
REMARK    1  A    between atoms: C2_2  and  C4_4 
ROOT
HETATM    1  C1  UNL     1     -34.205  15.933  -3.743  1.00 20.00     0.131 C 
HETATM    2  C3  UNL     1     -33.652  15.586  -5.814  1.00 20.00     0.191 C 
HETATM    3  C4  UNL     1     -34.073  14.280  -5.174  1.00 20.00     0.219 C 
HETATM    4  C5  UNL     1     -34.516  16.508  -2.410  1.00 20.00     0.099 C 
HETATM    5  N7  UNL     1     -33.932  16.619  -4.806  1.00 20.00    -0.268 NA
HETATM    6  O9  UNL     1     -34.234  14.583  -3.801  1.00 20.00    -0.323 OA
ENDROOT
BRANCH   3   7
HETATM    7  C2  UNL     1     -35.396  13.793  -5.671  1.00 20.00     0.153 C 
HETATM    8  C6  UNL     1     -36.057  14.610  -6.749  1.00 20.00     0.093 C 
HETATM    9  O8  UNL     1     -35.919  12.774  -5.223  1.00 20.00    -0.295 OA
ENDBRANCH   3   7
TORSDOF 1
ENDMDL
MODEL 9
REMARK VINA RESULT:      -3.8     11.874     12.693
REMARK  1 active torsions:
REMARK  status: ('A' for Active; 'I' for Inactive)
REMARK    1  A    between atoms: C2_2  and  C4_4 
ROOT
HETATM    1  C1  UNL     1     -33.925  16.365  -5.229  1.00 20.00     0.131 C 
HETATM    2  C3  UNL     1     -33.355  14.401  -4.500  1.00 20.00     0.191 C 
HETATM    3  C4  UNL     1     -34.795  14.684  -4.128  1.00 20.00     0.219 C 
HETATM    4  C5  UNL     1     -33.987  17.707  -5.861  1.00 20.00     0.099 C 
HETATM    5  N7  UNL     1     -32.948  15.526  -5.355  1.00 20.00    -0.268 NA
HETATM    6  O9  UNL     1     -35.004  16.038  -4.484  1.00 20.00    -0.323 OA
ENDROOT
BRANCH   3   7
HETATM    7  C2  UNL     1     -35.767  13.870  -4.921  1.00 20.00     0.153 C 
HETATM    8  C6  UNL     1     -37.157  14.427  -5.067  1.00 20.00     0.093 C 
HETATM    9  O8  UNL     1     -35.446  12.798  -5.431  1.00 20.00    -0.295 OA
ENDBRANCH   3   7
TORSDOF 1
ENDMDL
