MODEL 1
REMARK VINA RESULT:      -5.4      0.000      0.000
REMARK  0 active torsions:
REMARK  status: ('A' for Active; 'I' for Inactive)
ROOT
HETATM    1  C1  UNL     1     -33.556   6.014   2.503  1.00 20.00     0.110 A 
HETATM    2  C2  UNL     1     -33.974   5.955   3.821  1.00 20.00     0.007 A 
HETATM    3  C3  UNL     1     -33.418   7.009   4.584  1.00 20.00     0.002 A 
HETATM    4  C4  UNL     1     -32.669   7.690   3.712  1.00 20.00     0.048 A 
HETATM    5  C5  UNL     1     -34.792   5.177   4.681  1.00 20.00     0.124 A 
HETATM    6  C6  UNL     1     -31.793   8.662   3.142  1.00 20.00     0.048 A 
HETATM    7  C7  UNL     1     -31.929   8.013   1.948  1.00 20.00     0.099 A 
HETATM    8  C8  UNL     1     -33.897   6.888   5.957  1.00 20.00     0.190 A 
HETATM    9  N9  UNL     1     -34.792   5.649   5.900  1.00 20.00    -0.296 NA
HETATM   10  N10 UNL     1     -32.763   7.103   2.525  1.00 20.00    -0.331 N 
ENDROOT
TORSDOF 0
ENDMDL
MODEL 2
REMARK VINA RESULT:      -4.9      1.152      3.492
REMARK  0 active torsions:
REMARK  status: ('A' for Active; 'I' for Inactive)
ROOT
HETATM    1  C1  UNL     1     -33.910   5.912   2.643  1.00 20.00     0.110 A 
HETATM    2  C2  UNL     1     -33.044   6.982   2.789  1.00 20.00     0.007 A 
HETATM    3  C3  UNL     1     -32.923   7.364   4.146  1.00 20.00     0.002 A 
HETATM    4  C4  UNL     1     -33.721   6.517   4.801  1.00 20.00     0.048 A 
HETATM    5  C5  UNL     1     -32.218   7.840   2.017  1.00 20.00     0.124 A 
HETATM    6  C6  UNL     1     -34.427   5.848   5.846  1.00 20.00     0.048 A 
HETATM    7  C7  UNL     1     -34.966   5.033   4.893  1.00 20.00     0.099 A 
HETATM    8  C8  UNL     1     -31.999   8.491   4.228  1.00 20.00     0.190 A 
HETATM    9  N9  UNL     1     -31.601   8.714   2.768  1.00 20.00    -0.296 NA
HETATM   10  N10 UNL     1     -34.277   5.693   3.921  1.00 20.00    -0.331 N 
ENDROOT
TORSDOF 0
ENDMDL
MODEL 3
REMARK VINA RESULT:      -4.8      1.105      1.934
REMARK  0 active torsions:
REMARK  status: ('A' for Active; 'I' for Inactive)
ROOT
HETATM    1  C1  UNL     1     -33.298   7.539   5.237  1.00 20.00     0.110 A 
HETATM    2  C2  UNL     1     -33.824   6.298   4.926  1.00 20.00     0.007 A 
HETATM    3  C3  UNL     1     -33.473   5.905   3.613  1.00 20.00     0.002 A 
HETATM    4  C4  UNL     1     -32.738   6.920   3.149  1.00 20.00     0.048 A 
HETATM    5  C5  UNL     1     -34.613   5.264   5.496  1.00 20.00     0.124 A 
HETATM    6  C6  UNL     1     -31.940   7.742   2.298  1.00 20.00     0.048 A 
HETATM    7  C7  UNL     1     -31.887   8.655   3.311  1.00 20.00     0.099 A 
HETATM    8  C8  UNL     1     -34.056   4.593   3.351  1.00 20.00     0.190 A 
HETATM    9  N9  UNL     1     -34.781   4.273   4.659  1.00 20.00    -0.296 NA
HETATM   10  N10 UNL     1     -32.650   7.846   4.097  1.00 20.00    -0.331 N 
ENDROOT
TORSDOF 0
ENDMDL
MODEL 4
REMARK VINA RESULT:      -4.7      0.971      3.936
REMARK  0 active torsions:
REMARK  status: ('A' for Active; 'I' for Inactive)
ROOT
HETATM    1  C1  UNL     1     -33.284   7.405   5.644  1.00 20.00     0.110 A 
HETATM    2  C2  UNL     1     -32.775   7.697   4.390  1.00 20.00     0.007 A 
HETATM    3  C3  UNL     1     -33.234   6.773   3.422  1.00 20.00     0.002 A 
HETATM    4  C4  UNL     1     -34.016   5.935   4.108  1.00 20.00     0.048 A 
HETATM    5  C5  UNL     1     -31.930   8.632   3.737  1.00 20.00     0.124 A 
HETATM    6  C6  UNL     1     -34.892   4.858   4.440  1.00 20.00     0.048 A 
HETATM    7  C7  UNL     1     -34.866   5.299   5.731  1.00 20.00     0.099 A 
HETATM    8  C8  UNL     1     -32.663   7.137   2.128  1.00 20.00     0.190 A 
HETATM    9  N9  UNL     1     -31.825   8.372   2.460  1.00 20.00    -0.296 NA
HETATM   10  N10 UNL     1     -34.030   6.316   5.380  1.00 20.00    -0.331 N 
ENDROOT
TORSDOF 0
ENDMDL
MODEL 5
REMARK VINA RESULT:      -4.4     11.678     12.269
REMARK  0 active torsions:
REMARK  status: ('A' for Active; 'I' for Inactive)
ROOT
HETATM    1  C1  UNL     1     -33.182  15.642  -5.521  1.00 20.00     0.110 A 
HETATM    2  C2  UNL     1     -34.065  14.612  -5.791  1.00 20.00     0.007 A 
HETATM    3  C3  UNL     1     -35.018  14.466  -4.755  1.00 20.00     0.002 A 
HETATM    4  C4  UNL     1     -34.694  15.414  -3.871  1.00 20.00     0.048 A 
HETATM    5  C5  UNL     1     -34.342  13.632  -6.781  1.00 20.00     0.124 A 
HETATM    6  C6  UNL     1     -34.696  16.253  -2.717  1.00 20.00     0.048 A 
HETATM    7  C7  UNL     1     -33.611  16.895  -3.241  1.00 20.00     0.099 A 
HETATM    8  C8  UNL     1     -35.914  13.367  -5.102  1.00 20.00     0.190 A 
HETATM    9  N9  UNL     1     -35.372  12.897  -6.453  1.00 20.00    -0.296 NA
HETATM   10  N10 UNL     1     -33.639  16.077  -4.330  1.00 20.00    -0.331 N 
ENDROOT
TORSDOF 0
ENDMDL
MODEL 6
REMARK VINA RESULT:      -4.2     11.550     12.024
REMARK  0 active torsions:
REMARK  status: ('A' for Active; 'I' for Inactive)
ROOT
HETATM    1  C1  UNL     1     -36.581  15.843  -3.762  1.00 20.00     0.110 A 
HETATM    2  C2  UNL     1     -35.578  15.115  -4.377  1.00 20.00     0.007 A 
HETATM    3  C3  UNL     1     -34.329  15.325  -3.746  1.00 20.00     0.002 A 
HETATM    4  C4  UNL     1     -34.598  16.181  -2.756  1.00 20.00     0.048 A 
HETATM    5  C5  UNL     1     -35.378  14.208  -5.451  1.00 20.00     0.124 A 
HETATM    6  C6  UNL     1     -34.452  17.046  -1.630  1.00 20.00     0.048 A 
HETATM    7  C7  UNL     1     -35.791  17.298  -1.711  1.00 20.00     0.099 A 
HETATM    8  C8  UNL     1     -33.320  14.531  -4.441  1.00 20.00     0.190 A 
HETATM    9  N9  UNL     1     -34.126  13.840  -5.541  1.00 20.00    -0.296 NA
HETATM   10  N10 UNL     1     -35.895  16.464  -2.783  1.00 20.00    -0.331 N 
ENDROOT
TORSDOF 0
ENDMDL
MODEL 7
REMARK VINA RESULT:      -4.1     11.663     12.140
REMARK  0 active torsions:
REMARK  status: ('A' for Active; 'I' for Inactive)
ROOT
HETATM    1  C1  UNL     1     -35.475  17.058  -0.946  1.00 20.00     0.110 A 
HETATM    2  C2  UNL     1     -34.417  17.775  -0.416  1.00 20.00     0.007 A 
HETATM    3  C3  UNL     1     -33.283  17.719  -1.260  1.00 20.00     0.002 A 
HETATM    4  C4  UNL     1     -33.676  16.964  -2.291  1.00 20.00     0.048 A 
HETATM    5  C5  UNL     1     -34.082  18.567   0.714  1.00 20.00     0.124 A 
HETATM    6  C6  UNL     1     -33.680  16.243  -3.522  1.00 20.00     0.048 A 
HETATM    7  C7  UNL     1     -34.974  15.898  -3.259  1.00 20.00     0.099 A 
HETATM    8  C8  UNL     1     -32.209  18.493  -0.645  1.00 20.00     0.190 A 
HETATM    9  N9  UNL     1     -32.851  19.002   0.646  1.00 20.00    -0.296 NA
HETATM   10  N10 UNL     1     -34.936  16.597  -2.090  1.00 20.00    -0.331 N 
ENDROOT
TORSDOF 0
ENDMDL
MODEL 8
REMARK VINA RESULT:      -4.0     11.776     12.202
REMARK  0 active torsions:
REMARK  status: ('A' for Active; 'I' for Inactive)
ROOT
HETATM    1  C1  UNL     1     -35.482  16.818  -1.528  1.00 20.00     0.110 A 
HETATM    2  C2  UNL     1     -35.079  16.303  -2.747  1.00 20.00     0.007 A 
HETATM    3  C3  UNL     1     -33.740  16.657  -3.037  1.00 20.00     0.002 A 
HETATM    4  C4  UNL     1     -33.354  17.383  -1.984  1.00 20.00     0.048 A 
HETATM    5  C5  UNL     1     -35.568  15.522  -3.827  1.00 20.00     0.124 A 
HETATM    6  C6  UNL     1     -32.566  18.173  -1.094  1.00 20.00     0.048 A 
HETATM    7  C7  UNL     1     -33.645  18.219  -0.259  1.00 20.00     0.099 A 
HETATM    8  C8  UNL     1     -33.380  16.084  -4.330  1.00 20.00     0.190 A 
HETATM    9  N9  UNL     1     -34.659  15.361  -4.753  1.00 20.00    -0.296 NA
HETATM   10  N10 UNL     1     -34.368  17.463  -1.131  1.00 20.00    -0.331 N 
ENDROOT
TORSDOF 0
ENDMDL
MODEL 9
REMARK VINA RESULT:      -4.0     11.642     11.999
REMARK  0 active torsions:
REMARK  status: ('A' for Active; 'I' for Inactive)
ROOT
HETATM    1  C1  UNL     1     -32.860  18.063  -1.292  1.00 20.00     0.110 A 
HETATM    2  C2  UNL     1     -33.756  18.165  -0.242  1.00 20.00     0.007 A 
HETATM    3  C3  UNL     1     -34.931  17.419  -0.496  1.00 20.00     0.002 A 
HETATM    4  C4  UNL     1     -34.726  16.877  -1.700  1.00 20.00     0.048 A 
HETATM    5  C5  UNL     1     -33.893  18.778   1.031  1.00 20.00     0.124 A 
HETATM    6  C6  UNL     1     -34.909  16.133  -2.904  1.00 20.00     0.048 A 
HETATM    7  C7  UNL     1     -33.674  16.561  -3.299  1.00 20.00     0.099 A 
HETATM    8  C8  UNL     1     -35.829  17.568   0.645  1.00 20.00     0.190 A 
HETATM    9  N9  UNL     1     -35.040  18.481   1.584  1.00 20.00    -0.296 NA
HETATM   10  N10 UNL     1     -33.532  17.259  -2.138  1.00 20.00    -0.331 N 
ENDROOT
TORSDOF 0
ENDMDL
