MODEL 1
REMARK VINA RESULT:      -4.8      0.000      0.000
REMARK  3 active torsions:
REMARK  status: ('A' for Active; 'I' for Inactive)
REMARK    1  A    between atoms: C3_3  and  C7_7 
REMARK    2  A    between atoms: C4_4  and  O11_11 
REMARK    3  A    between atoms: C7_7  and  C8_8 
ROOT
HETATM    1  C1  UNL     1     -32.956   6.910   2.225  1.00 20.00     0.180 C 
HETATM    2  C2  UNL     1     -31.364   8.214   3.636  1.00 20.00     0.180 C 
HETATM    3  C3  UNL     1     -32.027   8.127   2.259  1.00 20.00     0.034 C 
HETATM    4  C4  UNL     1     -33.167   7.015   4.571  1.00 20.00     0.412 C 
HETATM    5  O9  UNL     1     -33.866   6.939   3.324  1.00 20.00    -0.339 OA
HETATM    6  O10 UNL     1     -32.348   8.184   4.672  1.00 20.00    -0.339 OA
ENDROOT
BRANCH   3   7
HETATM    7  C7  UNL     1     -32.812   9.410   1.960  1.00 20.00     0.008 C 
BRANCH   7   8
HETATM    8  C8  UNL     1     -32.393  10.021   0.625  1.00 20.00    -0.004 C 
HETATM    9  C5  UNL     1     -33.166   9.410  -0.532  1.00 20.00     0.005 C 
ENDBRANCH   7   8
ENDBRANCH   3   7
BRANCH   4  10
HETATM   10  O11 UNL     1     -34.104   6.993   5.646  1.00 20.00    -0.344 OA
HETATM   11  C6  UNL     1     -34.627   5.689   5.848  1.00 20.00     0.207 C 
ENDBRANCH   4  10
TORSDOF 3
ENDMDL
MODEL 2
REMARK VINA RESULT:      -4.6      1.685      4.722
REMARK  3 active torsions:
REMARK  status: ('A' for Active; 'I' for Inactive)
REMARK    1  A    between atoms: C3_3  and  C7_7 
REMARK    2  A    between atoms: C4_4  and  O11_11 
REMARK    3  A    between atoms: C7_7  and  C8_8 
ROOT
HETATM    1  C1  UNL     1     -31.401   8.086   3.739  1.00 20.00     0.180 C 
HETATM    2  C2  UNL     1     -32.964   6.696   2.378  1.00 20.00     0.180 C 
HETATM    3  C3  UNL     1     -32.549   7.074   3.803  1.00 20.00     0.034 C 
HETATM    4  C4  UNL     1     -32.117   8.752   1.593  1.00 20.00     0.412 C 
HETATM    5  O9  UNL     1     -31.748   9.191   2.904  1.00 20.00    -0.339 OA
HETATM    6  O10 UNL     1     -33.240   7.865   1.605  1.00 20.00    -0.339 OA
ENDROOT
BRANCH   3   7
HETATM    7  C7  UNL     1     -33.739   7.662   4.570  1.00 20.00     0.008 C 
BRANCH   7   8
HETATM    8  C8  UNL     1     -34.004   6.894   5.862  1.00 20.00    -0.004 C 
HETATM    9  C5  UNL     1     -34.560   5.508   5.580  1.00 20.00     0.005 C 
ENDBRANCH   7   8
ENDBRANCH   3   7
BRANCH   4  10
HETATM   10  O11 UNL     1     -32.410   9.883   0.774  1.00 20.00    -0.344 OA
HETATM   11  C6  UNL     1     -33.106   9.502  -0.402  1.00 20.00     0.207 C 
ENDBRANCH   4  10
TORSDOF 3
ENDMDL
MODEL 3
REMARK VINA RESULT:      -4.3     10.028     11.106
REMARK  3 active torsions:
REMARK  status: ('A' for Active; 'I' for Inactive)
REMARK    1  A    between atoms: C3_3  and  C7_7 
REMARK    2  A    between atoms: C4_4  and  O11_11 
REMARK    3  A    between atoms: C7_7  and  C8_8 
ROOT
HETATM    1  C1  UNL     1     -34.676  16.366  -5.211  1.00 20.00     0.180 C 
HETATM    2  C2  UNL     1     -33.467  14.420  -4.221  1.00 20.00     0.180 C 
HETATM    3  C3  UNL     1     -33.696  15.930  -4.116  1.00 20.00     0.034 C 
HETATM    4  C4  UNL     1     -35.562  14.182  -5.276  1.00 20.00     0.412 C 
HETATM    5  O9  UNL     1     -35.864  15.577  -5.167  1.00 20.00    -0.339 OA
HETATM    6  O10 UNL     1     -34.712  13.719  -4.223  1.00 20.00    -0.339 OA
ENDROOT
BRANCH   3   7
HETATM    7  C7  UNL     1     -34.243  16.294  -2.731  1.00 20.00     0.008 C 
BRANCH   7   8
HETATM    8  C8  UNL     1     -33.377  17.350  -2.050  1.00 20.00    -0.004 C 
HETATM    9  C5  UNL     1     -33.992  17.810  -0.738  1.00 20.00     0.005 C 
ENDBRANCH   7   8
ENDBRANCH   3   7
BRANCH   4  10
HETATM   10  O11 UNL     1     -36.774  13.429  -5.279  1.00 20.00    -0.344 OA
HETATM   11  C6  UNL     1     -37.910  14.280  -5.240  1.00 20.00     0.207 C 
ENDBRANCH   4  10
TORSDOF 3
ENDMDL
MODEL 4
REMARK VINA RESULT:      -4.2     10.284     11.516
REMARK  3 active torsions:
REMARK  status: ('A' for Active; 'I' for Inactive)
REMARK    1  A    between atoms: C3_3  and  C7_7 
REMARK    2  A    between atoms: C4_4  and  O11_11 
REMARK    3  A    between atoms: C7_7  and  C8_8 
ROOT
HETATM    1  C1  UNL     1     -34.229  16.408  -5.489  1.00 20.00     0.180 C 
HETATM    2  C2  UNL     1     -32.916  14.675  -4.265  1.00 20.00     0.180 C 
HETATM    3  C3  UNL     1     -33.686  15.991  -4.119  1.00 20.00     0.034 C 
HETATM    4  C4  UNL     1     -34.180  14.156  -6.186  1.00 20.00     0.412 C 
HETATM    5  O9  UNL     1     -34.972  15.344  -6.083  1.00 20.00    -0.339 OA
HETATM    6  O10 UNL     1     -33.719  13.689  -4.915  1.00 20.00    -0.339 OA
ENDROOT
BRANCH   3   7
HETATM    7  C7  UNL     1     -34.832  15.832  -3.113  1.00 20.00     0.008 C 
BRANCH   7   8
HETATM    8  C8  UNL     1     -34.691  16.809  -1.949  1.00 20.00    -0.004 C 
HETATM    9  C5  UNL     1     -33.316  17.456  -1.931  1.00 20.00     0.005 C 
ENDBRANCH   7   8
ENDBRANCH   3   7
BRANCH   4  10
HETATM   10  O11 UNL     1     -34.937  13.131  -6.827  1.00 20.00    -0.344 OA
HETATM   11  C6  UNL     1     -35.700  13.651  -7.905  1.00 20.00     0.207 C 
ENDBRANCH   4  10
TORSDOF 3
ENDMDL
MODEL 5
REMARK VINA RESULT:      -4.0     10.689     11.513
REMARK  3 active torsions:
REMARK  status: ('A' for Active; 'I' for Inactive)
REMARK    1  A    between atoms: C3_3  and  C7_7 
REMARK    2  A    between atoms: C4_4  and  O11_11 
REMARK    3  A    between atoms: C7_7  and  C8_8 
ROOT
HETATM    1  C1  UNL     1     -35.292  15.545  -6.413  1.00 20.00     0.180 C 
HETATM    2  C2  UNL     1     -34.930  13.077  -6.404  1.00 20.00     0.180 C 
HETATM    3  C3  UNL     1     -34.248  14.438  -6.243  1.00 20.00     0.034 C 
HETATM    4  C4  UNL     1     -36.985  14.039  -5.763  1.00 20.00     0.412 C 
HETATM    5  O9  UNL     1     -36.404  15.329  -5.545  1.00 20.00    -0.339 OA
HETATM    6  O10 UNL     1     -36.060  12.972  -5.535  1.00 20.00    -0.339 OA
ENDROOT
BRANCH   3   7
HETATM    7  C7  UNL     1     -33.575  14.541  -4.869  1.00 20.00     0.008 C 
BRANCH   7   8
HETATM    8  C8  UNL     1     -33.271  15.992  -4.505  1.00 20.00    -0.004 C 
HETATM    9  C5  UNL     1     -33.775  16.332  -3.112  1.00 20.00     0.005 C 
ENDBRANCH   7   8
ENDBRANCH   3   7
BRANCH   4  10
HETATM   10  O11 UNL     1     -38.120  13.877  -4.914  1.00 20.00    -0.344 OA
HETATM   11  C6  UNL     1     -38.737  15.124  -4.634  1.00 20.00     0.207 C 
ENDBRANCH   4  10
TORSDOF 3
ENDMDL
MODEL 6
REMARK VINA RESULT:      -4.0     10.807     12.129
REMARK  3 active torsions:
REMARK  status: ('A' for Active; 'I' for Inactive)
REMARK    1  A    between atoms: C3_3  and  C7_7 
REMARK    2  A    between atoms: C4_4  and  O11_11 
REMARK    3  A    between atoms: C7_7  and  C8_8 
ROOT
HETATM    1  C1  UNL     1     -33.036  14.957  -4.547  1.00 20.00     0.180 C 
HETATM    2  C2  UNL     1     -35.283  14.005  -5.071  1.00 20.00     0.180 C 
HETATM    3  C3  UNL     1     -34.424  14.646  -3.978  1.00 20.00     0.034 C 
HETATM    4  C4  UNL     1     -33.956  15.052  -6.716  1.00 20.00     0.412 C 
HETATM    5  O9  UNL     1     -33.143  15.722  -5.747  1.00 20.00    -0.339 OA
HETATM    6  O10 UNL     1     -35.287  14.814  -6.249  1.00 20.00    -0.339 OA
ENDROOT
BRANCH   3   7
HETATM    7  C7  UNL     1     -35.088  15.925  -3.455  1.00 20.00     0.008 C 
BRANCH   7   8
HETATM    8  C8  UNL     1     -34.257  16.574  -2.351  1.00 20.00    -0.004 C 
HETATM    9  C5  UNL     1     -35.129  17.012  -1.186  1.00 20.00     0.005 C 
ENDBRANCH   7   8
ENDBRANCH   3   7
BRANCH   4  10
HETATM   10  O11 UNL     1     -34.001  15.820  -7.917  1.00 20.00    -0.344 OA
HETATM   11  C6  UNL     1     -33.940  17.211  -7.642  1.00 20.00     0.207 C 
ENDBRANCH   4  10
TORSDOF 3
ENDMDL
MODEL 7
REMARK VINA RESULT:      -3.9     10.765     11.622
REMARK  3 active torsions:
REMARK  status: ('A' for Active; 'I' for Inactive)
REMARK    1  A    between atoms: C3_3  and  C7_7 
REMARK    2  A    between atoms: C4_4  and  O11_11 
REMARK    3  A    between atoms: C7_7  and  C8_8 
ROOT
HETATM    1  C1  UNL     1     -35.789  16.450  -4.213  1.00 20.00     0.180 C 
HETATM    2  C2  UNL     1     -33.451  17.093  -4.801  1.00 20.00     0.180 C 
HETATM    3  C3  UNL     1     -34.555  17.231  -3.749  1.00 20.00     0.034 C 
HETATM    4  C4  UNL     1     -34.409  15.067  -5.533  1.00 20.00     0.412 C 
HETATM    5  O9  UNL     1     -35.442  15.106  -4.543  1.00 20.00    -0.339 OA
HETATM    6  O10 UNL     1     -33.209  15.718  -5.103  1.00 20.00    -0.339 OA
ENDROOT
BRANCH   3   7
HETATM    7  C7  UNL     1     -34.071  16.709  -2.392  1.00 20.00     0.008 C 
BRANCH   7   8
HETATM    8  C8  UNL     1     -35.130  16.903  -1.310  1.00 20.00    -0.004 C 
HETATM    9  C5  UNL     1     -34.655  17.867  -0.235  1.00 20.00     0.005 C 
ENDBRANCH   7   8
ENDBRANCH   3   7
BRANCH   4  10
HETATM   10  O11 UNL     1     -34.122  13.712  -5.872  1.00 20.00    -0.344 OA
HETATM   11  C6  UNL     1     -34.589  13.396  -7.175  1.00 20.00     0.207 C 
ENDBRANCH   4  10
TORSDOF 3
ENDMDL
MODEL 8
REMARK VINA RESULT:      -3.8     10.189     11.761
REMARK  3 active torsions:
REMARK  status: ('A' for Active; 'I' for Inactive)
REMARK    1  A    between atoms: C3_3  and  C7_7 
REMARK    2  A    between atoms: C4_4  and  O11_11 
REMARK    3  A    between atoms: C7_7  and  C8_8 
ROOT
HETATM    1  C1  UNL     1     -32.959  15.542  -5.384  1.00 20.00     0.180 C 
HETATM    2  C2  UNL     1     -34.434  14.003  -4.087  1.00 20.00     0.180 C 
HETATM    3  C3  UNL     1     -33.555  15.254  -4.003  1.00 20.00     0.034 C 
HETATM    4  C4  UNL     1     -34.755  14.392  -6.390  1.00 20.00     0.412 C 
HETATM    5  O9  UNL     1     -33.985  15.599  -6.374  1.00 20.00    -0.339 OA
HETATM    6  O10 UNL     1     -35.394  14.130  -5.138  1.00 20.00    -0.339 OA
ENDROOT
BRANCH   3   7
HETATM    7  C7  UNL     1     -34.374  16.453  -3.512  1.00 20.00     0.008 C 
BRANCH   7   8
HETATM    8  C8  UNL     1     -33.928  16.902  -2.123  1.00 20.00    -0.004 C 
HETATM    9  C5  UNL     1     -35.113  17.062  -1.184  1.00 20.00     0.005 C 
ENDBRANCH   7   8
ENDBRANCH   3   7
BRANCH   4  10
HETATM   10  O11 UNL     1     -35.737  14.465  -7.422  1.00 20.00    -0.344 OA
HETATM   11  C6  UNL     1     -36.517  15.645  -7.309  1.00 20.00     0.207 C 
ENDBRANCH   4  10
TORSDOF 3
ENDMDL
MODEL 9
REMARK VINA RESULT:      -3.8      1.648      4.641
REMARK  3 active torsions:
REMARK  status: ('A' for Active; 'I' for Inactive)
REMARK    1  A    between atoms: C3_3  and  C7_7 
REMARK    2  A    between atoms: C4_4  and  O11_11 
REMARK    3  A    between atoms: C7_7  and  C8_8 
ROOT
HETATM    1  C1  UNL     1     -33.223   4.678   2.931  1.00 20.00     0.180 C 
HETATM    2  C2  UNL     1     -35.117   6.238   3.384  1.00 20.00     0.180 C 
HETATM    3  C3  UNL     1     -34.455   4.924   3.808  1.00 20.00     0.034 C 
HETATM    4  C4  UNL     1     -33.054   6.995   2.531  1.00 20.00     0.412 C 
HETATM    5  O9  UNL     1     -32.359   5.814   2.944  1.00 20.00    -0.339 OA
HETATM    6  O10 UNL     1     -34.166   7.304   3.376  1.00 20.00    -0.339 OA
ENDROOT
BRANCH   3   7
HETATM    7  C7  UNL     1     -34.057   4.978   5.287  1.00 20.00     0.008 C 
BRANCH   7   8
HETATM    8  C8  UNL     1     -34.665   6.191   5.985  1.00 20.00    -0.004 C 
HETATM    9  C5  UNL     1     -33.622   7.268   6.237  1.00 20.00     0.005 C 
ENDBRANCH   7   8
ENDBRANCH   3   7
BRANCH   4  10
HETATM   10  O11 UNL     1     -32.149   8.098   2.509  1.00 20.00    -0.344 OA
HETATM   11  C6  UNL     1     -32.470   9.008   1.467  1.00 20.00     0.207 C 
ENDBRANCH   4  10
TORSDOF 3
ENDMDL
