MODEL 1
REMARK VINA RESULT:      -6.5      0.000      0.000
REMARK  0 active torsions:
REMARK  status: ('A' for Active; 'I' for Inactive)
ROOT
HETATM    1  C1  UNL     1     -31.836   9.135   1.115  1.00 20.00     0.012 C 
HETATM    2  C2  UNL     1     -32.160   8.328   1.943  1.00 20.00    -0.112 C 
HETATM    3  C3  UNL     1     -33.989   5.307   3.351  1.00 20.00    -0.015 C 
HETATM    4  C4  UNL     1     -34.169   5.620   4.643  1.00 20.00    -0.020 C 
HETATM    5  C5  UNL     1     -33.806   6.992   5.110  1.00 20.00     0.156 C 
HETATM    6  C6  UNL     1     -33.383   6.216   2.324  1.00 20.00     0.045 C 
HETATM    7  C7  UNL     1     -33.344   8.006   4.083  1.00 20.00     0.101 C 
HETATM    8  C8  UNL     1     -32.558   7.339   2.959  1.00 20.00     0.075 C 
HETATM    9  C9  UNL     1     -34.746   4.673   5.647  1.00 20.00     0.052 C 
HETATM   10  O10 UNL     1     -33.941   7.307   6.291  1.00 20.00    -0.293 OA
ENDROOT
TORSDOF 0
ENDMDL
MODEL 2
REMARK VINA RESULT:      -5.9      1.431      2.116
REMARK  0 active torsions:
REMARK  status: ('A' for Active; 'I' for Inactive)
ROOT
HETATM    1  C1  UNL     1     -31.739   8.792   1.223  1.00 20.00     0.012 C 
HETATM    2  C2  UNL     1     -32.432   8.190   1.995  1.00 20.00    -0.112 C 
HETATM    3  C3  UNL     1     -33.743   7.088   5.390  1.00 20.00    -0.015 C 
HETATM    4  C4  UNL     1     -34.138   5.824   5.182  1.00 20.00    -0.020 C 
HETATM    5  C5  UNL     1     -33.836   5.182   3.867  1.00 20.00     0.156 C 
HETATM    6  C6  UNL     1     -33.063   7.955   4.371  1.00 20.00     0.045 C 
HETATM    7  C7  UNL     1     -33.006   5.952   2.860  1.00 20.00     0.101 C 
HETATM    8  C8  UNL     1     -33.282   7.450   2.943  1.00 20.00     0.075 C 
HETATM    9  C9  UNL     1     -34.845   5.002   6.212  1.00 20.00     0.052 C 
HETATM   10  O10 UNL     1     -34.200   4.029   3.635  1.00 20.00    -0.293 OA
ENDROOT
TORSDOF 0
ENDMDL
MODEL 3
REMARK VINA RESULT:      -5.3     11.441     12.407
REMARK  0 active torsions:
REMARK  status: ('A' for Active; 'I' for Inactive)
ROOT
HETATM    1  C1  UNL     1     -33.695  17.378  -1.688  1.00 20.00     0.012 C 
HETATM    2  C2  UNL     1     -33.676  16.636  -2.632  1.00 20.00    -0.112 C 
HETATM    3  C3  UNL     1     -33.585  15.655  -6.303  1.00 20.00    -0.015 C 
HETATM    4  C4  UNL     1     -34.271  14.504  -6.341  1.00 20.00    -0.020 C 
HETATM    5  C5  UNL     1     -34.970  14.041  -5.103  1.00 20.00     0.156 C 
HETATM    6  C6  UNL     1     -33.401  16.507  -5.083  1.00 20.00     0.045 C 
HETATM    7  C7  UNL     1     -34.958  14.943  -3.886  1.00 20.00     0.101 C 
HETATM    8  C8  UNL     1     -33.653  15.727  -3.789  1.00 20.00     0.075 C 
HETATM    9  C9  UNL     1     -34.404  13.663  -7.571  1.00 20.00     0.052 C 
HETATM   10  O10 UNL     1     -35.594  12.981  -5.097  1.00 20.00    -0.293 OA
ENDROOT
TORSDOF 0
ENDMDL
MODEL 4
REMARK VINA RESULT:      -4.8     11.647     12.158
REMARK  0 active torsions:
REMARK  status: ('A' for Active; 'I' for Inactive)
ROOT
HETATM    1  C1  UNL     1     -35.464  15.787  -4.264  1.00 20.00     0.012 C 
HETATM    2  C2  UNL     1     -35.010  16.159  -3.217  1.00 20.00    -0.112 C 
HETATM    3  C3  UNL     1     -34.992  17.906   0.159  1.00 20.00    -0.015 C 
HETATM    4  C4  UNL     1     -33.720  18.305   0.303  1.00 20.00    -0.020 C 
HETATM    5  C5  UNL     1     -32.779  18.139  -0.846  1.00 20.00     0.156 C 
HETATM    6  C6  UNL     1     -35.550  17.234  -1.060  1.00 20.00     0.045 C 
HETATM    7  C7  UNL     1     -33.327  17.619  -2.160  1.00 20.00     0.101 C 
HETATM    8  C8  UNL     1     -34.454  16.617  -1.933  1.00 20.00     0.075 C 
HETATM    9  C9  UNL     1     -33.191  18.941   1.549  1.00 20.00     0.052 C 
HETATM   10  O10 UNL     1     -31.600  18.478  -0.744  1.00 20.00    -0.293 OA
ENDROOT
TORSDOF 0
ENDMDL
MODEL 5
REMARK VINA RESULT:      -4.6      1.496      4.122
REMARK  0 active torsions:
REMARK  status: ('A' for Active; 'I' for Inactive)
ROOT
HETATM    1  C1  UNL     1     -34.807   5.006   5.964  1.00 20.00     0.012 C 
HETATM    2  C2  UNL     1     -34.424   5.779   5.129  1.00 20.00    -0.112 C 
HETATM    3  C3  UNL     1     -33.129   6.896   1.734  1.00 20.00    -0.015 C 
HETATM    4  C4  UNL     1     -32.366   7.961   2.020  1.00 20.00    -0.020 C 
HETATM    5  C5  UNL     1     -32.104   8.295   3.453  1.00 20.00     0.156 C 
HETATM    6  C6  UNL     1     -33.809   6.027   2.750  1.00 20.00     0.045 C 
HETATM    7  C7  UNL     1     -32.628   7.356   4.521  1.00 20.00     0.101 C 
HETATM    8  C8  UNL     1     -33.953   6.726   4.105  1.00 20.00     0.075 C 
HETATM    9  C9  UNL     1     -31.732   8.824   0.977  1.00 20.00     0.052 C 
HETATM   10  O10 UNL     1     -31.424   9.275   3.753  1.00 20.00    -0.293 OA
ENDROOT
TORSDOF 0
ENDMDL
MODEL 6
REMARK VINA RESULT:      -4.5     11.614     12.071
REMARK  0 active torsions:
REMARK  status: ('A' for Active; 'I' for Inactive)
ROOT
HETATM    1  C1  UNL     1     -34.365  15.050  -5.586  1.00 20.00     0.012 C 
HETATM    2  C2  UNL     1     -34.247  15.470  -4.468  1.00 20.00    -0.112 C 
HETATM    3  C3  UNL     1     -35.381  16.922  -1.143  1.00 20.00    -0.015 C 
HETATM    4  C4  UNL     1     -34.337  17.667  -0.750  1.00 20.00    -0.020 C 
HETATM    5  C5  UNL     1     -33.193  17.858  -1.693  1.00 20.00     0.156 C 
HETATM    6  C6  UNL     1     -35.475  16.197  -2.453  1.00 20.00     0.045 C 
HETATM    7  C7  UNL     1     -33.306  17.287  -3.092  1.00 20.00     0.101 C 
HETATM    8  C8  UNL     1     -34.102  15.986  -3.097  1.00 20.00     0.075 C 
HETATM    9  C9  UNL     1     -34.264  18.348   0.580  1.00 20.00     0.052 C 
HETATM   10  O10 UNL     1     -32.211  18.520  -1.359  1.00 20.00    -0.293 OA
ENDROOT
TORSDOF 0
ENDMDL
MODEL 7
REMARK VINA RESULT:      -4.5     11.571     11.924
REMARK  0 active torsions:
REMARK  status: ('A' for Active; 'I' for Inactive)
ROOT
HETATM    1  C1  UNL     1     -33.221  18.039  -1.493  1.00 20.00     0.012 C 
HETATM    2  C2  UNL     1     -33.707  17.116  -2.086  1.00 20.00    -0.112 C 
HETATM    3  C3  UNL     1     -34.093  14.577  -4.889  1.00 20.00    -0.015 C 
HETATM    4  C4  UNL     1     -35.415  14.355  -4.936  1.00 20.00    -0.020 C 
HETATM    5  C5  UNL     1     -36.317  15.197  -4.093  1.00 20.00     0.156 C 
HETATM    6  C6  UNL     1     -33.420  15.577  -3.996  1.00 20.00     0.045 C 
HETATM    7  C7  UNL     1     -35.709  16.333  -3.296  1.00 20.00     0.101 C 
HETATM    8  C8  UNL     1     -34.304  15.984  -2.814  1.00 20.00     0.075 C 
HETATM    9  C9  UNL     1     -36.046  13.323  -5.815  1.00 20.00     0.052 C 
HETATM   10  O10 UNL     1     -37.533  15.009  -4.097  1.00 20.00    -0.293 OA
ENDROOT
TORSDOF 0
ENDMDL
MODEL 8
REMARK VINA RESULT:      -4.5     11.471     12.014
REMARK  0 active torsions:
REMARK  status: ('A' for Active; 'I' for Inactive)
ROOT
HETATM    1  C1  UNL     1     -32.868  17.935  -1.302  1.00 20.00     0.012 C 
HETATM    2  C2  UNL     1     -33.499  17.377  -2.158  1.00 20.00    -0.112 C 
HETATM    3  C3  UNL     1     -36.497  15.633  -3.713  1.00 20.00    -0.015 C 
HETATM    4  C4  UNL     1     -35.947  14.769  -4.579  1.00 20.00    -0.020 C 
HETATM    5  C5  UNL     1     -34.462  14.603  -4.586  1.00 20.00     0.156 C 
HETATM    6  C6  UNL     1     -35.729  16.513  -2.772  1.00 20.00     0.045 C 
HETATM    7  C7  UNL     1     -33.647  15.343  -3.544  1.00 20.00     0.101 C 
HETATM    8  C8  UNL     1     -34.272  16.693  -3.207  1.00 20.00     0.075 C 
HETATM    9  C9  UNL     1     -36.745  13.932  -5.527  1.00 20.00     0.052 C 
HETATM   10  O10 UNL     1     -33.922  13.834  -5.380  1.00 20.00    -0.293 OA
ENDROOT
TORSDOF 0
ENDMDL
MODEL 9
REMARK VINA RESULT:      -4.3     11.845     12.366
REMARK  0 active torsions:
REMARK  status: ('A' for Active; 'I' for Inactive)
ROOT
HETATM    1  C1  UNL     1     -31.732  19.177   1.095  1.00 20.00     0.012 C 
HETATM    2  C2  UNL     1     -32.530  18.833   0.266  1.00 20.00    -0.112 C 
HETATM    3  C3  UNL     1     -35.560  17.005  -1.121  1.00 20.00    -0.015 C 
HETATM    4  C4  UNL     1     -35.228  16.762  -2.397  1.00 20.00    -0.020 C 
HETATM    5  C5  UNL     1     -33.839  17.077  -2.852  1.00 20.00     0.156 C 
HETATM    6  C6  UNL     1     -34.659  17.637  -0.103  1.00 20.00     0.045 C 
HETATM    7  C7  UNL     1     -32.835  17.563  -1.826  1.00 20.00     0.101 C 
HETATM    8  C8  UNL     1     -33.507  18.411  -0.751  1.00 20.00     0.075 C 
HETATM    9  C9  UNL     1     -36.167  16.161  -3.393  1.00 20.00     0.052 C 
HETATM   10  O10 UNL     1     -33.505  16.885  -4.020  1.00 20.00    -0.293 OA
ENDROOT
TORSDOF 0
ENDMDL
