MODEL 1
REMARK VINA RESULT:      -4.1      0.000      0.000
REMARK  3 active torsions:
REMARK  status: ('A' for Active; 'I' for Inactive)
REMARK    1  A    between atoms: C1_1  and  C4_4 
REMARK    2  A    between atoms: C3_3  and  C7_7 
REMARK    3  A    between atoms: C7_7  and  O9_9 
ROOT
HETATM    1  C1  UNL     1     -33.039   7.462   3.577  1.00 20.00    -0.066 C 
HETATM    2  C2  UNL     1     -32.439   7.921   2.642  1.00 20.00    -0.108 C 
HETATM    3  C5  UNL     1     -31.709   8.479   1.505  1.00 20.00     0.112 C 
ENDROOT
BRANCH   1   4
HETATM    4  C4  UNL     1     -33.754   6.915   4.690  1.00 20.00     0.148 A 
HETATM    5  C3  UNL     1     -34.210   5.470   4.676  1.00 20.00     0.194 A 
HETATM    6  O8  UNL     1     -35.105   6.543   4.363  1.00 20.00    -0.354 OA
HETATM    7  C6  UNL     1     -33.635   7.629   5.999  1.00 20.00     0.063 C 
BRANCH   5   8
HETATM    8  C7  UNL     1     -33.945   4.539   3.546  1.00 20.00     0.200 C 
BRANCH   8   9
HETATM    9  O9  UNL     1     -34.078   3.187   3.986  1.00 20.00    -0.398 OA
HETATM   10  H19 UNL     1     -33.241   2.748   3.775  1.00 20.00     0.209 HD
ENDBRANCH   8   9
ENDBRANCH   5   8
ENDBRANCH   1   4
TORSDOF 3
ENDMDL
MODEL 2
REMARK VINA RESULT:      -4.1     11.634     12.486
REMARK  3 active torsions:
REMARK  status: ('A' for Active; 'I' for Inactive)
REMARK    1  A    between atoms: C1_1  and  C4_4 
REMARK    2  A    between atoms: C3_3  and  C7_7 
REMARK    3  A    between atoms: C7_7  and  O9_9 
ROOT
HETATM    1  C1  UNL     1     -34.527  15.871  -3.962  1.00 20.00    -0.066 C 
HETATM    2  C2  UNL     1     -34.817  16.261  -2.863  1.00 20.00    -0.108 C 
HETATM    3  C5  UNL     1     -35.169  16.736  -1.526  1.00 20.00     0.112 C 
ENDROOT
BRANCH   1   4
HETATM    4  C4  UNL     1     -34.182  15.405  -5.271  1.00 20.00     0.148 A 
HETATM    5  C3  UNL     1     -35.062  14.399  -5.985  1.00 20.00     0.194 A 
HETATM    6  O8  UNL     1     -33.866  14.002  -5.304  1.00 20.00    -0.354 OA
HETATM    7  C6  UNL     1     -33.238  16.245  -6.071  1.00 20.00     0.063 C 
BRANCH   5   8
HETATM    8  C7  UNL     1     -36.315  13.848  -5.402  1.00 20.00     0.200 C 
BRANCH   8   9
HETATM    9  O9  UNL     1     -36.072  12.548  -4.863  1.00 20.00    -0.398 OA
HETATM   10  H19 UNL     1     -35.857  12.677  -3.927  1.00 20.00     0.209 HD
ENDBRANCH   8   9
ENDBRANCH   5   8
ENDBRANCH   1   4
TORSDOF 3
ENDMDL
MODEL 3
REMARK VINA RESULT:      -4.1     11.703     12.192
REMARK  3 active torsions:
REMARK  status: ('A' for Active; 'I' for Inactive)
REMARK    1  A    between atoms: C1_1  and  C4_4 
REMARK    2  A    between atoms: C3_3  and  C7_7 
REMARK    3  A    between atoms: C7_7  and  O9_9 
ROOT
HETATM    1  C1  UNL     1     -34.620  15.870  -3.123  1.00 20.00    -0.066 C 
HETATM    2  C2  UNL     1     -34.817  16.506  -2.123  1.00 20.00    -0.108 C 
HETATM    3  C5  UNL     1     -35.057  17.280  -0.906  1.00 20.00     0.112 C 
ENDROOT
BRANCH   1   4
HETATM    4  C4  UNL     1     -34.385  15.112  -4.315  1.00 20.00     0.148 A 
HETATM    5  C3  UNL     1     -35.548  14.599  -5.141  1.00 20.00     0.194 A 
HETATM    6  O8  UNL     1     -34.850  13.754  -4.219  1.00 20.00    -0.354 OA
HETATM    7  C6  UNL     1     -33.037  15.235  -4.951  1.00 20.00     0.063 C 
BRANCH   5   8
HETATM    8  C7  UNL     1     -36.973  14.848  -4.792  1.00 20.00     0.200 C 
BRANCH   8   9
HETATM    9  O9  UNL     1     -37.743  13.665  -5.013  1.00 20.00    -0.398 OA
HETATM   10  H19 UNL     1     -37.269  12.945  -4.571  1.00 20.00     0.209 HD
ENDBRANCH   8   9
ENDBRANCH   5   8
ENDBRANCH   1   4
TORSDOF 3
ENDMDL
MODEL 4
REMARK VINA RESULT:      -4.0     11.898     12.531
REMARK  3 active torsions:
REMARK  status: ('A' for Active; 'I' for Inactive)
REMARK    1  A    between atoms: C1_1  and  C4_4 
REMARK    2  A    between atoms: C3_3  and  C7_7 
REMARK    3  A    between atoms: C7_7  and  O9_9 
ROOT
HETATM    1  C1  UNL     1     -34.643  14.947  -4.610  1.00 20.00    -0.066 C 
HETATM    2  C2  UNL     1     -34.250  15.663  -3.728  1.00 20.00    -0.108 C 
HETATM    3  C5  UNL     1     -33.772  16.533  -2.656  1.00 20.00     0.112 C 
ENDROOT
BRANCH   1   4
HETATM    4  C4  UNL     1     -35.111  14.094  -5.660  1.00 20.00     0.148 A 
HETATM    5  C3  UNL     1     -36.594  13.832  -5.834  1.00 20.00     0.194 A 
HETATM    6  O8  UNL     1     -35.737  12.894  -5.172  1.00 20.00    -0.354 OA
HETATM    7  C6  UNL     1     -34.189  13.856  -6.813  1.00 20.00     0.063 C 
BRANCH   5   8
HETATM    8  C7  UNL     1     -37.639  14.433  -4.962  1.00 20.00     0.200 C 
BRANCH   8   9
HETATM    9  O9  UNL     1     -38.937  14.101  -5.456  1.00 20.00    -0.398 OA
HETATM   10  H19 UNL     1     -38.801  13.469  -6.177  1.00 20.00     0.209 HD
ENDBRANCH   8   9
ENDBRANCH   5   8
ENDBRANCH   1   4
TORSDOF 3
ENDMDL
MODEL 5
REMARK VINA RESULT:      -3.7     11.745     12.369
REMARK  3 active torsions:
REMARK  status: ('A' for Active; 'I' for Inactive)
REMARK    1  A    between atoms: C1_1  and  C4_4 
REMARK    2  A    between atoms: C3_3  and  C7_7 
REMARK    3  A    between atoms: C7_7  and  O9_9 
ROOT
HETATM    1  C1  UNL     1     -35.341  16.083  -3.036  1.00 20.00    -0.066 C 
HETATM    2  C2  UNL     1     -35.148  16.653  -1.996  1.00 20.00    -0.108 C 
HETATM    3  C5  UNL     1     -34.915  17.348  -0.731  1.00 20.00     0.112 C 
ENDROOT
BRANCH   1   4
HETATM    4  C4  UNL     1     -35.569  15.403  -4.275  1.00 20.00     0.148 A 
HETATM    5  C3  UNL     1     -34.409  14.823  -5.058  1.00 20.00     0.194 A 
HETATM    6  O8  UNL     1     -34.994  16.083  -5.404  1.00 20.00    -0.354 OA
HETATM    7  C6  UNL     1     -36.951  14.890  -4.531  1.00 20.00     0.063 C 
BRANCH   5   8
HETATM    8  C7  UNL     1     -32.994  14.904  -4.606  1.00 20.00     0.200 C 
BRANCH   8   9
HETATM    9  O9  UNL     1     -32.480  13.592  -4.370  1.00 20.00    -0.398 OA
HETATM   10  H19 UNL     1     -31.608  13.561  -4.789  1.00 20.00     0.209 HD
ENDBRANCH   8   9
ENDBRANCH   5   8
ENDBRANCH   1   4
TORSDOF 3
ENDMDL
MODEL 6
REMARK VINA RESULT:      -3.6     11.743     12.433
REMARK  3 active torsions:
REMARK  status: ('A' for Active; 'I' for Inactive)
REMARK    1  A    between atoms: C1_1  and  C4_4 
REMARK    2  A    between atoms: C3_3  and  C7_7 
REMARK    3  A    between atoms: C7_7  and  O9_9 
ROOT
HETATM    1  C1  UNL     1     -36.332  15.114  -4.357  1.00 20.00    -0.066 C 
HETATM    2  C2  UNL     1     -37.524  15.238  -4.433  1.00 20.00    -0.108 C 
HETATM    3  C5  UNL     1     -38.976  15.389  -4.525  1.00 20.00     0.112 C 
ENDROOT
BRANCH   1   4
HETATM    4  C4  UNL     1     -34.910  14.966  -4.268  1.00 20.00     0.148 A 
HETATM    5  C3  UNL     1     -34.132  14.327  -5.400  1.00 20.00     0.194 A 
HETATM    6  O8  UNL     1     -34.491  13.591  -4.225  1.00 20.00    -0.354 OA
HETATM    7  C6  UNL     1     -34.190  15.837  -3.288  1.00 20.00     0.063 C 
BRANCH   5   8
HETATM    8  C7  UNL     1     -34.765  13.834  -6.653  1.00 20.00     0.200 C 
BRANCH   8   9
HETATM    9  O9  UNL     1     -35.116  12.457  -6.514  1.00 20.00    -0.398 OA
HETATM   10  H19 UNL     1     -34.394  12.040  -6.021  1.00 20.00     0.209 HD
ENDBRANCH   8   9
ENDBRANCH   5   8
ENDBRANCH   1   4
TORSDOF 3
ENDMDL
MODEL 7
REMARK VINA RESULT:      -3.6      1.750      2.276
REMARK  3 active torsions:
REMARK  status: ('A' for Active; 'I' for Inactive)
REMARK    1  A    between atoms: C1_1  and  C4_4 
REMARK    2  A    between atoms: C3_3  and  C7_7 
REMARK    3  A    between atoms: C7_7  and  O9_9 
ROOT
HETATM    1  C1  UNL     1     -32.618   8.450   1.870  1.00 20.00    -0.066 C 
HETATM    2  C2  UNL     1     -32.795   8.911   0.774  1.00 20.00    -0.108 C 
HETATM    3  C5  UNL     1     -33.010   9.473  -0.558  1.00 20.00     0.112 C 
ENDROOT
BRANCH   1   4
HETATM    4  C4  UNL     1     -32.408   7.900   3.175  1.00 20.00     0.148 A 
HETATM    5  C3  UNL     1     -32.956   6.533   3.530  1.00 20.00     0.194 A 
HETATM    6  O8  UNL     1     -33.628   7.737   3.919  1.00 20.00    -0.354 OA
HETATM    7  C6  UNL     1     -31.288   8.469   3.987  1.00 20.00     0.063 C 
BRANCH   5   8
HETATM    8  C7  UNL     1     -33.719   5.683   2.575  1.00 20.00     0.200 C 
BRANCH   8   9
HETATM    9  O9  UNL     1     -33.009   4.470   2.327  1.00 20.00    -0.398 OA
HETATM   10  H19 UNL     1     -33.490   3.771   2.794  1.00 20.00     0.209 HD
ENDBRANCH   8   9
ENDBRANCH   5   8
ENDBRANCH   1   4
TORSDOF 3
ENDMDL
MODEL 8
REMARK VINA RESULT:      -3.5     11.703     12.671
REMARK  3 active torsions:
REMARK  status: ('A' for Active; 'I' for Inactive)
REMARK    1  A    between atoms: C1_1  and  C4_4 
REMARK    2  A    between atoms: C3_3  and  C7_7 
REMARK    3  A    between atoms: C7_7  and  O9_9 
ROOT
HETATM    1  C1  UNL     1     -35.996  16.423  -3.333  1.00 20.00    -0.066 C 
HETATM    2  C2  UNL     1     -35.186  16.724  -2.498  1.00 20.00    -0.108 C 
HETATM    3  C5  UNL     1     -34.202  17.092  -1.482  1.00 20.00     0.112 C 
ENDROOT
BRANCH   1   4
HETATM    4  C4  UNL     1     -36.960  16.063  -4.329  1.00 20.00     0.148 A 
HETATM    5  C3  UNL     1     -36.737  14.852  -5.212  1.00 20.00     0.194 A 
HETATM    6  O8  UNL     1     -36.452  16.179  -5.670  1.00 20.00    -0.354 OA
HETATM    7  C6  UNL     1     -38.345  16.604  -4.169  1.00 20.00     0.063 C 
BRANCH   5   8
HETATM    8  C7  UNL     1     -35.545  13.968  -5.104  1.00 20.00     0.200 C 
BRANCH   8   9
HETATM    9  O9  UNL     1     -35.956  12.609  -4.952  1.00 20.00    -0.398 OA
HETATM   10  H19 UNL     1     -36.201  12.501  -4.021  1.00 20.00     0.209 HD
ENDBRANCH   8   9
ENDBRANCH   5   8
ENDBRANCH   1   4
TORSDOF 3
ENDMDL
MODEL 9
REMARK VINA RESULT:      -3.5      2.942      4.623
REMARK  3 active torsions:
REMARK  status: ('A' for Active; 'I' for Inactive)
REMARK    1  A    between atoms: C1_1  and  C4_4 
REMARK    2  A    between atoms: C3_3  and  C7_7 
REMARK    3  A    between atoms: C7_7  and  O9_9 
ROOT
HETATM    1  C1  UNL     1     -33.120   7.405   3.053  1.00 20.00    -0.066 C 
HETATM    2  C2  UNL     1     -34.040   6.680   3.321  1.00 20.00    -0.108 C 
HETATM    3  C5  UNL     1     -35.159   5.798   3.647  1.00 20.00     0.112 C 
ENDROOT
BRANCH   1   4
HETATM    4  C4  UNL     1     -32.023   8.269   2.733  1.00 20.00     0.148 A 
HETATM    5  C3  UNL     1     -32.164   9.320   1.651  1.00 20.00     0.194 A 
HETATM    6  O8  UNL     1     -31.517   8.066   1.402  1.00 20.00    -0.354 OA
HETATM    7  C6  UNL     1     -30.948   8.420   3.761  1.00 20.00     0.063 C 
BRANCH   5   8
HETATM    8  C7  UNL     1     -33.414   9.533   0.873  1.00 20.00     0.200 C 
BRANCH   8   9
HETATM    9  O9  UNL     1     -33.183   9.258  -0.509  1.00 20.00    -0.398 OA
HETATM   10  H19 UNL     1     -33.186   8.294  -0.600  1.00 20.00     0.209 HD
ENDBRANCH   8   9
ENDBRANCH   5   8
ENDBRANCH   1   4
TORSDOF 3
ENDMDL
