MODEL 1
REMARK VINA RESULT:      -5.4      0.000      0.000
REMARK  2 active torsions:
REMARK  status: ('A' for Active; 'I' for Inactive)
REMARK    1  A    between atoms: C1_1  and  C5_5 
REMARK    2  A    between atoms: C3_3  and  C6_6 
ROOT
HETATM    1  C1  UNL     1     -32.551   8.181   2.202  1.00 20.00    -0.053 C 
HETATM    2  C2  UNL     1     -32.429   9.239   1.650  1.00 20.00     0.106 C 
HETATM    3  F9  UNL     1     -32.294  10.419   1.035  1.00 20.00    -0.144 F 
ENDROOT
BRANCH   1   4
HETATM    4  C5  UNL     1     -32.695   6.933   2.853  1.00 20.00     0.114 A 
HETATM    5  C6  UNL     1     -34.007   6.457   3.164  1.00 20.00     0.108 A 
HETATM    6  C7  UNL     1     -33.118   5.836   2.228  1.00 20.00     0.186 A 
HETATM    7  F10 UNL     1     -32.644   4.612   2.547  1.00 20.00    -0.235 F 
BRANCH   5   8
HETATM    8  C3  UNL     1     -34.323   5.932   4.307  1.00 20.00    -0.080 C 
HETATM    9  C4  UNL     1     -34.614   5.446   5.365  1.00 20.00     0.272 C 
HETATM   10  O8  UNL     1     -34.899   4.969   6.401  1.00 20.00    -0.274 OA
ENDBRANCH   5   8
ENDBRANCH   1   4
TORSDOF 2
ENDMDL
MODEL 2
REMARK VINA RESULT:      -5.0      1.973      2.305
REMARK  2 active torsions:
REMARK  status: ('A' for Active; 'I' for Inactive)
REMARK    1  A    between atoms: C1_1  and  C5_5 
REMARK    2  A    between atoms: C3_3  and  C6_6 
ROOT
HETATM    1  C1  UNL     1     -32.766   9.196   1.136  1.00 20.00    -0.053 C 
HETATM    2  C2  UNL     1     -33.021   9.523   0.009  1.00 20.00     0.106 C 
HETATM    3  F9  UNL     1     -33.305   9.887  -1.246  1.00 20.00    -0.144 F 
ENDROOT
BRANCH   1   4
HETATM    4  C5  UNL     1     -32.467   8.810   2.463  1.00 20.00     0.114 A 
HETATM    5  C6  UNL     1     -32.771   7.478   2.887  1.00 20.00     0.108 A 
HETATM    6  C7  UNL     1     -31.446   8.013   2.772  1.00 20.00     0.186 A 
HETATM    7  F10 UNL     1     -30.744   8.171   3.915  1.00 20.00    -0.235 F 
BRANCH   5   8
HETATM    8  C3  UNL     1     -33.335   7.203   4.022  1.00 20.00    -0.080 C 
HETATM    9  C4  UNL     1     -33.856   6.947   5.072  1.00 20.00     0.272 C 
HETATM   10  O8  UNL     1     -34.367   6.697   6.102  1.00 20.00    -0.274 OA
ENDBRANCH   5   8
ENDBRANCH   1   4
TORSDOF 2
ENDMDL
MODEL 3
REMARK VINA RESULT:      -5.0      1.738      2.052
REMARK  2 active torsions:
REMARK  status: ('A' for Active; 'I' for Inactive)
REMARK    1  A    between atoms: C1_1  and  C5_5 
REMARK    2  A    between atoms: C3_3  and  C6_6 
ROOT
HETATM    1  C1  UNL     1     -32.878   8.908   1.429  1.00 20.00    -0.053 C 
HETATM    2  C2  UNL     1     -32.745   9.494   0.390  1.00 20.00     0.106 C 
HETATM    3  F9  UNL     1     -32.597  10.146  -0.768  1.00 20.00    -0.144 F 
ENDROOT
BRANCH   1   4
HETATM    4  C5  UNL     1     -33.036   8.218   2.654  1.00 20.00     0.114 A 
HETATM    5  C6  UNL     1     -32.690   6.833   2.722  1.00 20.00     0.108 A 
HETATM    6  C7  UNL     1     -32.009   7.876   3.429  1.00 20.00     0.186 A 
HETATM    7  F10 UNL     1     -32.107   7.875   4.775  1.00 20.00    -0.235 F 
BRANCH   5   8
HETATM    8  C3  UNL     1     -33.432   5.941   3.304  1.00 20.00    -0.080 C 
HETATM    9  C4  UNL     1     -34.117   5.116   3.842  1.00 20.00     0.272 C 
HETATM   10  O8  UNL     1     -34.789   4.307   4.369  1.00 20.00    -0.274 OA
ENDBRANCH   5   8
ENDBRANCH   1   4
TORSDOF 2
ENDMDL
MODEL 4
REMARK VINA RESULT:      -4.8      3.268      5.090
REMARK  2 active torsions:
REMARK  status: ('A' for Active; 'I' for Inactive)
REMARK    1  A    between atoms: C1_1  and  C5_5 
REMARK    2  A    between atoms: C3_3  and  C6_6 
ROOT
HETATM    1  C1  UNL     1     -33.506   5.925   3.449  1.00 20.00    -0.053 C 
HETATM    2  C2  UNL     1     -34.254   5.131   3.949  1.00 20.00     0.106 C 
HETATM    3  F9  UNL     1     -35.088   4.246   4.507  1.00 20.00    -0.144 F 
ENDROOT
BRANCH   1   4
HETATM    4  C5  UNL     1     -32.623   6.860   2.861  1.00 20.00     0.114 A 
HETATM    5  C6  UNL     1     -33.056   8.212   2.685  1.00 20.00     0.108 A 
HETATM    6  C7  UNL     1     -31.997   7.804   3.561  1.00 20.00     0.186 A 
HETATM    7  F10 UNL     1     -30.747   8.208   3.247  1.00 20.00    -0.235 F 
BRANCH   5   8
HETATM    8  C3  UNL     1     -32.862   8.886   1.594  1.00 20.00    -0.080 C 
HETATM    9  C4  UNL     1     -32.683   9.511   0.586  1.00 20.00     0.272 C 
HETATM   10  O8  UNL     1     -32.507  10.123  -0.403  1.00 20.00    -0.274 OA
ENDBRANCH   5   8
ENDBRANCH   1   4
TORSDOF 2
ENDMDL
MODEL 5
REMARK VINA RESULT:      -4.4     11.377     11.791
REMARK  2 active torsions:
REMARK  status: ('A' for Active; 'I' for Inactive)
REMARK    1  A    between atoms: C1_1  and  C5_5 
REMARK    2  A    between atoms: C3_3  and  C6_6 
ROOT
HETATM    1  C1  UNL     1     -33.819  16.983  -1.948  1.00 20.00    -0.053 C 
HETATM    2  C2  UNL     1     -33.904  17.666  -0.965  1.00 20.00     0.106 C 
HETATM    3  F9  UNL     1     -33.998  18.428   0.130  1.00 20.00    -0.144 F 
ENDROOT
BRANCH   1   4
HETATM    4  C5  UNL     1     -33.718  16.175  -3.106  1.00 20.00     0.114 A 
HETATM    5  C6  UNL     1     -34.875  15.984  -3.923  1.00 20.00     0.108 A 
HETATM    6  C7  UNL     1     -33.692  16.679  -4.338  1.00 20.00     0.186 A 
HETATM    7  F10 UNL     1     -32.956  16.113  -5.319  1.00 20.00    -0.235 F 
BRANCH   5   8
HETATM    8  C3  UNL     1     -35.229  14.829  -4.398  1.00 20.00    -0.080 C 
HETATM    9  C4  UNL     1     -35.557  13.762  -4.837  1.00 20.00     0.272 C 
HETATM   10  O8  UNL     1     -35.879  12.716  -5.267  1.00 20.00    -0.274 OA
ENDBRANCH   5   8
ENDBRANCH   1   4
TORSDOF 2
ENDMDL
MODEL 6
REMARK VINA RESULT:      -4.3      3.377      4.716
REMARK  2 active torsions:
REMARK  status: ('A' for Active; 'I' for Inactive)
REMARK    1  A    between atoms: C1_1  and  C5_5 
REMARK    2  A    between atoms: C3_3  and  C6_6 
ROOT
HETATM    1  C1  UNL     1     -33.847   7.116   4.801  1.00 20.00    -0.053 C 
HETATM    2  C2  UNL     1     -34.087   7.191   5.975  1.00 20.00     0.106 C 
HETATM    3  F9  UNL     1     -34.354   7.274   7.283  1.00 20.00    -0.144 F 
ENDROOT
BRANCH   1   4
HETATM    4  C5  UNL     1     -33.564   7.026   3.418  1.00 20.00     0.114 A 
HETATM    5  C6  UNL     1     -32.406   7.684   2.900  1.00 20.00     0.108 A 
HETATM    6  C7  UNL     1     -32.590   6.264   2.926  1.00 20.00     0.186 A 
HETATM    7  F10 UNL     1     -32.714   5.636   1.737  1.00 20.00    -0.235 F 
BRANCH   5   8
HETATM    8  C3  UNL     1     -32.413   8.386   1.809  1.00 20.00    -0.080 C 
HETATM    9  C4  UNL     1     -32.420   9.035   0.800  1.00 20.00     0.272 C 
HETATM   10  O8  UNL     1     -32.427   9.671  -0.190  1.00 20.00    -0.274 OA
ENDBRANCH   5   8
ENDBRANCH   1   4
TORSDOF 2
ENDMDL
MODEL 7
REMARK VINA RESULT:      -4.0     11.525     12.180
REMARK  2 active torsions:
REMARK  status: ('A' for Active; 'I' for Inactive)
REMARK    1  A    between atoms: C1_1  and  C5_5 
REMARK    2  A    between atoms: C3_3  and  C6_6 
ROOT
HETATM    1  C1  UNL     1     -35.185  15.969  -3.517  1.00 20.00    -0.053 C 
HETATM    2  C2  UNL     1     -35.583  15.652  -4.604  1.00 20.00     0.106 C 
HETATM    3  F9  UNL     1     -36.027  15.298  -5.815  1.00 20.00    -0.144 F 
ENDROOT
BRANCH   1   4
HETATM    4  C5  UNL     1     -34.716  16.345  -2.237  1.00 20.00     0.114 A 
HETATM    5  C6  UNL     1     -34.231  17.675  -2.035  1.00 20.00     0.108 A 
HETATM    6  C7  UNL     1     -35.406  17.134  -1.416  1.00 20.00     0.186 A 
HETATM    7  F10 UNL     1     -35.374  16.964  -0.077  1.00 20.00    -0.235 F 
BRANCH   5   8
HETATM    8  C3  UNL     1     -33.141  17.945  -1.386  1.00 20.00    -0.080 C 
HETATM    9  C4  UNL     1     -32.133  18.195  -0.786  1.00 20.00     0.272 C 
HETATM   10  O8  UNL     1     -31.144  18.440  -0.197  1.00 20.00    -0.274 OA
ENDBRANCH   5   8
ENDBRANCH   1   4
TORSDOF 2
ENDMDL
MODEL 8
REMARK VINA RESULT:      -3.9     11.333     11.954
REMARK  2 active torsions:
REMARK  status: ('A' for Active; 'I' for Inactive)
REMARK    1  A    between atoms: C1_1  and  C5_5 
REMARK    2  A    between atoms: C3_3  and  C6_6 
ROOT
HETATM    1  C1  UNL     1     -35.086  17.287  -0.544  1.00 20.00    -0.053 C 
HETATM    2  C2  UNL     1     -35.743  17.535   0.429  1.00 20.00     0.106 C 
HETATM    3  F9  UNL     1     -36.475  17.812   1.514  1.00 20.00    -0.144 F 
ENDROOT
BRANCH   1   4
HETATM    4  C5  UNL     1     -34.313  16.995  -1.692  1.00 20.00     0.114 A 
HETATM    5  C6  UNL     1     -34.965  16.492  -2.861  1.00 20.00     0.108 A 
HETATM    6  C7  UNL     1     -34.311  17.765  -2.778  1.00 20.00     0.186 A 
HETATM    7  F10 UNL     1     -33.198  17.936  -3.523  1.00 20.00    -0.235 F 
BRANCH   5   8
HETATM    8  C3  UNL     1     -34.509  15.499  -3.560  1.00 20.00    -0.080 C 
HETATM    9  C4  UNL     1     -34.088  14.580  -4.206  1.00 20.00     0.272 C 
HETATM   10  O8  UNL     1     -33.675  13.679  -4.839  1.00 20.00    -0.274 OA
ENDBRANCH   5   8
ENDBRANCH   1   4
TORSDOF 2
ENDMDL
MODEL 9
REMARK VINA RESULT:      -3.8     11.852     12.436
REMARK  2 active torsions:
REMARK  status: ('A' for Active; 'I' for Inactive)
REMARK    1  A    between atoms: C1_1  and  C5_5 
REMARK    2  A    between atoms: C3_3  and  C6_6 
ROOT
HETATM    1  C1  UNL     1     -33.838  16.982  -3.226  1.00 20.00    -0.053 C 
HETATM    2  C2  UNL     1     -33.987  16.848  -4.409  1.00 20.00     0.106 C 
HETATM    3  F9  UNL     1     -34.154  16.699  -5.728  1.00 20.00    -0.144 F 
ENDROOT
BRANCH   1   4
HETATM    4  C5  UNL     1     -33.662  17.142  -1.831  1.00 20.00     0.114 A 
HETATM    5  C6  UNL     1     -33.241  18.410  -1.323  1.00 20.00     0.108 A 
HETATM    6  C7  UNL     1     -34.519  17.815  -1.066  1.00 20.00     0.186 A 
HETATM    7  F10 UNL     1     -34.780  17.439   0.204  1.00 20.00    -0.235 F 
BRANCH   5   8
HETATM    8  C3  UNL     1     -32.321  18.545  -0.419  1.00 20.00    -0.080 C 
HETATM    9  C4  UNL     1     -31.470  18.671   0.418  1.00 20.00     0.272 C 
HETATM   10  O8  UNL     1     -30.636  18.794   1.238  1.00 20.00    -0.274 OA
ENDBRANCH   5   8
ENDBRANCH   1   4
TORSDOF 2
ENDMDL
