MODEL 1
REMARK VINA RESULT:      -5.3      0.000      0.000
REMARK  1 active torsions:
REMARK  status: ('A' for Active; 'I' for Inactive)
REMARK    1  A    between atoms: C1_1  and  C5_5 
ROOT
HETATM    1  C2  UNL     1     -33.348   5.603   3.036  1.00 20.00     0.013 C 
HETATM    2  C3  UNL     1     -32.645   6.504   2.024  1.00 20.00     0.009 C 
HETATM    3  C4  UNL     1     -34.027   7.945   3.338  1.00 20.00     0.021 C 
HETATM    4  C5  UNL     1     -34.344   6.506   3.770  1.00 20.00     0.055 C 
HETATM    5  C6  UNL     1     -32.637   7.891   2.679  1.00 20.00    -0.047 C 
HETATM    6  C8  UNL     1     -32.465   8.999   1.638  1.00 20.00     0.015 C 
HETATM    7  C9  UNL     1     -31.517   8.009   3.726  1.00 20.00     0.015 C 
ENDROOT
BRANCH   4   8
HETATM    8  C1  UNL     1     -34.242   6.339   5.256  1.00 20.00     0.127 C 
HETATM    9  C7  UNL     1     -34.545   4.971   5.804  1.00 20.00     0.091 C 
HETATM   10  O10 UNL     1     -33.925   7.273   5.990  1.00 20.00    -0.298 OA
ENDBRANCH   4   8
TORSDOF 1
ENDMDL
MODEL 2
REMARK VINA RESULT:      -4.9      1.382      3.821
REMARK  1 active torsions:
REMARK  status: ('A' for Active; 'I' for Inactive)
REMARK    1  A    between atoms: C1_1  and  C5_5 
ROOT
HETATM    1  C2  UNL     1     -34.696   6.950   2.638  1.00 20.00     0.013 C 
HETATM    2  C3  UNL     1     -35.336   6.050   3.692  1.00 20.00     0.009 C 
HETATM    3  C4  UNL     1     -32.989   5.611   3.790  1.00 20.00     0.021 C 
HETATM    4  C5  UNL     1     -33.217   6.553   2.599  1.00 20.00     0.055 C 
HETATM    5  C6  UNL     1     -34.215   5.781   4.704  1.00 20.00    -0.047 C 
HETATM    6  C8  UNL     1     -34.489   4.514   5.517  1.00 20.00     0.015 C 
HETATM    7  C9  UNL     1     -34.034   6.965   5.667  1.00 20.00     0.015 C 
ENDROOT
BRANCH   4   8
HETATM    8  C1  UNL     1     -32.326   7.757   2.665  1.00 20.00     0.127 C 
HETATM    9  C7  UNL     1     -32.412   8.725   1.517  1.00 20.00     0.091 C 
HETATM   10  O10 UNL     1     -31.564   7.944   3.613  1.00 20.00    -0.298 OA
ENDBRANCH   4   8
TORSDOF 1
ENDMDL
MODEL 3
REMARK VINA RESULT:      -4.5     11.201     12.291
REMARK  1 active torsions:
REMARK  status: ('A' for Active; 'I' for Inactive)
REMARK    1  A    between atoms: C1_1  and  C5_5 
ROOT
HETATM    1  C2  UNL     1     -34.608  15.798  -6.440  1.00 20.00     0.013 C 
HETATM    2  C3  UNL     1     -33.839  16.607  -5.400  1.00 20.00     0.009 C 
HETATM    3  C4  UNL     1     -35.303  15.176  -4.168  1.00 20.00     0.021 C 
HETATM    4  C5  UNL     1     -35.650  14.998  -5.653  1.00 20.00     0.055 C 
HETATM    5  C6  UNL     1     -33.873  15.742  -4.133  1.00 20.00    -0.047 C 
HETATM    6  C8  UNL     1     -33.631  16.582  -2.877  1.00 20.00     0.015 C 
HETATM    7  C9  UNL     1     -32.825  14.618  -4.194  1.00 20.00     0.015 C 
ENDROOT
BRANCH   4   8
HETATM    8  C1  UNL     1     -35.647  13.554  -6.053  1.00 20.00     0.127 C 
HETATM    9  C7  UNL     1     -35.259  13.247  -7.474  1.00 20.00     0.091 C 
HETATM   10  O10 UNL     1     -35.947  12.663  -5.260  1.00 20.00    -0.298 OA
ENDBRANCH   4   8
TORSDOF 1
ENDMDL
MODEL 4
REMARK VINA RESULT:      -4.4     11.175     12.255
REMARK  1 active torsions:
REMARK  status: ('A' for Active; 'I' for Inactive)
REMARK    1  A    between atoms: C1_1  and  C5_5 
ROOT
HETATM    1  C2  UNL     1     -36.862  14.920  -4.651  1.00 20.00     0.013 C 
HETATM    2  C3  UNL     1     -36.162  15.930  -3.746  1.00 20.00     0.009 C 
HETATM    3  C4  UNL     1     -34.538  14.245  -4.232  1.00 20.00     0.021 C 
HETATM    4  C5  UNL     1     -35.868  13.769  -4.832  1.00 20.00     0.055 C 
HETATM    5  C6  UNL     1     -34.671  15.770  -4.067  1.00 20.00    -0.047 C 
HETATM    6  C8  UNL     1     -33.794  16.290  -2.926  1.00 20.00     0.015 C 
HETATM    7  C9  UNL     1     -34.295  16.507  -5.363  1.00 20.00     0.015 C 
ENDROOT
BRANCH   4   8
HETATM    8  C1  UNL     1     -35.722  13.395  -6.276  1.00 20.00     0.127 C 
HETATM    9  C7  UNL     1     -36.471  14.238  -7.272  1.00 20.00     0.091 C 
HETATM   10  O10 UNL     1     -35.024  12.445  -6.629  1.00 20.00    -0.298 OA
ENDBRANCH   4   8
TORSDOF 1
ENDMDL
MODEL 5
REMARK VINA RESULT:      -4.4      1.547      3.834
REMARK  1 active torsions:
REMARK  status: ('A' for Active; 'I' for Inactive)
REMARK    1  A    between atoms: C1_1  and  C5_5 
ROOT
HETATM    1  C2  UNL     1     -32.754   5.652   2.449  1.00 20.00     0.013 C 
HETATM    2  C3  UNL     1     -33.550   4.795   3.429  1.00 20.00     0.009 C 
HETATM    3  C4  UNL     1     -33.285   6.923   4.482  1.00 20.00     0.021 C 
HETATM    4  C5  UNL     1     -32.455   6.958   3.191  1.00 20.00     0.055 C 
HETATM    5  C6  UNL     1     -34.323   5.804   4.288  1.00 20.00    -0.047 C 
HETATM    6  C8  UNL     1     -34.746   5.192   5.625  1.00 20.00     0.015 C 
HETATM    7  C9  UNL     1     -35.572   6.321   3.556  1.00 20.00     0.015 C 
ENDROOT
BRANCH   4   8
HETATM    8  C1  UNL     1     -32.789   8.153   2.350  1.00 20.00     0.127 C 
HETATM    9  C7  UNL     1     -31.790   8.535   1.292  1.00 20.00     0.091 C 
HETATM   10  O10 UNL     1     -33.828   8.789   2.516  1.00 20.00    -0.298 OA
ENDBRANCH   4   8
TORSDOF 1
ENDMDL
MODEL 6
REMARK VINA RESULT:      -4.2      2.275      4.352
REMARK  1 active torsions:
REMARK  status: ('A' for Active; 'I' for Inactive)
REMARK    1  A    between atoms: C1_1  and  C5_5 
ROOT
HETATM    1  C2  UNL     1     -31.439   8.544   3.121  1.00 20.00     0.013 C 
HETATM    2  C3  UNL     1     -32.159   7.622   4.101  1.00 20.00     0.009 C 
HETATM    3  C4  UNL     1     -33.785   8.234   2.460  1.00 20.00     0.021 C 
HETATM    4  C5  UNL     1     -32.521   9.054   2.164  1.00 20.00     0.055 C 
HETATM    5  C6  UNL     1     -33.319   7.027   3.294  1.00 20.00    -0.047 C 
HETATM    6  C8  UNL     1     -34.432   6.514   4.210  1.00 20.00     0.015 C 
HETATM    7  C9  UNL     1     -32.841   5.876   2.393  1.00 20.00     0.015 C 
ENDROOT
BRANCH   4   8
HETATM    8  C1  UNL     1     -32.094   8.916   0.733  1.00 20.00     0.127 C 
HETATM    9  C7  UNL     1     -33.066   9.394  -0.311  1.00 20.00     0.091 C 
HETATM   10  O10 UNL     1     -31.003   8.438   0.429  1.00 20.00    -0.298 OA
ENDBRANCH   4   8
TORSDOF 1
ENDMDL
MODEL 7
REMARK VINA RESULT:      -4.2     11.508     12.308
REMARK  1 active torsions:
REMARK  status: ('A' for Active; 'I' for Inactive)
REMARK    1  A    between atoms: C1_1  and  C5_5 
ROOT
HETATM    1  C2  UNL     1     -33.785  14.424  -5.594  1.00 20.00     0.013 C 
HETATM    2  C3  UNL     1     -33.112  15.695  -5.082  1.00 20.00     0.009 C 
HETATM    3  C4  UNL     1     -35.408  16.260  -5.430  1.00 20.00     0.021 C 
HETATM    4  C5  UNL     1     -35.215  14.833  -5.960  1.00 20.00     0.055 C 
HETATM    5  C6  UNL     1     -34.248  16.507  -4.448  1.00 20.00    -0.047 C 
HETATM    6  C8  UNL     1     -33.893  17.993  -4.361  1.00 20.00     0.015 C 
HETATM    7  C9  UNL     1     -34.588  15.989  -3.041  1.00 20.00     0.015 C 
ENDROOT
BRANCH   4   8
HETATM    8  C1  UNL     1     -36.220  13.885  -5.378  1.00 20.00     0.127 C 
HETATM    9  C7  UNL     1     -37.570  14.455  -5.039  1.00 20.00     0.091 C 
HETATM   10  O10 UNL     1     -35.954  12.699  -5.188  1.00 20.00    -0.298 OA
ENDBRANCH   4   8
TORSDOF 1
ENDMDL
MODEL 8
REMARK VINA RESULT:      -4.1      1.471      2.329
REMARK  1 active torsions:
REMARK  status: ('A' for Active; 'I' for Inactive)
REMARK    1  A    between atoms: C1_1  and  C5_5 
ROOT
HETATM    1  C2  UNL     1     -31.670   8.017   3.792  1.00 20.00     0.013 C 
HETATM    2  C3  UNL     1     -31.265   8.850   2.578  1.00 20.00     0.009 C 
HETATM    3  C4  UNL     1     -32.898   7.292   1.791  1.00 20.00     0.021 C 
HETATM    4  C5  UNL     1     -32.597   6.924   3.251  1.00 20.00     0.055 C 
HETATM    5  C6  UNL     1     -32.466   8.760   1.628  1.00 20.00    -0.047 C 
HETATM    6  C8  UNL     1     -32.062   9.070   0.185  1.00 20.00     0.015 C 
HETATM    7  C9  UNL     1     -33.588   9.723   2.052  1.00 20.00     0.015 C 
ENDROOT
BRANCH   4   8
HETATM    8  C1  UNL     1     -33.852   6.819   4.065  1.00 20.00     0.127 C 
HETATM    9  C7  UNL     1     -33.784   7.327   5.480  1.00 20.00     0.091 C 
HETATM   10  O10 UNL     1     -34.885   6.343   3.600  1.00 20.00    -0.298 OA
ENDBRANCH   4   8
TORSDOF 1
ENDMDL
MODEL 9
REMARK VINA RESULT:      -4.0     11.277     12.285
REMARK  1 active torsions:
REMARK  status: ('A' for Active; 'I' for Inactive)
REMARK    1  A    between atoms: C1_1  and  C5_5 
ROOT
HETATM    1  C2  UNL     1     -33.183  15.990  -5.370  1.00 20.00     0.013 C 
HETATM    2  C3  UNL     1     -34.009  15.009  -6.197  1.00 20.00     0.009 C 
HETATM    3  C4  UNL     1     -34.611  14.619  -3.917  1.00 20.00     0.021 C 
HETATM    4  C5  UNL     1     -33.457  15.631  -3.907  1.00 20.00     0.055 C 
HETATM    5  C6  UNL     1     -35.232  14.699  -5.323  1.00 20.00    -0.047 C 
HETATM    6  C8  UNL     1     -35.886  13.376  -5.725  1.00 20.00     0.015 C 
HETATM    7  C9  UNL     1     -36.279  15.822  -5.408  1.00 20.00     0.015 C 
ENDROOT
BRANCH   4   8
HETATM    8  C1  UNL     1     -33.795  16.848  -3.099  1.00 20.00     0.127 C 
HETATM    9  C7  UNL     1     -34.786  16.664  -1.982  1.00 20.00     0.091 C 
HETATM   10  O10 UNL     1     -33.286  17.942  -3.337  1.00 20.00    -0.298 OA
ENDBRANCH   4   8
TORSDOF 1
ENDMDL
