MODEL 1
REMARK VINA RESULT:      -6.2      0.000      0.000
REMARK  1 active torsions:
REMARK  status: ('A' for Active; 'I' for Inactive)
REMARK    1  A    between atoms: C2_2  and  C3_3 
ROOT
HETATM    1  C1  UNL     1     -32.284   7.891   4.112  1.00 20.00    -0.009 C 
HETATM    2  C2  UNL     1     -32.799   7.935   2.846  1.00 20.00    -0.007 C 
HETATM    3  C4  UNL     1     -35.186   5.571   4.458  1.00 20.00     0.002 C 
HETATM    4  C5  UNL     1     -33.973   6.024   5.314  1.00 20.00     0.009 C 
HETATM    5  C6  UNL     1     -35.014   6.290   3.082  1.00 20.00     0.015 C 
HETATM    6  C7  UNL     1     -33.575   7.254   4.551  1.00 20.00     0.021 C 
HETATM    7  C8  UNL     1     -33.532   6.629   3.094  1.00 20.00    -0.007 C 
HETATM    8  C10 UNL     1     -32.686   5.412   2.660  1.00 20.00     0.021 C 
ENDROOT
BRANCH   2   9
HETATM    9  C3  UNL     1     -32.279   8.651   1.692  1.00 20.00     0.152 C 
HETATM   10  C9  UNL     1     -32.953   9.942   1.284  1.00 20.00     0.096 C 
HETATM   11  O11 UNL     1     -31.312   8.216   1.053  1.00 20.00    -0.293 OA
ENDBRANCH   2   9
TORSDOF 1
ENDMDL
MODEL 2
REMARK VINA RESULT:      -5.7      1.246      2.210
REMARK  1 active torsions:
REMARK  status: ('A' for Active; 'I' for Inactive)
REMARK    1  A    between atoms: C2_2  and  C3_3 
ROOT
HETATM    1  C1  UNL     1     -32.998   5.361   2.499  1.00 20.00    -0.009 C 
HETATM    2  C2  UNL     1     -33.002   6.631   3.004  1.00 20.00    -0.007 C 
HETATM    3  C4  UNL     1     -34.721   4.808   5.763  1.00 20.00     0.002 C 
HETATM    4  C5  UNL     1     -34.397   3.989   4.484  1.00 20.00     0.009 C 
HETATM    5  C6  UNL     1     -34.197   6.251   5.473  1.00 20.00     0.015 C 
HETATM    6  C7  UNL     1     -33.346   4.874   3.879  1.00 20.00     0.021 C 
HETATM    7  C8  UNL     1     -34.124   6.255   3.954  1.00 20.00    -0.007 C 
HETATM    8  C10 UNL     1     -35.510   6.542   3.339  1.00 20.00     0.021 C 
ENDROOT
BRANCH   2   9
HETATM    9  C3  UNL     1     -32.518   7.848   2.371  1.00 20.00     0.152 C 
HETATM   10  C9  UNL     1     -31.397   8.610   3.042  1.00 20.00     0.096 C 
HETATM   11  O11 UNL     1     -33.013   8.258   1.313  1.00 20.00    -0.293 OA
ENDBRANCH   2   9
TORSDOF 1
ENDMDL
MODEL 3
REMARK VINA RESULT:      -4.7     10.502     11.702
REMARK  1 active torsions:
REMARK  status: ('A' for Active; 'I' for Inactive)
REMARK    1  A    between atoms: C2_2  and  C3_3 
ROOT
HETATM    1  C1  UNL     1     -35.400  16.543  -2.200  1.00 20.00    -0.009 C 
HETATM    2  C2  UNL     1     -34.176  16.409  -2.794  1.00 20.00    -0.007 C 
HETATM    3  C4  UNL     1     -33.333  18.793  -0.058  1.00 20.00     0.002 C 
HETATM    4  C5  UNL     1     -34.833  18.427  -0.224  1.00 20.00     0.009 C 
HETATM    5  C6  UNL     1     -32.588  17.999  -1.177  1.00 20.00     0.015 C 
HETATM    6  C7  UNL     1     -34.696  17.166  -1.026  1.00 20.00     0.021 C 
HETATM    7  C8  UNL     1     -33.716  17.705  -2.152  1.00 20.00    -0.007 C 
HETATM    8  C10 UNL     1     -33.979  18.918  -3.070  1.00 20.00     0.021 C 
ENDROOT
BRANCH   2   9
HETATM    9  C3  UNL     1     -33.836  15.640  -3.982  1.00 20.00     0.152 C 
HETATM   10  C9  UNL     1     -34.437  14.262  -4.142  1.00 20.00     0.096 C 
HETATM   11  O11 UNL     1     -33.068  16.096  -4.839  1.00 20.00    -0.293 OA
ENDBRANCH   2   9
TORSDOF 1
ENDMDL
MODEL 4
REMARK VINA RESULT:      -4.7      1.902      4.223
REMARK  1 active torsions:
REMARK  status: ('A' for Active; 'I' for Inactive)
REMARK    1  A    between atoms: C2_2  and  C3_3 
ROOT
HETATM    1  C1  UNL     1     -32.846   6.291   2.585  1.00 20.00    -0.009 C 
HETATM    2  C2  UNL     1     -33.380   7.129   3.524  1.00 20.00    -0.007 C 
HETATM    3  C4  UNL     1     -32.149   9.612   1.033  1.00 20.00     0.002 C 
HETATM    4  C5  UNL     1     -31.796   8.124   0.764  1.00 20.00     0.009 C 
HETATM    5  C6  UNL     1     -32.962   9.609   2.366  1.00 20.00     0.015 C 
HETATM    6  C7  UNL     1     -32.819   7.462   1.641  1.00 20.00     0.021 C 
HETATM    7  C8  UNL     1     -32.553   8.278   2.976  1.00 20.00    -0.007 C 
HETATM    8  C10 UNL     1     -31.197   8.399   3.703  1.00 20.00     0.021 C 
ENDROOT
BRANCH   2   9
HETATM    9  C3  UNL     1     -33.983   6.777   4.800  1.00 20.00     0.152 C 
HETATM   10  C9  UNL     1     -34.764   5.486   4.894  1.00 20.00     0.096 C 
HETATM   11  O11 UNL     1     -33.867   7.517   5.786  1.00 20.00    -0.293 OA
ENDBRANCH   2   9
TORSDOF 1
ENDMDL
MODEL 5
REMARK VINA RESULT:      -4.6     10.316     11.745
REMARK  1 active torsions:
REMARK  status: ('A' for Active; 'I' for Inactive)
REMARK    1  A    between atoms: C2_2  and  C3_3 
ROOT
HETATM    1  C1  UNL     1     -34.226  14.034  -4.155  1.00 20.00    -0.009 C 
HETATM    2  C2  UNL     1     -34.647  14.406  -5.402  1.00 20.00    -0.007 C 
HETATM    3  C4  UNL     1     -35.407  17.511  -3.487  1.00 20.00     0.002 C 
HETATM    4  C5  UNL     1     -34.903  16.293  -2.665  1.00 20.00     0.009 C 
HETATM    5  C6  UNL     1     -35.452  17.020  -4.968  1.00 20.00     0.015 C 
HETATM    6  C7  UNL     1     -34.281  15.488  -3.768  1.00 20.00     0.021 C 
HETATM    7  C8  UNL     1     -35.492  15.510  -4.793  1.00 20.00    -0.007 C 
HETATM    8  C10 UNL     1     -36.929  15.029  -4.500  1.00 20.00     0.021 C 
ENDROOT
BRANCH   2   9
HETATM    9  C3  UNL     1     -34.672  13.603  -6.615  1.00 20.00     0.152 C 
HETATM   10  C9  UNL     1     -34.159  14.221  -7.896  1.00 20.00     0.096 C 
HETATM   11  O11 UNL     1     -35.109  12.445  -6.604  1.00 20.00    -0.293 OA
ENDBRANCH   2   9
TORSDOF 1
ENDMDL
MODEL 6
REMARK VINA RESULT:      -4.5     10.711     11.972
REMARK  1 active torsions:
REMARK  status: ('A' for Active; 'I' for Inactive)
REMARK    1  A    between atoms: C2_2  and  C3_3 
ROOT
HETATM    1  C1  UNL     1     -34.391  15.794  -6.423  1.00 20.00    -0.009 C 
HETATM    2  C2  UNL     1     -34.943  14.807  -5.654  1.00 20.00    -0.007 C 
HETATM    3  C4  UNL     1     -33.890  17.206  -3.005  1.00 20.00     0.002 C 
HETATM    4  C5  UNL     1     -33.472  17.550  -4.460  1.00 20.00     0.009 C 
HETATM    5  C6  UNL     1     -34.671  15.858  -3.107  1.00 20.00     0.015 C 
HETATM    6  C7  UNL     1     -34.441  16.684  -5.210  1.00 20.00     0.021 C 
HETATM    7  C8  UNL     1     -34.185  15.319  -4.443  1.00 20.00    -0.007 C 
HETATM    8  C10 UNL     1     -32.820  14.615  -4.288  1.00 20.00     0.021 C 
ENDROOT
BRANCH   2   9
HETATM    9  C3  UNL     1     -35.499  13.536  -6.093  1.00 20.00     0.152 C 
HETATM   10  C9  UNL     1     -35.509  13.229  -7.573  1.00 20.00     0.096 C 
HETATM   11  O11 UNL     1     -35.960  12.726  -5.278  1.00 20.00    -0.293 OA
ENDBRANCH   2   9
TORSDOF 1
ENDMDL
MODEL 7
REMARK VINA RESULT:      -4.5     10.914     11.752
REMARK  1 active torsions:
REMARK  status: ('A' for Active; 'I' for Inactive)
REMARK    1  A    between atoms: C2_2  and  C3_3 
ROOT
HETATM    1  C1  UNL     1     -36.820  15.757  -3.879  1.00 20.00    -0.009 C 
HETATM    2  C2  UNL     1     -35.911  14.933  -4.483  1.00 20.00    -0.007 C 
HETATM    3  C4  UNL     1     -33.635  17.033  -2.412  1.00 20.00     0.002 C 
HETATM    4  C5  UNL     1     -35.135  17.433  -2.418  1.00 20.00     0.009 C 
HETATM    5  C6  UNL     1     -33.534  15.790  -3.351  1.00 20.00     0.015 C 
HETATM    6  C7  UNL     1     -35.734  16.149  -2.914  1.00 20.00     0.021 C 
HETATM    7  C8  UNL     1     -34.803  15.923  -4.179  1.00 20.00    -0.007 C 
HETATM    8  C10 UNL     1     -34.600  16.923  -5.338  1.00 20.00     0.021 C 
ENDROOT
BRANCH   2   9
HETATM    9  C3  UNL     1     -36.161  13.900  -5.476  1.00 20.00     0.152 C 
HETATM   10  C9  UNL     1     -36.755  14.309  -6.806  1.00 20.00     0.096 C 
HETATM   11  O11 UNL     1     -35.903  12.712  -5.240  1.00 20.00    -0.293 OA
ENDBRANCH   2   9
TORSDOF 1
ENDMDL
MODEL 8
REMARK VINA RESULT:      -4.5     10.420     12.011
REMARK  1 active torsions:
REMARK  status: ('A' for Active; 'I' for Inactive)
REMARK    1  A    between atoms: C2_2  and  C3_3 
ROOT
HETATM    1  C1  UNL     1     -34.434  14.233  -4.102  1.00 20.00    -0.009 C 
HETATM    2  C2  UNL     1     -34.187  14.685  -5.368  1.00 20.00    -0.007 C 
HETATM    3  C4  UNL     1     -33.596  17.806  -3.420  1.00 20.00     0.002 C 
HETATM    4  C5  UNL     1     -34.128  16.581  -2.627  1.00 20.00     0.009 C 
HETATM    5  C6  UNL     1     -33.474  17.318  -4.899  1.00 20.00     0.015 C 
HETATM    6  C7  UNL     1     -33.775  15.486  -3.591  1.00 20.00     0.021 C 
HETATM    7  C8  UNL     1     -34.402  16.114  -4.906  1.00 20.00    -0.007 C 
HETATM    8  C10 UNL     1     -35.871  16.554  -5.083  1.00 20.00     0.021 C 
ENDROOT
BRANCH   2   9
HETATM    9  C3  UNL     1     -34.303  13.950  -6.619  1.00 20.00     0.152 C 
HETATM   10  C9  UNL     1     -33.978  14.671  -7.908  1.00 20.00     0.096 C 
HETATM   11  O11 UNL     1     -34.664  12.766  -6.632  1.00 20.00    -0.293 OA
ENDBRANCH   2   9
TORSDOF 1
ENDMDL
MODEL 9
REMARK VINA RESULT:      -4.4     10.938     11.523
REMARK  1 active torsions:
REMARK  status: ('A' for Active; 'I' for Inactive)
REMARK    1  A    between atoms: C2_2  and  C3_3 
ROOT
HETATM    1  C1  UNL     1     -33.361  15.497  -4.070  1.00 20.00    -0.009 C 
HETATM    2  C2  UNL     1     -34.469  15.817  -3.335  1.00 20.00    -0.007 C 
HETATM    3  C4  UNL     1     -36.023  13.754  -6.020  1.00 20.00     0.002 C 
HETATM    4  C5  UNL     1     -34.508  14.060  -6.168  1.00 20.00     0.009 C 
HETATM    5  C6  UNL     1     -36.462  14.466  -4.701  1.00 20.00     0.015 C 
HETATM    6  C7  UNL     1     -34.191  14.443  -4.751  1.00 20.00     0.021 C 
HETATM    7  C8  UNL     1     -35.357  15.494  -4.522  1.00 20.00    -0.007 C 
HETATM    8  C10 UNL     1     -35.625  16.745  -5.387  1.00 20.00     0.021 C 
ENDROOT
BRANCH   2   9
HETATM    9  C3  UNL     1     -34.547  16.668  -2.157  1.00 20.00     0.152 C 
HETATM   10  C9  UNL     1     -33.331  17.483  -1.778  1.00 20.00     0.096 C 
HETATM   11  O11 UNL     1     -35.579  16.721  -1.476  1.00 20.00    -0.293 OA
ENDBRANCH   2   9
TORSDOF 1
ENDMDL
