MODEL 1
REMARK VINA RESULT:      -4.4      0.000      0.000
REMARK  1 active torsions:
REMARK  status: ('A' for Active; 'I' for Inactive)
REMARK    1  A    between atoms: C1_1  and  C7_7 
ROOT
HETATM    1  C2  UNL     1     -33.122   5.045   3.340  1.00 20.00     0.048 C 
HETATM    2  C3  UNL     1     -33.476   6.868   5.001  1.00 20.00     0.048 C 
HETATM    3  C4  UNL     1     -34.128   4.195   4.119  1.00 20.00     0.273 C 
HETATM    4  C5  UNL     1     -34.471   5.960   5.728  1.00 20.00     0.273 C 
HETATM    5  C6  UNL     1     -35.183   6.171   3.535  1.00 20.00     0.288 C 
HETATM    6  C7  UNL     1     -33.690   6.449   3.547  1.00 20.00     0.042 C 
HETATM    7  N8  UNL     1     -35.121   5.177   4.639  1.00 20.00     0.089 N 
ENDROOT
BRANCH   6   8
HETATM    8  C1  UNL     1     -33.238   7.459   2.548  1.00 20.00     0.242 C 
HETATM    9  O9  UNL     1     -32.091   7.893   2.498  1.00 20.00    -0.306 OA
ENDBRANCH   6   8
TORSDOF 1
ENDMDL
MODEL 2
REMARK VINA RESULT:      -3.9     11.753     12.639
REMARK  1 active torsions:
REMARK  status: ('A' for Active; 'I' for Inactive)
REMARK    1  A    between atoms: C1_1  and  C7_7 
ROOT
HETATM    1  C2  UNL     1     -34.618  15.716  -5.885  1.00 20.00     0.048 C 
HETATM    2  C3  UNL     1     -35.616  15.771  -3.603  1.00 20.00     0.048 C 
HETATM    3  C4  UNL     1     -33.312  16.239  -5.283  1.00 20.00     0.273 C 
HETATM    4  C5  UNL     1     -34.278  16.293  -3.073  1.00 20.00     0.273 C 
HETATM    5  C6  UNL     1     -33.871  14.291  -4.162  1.00 20.00     0.288 C 
HETATM    6  C7  UNL     1     -35.156  14.859  -4.740  1.00 20.00     0.042 C 
HETATM    7  N8  UNL     1     -33.256  15.624  -3.926  1.00 20.00     0.089 N 
ENDROOT
BRANCH   6   8
HETATM    8  C1  UNL     1     -36.161  13.835  -5.145  1.00 20.00     0.242 C 
HETATM    9  O9  UNL     1     -35.901  12.643  -5.268  1.00 20.00    -0.306 OA
ENDBRANCH   6   8
TORSDOF 1
ENDMDL
MODEL 3
REMARK VINA RESULT:      -3.7     12.021     13.159
REMARK  1 active torsions:
REMARK  status: ('A' for Active; 'I' for Inactive)
REMARK    1  A    between atoms: C1_1  and  C7_7 
ROOT
HETATM    1  C2  UNL     1     -34.113  14.498  -4.120  1.00 20.00     0.048 C 
HETATM    2  C3  UNL     1     -34.000  15.133  -6.527  1.00 20.00     0.048 C 
HETATM    3  C4  UNL     1     -33.626  15.905  -3.767  1.00 20.00     0.273 C 
HETATM    4  C5  UNL     1     -33.515  16.521  -6.097  1.00 20.00     0.273 C 
HETATM    5  C6  UNL     1     -35.541  16.127  -5.048  1.00 20.00     0.288 C 
HETATM    6  C7  UNL     1     -34.939  14.772  -5.376  1.00 20.00     0.042 C 
HETATM    7  N8  UNL     1     -34.227  16.780  -4.814  1.00 20.00     0.089 N 
ENDROOT
BRANCH   6   8
HETATM    8  C1  UNL     1     -35.934  13.714  -5.712  1.00 20.00     0.242 C 
HETATM    9  O9  UNL     1     -35.912  12.586  -5.228  1.00 20.00    -0.306 OA
ENDBRANCH   6   8
TORSDOF 1
ENDMDL
MODEL 4
REMARK VINA RESULT:      -3.6     11.881     12.741
REMARK  1 active torsions:
REMARK  status: ('A' for Active; 'I' for Inactive)
REMARK    1  A    between atoms: C1_1  and  C7_7 
ROOT
HETATM    1  C2  UNL     1     -35.148  16.139  -2.903  1.00 20.00     0.048 C 
HETATM    2  C3  UNL     1     -34.544  14.098  -4.199  1.00 20.00     0.048 C 
HETATM    3  C4  UNL     1     -33.759  16.699  -3.215  1.00 20.00     0.273 C 
HETATM    4  C5  UNL     1     -33.173  14.723  -4.470  1.00 20.00     0.273 C 
HETATM    5  C6  UNL     1     -34.784  16.202  -5.231  1.00 20.00     0.288 C 
HETATM    6  C7  UNL     1     -35.441  15.336  -4.170  1.00 20.00     0.042 C 
HETATM    7  N8  UNL     1     -33.448  16.184  -4.579  1.00 20.00     0.089 N 
ENDROOT
BRANCH   6   8
HETATM    8  C1  UNL     1     -36.884  15.049  -4.408  1.00 20.00     0.242 C 
HETATM    9  O9  UNL     1     -37.305  13.954  -4.768  1.00 20.00    -0.306 OA
ENDBRANCH   6   8
TORSDOF 1
ENDMDL
MODEL 5
REMARK VINA RESULT:      -3.5     11.980     12.723
REMARK  1 active torsions:
REMARK  status: ('A' for Active; 'I' for Inactive)
REMARK    1  A    between atoms: C1_1  and  C7_7 
ROOT
HETATM    1  C2  UNL     1     -36.751  14.035  -5.083  1.00 20.00     0.048 C 
HETATM    2  C3  UNL     1     -34.393  14.259  -4.309  1.00 20.00     0.048 C 
HETATM    3  C4  UNL     1     -37.081  15.321  -4.321  1.00 20.00     0.273 C 
HETATM    4  C5  UNL     1     -34.798  15.537  -3.571  1.00 20.00     0.273 C 
HETATM    5  C6  UNL     1     -35.365  15.802  -5.800  1.00 20.00     0.288 C 
HETATM    6  C7  UNL     1     -35.315  14.309  -5.528  1.00 20.00     0.042 C 
HETATM    7  N8  UNL     1     -35.846  16.148  -4.436  1.00 20.00     0.089 N 
ENDROOT
BRANCH   6   8
HETATM    8  C1  UNL     1     -34.849  13.482  -6.678  1.00 20.00     0.242 C 
HETATM    9  O9  UNL     1     -35.054  12.276  -6.771  1.00 20.00    -0.306 OA
ENDBRANCH   6   8
TORSDOF 1
ENDMDL
MODEL 6
REMARK VINA RESULT:      -3.5      8.777      9.776
REMARK  1 active torsions:
REMARK  status: ('A' for Active; 'I' for Inactive)
REMARK    1  A    between atoms: C1_1  and  C7_7 
ROOT
HETATM    1  C2  UNL     1     -43.156   7.288   1.004  1.00 20.00     0.048 C 
HETATM    2  C3  UNL     1     -43.156   6.079  -1.175  1.00 20.00     0.048 C 
HETATM    3  C4  UNL     1     -43.417   5.951   1.700  1.00 20.00     0.273 C 
HETATM    4  C5  UNL     1     -43.417   4.779  -0.409  1.00 20.00     0.273 C 
HETATM    5  C6  UNL     1     -41.484   5.724   0.446  1.00 20.00     0.288 C 
HETATM    6  C7  UNL     1     -42.291   6.849  -0.177  1.00 20.00     0.042 C 
HETATM    7  N8  UNL     1     -42.680   4.952   0.875  1.00 20.00     0.089 N 
ENDROOT
BRANCH   6   8
HETATM    8  C1  UNL     1     -41.474   7.935  -0.791  1.00 20.00     0.242 C 
HETATM    9  O9  UNL     1     -41.935   8.782  -1.549  1.00 20.00    -0.306 OA
ENDBRANCH   6   8
TORSDOF 1
ENDMDL
MODEL 7
REMARK VINA RESULT:      -3.4     11.762     13.165
REMARK  1 active torsions:
REMARK  status: ('A' for Active; 'I' for Inactive)
REMARK    1  A    between atoms: C1_1  and  C7_7 
ROOT
HETATM    1  C2  UNL     1     -35.489  15.863  -5.439  1.00 20.00     0.048 C 
HETATM    2  C3  UNL     1     -34.439  15.995  -3.183  1.00 20.00     0.048 C 
HETATM    3  C4  UNL     1     -34.696  17.110  -5.836  1.00 20.00     0.273 C 
HETATM    4  C5  UNL     1     -33.680  17.239  -3.652  1.00 20.00     0.273 C 
HETATM    5  C6  UNL     1     -33.181  15.515  -5.115  1.00 20.00     0.288 C 
HETATM    6  C7  UNL     1     -34.517  15.183  -4.475  1.00 20.00     0.042 C 
HETATM    7  N8  UNL     1     -33.409  16.984  -5.095  1.00 20.00     0.089 N 
ENDROOT
BRANCH   6   8
HETATM    8  C1  UNL     1     -34.762  13.727  -4.266  1.00 20.00     0.242 C 
HETATM    9  O9  UNL     1     -35.471  13.048  -5.002  1.00 20.00    -0.306 OA
ENDBRANCH   6   8
TORSDOF 1
ENDMDL
MODEL 8
REMARK VINA RESULT:      -3.4     12.062     12.870
REMARK  1 active torsions:
REMARK  status: ('A' for Active; 'I' for Inactive)
REMARK    1  A    between atoms: C1_1  and  C7_7 
ROOT
HETATM    1  C2  UNL     1     -35.660  15.791  -6.070  1.00 20.00     0.048 C 
HETATM    2  C3  UNL     1     -35.326  15.805  -3.600  1.00 20.00     0.048 C 
HETATM    3  C4  UNL     1     -34.216  15.307  -6.222  1.00 20.00     0.273 C 
HETATM    4  C5  UNL     1     -33.891  15.322  -3.831  1.00 20.00     0.273 C 
HETATM    5  C6  UNL     1     -35.317  13.806  -4.845  1.00 20.00     0.288 C 
HETATM    6  C7  UNL     1     -36.063  15.125  -4.754  1.00 20.00     0.042 C 
HETATM    7  N8  UNL     1     -33.986  14.442  -5.030  1.00 20.00     0.089 N 
ENDROOT
BRANCH   6   8
HETATM    8  C1  UNL     1     -37.533  14.995  -4.544  1.00 20.00     0.242 C 
HETATM    9  O9  UNL     1     -38.178  14.002  -4.868  1.00 20.00    -0.306 OA
ENDBRANCH   6   8
TORSDOF 1
ENDMDL
MODEL 9
REMARK VINA RESULT:      -3.4      8.959     10.040
REMARK  1 active torsions:
REMARK  status: ('A' for Active; 'I' for Inactive)
REMARK    1  A    between atoms: C1_1  and  C7_7 
ROOT
HETATM    1  C2  UNL     1     -43.259   4.997   0.693  1.00 20.00     0.048 C 
HETATM    2  C3  UNL     1     -41.227   5.534  -0.646  1.00 20.00     0.048 C 
HETATM    3  C4  UNL     1     -43.036   6.293   1.475  1.00 20.00     0.273 C 
HETATM    4  C5  UNL     1     -41.068   6.813   0.180  1.00 20.00     0.273 C 
HETATM    5  C6  UNL     1     -43.180   6.844  -0.769  1.00 20.00     0.288 C 
HETATM    6  C7  UNL     1     -42.748   5.391  -0.693  1.00 20.00     0.042 C 
HETATM    7  N8  UNL     1     -42.466   7.239   0.474  1.00 20.00     0.089 N 
ENDROOT
BRANCH   6   8
HETATM    8  C1  UNL     1     -43.245   4.535  -1.808  1.00 20.00     0.242 C 
HETATM    9  O9  UNL     1     -42.543   3.721  -2.400  1.00 20.00    -0.306 OA
ENDBRANCH   6   8
TORSDOF 1
ENDMDL
