MODEL 1
REMARK VINA RESULT:      -5.0      0.000      0.000
REMARK  2 active torsions:
REMARK  status: ('A' for Active; 'I' for Inactive)
REMARK    1  A    between atoms: C3_3  and  C8_8 
REMARK    2  A    between atoms: C9_9  and  N11_11 
ROOT
HETATM    1  C1  UNL     1     -32.340   9.539   1.357  1.00 20.00     0.089 C 
HETATM    2  C9  UNL     1     -31.450   8.432   1.702  1.00 20.00     0.395 C 
HETATM    3  N10 UNL     1     -33.045  10.419   1.079  1.00 20.00    -0.195 NA
ENDROOT
BRANCH   2   4
HETATM    4  N11 UNL     1     -32.045   7.590   2.740  1.00 20.00     0.101 N 
HETATM    5  C6  UNL     1     -32.365   8.390   3.930  1.00 20.00     0.274 C 
HETATM    6  C4  UNL     1     -32.937   7.513   5.046  1.00 20.00     0.039 C 
HETATM    7  C8  UNL     1     -34.162   6.737   4.566  1.00 20.00     0.011 C 
HETATM    8  C5  UNL     1     -33.841   5.977   3.280  1.00 20.00     0.039 C 
HETATM    9  C7  UNL     1     -33.238   6.904   2.224  1.00 20.00     0.274 C 
BRANCH   7  10
HETATM   10  C3  UNL     1     -34.609   5.772   5.621  1.00 20.00    -0.032 C 
HETATM   11  C2  UNL     1     -34.607   4.443   5.469  1.00 20.00     0.007 C 
ENDBRANCH   7  10
ENDBRANCH   2   4
TORSDOF 2
ENDMDL
MODEL 2
REMARK VINA RESULT:      -4.6     10.979     11.650
REMARK  2 active torsions:
REMARK  status: ('A' for Active; 'I' for Inactive)
REMARK    1  A    between atoms: C3_3  and  C8_8 
REMARK    2  A    between atoms: C9_9  and  N11_11 
ROOT
HETATM    1  C1  UNL     1     -35.615  13.918  -5.512  1.00 20.00     0.089 C 
HETATM    2  C9  UNL     1     -35.315  15.299  -5.884  1.00 20.00     0.395 C 
HETATM    3  N10 UNL     1     -35.853  12.820  -5.219  1.00 20.00    -0.195 NA
ENDROOT
BRANCH   2   4
HETATM    4  N11 UNL     1     -35.128  16.130  -4.695  1.00 20.00     0.101 N 
HETATM    5  C6  UNL     1     -36.300  16.040  -3.814  1.00 20.00     0.274 C 
HETATM    6  C4  UNL     1     -36.143  16.948  -2.593  1.00 20.00     0.039 C 
HETATM    7  C8  UNL     1     -34.861  16.626  -1.826  1.00 20.00     0.011 C 
HETATM    8  C5  UNL     1     -33.660  16.638  -2.770  1.00 20.00     0.039 C 
HETATM    9  C7  UNL     1     -33.900  15.743  -3.986  1.00 20.00     0.274 C 
BRANCH   7  10
HETATM   10  C3  UNL     1     -34.649  17.624  -0.730  1.00 20.00    -0.032 C 
HETATM   11  C2  UNL     1     -33.478  18.215  -0.472  1.00 20.00     0.007 C 
ENDBRANCH   7  10
ENDBRANCH   2   4
TORSDOF 2
ENDMDL
MODEL 3
REMARK VINA RESULT:      -4.5      1.748      4.749
REMARK  2 active torsions:
REMARK  status: ('A' for Active; 'I' for Inactive)
REMARK    1  A    between atoms: C3_3  and  C8_8 
REMARK    2  A    between atoms: C9_9  and  N11_11 
ROOT
HETATM    1  C1  UNL     1     -34.414   4.871   4.848  1.00 20.00     0.089 C 
HETATM    2  C9  UNL     1     -34.375   6.262   5.295  1.00 20.00     0.395 C 
HETATM    3  N10 UNL     1     -34.447   3.765   4.497  1.00 20.00    -0.195 NA
ENDROOT
BRANCH   2   4
HETATM    4  N11 UNL     1     -33.867   7.135   4.238  1.00 20.00     0.101 N 
HETATM    5  C6  UNL     1     -32.542   7.659   4.596  1.00 20.00     0.274 C 
HETATM    6  C4  UNL     1     -32.020   8.618   3.525  1.00 20.00     0.039 C 
HETATM    7  C8  UNL     1     -31.986   7.949   2.152  1.00 20.00     0.011 C 
HETATM    8  C5  UNL     1     -33.347   7.333   1.827  1.00 20.00     0.039 C 
HETATM    9  C7  UNL     1     -33.825   6.418   2.955  1.00 20.00     0.274 C 
BRANCH   7  10
HETATM   10  C3  UNL     1     -31.623   8.948   1.098  1.00 20.00    -0.032 C 
HETATM   11  C2  UNL     1     -32.424   9.944   0.703  1.00 20.00     0.007 C 
ENDBRANCH   7  10
ENDBRANCH   2   4
TORSDOF 2
ENDMDL
MODEL 4
REMARK VINA RESULT:      -4.4     11.117     11.677
REMARK  2 active torsions:
REMARK  status: ('A' for Active; 'I' for Inactive)
REMARK    1  A    between atoms: C3_3  and  C8_8 
REMARK    2  A    between atoms: C9_9  and  N11_11 
ROOT
HETATM    1  C1  UNL     1     -36.232  13.841  -5.032  1.00 20.00     0.089 C 
HETATM    2  C9  UNL     1     -36.646  15.129  -4.479  1.00 20.00     0.395 C 
HETATM    3  N10 UNL     1     -35.906  12.818  -5.474  1.00 20.00    -0.195 NA
ENDROOT
BRANCH   2   4
HETATM    4  N11 UNL     1     -35.685  15.601  -3.483  1.00 20.00     0.101 N 
HETATM    5  C6  UNL     1     -34.441  16.033  -4.134  1.00 20.00     0.274 C 
HETATM    6  C4  UNL     1     -33.405  16.479  -3.101  1.00 20.00     0.039 C 
HETATM    7  C8  UNL     1     -33.959  17.582  -2.202  1.00 20.00     0.011 C 
HETATM    8  C5  UNL     1     -35.296  17.155  -1.598  1.00 20.00     0.039 C 
HETATM    9  C7  UNL     1     -36.269  16.686  -2.680  1.00 20.00     0.274 C 
BRANCH   7  10
HETATM   10  C3  UNL     1     -32.988  17.892  -1.104  1.00 20.00    -0.032 C 
HETATM   11  C2  UNL     1     -33.316  18.521   0.030  1.00 20.00     0.007 C 
ENDBRANCH   7  10
ENDBRANCH   2   4
TORSDOF 2
ENDMDL
MODEL 5
REMARK VINA RESULT:      -4.2     11.153     11.670
REMARK  2 active torsions:
REMARK  status: ('A' for Active; 'I' for Inactive)
REMARK    1  A    between atoms: C3_3  and  C8_8 
REMARK    2  A    between atoms: C9_9  and  N11_11 
ROOT
HETATM    1  C1  UNL     1     -34.723  13.511  -6.720  1.00 20.00     0.089 C 
HETATM    2  C9  UNL     1     -34.249  14.857  -6.407  1.00 20.00     0.395 C 
HETATM    3  N10 UNL     1     -35.098  12.441  -6.972  1.00 20.00    -0.195 NA
ENDROOT
BRANCH   2   4
HETATM    4  N11 UNL     1     -34.445  15.163  -4.990  1.00 20.00     0.101 N 
HETATM    5  C6  UNL     1     -33.439  16.129  -4.529  1.00 20.00     0.274 C 
HETATM    6  C4  UNL     1     -33.596  16.417  -3.034  1.00 20.00     0.039 C 
HETATM    7  C8  UNL     1     -35.007  16.905  -2.711  1.00 20.00     0.011 C 
HETATM    8  C5  UNL     1     -36.047  15.936  -3.271  1.00 20.00     0.039 C 
HETATM    9  C7  UNL     1     -35.807  15.663  -4.756  1.00 20.00     0.274 C 
BRANCH   7  10
HETATM   10  C3  UNL     1     -35.184  17.031  -1.229  1.00 20.00    -0.032 C 
HETATM   11  C2  UNL     1     -34.402  17.777  -0.442  1.00 20.00     0.007 C 
ENDBRANCH   7  10
ENDBRANCH   2   4
TORSDOF 2
ENDMDL
MODEL 6
REMARK VINA RESULT:      -4.2     10.947     11.663
REMARK  2 active torsions:
REMARK  status: ('A' for Active; 'I' for Inactive)
REMARK    1  A    between atoms: C3_3  and  C8_8 
REMARK    2  A    between atoms: C9_9  and  N11_11 
ROOT
HETATM    1  C1  UNL     1     -31.650  19.045   1.087  1.00 20.00     0.089 C 
HETATM    2  C9  UNL     1     -33.064  19.208   0.755  1.00 20.00     0.395 C 
HETATM    3  N10 UNL     1     -30.527  18.918   1.354  1.00 20.00    -0.195 NA
ENDROOT
BRANCH   2   4
HETATM    4  N11 UNL     1     -33.521  18.129  -0.121  1.00 20.00     0.101 N 
HETATM    5  C6  UNL     1     -34.986  18.143  -0.231  1.00 20.00     0.274 C 
HETATM    6  C4  UNL     1     -35.484  16.987  -1.100  1.00 20.00     0.039 C 
HETATM    7  C8  UNL     1     -34.835  17.013  -2.482  1.00 20.00     0.011 C 
HETATM    8  C5  UNL     1     -33.314  17.085  -2.354  1.00 20.00     0.039 C 
HETATM    9  C7  UNL     1     -32.888  18.237  -1.443  1.00 20.00     0.274 C 
BRANCH   7  10
HETATM   10  C3  UNL     1     -35.216  15.790  -3.257  1.00 20.00    -0.032 C 
HETATM   11  C2  UNL     1     -34.342  15.010  -3.903  1.00 20.00     0.007 C 
ENDBRANCH   7  10
ENDBRANCH   2   4
TORSDOF 2
ENDMDL
MODEL 7
REMARK VINA RESULT:      -4.0     11.259     12.071
REMARK  2 active torsions:
REMARK  status: ('A' for Active; 'I' for Inactive)
REMARK    1  A    between atoms: C3_3  and  C8_8 
REMARK    2  A    between atoms: C9_9  and  N11_11 
ROOT
HETATM    1  C1  UNL     1     -37.155  14.553  -5.401  1.00 20.00     0.089 C 
HETATM    2  C9  UNL     1     -35.952  15.243  -5.861  1.00 20.00     0.395 C 
HETATM    3  N10 UNL     1     -38.111  14.003  -5.039  1.00 20.00    -0.195 NA
ENDROOT
BRANCH   2   4
HETATM    4  N11 UNL     1     -35.424  16.122  -4.818  1.00 20.00     0.101 N 
HETATM    5  C6  UNL     1     -35.499  15.465  -3.506  1.00 20.00     0.274 C 
HETATM    6  C4  UNL     1     -35.001  16.393  -2.396  1.00 20.00     0.039 C 
HETATM    7  C8  UNL     1     -33.582  16.882  -2.679  1.00 20.00     0.011 C 
HETATM    8  C5  UNL     1     -33.497  17.486  -4.080  1.00 20.00     0.039 C 
HETATM    9  C7  UNL     1     -34.045  16.523  -5.133  1.00 20.00     0.274 C 
BRANCH   7  10
HETATM   10  C3  UNL     1     -33.176  17.906  -1.665  1.00 20.00    -0.032 C 
HETATM   11  C2  UNL     1     -33.783  18.073  -0.484  1.00 20.00     0.007 C 
ENDBRANCH   7  10
ENDBRANCH   2   4
TORSDOF 2
ENDMDL
MODEL 8
REMARK VINA RESULT:      -3.9     11.016     12.075
REMARK  2 active torsions:
REMARK  status: ('A' for Active; 'I' for Inactive)
REMARK    1  A    between atoms: C3_3  and  C8_8 
REMARK    2  A    between atoms: C9_9  and  N11_11 
ROOT
HETATM    1  C1  UNL     1     -33.068  17.775  -1.498  1.00 20.00     0.089 C 
HETATM    2  C9  UNL     1     -34.258  17.013  -1.870  1.00 20.00     0.395 C 
HETATM    3  N10 UNL     1     -32.125  18.382  -1.198  1.00 20.00    -0.195 NA
ENDROOT
BRANCH   2   4
HETATM    4  N11 UNL     1     -34.016  16.226  -3.079  1.00 20.00     0.101 N 
HETATM    5  C6  UNL     1     -35.211  15.448  -3.435  1.00 20.00     0.274 C 
HETATM    6  C4  UNL     1     -34.955  14.578  -4.667  1.00 20.00     0.039 C 
HETATM    7  C8  UNL     1     -34.482  15.419  -5.850  1.00 20.00     0.011 C 
HETATM    8  C5  UNL     1     -33.293  16.287  -5.445  1.00 20.00     0.039 C 
HETATM    9  C7  UNL     1     -33.603  17.100  -4.187  1.00 20.00     0.274 C 
BRANCH   7  10
HETATM   10  C3  UNL     1     -34.090  14.532  -6.992  1.00 20.00    -0.032 C 
HETATM   11  C2  UNL     1     -34.706  13.384  -7.293  1.00 20.00     0.007 C 
ENDBRANCH   7  10
ENDBRANCH   2   4
TORSDOF 2
ENDMDL
MODEL 9
REMARK VINA RESULT:      -3.8     10.991     11.744
REMARK  2 active torsions:
REMARK  status: ('A' for Active; 'I' for Inactive)
REMARK    1  A    between atoms: C3_3  and  C8_8 
REMARK    2  A    between atoms: C9_9  and  N11_11 
ROOT
HETATM    1  C1  UNL     1     -34.130  18.621   3.302  1.00 20.00     0.089 C 
HETATM    2  C9  UNL     1     -35.147  19.244   2.457  1.00 20.00     0.395 C 
HETATM    3  N10 UNL     1     -33.325  18.127   3.977  1.00 20.00    -0.195 NA
ENDROOT
BRANCH   2   4
HETATM    4  N11 UNL     1     -34.950  18.883   1.053  1.00 20.00     0.101 N 
HETATM    5  C6  UNL     1     -33.518  18.833   0.731  1.00 20.00     0.274 C 
HETATM    6  C4  UNL     1     -33.297  18.510  -0.748  1.00 20.00     0.039 C 
HETATM    7  C8  UNL     1     -33.988  17.205  -1.139  1.00 20.00     0.011 C 
HETATM    8  C5  UNL     1     -35.457  17.236  -0.722  1.00 20.00     0.039 C 
HETATM    9  C7  UNL     1     -35.607  17.602   0.756  1.00 20.00     0.274 C 
BRANCH   7  10
HETATM   10  C3  UNL     1     -33.890  16.991  -2.618  1.00 20.00    -0.032 C 
HETATM   11  C2  UNL     1     -34.524  16.015  -3.277  1.00 20.00     0.007 C 
ENDBRANCH   7  10
ENDBRANCH   2   4
TORSDOF 2
ENDMDL
