MODEL 1
REMARK VINA RESULT:      -6.0      0.000      0.000
REMARK  2 active torsions:
REMARK  status: ('A' for Active; 'I' for Inactive)
REMARK    1  A    between atoms: C1_1  and  C3_3 
REMARK    2  A    between atoms: C2_2  and  C7_7 
ROOT
HETATM    1  C4  UNL     1     -34.812   4.635   4.446  1.00 20.00     0.002 C 
HETATM    2  C5  UNL     1     -35.279   5.982   3.870  1.00 20.00     0.013 C 
HETATM    3  C6  UNL     1     -33.403   4.951   3.915  1.00 20.00     0.013 C 
HETATM    4  C7  UNL     1     -33.793   6.463   3.886  1.00 20.00    -0.026 C 
HETATM    5  C9  UNL     1     -33.409   7.216   5.161  1.00 20.00     0.019 C 
ENDROOT
BRANCH   4   6
HETATM    6  C2  UNL     1     -33.335   7.240   2.621  1.00 20.00    -0.014 C 
HETATM    7  C1  UNL     1     -32.441   8.238   2.652  1.00 20.00     0.046 C 
BRANCH   7   8
HETATM    8  C3  UNL     1     -32.045   8.943   1.403  1.00 20.00     0.145 C 
HETATM    9  C8  UNL     1     -32.758  10.233   1.095  1.00 20.00     0.096 C 
HETATM   10  O10 UNL     1     -31.188   8.497   0.644  1.00 20.00    -0.294 OA
ENDBRANCH   7   8
ENDBRANCH   4   6
TORSDOF 2
ENDMDL
MODEL 2
REMARK VINA RESULT:      -5.6      0.692      1.486
REMARK  2 active torsions:
REMARK  status: ('A' for Active; 'I' for Inactive)
REMARK    1  A    between atoms: C1_1  and  C3_3 
REMARK    2  A    between atoms: C2_2  and  C7_7 
ROOT
HETATM    1  C4  UNL     1     -34.802   5.776   5.239  1.00 20.00     0.002 C 
HETATM    2  C5  UNL     1     -33.525   6.577   4.931  1.00 20.00     0.013 C 
HETATM    3  C6  UNL     1     -35.213   5.959   3.768  1.00 20.00     0.013 C 
HETATM    4  C7  UNL     1     -33.715   6.230   3.420  1.00 20.00    -0.026 C 
HETATM    5  C9  UNL     1     -32.955   4.976   2.982  1.00 20.00     0.019 C 
ENDROOT
BRANCH   4   6
HETATM    6  C2  UNL     1     -33.465   7.405   2.434  1.00 20.00    -0.014 C 
HETATM    7  C1  UNL     1     -32.254   7.927   2.201  1.00 20.00     0.046 C 
BRANCH   7   8
HETATM    8  C3  UNL     1     -32.083   9.053   1.244  1.00 20.00     0.145 C 
HETATM    9  C8  UNL     1     -32.912  10.286   1.490  1.00 20.00     0.096 C 
HETATM   10  O10 UNL     1     -31.314   8.987   0.287  1.00 20.00    -0.294 OA
ENDBRANCH   7   8
ENDBRANCH   4   6
TORSDOF 2
ENDMDL
MODEL 3
REMARK VINA RESULT:      -5.4      1.091      1.690
REMARK  2 active torsions:
REMARK  status: ('A' for Active; 'I' for Inactive)
REMARK    1  A    between atoms: C1_1  and  C3_3 
REMARK    2  A    between atoms: C2_2  and  C7_7 
ROOT
HETATM    1  C4  UNL     1     -34.662   4.601   5.755  1.00 20.00     0.002 C 
HETATM    2  C5  UNL     1     -34.029   4.442   4.362  1.00 20.00     0.013 C 
HETATM    3  C6  UNL     1     -34.356   6.106   5.670  1.00 20.00     0.013 C 
HETATM    4  C7  UNL     1     -34.276   5.965   4.117  1.00 20.00    -0.026 C 
HETATM    5  C9  UNL     1     -35.599   6.262   3.408  1.00 20.00     0.019 C 
ENDROOT
BRANCH   4   6
HETATM    6  C2  UNL     1     -33.100   6.726   3.442  1.00 20.00    -0.014 C 
HETATM    7  C1  UNL     1     -33.265   7.832   2.706  1.00 20.00     0.046 C 
BRANCH   7   8
HETATM    8  C3  UNL     1     -32.096   8.514   2.086  1.00 20.00     0.145 C 
HETATM    9  C8  UNL     1     -32.312   9.140   0.734  1.00 20.00     0.096 C 
HETATM   10  O10 UNL     1     -30.998   8.559   2.636  1.00 20.00    -0.294 OA
ENDBRANCH   7   8
ENDBRANCH   4   6
TORSDOF 2
ENDMDL
MODEL 4
REMARK VINA RESULT:      -5.2      2.145      4.839
REMARK  2 active torsions:
REMARK  status: ('A' for Active; 'I' for Inactive)
REMARK    1  A    between atoms: C1_1  and  C3_3 
REMARK    2  A    between atoms: C2_2  and  C7_7 
ROOT
HETATM    1  C4  UNL     1     -31.881   9.646   0.643  1.00 20.00     0.002 C 
HETATM    2  C5  UNL     1     -31.754   8.131   0.877  1.00 20.00     0.013 C 
HETATM    3  C6  UNL     1     -32.919   9.686   1.778  1.00 20.00     0.013 C 
HETATM    4  C7  UNL     1     -32.332   8.341   2.313  1.00 20.00    -0.026 C 
HETATM    5  C9  UNL     1     -31.255   8.529   3.383  1.00 20.00     0.019 C 
ENDROOT
BRANCH   4   6
HETATM    6  C2  UNL     1     -33.386   7.291   2.763  1.00 20.00    -0.014 C 
HETATM    7  C1  UNL     1     -33.664   7.030   4.047  1.00 20.00     0.046 C 
BRANCH   7   8
HETATM    8  C3  UNL     1     -34.685   6.011   4.411  1.00 20.00     0.145 C 
HETATM    9  C8  UNL     1     -34.462   5.251   5.691  1.00 20.00     0.096 C 
HETATM   10  O10 UNL     1     -35.662   5.781   3.701  1.00 20.00    -0.294 OA
ENDBRANCH   7   8
ENDBRANCH   4   6
TORSDOF 2
ENDMDL
MODEL 5
REMARK VINA RESULT:      -4.8      2.343      4.808
REMARK  2 active torsions:
REMARK  status: ('A' for Active; 'I' for Inactive)
REMARK    1  A    between atoms: C1_1  and  C3_3 
REMARK    2  A    between atoms: C2_2  and  C7_7 
ROOT
HETATM    1  C4  UNL     1     -32.081   9.658   0.569  1.00 20.00     0.002 C 
HETATM    2  C5  UNL     1     -31.948   8.155   0.869  1.00 20.00     0.013 C 
HETATM    3  C6  UNL     1     -32.956   9.782   1.829  1.00 20.00     0.013 C 
HETATM    4  C7  UNL     1     -32.323   8.455   2.356  1.00 20.00    -0.026 C 
HETATM    5  C9  UNL     1     -31.108   8.676   3.259  1.00 20.00     0.019 C 
ENDROOT
BRANCH   4   6
HETATM    6  C2  UNL     1     -33.322   7.455   3.001  1.00 20.00    -0.014 C 
HETATM    7  C1  UNL     1     -33.367   7.204   4.316  1.00 20.00     0.046 C 
BRANCH   7   8
HETATM    8  C3  UNL     1     -34.349   6.233   4.871  1.00 20.00     0.145 C 
HETATM    9  C8  UNL     1     -35.348   5.650   3.906  1.00 20.00     0.096 C 
HETATM   10  O10 UNL     1     -34.363   5.925   6.060  1.00 20.00    -0.294 OA
ENDBRANCH   7   8
ENDBRANCH   4   6
TORSDOF 2
ENDMDL
MODEL 6
REMARK VINA RESULT:      -4.5     10.832     11.579
REMARK  2 active torsions:
REMARK  status: ('A' for Active; 'I' for Inactive)
REMARK    1  A    between atoms: C1_1  and  C3_3 
REMARK    2  A    between atoms: C2_2  and  C7_7 
ROOT
HETATM    1  C4  UNL     1     -34.088  17.532  -1.207  1.00 20.00     0.002 C 
HETATM    2  C5  UNL     1     -35.284  16.644  -1.591  1.00 20.00     0.013 C 
HETATM    3  C6  UNL     1     -33.374  17.036  -2.476  1.00 20.00     0.013 C 
HETATM    4  C7  UNL     1     -34.767  16.648  -3.065  1.00 20.00    -0.026 C 
HETATM    5  C9  UNL     1     -35.392  17.747  -3.927  1.00 20.00     0.019 C 
ENDROOT
BRANCH   4   6
HETATM    6  C2  UNL     1     -34.822  15.274  -3.789  1.00 20.00    -0.014 C 
HETATM    7  C1  UNL     1     -35.335  15.108  -5.015  1.00 20.00     0.046 C 
BRANCH   7   8
HETATM    8  C3  UNL     1     -35.357  13.764  -5.653  1.00 20.00     0.145 C 
HETATM    9  C8  UNL     1     -34.673  13.634  -6.988  1.00 20.00     0.096 C 
HETATM   10  O10 UNL     1     -35.916  12.801  -5.132  1.00 20.00    -0.294 OA
ENDBRANCH   7   8
ENDBRANCH   4   6
TORSDOF 2
ENDMDL
MODEL 7
REMARK VINA RESULT:      -4.3     10.564     11.388
REMARK  2 active torsions:
REMARK  status: ('A' for Active; 'I' for Inactive)
REMARK    1  A    between atoms: C1_1  and  C3_3 
REMARK    2  A    between atoms: C2_2  and  C7_7 
ROOT
HETATM    1  C4  UNL     1     -34.140  18.144  -0.259  1.00 20.00     0.002 C 
HETATM    2  C5  UNL     1     -35.146  17.133  -0.834  1.00 20.00     0.013 C 
HETATM    3  C6  UNL     1     -33.203  17.806  -1.431  1.00 20.00     0.013 C 
HETATM    4  C7  UNL     1     -34.442  17.276  -2.221  1.00 20.00    -0.026 C 
HETATM    5  C9  UNL     1     -35.085  18.330  -3.125  1.00 20.00     0.019 C 
ENDROOT
BRANCH   4   6
HETATM    6  C2  UNL     1     -34.218  15.945  -2.990  1.00 20.00    -0.014 C 
HETATM    7  C1  UNL     1     -35.097  15.444  -3.867  1.00 20.00     0.046 C 
BRANCH   7   8
HETATM    8  C3  UNL     1     -34.822  14.162  -4.571  1.00 20.00     0.145 C 
HETATM    9  C8  UNL     1     -35.993  13.483  -5.232  1.00 20.00     0.096 C 
HETATM   10  O10 UNL     1     -33.699  13.664  -4.607  1.00 20.00    -0.294 OA
ENDBRANCH   7   8
ENDBRANCH   4   6
TORSDOF 2
ENDMDL
MODEL 8
REMARK VINA RESULT:      -4.2     10.500     11.497
REMARK  2 active torsions:
REMARK  status: ('A' for Active; 'I' for Inactive)
REMARK    1  A    between atoms: C1_1  and  C3_3 
REMARK    2  A    between atoms: C2_2  and  C7_7 
ROOT
HETATM    1  C4  UNL     1     -35.487  14.170  -4.840  1.00 20.00     0.002 C 
HETATM    2  C5  UNL     1     -34.120  14.234  -4.137  1.00 20.00     0.013 C 
HETATM    3  C6  UNL     1     -35.833  15.519  -4.185  1.00 20.00     0.013 C 
HETATM    4  C7  UNL     1     -34.304  15.779  -3.999  1.00 20.00    -0.026 C 
HETATM    5  C9  UNL     1     -33.677  16.573  -5.147  1.00 20.00     0.019 C 
ENDROOT
BRANCH   4   6
HETATM    6  C2  UNL     1     -33.896  16.374  -2.622  1.00 20.00    -0.014 C 
HETATM    7  C1  UNL     1     -33.329  17.579  -2.480  1.00 20.00     0.046 C 
BRANCH   7   8
HETATM    8  C3  UNL     1     -32.962  18.091  -1.131  1.00 20.00     0.145 C 
HETATM    9  C8  UNL     1     -34.065  18.170  -0.110  1.00 20.00     0.096 C 
HETATM   10  O10 UNL     1     -31.818  18.448  -0.857  1.00 20.00    -0.294 OA
ENDBRANCH   7   8
ENDBRANCH   4   6
TORSDOF 2
ENDMDL
MODEL 9
REMARK VINA RESULT:      -4.1     10.547     11.409
REMARK  2 active torsions:
REMARK  status: ('A' for Active; 'I' for Inactive)
REMARK    1  A    between atoms: C1_1  and  C3_3 
REMARK    2  A    between atoms: C2_2  and  C7_7 
ROOT
HETATM    1  C4  UNL     1     -35.739  18.872  -0.457  1.00 20.00     0.002 C 
HETATM    2  C5  UNL     1     -35.525  18.716  -1.973  1.00 20.00     0.013 C 
HETATM    3  C6  UNL     1     -35.379  17.384  -0.303  1.00 20.00     0.013 C 
HETATM    4  C7  UNL     1     -34.652  17.454  -1.683  1.00 20.00    -0.026 C 
HETATM    5  C9  UNL     1     -33.156  17.759  -1.570  1.00 20.00     0.019 C 
ENDROOT
BRANCH   4   6
HETATM    6  C2  UNL     1     -34.903  16.244  -2.626  1.00 20.00    -0.014 C 
HETATM    7  C1  UNL     1     -33.946  15.687  -3.380  1.00 20.00     0.046 C 
BRANCH   7   8
HETATM    8  C3  UNL     1     -34.253  14.529  -4.263  1.00 20.00     0.145 C 
HETATM    9  C8  UNL     1     -35.691  14.348  -4.672  1.00 20.00     0.096 C 
HETATM   10  O10 UNL     1     -33.385  13.744  -4.637  1.00 20.00    -0.294 OA
ENDBRANCH   7   8
ENDBRANCH   4   6
TORSDOF 2
ENDMDL
