MODEL 1
REMARK VINA RESULT:      -6.6      0.000      0.000
REMARK  3 active torsions:
REMARK  status: ('A' for Active; 'I' for Inactive)
REMARK    1  A    between atoms: C1_1  and  C2_2 
REMARK    2  A    between atoms: C4_4  and  C9_9 
REMARK    3  A    between atoms: C5_5  and  C9_9 
ROOT
HETATM    1  C2  UNL     1     -32.633   7.717   2.094  1.00 20.00    -0.004 C 
HETATM    2  C4  UNL     1     -33.356   7.456   3.194  1.00 20.00    -0.015 C 
ENDROOT
BRANCH   2   3
HETATM    3  C9  UNL     1     -34.058   6.146   3.436  1.00 20.00     0.073 C 
HETATM    4  C8  UNL     1     -33.241   4.974   2.906  1.00 20.00     0.022 C 
BRANCH   3   5
HETATM    5  C5  UNL     1     -34.297   5.974   4.935  1.00 20.00     0.130 C 
HETATM    6  C7  UNL     1     -33.851   7.109   5.822  1.00 20.00     0.091 C 
HETATM    7  O10 UNL     1     -34.790   4.955   5.418  1.00 20.00    -0.298 OA
ENDBRANCH   3   5
ENDBRANCH   2   3
BRANCH   1   8
HETATM    8  C1  UNL     1     -31.960   8.976   1.869  1.00 20.00    -0.005 C 
HETATM    9  C3  UNL     1     -32.163   9.732   0.779  1.00 20.00    -0.031 C 
HETATM   10  C6  UNL     1     -33.101   9.362  -0.322  1.00 20.00     0.036 C 
ENDBRANCH   1   8
TORSDOF 3
ENDMDL
MODEL 2
REMARK VINA RESULT:      -6.0      1.243      1.918
REMARK  3 active torsions:
REMARK  status: ('A' for Active; 'I' for Inactive)
REMARK    1  A    between atoms: C1_1  and  C2_2 
REMARK    2  A    between atoms: C4_4  and  C9_9 
REMARK    3  A    between atoms: C5_5  and  C9_9 
ROOT
HETATM    1  C2  UNL     1     -32.150   8.056   2.593  1.00 20.00    -0.004 C 
HETATM    2  C4  UNL     1     -32.912   6.972   2.815  1.00 20.00    -0.015 C 
ENDROOT
BRANCH   2   3
HETATM    3  C9  UNL     1     -33.302   6.499   4.191  1.00 20.00     0.073 C 
HETATM    4  C8  UNL     1     -33.566   7.672   5.127  1.00 20.00     0.022 C 
BRANCH   3   5
HETATM    5  C5  UNL     1     -34.553   5.629   4.087  1.00 20.00     0.130 C 
HETATM    6  C7  UNL     1     -34.435   4.217   4.605  1.00 20.00     0.091 C 
HETATM    7  O10 UNL     1     -35.600   6.026   3.575  1.00 20.00    -0.298 OA
ENDBRANCH   3   5
ENDBRANCH   2   3
BRANCH   1   8
HETATM    8  C1  UNL     1     -31.782   8.505   1.270  1.00 20.00    -0.005 C 
HETATM    9  C3  UNL     1     -32.152   9.693   0.770  1.00 20.00    -0.031 C 
HETATM   10  C6  UNL     1     -32.982  10.684   1.518  1.00 20.00     0.036 C 
ENDBRANCH   1   8
TORSDOF 3
ENDMDL
MODEL 3
REMARK VINA RESULT:      -5.7      2.457      5.149
REMARK  3 active torsions:
REMARK  status: ('A' for Active; 'I' for Inactive)
REMARK    1  A    between atoms: C1_1  and  C2_2 
REMARK    2  A    between atoms: C4_4  and  C9_9 
REMARK    3  A    between atoms: C5_5  and  C9_9 
ROOT
HETATM    1  C2  UNL     1     -33.003   6.164   3.317  1.00 20.00    -0.004 C 
HETATM    2  C4  UNL     1     -33.250   7.213   2.515  1.00 20.00    -0.015 C 
ENDROOT
BRANCH   2   3
HETATM    3  C9  UNL     1     -32.494   8.513   2.592  1.00 20.00     0.073 C 
HETATM    4  C8  UNL     1     -31.266   8.388   3.486  1.00 20.00     0.022 C 
BRANCH   3   5
HETATM    5  C5  UNL     1     -32.068   8.930   1.185  1.00 20.00     0.130 C 
HETATM    6  C7  UNL     1     -32.906   9.992   0.517  1.00 20.00     0.091 C 
HETATM    7  O10 UNL     1     -31.120   8.414   0.596  1.00 20.00    -0.298 OA
ENDBRANCH   3   5
ENDBRANCH   2   3
BRANCH   1   8
HETATM    8  C1  UNL     1     -33.732   4.919   3.236  1.00 20.00    -0.005 C 
HETATM    9  C3  UNL     1     -34.457   4.427   4.251  1.00 20.00    -0.031 C 
HETATM   10  C6  UNL     1     -34.597   5.104   5.574  1.00 20.00     0.036 C 
ENDBRANCH   1   8
TORSDOF 3
ENDMDL
MODEL 4
REMARK VINA RESULT:      -5.4      2.492      5.162
REMARK  3 active torsions:
REMARK  status: ('A' for Active; 'I' for Inactive)
REMARK    1  A    between atoms: C1_1  and  C2_2 
REMARK    2  A    between atoms: C4_4  and  C9_9 
REMARK    3  A    between atoms: C5_5  and  C9_9 
ROOT
HETATM    1  C2  UNL     1     -32.865   6.868   3.026  1.00 20.00    -0.004 C 
HETATM    2  C4  UNL     1     -33.119   7.967   2.299  1.00 20.00    -0.015 C 
ENDROOT
BRANCH   2   3
HETATM    3  C9  UNL     1     -32.045   8.884   1.776  1.00 20.00     0.073 C 
HETATM    4  C8  UNL     1     -31.133   8.165   0.790  1.00 20.00     0.022 C 
BRANCH   3   5
HETATM    5  C5  UNL     1     -32.697  10.086   1.095  1.00 20.00     0.130 C 
HETATM    6  C7  UNL     1     -33.259   9.853  -0.285  1.00 20.00     0.091 C 
HETATM    7  O10 UNL     1     -32.739  11.203   1.611  1.00 20.00    -0.298 OA
ENDBRANCH   3   5
ENDBRANCH   2   3
BRANCH   1   8
HETATM    8  C1  UNL     1     -33.901   5.991   3.522  1.00 20.00    -0.005 C 
HETATM    9  C3  UNL     1     -34.382   6.059   4.773  1.00 20.00    -0.031 C 
HETATM   10  C6  UNL     1     -33.907   7.043   5.791  1.00 20.00     0.036 C 
ENDBRANCH   1   8
TORSDOF 3
ENDMDL
MODEL 5
REMARK VINA RESULT:      -5.0      1.313      1.868
REMARK  3 active torsions:
REMARK  status: ('A' for Active; 'I' for Inactive)
REMARK    1  A    between atoms: C1_1  and  C2_2 
REMARK    2  A    between atoms: C4_4  and  C9_9 
REMARK    3  A    between atoms: C5_5  and  C9_9 
ROOT
HETATM    1  C2  UNL     1     -33.146   6.551   2.529  1.00 20.00    -0.004 C 
HETATM    2  C4  UNL     1     -34.185   6.631   3.375  1.00 20.00    -0.015 C 
ENDROOT
BRANCH   2   3
HETATM    3  C9  UNL     1     -34.722   5.453   4.145  1.00 20.00     0.073 C 
HETATM    4  C8  UNL     1     -33.993   4.169   3.772  1.00 20.00     0.022 C 
BRANCH   3   5
HETATM    5  C5  UNL     1     -34.568   5.720   5.641  1.00 20.00     0.130 C 
HETATM    6  C7  UNL     1     -33.954   7.042   6.029  1.00 20.00     0.091 C 
HETATM    7  O10 UNL     1     -34.884   4.897   6.500  1.00 20.00    -0.298 OA
ENDBRANCH   3   5
ENDBRANCH   2   3
BRANCH   1   8
HETATM    8  C1  UNL     1     -32.635   7.686   1.795  1.00 20.00    -0.005 C 
HETATM    9  C3  UNL     1     -31.791   8.583   2.325  1.00 20.00    -0.031 C 
HETATM   10  C6  UNL     1     -31.284   8.515   3.728  1.00 20.00     0.036 C 
ENDBRANCH   1   8
TORSDOF 3
ENDMDL
MODEL 6
REMARK VINA RESULT:      -4.7     10.550     11.243
REMARK  3 active torsions:
REMARK  status: ('A' for Active; 'I' for Inactive)
REMARK    1  A    between atoms: C1_1  and  C2_2 
REMARK    2  A    between atoms: C4_4  and  C9_9 
REMARK    3  A    between atoms: C5_5  and  C9_9 
ROOT
HETATM    1  C2  UNL     1     -34.552  16.253  -2.565  1.00 20.00    -0.004 C 
HETATM    2  C4  UNL     1     -35.424  15.807  -3.483  1.00 20.00    -0.015 C 
ENDROOT
BRANCH   2   3
HETATM    3  C9  UNL     1     -35.021  15.006  -4.692  1.00 20.00     0.073 C 
HETATM    4  C8  UNL     1     -33.690  14.299  -4.470  1.00 20.00     0.022 C 
BRANCH   3   5
HETATM    5  C5  UNL     1     -36.108  13.976  -4.998  1.00 20.00     0.130 C 
HETATM    6  C7  UNL     1     -37.530  14.479  -4.995  1.00 20.00     0.091 C 
HETATM    7  O10 UNL     1     -35.861  12.787  -5.199  1.00 20.00    -0.298 OA
ENDBRANCH   3   5
ENDBRANCH   2   3
BRANCH   1   8
HETATM    8  C1  UNL     1     -34.946  17.020  -1.406  1.00 20.00    -0.005 C 
HETATM    9  C3  UNL     1     -34.121  17.864  -0.770  1.00 20.00    -0.031 C 
HETATM   10  C6  UNL     1     -32.707  18.109  -1.183  1.00 20.00     0.036 C 
ENDBRANCH   1   8
TORSDOF 3
ENDMDL
MODEL 7
REMARK VINA RESULT:      -4.6     10.695     11.539
REMARK  3 active torsions:
REMARK  status: ('A' for Active; 'I' for Inactive)
REMARK    1  A    between atoms: C1_1  and  C2_2 
REMARK    2  A    between atoms: C4_4  and  C9_9 
REMARK    3  A    between atoms: C5_5  and  C9_9 
ROOT
HETATM    1  C2  UNL     1     -34.896  15.598  -3.782  1.00 20.00    -0.004 C 
HETATM    2  C4  UNL     1     -34.753  14.362  -4.286  1.00 20.00    -0.015 C 
ENDROOT
BRANCH   2   3
HETATM    3  C9  UNL     1     -35.861  13.616  -4.981  1.00 20.00     0.073 C 
HETATM    4  C8  UNL     1     -37.163  14.406  -4.956  1.00 20.00     0.022 C 
BRANCH   3   5
HETATM    5  C5  UNL     1     -35.451  13.341  -6.427  1.00 20.00     0.130 C 
HETATM    6  C7  UNL     1     -35.590  14.489  -7.395  1.00 20.00     0.091 C 
HETATM    7  O10 UNL     1     -35.062  12.238  -6.811  1.00 20.00    -0.298 OA
ENDBRANCH   3   5
ENDBRANCH   2   3
BRANCH   1   8
HETATM    8  C1  UNL     1     -33.828  16.309  -3.117  1.00 20.00    -0.005 C 
HETATM    9  C3  UNL     1     -33.987  16.943  -1.946  1.00 20.00    -0.031 C 
HETATM   10  C6  UNL     1     -35.278  16.988  -1.197  1.00 20.00     0.036 C 
ENDBRANCH   1   8
TORSDOF 3
ENDMDL
MODEL 8
REMARK VINA RESULT:      -4.6      2.556      5.082
REMARK  3 active torsions:
REMARK  status: ('A' for Active; 'I' for Inactive)
REMARK    1  A    between atoms: C1_1  and  C2_2 
REMARK    2  A    between atoms: C4_4  and  C9_9 
REMARK    3  A    between atoms: C5_5  and  C9_9 
ROOT
HETATM    1  C2  UNL     1     -33.064   7.391   3.912  1.00 20.00    -0.004 C 
HETATM    2  C4  UNL     1     -32.484   8.479   3.380  1.00 20.00    -0.015 C 
ENDROOT
BRANCH   2   3
HETATM    3  C9  UNL     1     -31.933   8.525   1.979  1.00 20.00     0.073 C 
HETATM    4  C8  UNL     1     -32.234   7.237   1.222  1.00 20.00     0.022 C 
BRANCH   3   5
HETATM    5  C5  UNL     1     -32.543   9.714   1.239  1.00 20.00     0.130 C 
HETATM    6  C7  UNL     1     -33.010   9.460  -0.173  1.00 20.00     0.091 C 
HETATM    7  O10 UNL     1     -32.622  10.838   1.734  1.00 20.00    -0.298 OA
ENDBRANCH   3   5
ENDBRANCH   2   3
BRANCH   1   8
HETATM    8  C1  UNL     1     -33.592   7.355   5.256  1.00 20.00    -0.005 C 
HETATM    9  C3  UNL     1     -34.301   6.323   5.738  1.00 20.00    -0.031 C 
HETATM   10  C6  UNL     1     -34.625   5.099   4.946  1.00 20.00     0.036 C 
ENDBRANCH   1   8
TORSDOF 3
ENDMDL
MODEL 9
REMARK VINA RESULT:      -4.5      2.387      4.902
REMARK  3 active torsions:
REMARK  status: ('A' for Active; 'I' for Inactive)
REMARK    1  A    between atoms: C1_1  and  C2_2 
REMARK    2  A    between atoms: C4_4  and  C9_9 
REMARK    3  A    between atoms: C5_5  and  C9_9 
ROOT
HETATM    1  C2  UNL     1     -33.656   7.125   4.395  1.00 20.00    -0.004 C 
HETATM    2  C4  UNL     1     -33.369   7.705   3.218  1.00 20.00    -0.015 C 
ENDROOT
BRANCH   2   3
HETATM    3  C9  UNL     1     -32.226   8.666   3.023  1.00 20.00     0.073 C 
HETATM    4  C8  UNL     1     -30.915   8.078   3.529  1.00 20.00     0.022 C 
BRANCH   3   5
HETATM    5  C5  UNL     1     -32.103   9.003   1.538  1.00 20.00     0.130 C 
HETATM    6  C7  UNL     1     -32.965  10.132   1.030  1.00 20.00     0.091 C 
HETATM    7  O10 UNL     1     -31.374   8.375   0.771  1.00 20.00    -0.298 OA
ENDBRANCH   3   5
ENDBRANCH   2   3
BRANCH   1   8
HETATM    8  C1  UNL     1     -34.753   6.202   4.575  1.00 20.00    -0.005 C 
HETATM    9  C3  UNL     1     -34.702   4.918   4.191  1.00 20.00    -0.031 C 
HETATM   10  C6  UNL     1     -33.512   4.296   3.538  1.00 20.00     0.036 C 
ENDBRANCH   1   8
TORSDOF 3
ENDMDL
