MODEL 1
REMARK VINA RESULT:      -4.8      0.000      0.000
REMARK  1 active torsions:
REMARK  status: ('A' for Active; 'I' for Inactive)
REMARK    1  A    between atoms: C3_3  and  C7_7 
ROOT
HETATM    1  C1  UNL     1     -33.857   4.289   3.984  1.00 20.00    -0.023 C 
HETATM    2  C2  UNL     1     -34.388   4.572   5.185  1.00 20.00    -0.015 C 
HETATM    3  C4  UNL     1     -35.317   6.059   3.677  1.00 20.00     0.029 C 
HETATM    4  C5  UNL     1     -33.995   5.518   3.107  1.00 20.00     0.029 C 
HETATM    5  C6  UNL     1     -34.924   5.980   5.151  1.00 20.00     0.071 C 
HETATM    6  C7  UNL     1     -32.917   6.545   3.510  1.00 20.00     0.116 C 
HETATM    7  S9  UNL     1     -33.479   7.112   5.169  1.00 20.00    -0.148 SA
ENDROOT
BRANCH   6   8
HETATM    8  C3  UNL     1     -32.869   7.727   2.599  1.00 20.00     0.246 C 
HETATM    9  O8  UNL     1     -31.871   8.424   2.449  1.00 20.00    -0.306 OA
ENDBRANCH   6   8
TORSDOF 1
ENDMDL
MODEL 2
REMARK VINA RESULT:      -4.2     11.821     12.670
REMARK  1 active torsions:
REMARK  status: ('A' for Active; 'I' for Inactive)
REMARK    1  A    between atoms: C3_3  and  C7_7 
ROOT
HETATM    1  C1  UNL     1     -34.787  16.386  -2.446  1.00 20.00    -0.023 C 
HETATM    2  C2  UNL     1     -33.626  16.934  -2.843  1.00 20.00    -0.015 C 
HETATM    3  C4  UNL     1     -35.020  16.911  -4.688  1.00 20.00     0.029 C 
HETATM    4  C5  UNL     1     -35.503  15.861  -3.674  1.00 20.00     0.029 C 
HETATM    5  C6  UNL     1     -33.535  16.825  -4.343  1.00 20.00     0.071 C 
HETATM    6  C7  UNL     1     -34.851  14.533  -4.107  1.00 20.00     0.116 C 
HETATM    7  S9  UNL     1     -33.205  15.064  -4.740  1.00 20.00    -0.148 SA
ENDROOT
BRANCH   6   8
HETATM    8  C3  UNL     1     -35.586  13.856  -5.216  1.00 20.00     0.246 C 
HETATM    9  O8  UNL     1     -35.878  12.664  -5.205  1.00 20.00    -0.306 OA
ENDBRANCH   6   8
TORSDOF 1
ENDMDL
MODEL 3
REMARK VINA RESULT:      -3.9     11.890     12.885
REMARK  1 active torsions:
REMARK  status: ('A' for Active; 'I' for Inactive)
REMARK    1  A    between atoms: C3_3  and  C7_7 
ROOT
HETATM    1  C1  UNL     1     -33.344  15.943  -6.017  1.00 20.00    -0.023 C 
HETATM    2  C2  UNL     1     -33.249  16.727  -4.930  1.00 20.00    -0.015 C 
HETATM    3  C4  UNL     1     -33.528  14.561  -4.170  1.00 20.00     0.029 C 
HETATM    4  C5  UNL     1     -34.047  14.662  -5.614  1.00 20.00     0.029 C 
HETATM    5  C6  UNL     1     -33.854  15.995  -3.760  1.00 20.00     0.071 C 
HETATM    6  C7  UNL     1     -35.560  14.936  -5.495  1.00 20.00     0.116 C 
HETATM    7  S9  UNL     1     -35.674  16.002  -3.998  1.00 20.00    -0.148 SA
ENDROOT
BRANCH   6   8
HETATM    8  C3  UNL     1     -36.359  13.698  -5.254  1.00 20.00     0.246 C 
HETATM    9  O8  UNL     1     -35.884  12.568  -5.295  1.00 20.00    -0.306 OA
ENDBRANCH   6   8
TORSDOF 1
ENDMDL
MODEL 4
REMARK VINA RESULT:      -3.8     12.169     12.931
REMARK  1 active torsions:
REMARK  status: ('A' for Active; 'I' for Inactive)
REMARK    1  A    between atoms: C3_3  and  C7_7 
ROOT
HETATM    1  C1  UNL     1     -33.407  14.364  -4.487  1.00 20.00    -0.023 C 
HETATM    2  C2  UNL     1     -32.950  15.493  -5.054  1.00 20.00    -0.015 C 
HETATM    3  C4  UNL     1     -34.624  16.113  -3.585  1.00 20.00     0.029 C 
HETATM    4  C5  UNL     1     -34.802  14.632  -3.961  1.00 20.00     0.029 C 
HETATM    5  C6  UNL     1     -34.003  16.561  -4.906  1.00 20.00     0.071 C 
HETATM    6  C7  UNL     1     -35.795  14.619  -5.141  1.00 20.00     0.116 C 
HETATM    7  S9  UNL     1     -35.362  16.149  -6.069  1.00 20.00    -0.148 SA
ENDROOT
BRANCH   6   8
HETATM    8  C3  UNL     1     -37.219  14.718  -4.706  1.00 20.00     0.246 C 
HETATM    9  O8  UNL     1     -38.059  13.854  -4.937  1.00 20.00    -0.306 OA
ENDBRANCH   6   8
TORSDOF 1
ENDMDL
MODEL 5
REMARK VINA RESULT:      -3.7     12.258     13.483
REMARK  1 active torsions:
REMARK  status: ('A' for Active; 'I' for Inactive)
REMARK    1  A    between atoms: C3_3  and  C7_7 
ROOT
HETATM    1  C1  UNL     1     -34.726  17.190  -5.889  1.00 20.00    -0.023 C 
HETATM    2  C2  UNL     1     -33.518  17.035  -5.323  1.00 20.00    -0.015 C 
HETATM    3  C4  UNL     1     -33.846  15.213  -6.709  1.00 20.00     0.029 C 
HETATM    4  C5  UNL     1     -35.209  15.830  -6.350  1.00 20.00     0.029 C 
HETATM    5  C6  UNL     1     -33.134  15.580  -5.409  1.00 20.00     0.071 C 
HETATM    6  C7  UNL     1     -35.716  15.037  -5.129  1.00 20.00     0.116 C 
HETATM    7  S9  UNL     1     -34.171  14.674  -4.195  1.00 20.00    -0.148 SA
ENDROOT
BRANCH   6   8
HETATM    8  C3  UNL     1     -36.358  13.742  -5.500  1.00 20.00     0.246 C 
HETATM    9  O8  UNL     1     -35.867  12.647  -5.248  1.00 20.00    -0.306 OA
ENDBRANCH   6   8
TORSDOF 1
ENDMDL
MODEL 6
REMARK VINA RESULT:      -3.7     12.250     12.908
REMARK  1 active torsions:
REMARK  status: ('A' for Active; 'I' for Inactive)
REMARK    1  A    between atoms: C3_3  and  C7_7 
ROOT
HETATM    1  C1  UNL     1     -33.977  15.144  -3.753  1.00 20.00    -0.023 C 
HETATM    2  C2  UNL     1     -34.537  16.359  -3.879  1.00 20.00    -0.015 C 
HETATM    3  C4  UNL     1     -36.125  14.817  -4.550  1.00 20.00     0.029 C 
HETATM    4  C5  UNL     1     -34.727  14.184  -4.654  1.00 20.00     0.029 C 
HETATM    5  C6  UNL     1     -35.694  16.254  -4.839  1.00 20.00     0.071 C 
HETATM    6  C7  UNL     1     -34.277  14.407  -6.112  1.00 20.00     0.116 C 
HETATM    7  S9  UNL     1     -34.987  16.056  -6.521  1.00 20.00    -0.148 SA
ENDROOT
BRANCH   6   8
HETATM    8  C3  UNL     1     -34.844  13.401  -7.058  1.00 20.00     0.246 C 
HETATM    9  O8  UNL     1     -35.077  12.238  -6.748  1.00 20.00    -0.306 OA
ENDBRANCH   6   8
TORSDOF 1
ENDMDL
MODEL 7
REMARK VINA RESULT:      -3.5     12.007     12.747
REMARK  1 active torsions:
REMARK  status: ('A' for Active; 'I' for Inactive)
REMARK    1  A    between atoms: C3_3  and  C7_7 
ROOT
HETATM    1  C1  UNL     1     -34.986  14.187  -5.357  1.00 20.00    -0.023 C 
HETATM    2  C2  UNL     1     -34.230  14.750  -6.315  1.00 20.00    -0.015 C 
HETATM    3  C4  UNL     1     -32.956  14.723  -4.385  1.00 20.00     0.029 C 
HETATM    4  C5  UNL     1     -34.444  14.624  -4.011  1.00 20.00     0.029 C 
HETATM    5  C6  UNL     1     -33.143  15.556  -5.652  1.00 20.00     0.071 C 
HETATM    6  C7  UNL     1     -34.900  16.071  -3.732  1.00 20.00     0.116 C 
HETATM    7  S9  UNL     1     -33.932  17.057  -4.949  1.00 20.00    -0.148 SA
ENDROOT
BRANCH   6   8
HETATM    8  C3  UNL     1     -34.548  16.539  -2.359  1.00 20.00     0.246 C 
HETATM    9  O8  UNL     1     -35.369  16.668  -1.457  1.00 20.00    -0.306 OA
ENDBRANCH   6   8
TORSDOF 1
ENDMDL
MODEL 8
REMARK VINA RESULT:      -3.5     12.060     13.075
REMARK  1 active torsions:
REMARK  status: ('A' for Active; 'I' for Inactive)
REMARK    1  A    between atoms: C3_3  and  C7_7 
ROOT
HETATM    1  C1  UNL     1     -33.466  17.303  -1.909  1.00 20.00    -0.023 C 
HETATM    2  C2  UNL     1     -33.213  18.325  -2.744  1.00 20.00    -0.015 C 
HETATM    3  C4  UNL     1     -35.354  17.590  -3.215  1.00 20.00     0.029 C 
HETATM    4  C5  UNL     1     -34.575  16.466  -2.512  1.00 20.00     0.029 C 
HETATM    5  C6  UNL     1     -34.157  18.230  -3.915  1.00 20.00     0.071 C 
HETATM    6  C7  UNL     1     -33.990  15.595  -3.643  1.00 20.00     0.116 C 
HETATM    7  S9  UNL     1     -33.591  16.826  -4.954  1.00 20.00    -0.148 SA
ENDROOT
BRANCH   6   8
HETATM    8  C3  UNL     1     -34.973  14.619  -4.196  1.00 20.00     0.246 C 
HETATM    9  O8  UNL     1     -34.650  13.588  -4.778  1.00 20.00    -0.306 OA
ENDBRANCH   6   8
TORSDOF 1
ENDMDL
MODEL 9
REMARK VINA RESULT:      -3.4     12.298     13.090
REMARK  1 active torsions:
REMARK  status: ('A' for Active; 'I' for Inactive)
REMARK    1  A    between atoms: C3_3  and  C7_7 
ROOT
HETATM    1  C1  UNL     1     -34.023  16.555  -2.581  1.00 20.00    -0.023 C 
HETATM    2  C2  UNL     1     -35.364  16.633  -2.538  1.00 20.00    -0.015 C 
HETATM    3  C4  UNL     1     -34.842  14.780  -3.819  1.00 20.00     0.029 C 
HETATM    4  C5  UNL     1     -33.638  15.736  -3.796  1.00 20.00     0.029 C 
HETATM    5  C6  UNL     1     -35.925  15.850  -3.697  1.00 20.00     0.071 C 
HETATM    6  C7  UNL     1     -33.777  16.613  -5.057  1.00 20.00     0.116 C 
HETATM    7  S9  UNL     1     -35.600  16.826  -5.218  1.00 20.00    -0.148 SA
ENDROOT
BRANCH   6   8
HETATM    8  C3  UNL     1     -33.270  15.944  -6.291  1.00 20.00     0.246 C 
HETATM    9  O8  UNL     1     -33.969  15.717  -7.273  1.00 20.00    -0.306 OA
ENDBRANCH   6   8
TORSDOF 1
ENDMDL
