MODEL 1
REMARK VINA RESULT:      -4.5      0.000      0.000
REMARK  0 active torsions:
REMARK  status: ('A' for Active; 'I' for Inactive)
ROOT
HETATM    1  C1  UNL     1     -32.659   6.121   2.685  1.00 20.00    -0.014 C 
HETATM    2  C2  UNL     1     -33.591   5.249   3.105  1.00 20.00    -0.004 C 
HETATM    3  C3  UNL     1     -33.771   7.091   5.555  1.00 20.00     0.203 A 
HETATM    4  C4  UNL     1     -32.833   7.493   3.278  1.00 20.00     0.126 C 
HETATM    5  C5  UNL     1     -34.471   5.717   5.526  1.00 20.00     0.126 A 
HETATM    6  C6  UNL     1     -34.576   5.921   3.998  1.00 20.00     0.042 A 
HETATM    7  C7  UNL     1     -35.968   6.065   3.414  1.00 20.00     0.038 C 
HETATM    8  N8  UNL     1     -33.929   7.242   4.203  1.00 20.00    -0.237 NA
HETATM    9  O9  UNL     1     -33.187   7.747   6.387  1.00 20.00    -0.280 OA
ENDROOT
TORSDOF 0
ENDMDL
MODEL 2
REMARK VINA RESULT:      -4.2     11.974     12.880
REMARK  0 active torsions:
REMARK  status: ('A' for Active; 'I' for Inactive)
ROOT
HETATM    1  C1  UNL     1     -34.329  14.167  -7.602  1.00 20.00    -0.014 C 
HETATM    2  C2  UNL     1     -33.966  15.097  -6.702  1.00 20.00    -0.004 C 
HETATM    3  C3  UNL     1     -36.325  14.001  -5.072  1.00 20.00     0.203 A 
HETATM    4  C4  UNL     1     -35.063  13.009  -6.982  1.00 20.00     0.126 C 
HETATM    5  C5  UNL     1     -35.593  15.294  -4.661  1.00 20.00     0.126 A 
HETATM    6  C6  UNL     1     -34.345  14.673  -5.325  1.00 20.00     0.042 A 
HETATM    7  C7  UNL     1     -33.175  14.336  -4.420  1.00 20.00     0.038 C 
HETATM    8  N8  UNL     1     -35.179  13.477  -5.608  1.00 20.00    -0.237 NA
HETATM    9  O9  UNL     1     -37.473  13.616  -5.064  1.00 20.00    -0.280 OA
ENDROOT
TORSDOF 0
ENDMDL
MODEL 3
REMARK VINA RESULT:      -4.2     11.829     12.515
REMARK  0 active torsions:
REMARK  status: ('A' for Active; 'I' for Inactive)
ROOT
HETATM    1  C1  UNL     1     -33.168  15.867  -5.228  1.00 20.00    -0.014 C 
HETATM    2  C2  UNL     1     -34.259  16.587  -4.917  1.00 20.00    -0.004 C 
HETATM    3  C3  UNL     1     -35.641  13.851  -4.747  1.00 20.00     0.203 A 
HETATM    4  C4  UNL     1     -33.222  14.462  -4.691  1.00 20.00     0.126 C 
HETATM    5  C5  UNL     1     -36.447  15.165  -4.707  1.00 20.00     0.126 A 
HETATM    6  C6  UNL     1     -35.189  15.793  -4.067  1.00 20.00     0.042 A 
HETATM    7  C7  UNL     1     -35.310  16.279  -2.635  1.00 20.00     0.038 C 
HETATM    8  N8  UNL     1     -34.568  14.446  -4.137  1.00 20.00    -0.237 NA
HETATM    9  O9  UNL     1     -35.800  12.753  -5.230  1.00 20.00    -0.280 OA
ENDROOT
TORSDOF 0
ENDMDL
MODEL 4
REMARK VINA RESULT:      -4.1     11.890     12.616
REMARK  0 active torsions:
REMARK  status: ('A' for Active; 'I' for Inactive)
ROOT
HETATM    1  C1  UNL     1     -35.498  16.351  -2.665  1.00 20.00    -0.014 C 
HETATM    2  C2  UNL     1     -34.181  16.301  -2.931  1.00 20.00    -0.004 C 
HETATM    3  C3  UNL     1     -34.957  13.984  -4.790  1.00 20.00     0.203 A 
HETATM    4  C4  UNL     1     -36.341  15.798  -3.782  1.00 20.00     0.126 C 
HETATM    5  C5  UNL     1     -33.482  14.298  -4.464  1.00 20.00     0.126 A 
HETATM    6  C6  UNL     1     -33.941  15.763  -4.299  1.00 20.00     0.042 A 
HETATM    7  C7  UNL     1     -33.399  16.774  -5.292  1.00 20.00     0.038 C 
HETATM    8  N8  UNL     1     -35.303  15.304  -4.675  1.00 20.00    -0.237 NA
HETATM    9  O9  UNL     1     -35.611  12.979  -4.955  1.00 20.00    -0.280 OA
ENDROOT
TORSDOF 0
ENDMDL
MODEL 5
REMARK VINA RESULT:      -4.1     12.368     13.459
REMARK  0 active torsions:
REMARK  status: ('A' for Active; 'I' for Inactive)
ROOT
HETATM    1  C1  UNL     1     -33.307  14.984  -4.393  1.00 20.00    -0.014 C 
HETATM    2  C2  UNL     1     -33.074  15.625  -5.551  1.00 20.00    -0.004 C 
HETATM    3  C3  UNL     1     -34.852  13.437  -6.767  1.00 20.00     0.203 A 
HETATM    4  C4  UNL     1     -34.593  14.203  -4.406  1.00 20.00     0.126 C 
HETATM    5  C5  UNL     1     -34.049  14.410  -7.654  1.00 20.00     0.126 A 
HETATM    6  C6  UNL     1     -34.205  15.424  -6.500  1.00 20.00     0.042 A 
HETATM    7  C7  UNL     1     -35.029  16.667  -6.777  1.00 20.00     0.038 C 
HETATM    8  N8  UNL     1     -34.999  14.388  -5.792  1.00 20.00    -0.237 NA
HETATM    9  O9  UNL     1     -35.143  12.263  -6.813  1.00 20.00    -0.280 OA
ENDROOT
TORSDOF 0
ENDMDL
MODEL 6
REMARK VINA RESULT:      -4.1      1.463      2.064
REMARK  0 active torsions:
REMARK  status: ('A' for Active; 'I' for Inactive)
ROOT
HETATM    1  C1  UNL     1     -33.579   3.962   3.766  1.00 20.00    -0.014 C 
HETATM    2  C2  UNL     1     -34.440   4.616   4.564  1.00 20.00    -0.004 C 
HETATM    3  C3  UNL     1     -32.923   7.119   3.638  1.00 20.00     0.203 A 
HETATM    4  C4  UNL     1     -33.036   4.826   2.660  1.00 20.00     0.126 C 
HETATM    5  C5  UNL     1     -33.945   7.176   4.791  1.00 20.00     0.126 A 
HETATM    6  C6  UNL     1     -34.657   6.007   4.077  1.00 20.00     0.042 A 
HETATM    7  C7  UNL     1     -36.043   6.275   3.523  1.00 20.00     0.038 C 
HETATM    8  N8  UNL     1     -33.617   6.111   3.022  1.00 20.00    -0.237 NA
HETATM    9  O9  UNL     1     -31.857   7.640   3.400  1.00 20.00    -0.280 OA
ENDROOT
TORSDOF 0
ENDMDL
MODEL 7
REMARK VINA RESULT:      -4.0      1.750      2.871
REMARK  0 active torsions:
REMARK  status: ('A' for Active; 'I' for Inactive)
ROOT
HETATM    1  C1  UNL     1     -34.354   6.716   5.239  1.00 20.00    -0.014 C 
HETATM    2  C2  UNL     1     -34.760   5.890   4.260  1.00 20.00    -0.004 C 
HETATM    3  C3  UNL     1     -33.015   7.663   2.461  1.00 20.00     0.203 A 
HETATM    4  C4  UNL     1     -33.036   7.375   4.939  1.00 20.00     0.126 C 
HETATM    5  C5  UNL     1     -33.973   6.609   1.869  1.00 20.00     0.126 A 
HETATM    6  C6  UNL     1     -33.740   5.819   3.176  1.00 20.00     0.042 A 
HETATM    7  C7  UNL     1     -33.029   4.484   3.060  1.00 20.00     0.038 C 
HETATM    8  N8  UNL     1     -32.809   6.902   3.581  1.00 20.00    -0.237 NA
HETATM    9  O9  UNL     1     -32.664   8.781   2.157  1.00 20.00    -0.280 OA
ENDROOT
TORSDOF 0
ENDMDL
MODEL 8
REMARK VINA RESULT:      -4.0     12.151     12.746
REMARK  0 active torsions:
REMARK  status: ('A' for Active; 'I' for Inactive)
ROOT
HETATM    1  C1  UNL     1     -34.636  15.636  -3.395  1.00 20.00    -0.014 C 
HETATM    2  C2  UNL     1     -34.073  14.721  -4.202  1.00 20.00    -0.004 C 
HETATM    3  C3  UNL     1     -36.955  14.210  -5.127  1.00 20.00     0.203 A 
HETATM    4  C4  UNL     1     -35.950  16.149  -3.920  1.00 20.00     0.126 C 
HETATM    5  C5  UNL     1     -35.798  13.278  -5.540  1.00 20.00     0.126 A 
HETATM    6  C6  UNL     1     -34.894  14.525  -5.429  1.00 20.00     0.042 A 
HETATM    7  C7  UNL     1     -34.256  15.033  -6.708  1.00 20.00     0.038 C 
HETATM    8  N8  UNL     1     -36.118  15.293  -5.086  1.00 20.00    -0.237 NA
HETATM    9  O9  UNL     1     -38.117  14.064  -4.822  1.00 20.00    -0.280 OA
ENDROOT
TORSDOF 0
ENDMDL
MODEL 9
REMARK VINA RESULT:      -4.0      1.973      2.960
REMARK  0 active torsions:
REMARK  status: ('A' for Active; 'I' for Inactive)
ROOT
HETATM    1  C1  UNL     1     -33.319   7.384   5.562  1.00 20.00    -0.014 C 
HETATM    2  C2  UNL     1     -32.637   7.430   4.406  1.00 20.00    -0.004 C 
HETATM    3  C3  UNL     1     -34.021   4.749   3.837  1.00 20.00     0.203 A 
HETATM    4  C4  UNL     1     -34.571   6.554   5.470  1.00 20.00     0.126 C 
HETATM    5  C5  UNL     1     -32.880   5.274   2.942  1.00 20.00     0.126 A 
HETATM    6  C6  UNL     1     -33.362   6.687   3.337  1.00 20.00     0.042 A 
HETATM    7  C7  UNL     1     -33.932   7.557   2.234  1.00 20.00     0.038 C 
HETATM    8  N8  UNL     1     -34.435   6.024   4.121  1.00 20.00    -0.237 NA
HETATM    9  O9  UNL     1     -34.366   3.667   4.254  1.00 20.00    -0.280 OA
ENDROOT
TORSDOF 0
ENDMDL
