MODEL 1
REMARK VINA RESULT:      -5.9      0.000      0.000
REMARK  1 active torsions:
REMARK  status: ('A' for Active; 'I' for Inactive)
REMARK    1  A    between atoms: C9_9  and  N10_10 
ROOT
HETATM    1  C1  UNL     1     -34.589   4.999   5.626  1.00 20.00     0.072 A 
HETATM    2  C2  UNL     1     -34.458   4.366   4.456  1.00 20.00    -0.002 A 
HETATM    3  C5  UNL     1     -34.149   6.391   5.413  1.00 20.00     0.243 A 
HETATM    4  C8  UNL     1     -33.933   5.242   3.372  1.00 20.00     0.154 A 
HETATM    5  N10 UNL     1     -33.774   6.488   4.080  1.00 20.00    -0.340 N 
HETATM    6  O11 UNL     1     -34.140   7.243   6.284  1.00 20.00    -0.268 OA
ENDROOT
BRANCH   5   7
HETATM    7  C9  UNL     1     -33.282   7.695   3.474  1.00 20.00     0.094 C 
HETATM    8  C6  UNL     1     -31.866   8.054   3.940  1.00 20.00     0.052 C 
HETATM    9  C3  UNL     1     -31.255   8.640   2.712  1.00 20.00    -0.029 C 
HETATM   10  C4  UNL     1     -31.989   8.392   1.623  1.00 20.00    -0.029 C 
HETATM   11  C7  UNL     1     -33.211   7.600   1.946  1.00 20.00     0.052 C 
ENDBRANCH   5   7
TORSDOF 1
ENDMDL
MODEL 2
REMARK VINA RESULT:      -5.4      1.438      2.184
REMARK  1 active torsions:
REMARK  status: ('A' for Active; 'I' for Inactive)
REMARK    1  A    between atoms: C9_9  and  N10_10 
ROOT
HETATM    1  C1  UNL     1     -34.677   5.102   5.308  1.00 20.00     0.072 A 
HETATM    2  C2  UNL     1     -34.537   6.249   5.979  1.00 20.00    -0.002 A 
HETATM    3  C5  UNL     1     -33.917   5.244   4.051  1.00 20.00     0.243 A 
HETATM    4  C8  UNL     1     -33.696   7.248   5.263  1.00 20.00     0.154 A 
HETATM    5  N10 UNL     1     -33.360   6.515   4.068  1.00 20.00    -0.340 N 
HETATM    6  O11 UNL     1     -33.835   4.373   3.202  1.00 20.00    -0.268 OA
ENDROOT
BRANCH   5   7
HETATM    7  C9  UNL     1     -32.540   7.042   3.011  1.00 20.00     0.094 C 
HETATM    8  C6  UNL     1     -33.366   7.649   1.871  1.00 20.00     0.052 C 
HETATM    9  C3  UNL     1     -32.529   8.806   1.438  1.00 20.00    -0.029 C 
HETATM   10  C4  UNL     1     -31.567   9.083   2.323  1.00 20.00    -0.029 C 
HETATM   11  C7  UNL     1     -31.604   8.156   3.492  1.00 20.00     0.052 C 
ENDBRANCH   5   7
TORSDOF 1
ENDMDL
MODEL 3
REMARK VINA RESULT:      -4.9     11.675     12.506
REMARK  1 active torsions:
REMARK  status: ('A' for Active; 'I' for Inactive)
REMARK    1  A    between atoms: C9_9  and  N10_10 
ROOT
HETATM    1  C1  UNL     1     -34.882  13.641  -7.269  1.00 20.00     0.072 A 
HETATM    2  C2  UNL     1     -34.093  14.703  -7.459  1.00 20.00    -0.002 A 
HETATM    3  C5  UNL     1     -35.222  13.610  -5.834  1.00 20.00     0.243 A 
HETATM    4  C8  UNL     1     -33.832  15.469  -6.210  1.00 20.00     0.154 A 
HETATM    5  N10 UNL     1     -34.586  14.698  -5.253  1.00 20.00    -0.340 N 
HETATM    6  O11 UNL     1     -35.931  12.762  -5.320  1.00 20.00    -0.268 OA
ENDROOT
BRANCH   5   7
HETATM    7  C9  UNL     1     -34.669  15.020  -3.855  1.00 20.00     0.094 C 
HETATM    8  C6  UNL     1     -33.534  15.940  -3.392  1.00 20.00     0.052 C 
HETATM    9  C3  UNL     1     -34.204  16.805  -2.378  1.00 20.00    -0.029 C 
HETATM   10  C4  UNL     1     -35.535  16.697  -2.433  1.00 20.00    -0.029 C 
HETATM   11  C7  UNL     1     -35.971  15.743  -3.494  1.00 20.00     0.052 C 
ENDBRANCH   5   7
TORSDOF 1
ENDMDL
MODEL 4
REMARK VINA RESULT:      -4.9      1.706      4.436
REMARK  1 active torsions:
REMARK  status: ('A' for Active; 'I' for Inactive)
REMARK    1  A    between atoms: C9_9  and  N10_10 
ROOT
HETATM    1  C1  UNL     1     -31.783   8.700   2.072  1.00 20.00     0.072 A 
HETATM    2  C2  UNL     1     -31.306   8.738   3.320  1.00 20.00    -0.002 A 
HETATM    3  C5  UNL     1     -32.961   7.811   2.089  1.00 20.00     0.243 A 
HETATM    4  C8  UNL     1     -32.091   7.904   4.272  1.00 20.00     0.154 A 
HETATM    5  N10 UNL     1     -33.103   7.369   3.397  1.00 20.00    -0.340 N 
HETATM    6  O11 UNL     1     -33.635   7.556   1.107  1.00 20.00    -0.268 OA
ENDROOT
BRANCH   5   7
HETATM    7  C9  UNL     1     -34.144   6.476   3.829  1.00 20.00     0.094 C 
HETATM    8  C6  UNL     1     -33.902   5.029   3.384  1.00 20.00     0.052 C 
HETATM    9  C3  UNL     1     -34.431   4.239   4.534  1.00 20.00    -0.029 C 
HETATM   10  C4  UNL     1     -34.639   5.004   5.610  1.00 20.00    -0.029 C 
HETATM   11  C7  UNL     1     -34.284   6.430   5.354  1.00 20.00     0.052 C 
ENDBRANCH   5   7
TORSDOF 1
ENDMDL
MODEL 5
REMARK VINA RESULT:      -4.8      1.218      1.560
REMARK  1 active torsions:
REMARK  status: ('A' for Active; 'I' for Inactive)
REMARK    1  A    between atoms: C9_9  and  N10_10 
ROOT
HETATM    1  C1  UNL     1     -34.381   5.936   4.921  1.00 20.00     0.072 A 
HETATM    2  C2  UNL     1     -34.523   5.390   3.710  1.00 20.00    -0.002 A 
HETATM    3  C5  UNL     1     -33.562   7.151   4.750  1.00 20.00     0.243 A 
HETATM    4  C8  UNL     1     -33.836   6.158   2.636  1.00 20.00     0.154 A 
HETATM    5  N10 UNL     1     -33.266   7.242   3.397  1.00 20.00    -0.340 N 
HETATM    6  O11 UNL     1     -33.241   7.891   5.664  1.00 20.00    -0.268 OA
ENDROOT
BRANCH   5   7
HETATM    7  C9  UNL     1     -32.478   8.297   2.820  1.00 20.00     0.094 C 
HETATM    8  C6  UNL     1     -31.678   7.835   1.598  1.00 20.00     0.052 C 
HETATM    9  C3  UNL     1     -31.709   9.035   0.711  1.00 20.00    -0.029 C 
HETATM   10  C4  UNL     1     -32.613   9.930   1.118  1.00 20.00    -0.029 C 
HETATM   11  C7  UNL     1     -33.334   9.476   2.343  1.00 20.00     0.052 C 
ENDBRANCH   5   7
TORSDOF 1
ENDMDL
MODEL 6
REMARK VINA RESULT:      -4.8      1.553      4.148
REMARK  1 active torsions:
REMARK  status: ('A' for Active; 'I' for Inactive)
REMARK    1  A    between atoms: C9_9  and  N10_10 
ROOT
HETATM    1  C1  UNL     1     -31.847   9.160   1.829  1.00 20.00     0.072 A 
HETATM    2  C2  UNL     1     -32.900   8.732   1.125  1.00 20.00    -0.002 A 
HETATM    3  C5  UNL     1     -31.764   8.313   3.034  1.00 20.00     0.243 A 
HETATM    4  C8  UNL     1     -33.607   7.589   1.766  1.00 20.00     0.154 A 
HETATM    5  N10 UNL     1     -32.813   7.408   2.955  1.00 20.00    -0.340 N 
HETATM    6  O11 UNL     1     -30.911   8.438   3.896  1.00 20.00    -0.268 OA
ENDROOT
BRANCH   5   7
HETATM    7  C9  UNL     1     -33.077   6.403   3.948  1.00 20.00     0.094 C 
HETATM    8  C6  UNL     1     -33.868   6.949   5.143  1.00 20.00     0.052 C 
HETATM    9  C3  UNL     1     -34.744   5.798   5.510  1.00 20.00    -0.029 C 
HETATM   10  C4  UNL     1     -34.762   4.862   4.557  1.00 20.00    -0.029 C 
HETATM   11  C7  UNL     1     -33.900   5.233   3.397  1.00 20.00     0.052 C 
ENDBRANCH   5   7
TORSDOF 1
ENDMDL
MODEL 7
REMARK VINA RESULT:      -4.7     11.824     12.669
REMARK  1 active torsions:
REMARK  status: ('A' for Active; 'I' for Inactive)
REMARK    1  A    between atoms: C9_9  and  N10_10 
ROOT
HETATM    1  C1  UNL     1     -36.325  14.104  -7.086  1.00 20.00     0.072 A 
HETATM    2  C2  UNL     1     -36.190  15.417  -7.292  1.00 20.00    -0.002 A 
HETATM    3  C5  UNL     1     -35.875  13.838  -5.706  1.00 20.00     0.243 A 
HETATM    4  C8  UNL     1     -35.653  16.144  -6.109  1.00 20.00     0.154 A 
HETATM    5  N10 UNL     1     -35.491  15.060  -5.173  1.00 20.00    -0.340 N 
HETATM    6  O11 UNL     1     -35.867  12.732  -5.193  1.00 20.00    -0.268 OA
ENDROOT
BRANCH   5   7
HETATM    7  C9  UNL     1     -34.988  15.226  -3.836  1.00 20.00     0.094 C 
HETATM    8  C6  UNL     1     -33.591  15.858  -3.807  1.00 20.00     0.052 C 
HETATM    9  C3  UNL     1     -33.642  16.709  -2.581  1.00 20.00    -0.029 C 
HETATM   10  C4  UNL     1     -34.890  16.859  -2.131  1.00 20.00    -0.029 C 
HETATM   11  C7  UNL     1     -35.879  16.133  -2.980  1.00 20.00     0.052 C 
ENDBRANCH   5   7
TORSDOF 1
ENDMDL
MODEL 8
REMARK VINA RESULT:      -4.5     11.862     12.877
REMARK  1 active torsions:
REMARK  status: ('A' for Active; 'I' for Inactive)
REMARK    1  A    between atoms: C9_9  and  N10_10 
ROOT
HETATM    1  C1  UNL     1     -33.675  15.514  -6.679  1.00 20.00     0.072 A 
HETATM    2  C2  UNL     1     -33.736  16.848  -6.622  1.00 20.00    -0.002 A 
HETATM    3  C5  UNL     1     -33.786  15.019  -5.293  1.00 20.00     0.243 A 
HETATM    4  C8  UNL     1     -33.889  17.368  -5.235  1.00 20.00     0.154 A 
HETATM    5  N10 UNL     1     -33.909  16.139  -4.482  1.00 20.00    -0.340 N 
HETATM    6  O11 UNL     1     -33.765  13.840  -4.988  1.00 20.00    -0.268 OA
ENDROOT
BRANCH   5   7
HETATM    7  C9  UNL     1     -34.042  16.078  -3.052  1.00 20.00     0.094 C 
HETATM    8  C6  UNL     1     -33.276  17.200  -2.341  1.00 20.00     0.052 C 
HETATM    9  C3  UNL     1     -34.162  17.520  -1.184  1.00 20.00    -0.029 C 
HETATM   10  C4  UNL     1     -35.375  16.976  -1.320  1.00 20.00    -0.029 C 
HETATM   11  C7  UNL     1     -35.498  16.203  -2.590  1.00 20.00     0.052 C 
ENDBRANCH   5   7
TORSDOF 1
ENDMDL
MODEL 9
REMARK VINA RESULT:      -4.5     11.622     12.148
REMARK  1 active torsions:
REMARK  status: ('A' for Active; 'I' for Inactive)
REMARK    1  A    between atoms: C9_9  and  N10_10 
ROOT
HETATM    1  C1  UNL     1     -36.819  14.094  -5.185  1.00 20.00     0.072 A 
HETATM    2  C2  UNL     1     -35.641  13.507  -4.953  1.00 20.00    -0.002 A 
HETATM    3  C5  UNL     1     -36.767  15.426  -4.553  1.00 20.00     0.243 A 
HETATM    4  C8  UNL     1     -34.708  14.359  -4.165  1.00 20.00     0.154 A 
HETATM    5  N10 UNL     1     -35.514  15.537  -3.968  1.00 20.00    -0.340 N 
HETATM    6  O11 UNL     1     -37.686  16.227  -4.575  1.00 20.00    -0.268 OA
ENDROOT
BRANCH   5   7
HETATM    7  C9  UNL     1     -35.070  16.698  -3.246  1.00 20.00     0.094 C 
HETATM    8  C6  UNL     1     -35.561  16.713  -1.794  1.00 20.00     0.052 C 
HETATM    9  C3  UNL     1     -34.414  17.332  -1.065  1.00 20.00    -0.029 C 
HETATM   10  C4  UNL     1     -33.312  17.378  -1.820  1.00 20.00    -0.029 C 
HETATM   11  C7  UNL     1     -33.542  16.799  -3.175  1.00 20.00     0.052 C 
ENDBRANCH   5   7
TORSDOF 1
ENDMDL
