MODEL 1
REMARK VINA RESULT:      -5.0      0.000      0.000
REMARK  1 active torsions:
REMARK  status: ('A' for Active; 'I' for Inactive)
REMARK    1  A    between atoms: C3_3  and  C6_6 
ROOT
HETATM    1  C1  UNL     1     -35.426   5.915   3.362  1.00 20.00    -0.022 C 
HETATM    2  C2  UNL     1     -35.197   5.419   4.587  1.00 20.00    -0.022 C 
HETATM    3  C4  UNL     1     -34.079   6.219   2.743  1.00 20.00     0.053 C 
HETATM    4  C5  UNL     1     -33.698   5.386   4.788  1.00 20.00     0.047 C 
HETATM    5  C6  UNL     1     -33.502   7.441   3.503  1.00 20.00     0.062 C 
HETATM    6  C7  UNL     1     -33.144   6.834   4.904  1.00 20.00     0.003 C 
HETATM    7  C8  UNL     1     -33.275   5.066   3.353  1.00 20.00     0.186 C 
HETATM    8  C9  UNL     1     -33.711   7.639   6.067  1.00 20.00     0.011 C 
HETATM    9  F11 UNL     1     -33.714   3.858   2.942  1.00 20.00    -0.248 F 
ENDROOT
BRANCH   5  10
HETATM   10  C3  UNL     1     -32.295   7.980   2.798  1.00 20.00     0.236 C 
HETATM   11  O10 UNL     1     -31.270   8.321   3.379  1.00 20.00    -0.306 OA
ENDBRANCH   5  10
TORSDOF 1
ENDMDL
MODEL 2
REMARK VINA RESULT:      -4.6     12.041     13.251
REMARK  1 active torsions:
REMARK  status: ('A' for Active; 'I' for Inactive)
REMARK    1  A    between atoms: C3_3  and  C6_6 
ROOT
HETATM    1  C1  UNL     1     -34.775  17.201  -5.055  1.00 20.00    -0.022 C 
HETATM    2  C2  UNL     1     -33.541  16.963  -5.524  1.00 20.00    -0.022 C 
HETATM    3  C4  UNL     1     -35.300  15.898  -4.495  1.00 20.00     0.053 C 
HETATM    4  C5  UNL     1     -33.237  15.502  -5.276  1.00 20.00     0.047 C 
HETATM    5  C6  UNL     1     -35.570  14.967  -5.704  1.00 20.00     0.062 C 
HETATM    6  C7  UNL     1     -34.122  14.611  -6.191  1.00 20.00     0.003 C 
HETATM    7  C8  UNL     1     -33.985  15.328  -3.952  1.00 20.00     0.186 C 
HETATM    8  C9  UNL     1     -33.921  14.837  -7.684  1.00 20.00     0.011 C 
HETATM    9  F11 UNL     1     -33.466  16.085  -2.962  1.00 20.00    -0.248 F 
ENDROOT
BRANCH   5  10
HETATM   10  C3  UNL     1     -36.334  13.751  -5.276  1.00 20.00     0.236 C 
HETATM   11  O10 UNL     1     -35.847  12.626  -5.239  1.00 20.00    -0.306 OA
ENDBRANCH   5  10
TORSDOF 1
ENDMDL
MODEL 3
REMARK VINA RESULT:      -4.6     11.654     12.889
REMARK  1 active torsions:
REMARK  status: ('A' for Active; 'I' for Inactive)
REMARK    1  A    between atoms: C3_3  and  C6_6 
ROOT
HETATM    1  C1  UNL     1     -34.185  15.944  -3.325  1.00 20.00    -0.022 C 
HETATM    2  C2  UNL     1     -33.437  16.662  -4.176  1.00 20.00    -0.022 C 
HETATM    3  C4  UNL     1     -34.534  14.647  -4.019  1.00 20.00     0.053 C 
HETATM    4  C5  UNL     1     -33.281  15.845  -5.439  1.00 20.00     0.047 C 
HETATM    5  C6  UNL     1     -35.541  14.997  -5.144  1.00 20.00     0.062 C 
HETATM    6  C7  UNL     1     -34.642  15.751  -6.184  1.00 20.00     0.003 C 
HETATM    7  C8  UNL     1     -33.238  14.450  -4.813  1.00 20.00     0.186 C 
HETATM    8  C9  UNL     1     -35.223  17.092  -6.616  1.00 20.00     0.011 C 
HETATM    9  F11 UNL     1     -32.165  14.275  -4.012  1.00 20.00    -0.248 F 
ENDROOT
BRANCH   5  10
HETATM   10  C3  UNL     1     -36.145  13.753  -5.721  1.00 20.00     0.236 C 
HETATM   11  O10 UNL     1     -35.965  12.635  -5.250  1.00 20.00    -0.306 OA
ENDBRANCH   5  10
TORSDOF 1
ENDMDL
MODEL 4
REMARK VINA RESULT:      -4.4     12.096     13.050
REMARK  1 active torsions:
REMARK  status: ('A' for Active; 'I' for Inactive)
REMARK    1  A    between atoms: C3_3  and  C6_6 
ROOT
HETATM    1  C1  UNL     1     -34.127  16.904  -5.348  1.00 20.00    -0.022 C 
HETATM    2  C2  UNL     1     -33.214  15.931  -5.487  1.00 20.00    -0.022 C 
HETATM    3  C4  UNL     1     -35.235  16.356  -4.475  1.00 20.00     0.053 C 
HETATM    4  C5  UNL     1     -33.707  14.734  -4.705  1.00 20.00     0.047 C 
HETATM    5  C6  UNL     1     -35.990  15.299  -5.320  1.00 20.00     0.062 C 
HETATM    6  C7  UNL     1     -34.956  14.123  -5.398  1.00 20.00     0.003 C 
HETATM    7  C8  UNL     1     -34.391  15.471  -3.552  1.00 20.00     0.186 C 
HETATM    8  C9  UNL     1     -34.717  13.630  -6.820  1.00 20.00     0.011 C 
HETATM    9  F11 UNL     1     -33.521  16.186  -2.807  1.00 20.00    -0.248 F 
ENDROOT
BRANCH   5  10
HETATM   10  C3  UNL     1     -37.260  14.888  -4.640  1.00 20.00     0.236 C 
HETATM   11  O10 UNL     1     -37.898  13.886  -4.948  1.00 20.00    -0.306 OA
ENDBRANCH   5  10
TORSDOF 1
ENDMDL
MODEL 5
REMARK VINA RESULT:      -4.3     11.915     12.875
REMARK  1 active torsions:
REMARK  status: ('A' for Active; 'I' for Inactive)
REMARK    1  A    between atoms: C3_3  and  C6_6 
ROOT
HETATM    1  C1  UNL     1     -35.043  17.372  -5.001  1.00 20.00    -0.022 C 
HETATM    2  C2  UNL     1     -34.249  17.227  -3.930  1.00 20.00    -0.022 C 
HETATM    3  C4  UNL     1     -36.037  16.232  -4.980  1.00 20.00     0.053 C 
HETATM    4  C5  UNL     1     -34.714  15.993  -3.188  1.00 20.00     0.047 C 
HETATM    5  C6  UNL     1     -35.247  14.941  -5.314  1.00 20.00     0.062 C 
HETATM    6  C7  UNL     1     -34.392  14.719  -4.018  1.00 20.00     0.003 C 
HETATM    7  C8  UNL     1     -36.214  16.104  -3.463  1.00 20.00     0.186 C 
HETATM    8  C9  UNL     1     -32.911  14.507  -4.308  1.00 20.00     0.011 C 
HETATM    9  F11 UNL     1     -36.761  17.209  -2.913  1.00 20.00    -0.248 F 
ENDROOT
BRANCH   5  10
HETATM   10  C3  UNL     1     -36.183  13.800  -5.573  1.00 20.00     0.236 C 
HETATM   11  O10 UNL     1     -35.945  12.644  -5.241  1.00 20.00    -0.306 OA
ENDBRANCH   5  10
TORSDOF 1
ENDMDL
MODEL 6
REMARK VINA RESULT:      -4.3     12.196     12.943
REMARK  1 active torsions:
REMARK  status: ('A' for Active; 'I' for Inactive)
REMARK    1  A    between atoms: C3_3  and  C6_6 
ROOT
HETATM    1  C1  UNL     1     -33.255  14.482  -4.458  1.00 20.00    -0.022 C 
HETATM    2  C2  UNL     1     -33.234  15.796  -4.192  1.00 20.00    -0.022 C 
HETATM    3  C4  UNL     1     -34.405  14.235  -5.409  1.00 20.00     0.053 C 
HETATM    4  C5  UNL     1     -34.367  16.431  -4.967  1.00 20.00     0.047 C 
HETATM    5  C6  UNL     1     -35.709  14.438  -4.597  1.00 20.00     0.062 C 
HETATM    6  C7  UNL     1     -35.733  15.989  -4.372  1.00 20.00     0.003 C 
HETATM    7  C8  UNL     1     -34.332  15.539  -6.210  1.00 20.00     0.186 C 
HETATM    8  C9  UNL     1     -35.946  16.379  -2.914  1.00 20.00     0.011 C 
HETATM    9  F11 UNL     1     -33.176  15.657  -6.898  1.00 20.00    -0.248 F 
ENDROOT
BRANCH   5  10
HETATM   10  C3  UNL     1     -36.897  13.964  -5.377  1.00 20.00     0.236 C 
HETATM   11  O10 UNL     1     -38.034  13.926  -4.919  1.00 20.00    -0.306 OA
ENDBRANCH   5  10
TORSDOF 1
ENDMDL
MODEL 7
REMARK VINA RESULT:      -4.0     12.174     13.096
REMARK  1 active torsions:
REMARK  status: ('A' for Active; 'I' for Inactive)
REMARK    1  A    between atoms: C3_3  and  C6_6 
ROOT
HETATM    1  C1  UNL     1     -35.552  16.331  -5.109  1.00 20.00    -0.022 C 
HETATM    2  C2  UNL     1     -35.409  15.351  -4.204  1.00 20.00    -0.022 C 
HETATM    3  C4  UNL     1     -34.300  17.179  -5.052  1.00 20.00     0.053 C 
HETATM    4  C5  UNL     1     -34.062  15.540  -3.543  1.00 20.00     0.047 C 
HETATM    5  C6  UNL     1     -34.342  17.949  -3.707  1.00 20.00     0.062 C 
HETATM    6  C7  UNL     1     -34.078  16.816  -2.656  1.00 20.00     0.003 C 
HETATM    7  C8  UNL     1     -33.282  16.075  -4.745  1.00 20.00     0.186 C 
HETATM    8  C9  UNL     1     -35.104  16.794  -1.530  1.00 20.00     0.011 C 
HETATM    9  F11 UNL     1     -33.187  15.171  -5.743  1.00 20.00    -0.248 F 
ENDROOT
BRANCH   5  10
HETATM   10  C3  UNL     1     -33.284  19.009  -3.671  1.00 20.00     0.236 C 
HETATM   11  O10 UNL     1     -32.588  19.235  -2.687  1.00 20.00    -0.306 OA
ENDBRANCH   5  10
TORSDOF 1
ENDMDL
MODEL 8
REMARK VINA RESULT:      -4.0     11.891     13.046
REMARK  1 active torsions:
REMARK  status: ('A' for Active; 'I' for Inactive)
REMARK    1  A    between atoms: C3_3  and  C6_6 
ROOT
HETATM    1  C1  UNL     1     -32.980  15.565  -5.202  1.00 20.00    -0.022 C 
HETATM    2  C2  UNL     1     -33.232  14.444  -4.510  1.00 20.00    -0.022 C 
HETATM    3  C4  UNL     1     -34.109  16.531  -4.917  1.00 20.00     0.053 C 
HETATM    4  C5  UNL     1     -34.527  14.659  -3.758  1.00 20.00     0.047 C 
HETATM    5  C6  UNL     1     -35.369  15.970  -5.625  1.00 20.00     0.062 C 
HETATM    6  C7  UNL     1     -35.719  14.713  -4.755  1.00 20.00     0.003 C 
HETATM    7  C8  UNL     1     -34.379  16.152  -3.457  1.00 20.00     0.186 C 
HETATM    8  C9  UNL     1     -35.913  13.448  -5.581  1.00 20.00     0.011 C 
HETATM    9  F11 UNL     1     -33.327  16.415  -2.653  1.00 20.00    -0.248 F 
ENDROOT
BRANCH   5  10
HETATM   10  C3  UNL     1     -36.473  16.982  -5.622  1.00 20.00     0.236 C 
HETATM   11  O10 UNL     1     -37.536  16.819  -5.033  1.00 20.00    -0.306 OA
ENDBRANCH   5  10
TORSDOF 1
ENDMDL
MODEL 9
REMARK VINA RESULT:      -4.0     11.325     12.443
REMARK  1 active torsions:
REMARK  status: ('A' for Active; 'I' for Inactive)
REMARK    1  A    between atoms: C3_3  and  C6_6 
ROOT
HETATM    1  C1  UNL     1     -33.292  15.929  -5.552  1.00 20.00    -0.022 C 
HETATM    2  C2  UNL     1     -34.002  14.930  -6.097  1.00 20.00    -0.022 C 
HETATM    3  C4  UNL     1     -33.505  15.864  -4.056  1.00 20.00     0.053 C 
HETATM    4  C5  UNL     1     -34.687  14.194  -4.968  1.00 20.00     0.047 C 
HETATM    5  C6  UNL     1     -34.968  16.304  -3.792  1.00 20.00     0.062 C 
HETATM    6  C7  UNL     1     -35.793  15.089  -4.342  1.00 20.00     0.003 C 
HETATM    7  C8  UNL     1     -33.604  14.344  -3.898  1.00 20.00     0.186 C 
HETATM    8  C9  UNL     1     -36.896  15.504  -5.308  1.00 20.00     0.011 C 
HETATM    9  F11 UNL     1     -32.456  13.715  -4.232  1.00 20.00    -0.248 F 
ENDROOT
BRANCH   5  10
HETATM   10  C3  UNL     1     -35.198  16.524  -2.328  1.00 20.00     0.236 C 
HETATM   11  O10 UNL     1     -34.318  16.881  -1.552  1.00 20.00    -0.306 OA
ENDBRANCH   5  10
TORSDOF 1
ENDMDL
