MODEL 1
REMARK VINA RESULT:      -6.4      0.000      0.000
REMARK  2 active torsions:
REMARK  status: ('A' for Active; 'I' for Inactive)
REMARK    1  A    between atoms: C1_1  and  C4_4 
REMARK    2  A    between atoms: C2_2  and  N10_10 
ROOT
HETATM    1  C5  UNL     1     -34.813   5.011   5.325  1.00 20.00     0.003 C 
HETATM    2  C6  UNL     1     -34.073   4.437   4.120  1.00 20.00     0.029 C 
HETATM    3  C7  UNL     1     -34.098   6.237   5.883  1.00 20.00     0.029 C 
HETATM    4  C8  UNL     1     -33.833   5.494   3.051  1.00 20.00     0.251 C 
HETATM    5  C9  UNL     1     -33.858   7.288   4.807  1.00 20.00     0.251 C 
HETATM    6  N10 UNL     1     -33.105   6.661   3.662  1.00 20.00    -0.006 N 
HETATM    7  H24 UNL     1     -32.203   6.320   4.024  1.00 20.00     0.297 HD
ENDROOT
BRANCH   6   8
HETATM    8  C2  UNL     1     -32.768   7.668   2.638  1.00 20.00     0.118 C 
HETATM    9  C1  UNL     1     -32.492   8.487   1.805  1.00 20.00    -0.049 C 
BRANCH   9  10
HETATM   10  C4  UNL     1     -32.171   9.454   0.816  1.00 20.00     0.056 C 
HETATM   11  C3  UNL     1     -32.924   9.626  -0.274  1.00 20.00     0.021 C 
ENDBRANCH   9  10
ENDBRANCH   6   8
TORSDOF 2
ENDMDL
MODEL 2
REMARK VINA RESULT:      -4.1     11.188     12.174
REMARK  2 active torsions:
REMARK  status: ('A' for Active; 'I' for Inactive)
REMARK    1  A    between atoms: C1_1  and  C4_4 
REMARK    2  A    between atoms: C2_2  and  N10_10 
ROOT
HETATM    1  C5  UNL     1     -34.488  13.543  -7.125  1.00 20.00     0.003 C 
HETATM    2  C6  UNL     1     -35.657  13.474  -6.145  1.00 20.00     0.029 C 
HETATM    3  C7  UNL     1     -33.943  14.963  -7.240  1.00 20.00     0.029 C 
HETATM    4  C8  UNL     1     -35.288  14.056  -4.787  1.00 20.00     0.251 C 
HETATM    5  C9  UNL     1     -33.580  15.539  -5.878  1.00 20.00     0.251 C 
HETATM    6  N10 UNL     1     -34.781  15.462  -4.972  1.00 20.00    -0.006 N 
HETATM    7  H24 UNL     1     -35.536  16.020  -5.396  1.00 20.00     0.297 HD
ENDROOT
BRANCH   6   8
HETATM    8  C2  UNL     1     -34.502  16.097  -3.670  1.00 20.00     0.118 C 
HETATM    9  C1  UNL     1     -34.275  16.616  -2.611  1.00 20.00    -0.049 C 
BRANCH   9  10
HETATM   10  C4  UNL     1     -34.011  17.225  -1.356  1.00 20.00     0.056 C 
HETATM   11  C3  UNL     1     -32.951  18.015  -1.164  1.00 20.00     0.021 C 
ENDBRANCH   9  10
ENDBRANCH   6   8
TORSDOF 2
ENDMDL
MODEL 3
REMARK VINA RESULT:      -4.0     11.282     12.344
REMARK  2 active torsions:
REMARK  status: ('A' for Active; 'I' for Inactive)
REMARK    1  A    between atoms: C1_1  and  C4_4 
REMARK    2  A    between atoms: C2_2  and  N10_10 
ROOT
HETATM    1  C5  UNL     1     -34.952  13.957  -7.918  1.00 20.00     0.003 C 
HETATM    2  C6  UNL     1     -33.671  14.764  -7.716  1.00 20.00     0.029 C 
HETATM    3  C7  UNL     1     -35.298  13.146  -6.674  1.00 20.00     0.029 C 
HETATM    4  C8  UNL     1     -33.745  15.634  -6.468  1.00 20.00     0.251 C 
HETATM    5  C9  UNL     1     -35.365  14.022  -5.430  1.00 20.00     0.251 C 
HETATM    6  N10 UNL     1     -34.066  14.768  -5.279  1.00 20.00    -0.006 N 
HETATM    7  H24 UNL     1     -33.311  14.075  -5.176  1.00 20.00     0.297 HD
ENDROOT
BRANCH   6   8
HETATM    8  C2  UNL     1     -34.052  15.557  -4.033  1.00 20.00     0.118 C 
HETATM    9  C1  UNL     1     -34.041  16.199  -3.018  1.00 20.00    -0.049 C 
BRANCH   9  10
HETATM   10  C4  UNL     1     -34.027  16.963  -1.822  1.00 20.00     0.056 C 
HETATM   11  C3  UNL     1     -35.123  17.123  -1.073  1.00 20.00     0.021 C 
ENDBRANCH   9  10
ENDBRANCH   6   8
TORSDOF 2
ENDMDL
MODEL 4
REMARK VINA RESULT:      -3.9     11.145     12.194
REMARK  2 active torsions:
REMARK  status: ('A' for Active; 'I' for Inactive)
REMARK    1  A    between atoms: C1_1  and  C4_4 
REMARK    2  A    between atoms: C2_2  and  N10_10 
ROOT
HETATM    1  C5  UNL     1     -34.594  14.857  -6.322  1.00 20.00     0.003 C 
HETATM    2  C6  UNL     1     -33.335  15.715  -6.238  1.00 20.00     0.029 C 
HETATM    3  C7  UNL     1     -34.855  14.123  -5.011  1.00 20.00     0.029 C 
HETATM    4  C8  UNL     1     -33.381  16.667  -5.050  1.00 20.00     0.251 C 
HETATM    5  C9  UNL     1     -34.896  15.080  -3.828  1.00 20.00     0.251 C 
HETATM    6  N10 UNL     1     -33.618  15.876  -3.791  1.00 20.00    -0.006 N 
HETATM    7  H24 UNL     1     -32.835  15.216  -3.677  1.00 20.00     0.297 HD
ENDROOT
BRANCH   6   8
HETATM    8  C2  UNL     1     -33.574  16.750  -2.603  1.00 20.00     0.118 C 
HETATM    9  C1  UNL     1     -33.539  17.461  -1.636  1.00 20.00    -0.049 C 
BRANCH   9  10
HETATM   10  C4  UNL     1     -33.493  18.304  -0.494  1.00 20.00     0.056 C 
HETATM   11  C3  UNL     1     -32.340  18.783  -0.017  1.00 20.00     0.021 C 
ENDBRANCH   9  10
ENDBRANCH   6   8
TORSDOF 2
ENDMDL
MODEL 5
REMARK VINA RESULT:      -3.9      1.186      5.360
REMARK  2 active torsions:
REMARK  status: ('A' for Active; 'I' for Inactive)
REMARK    1  A    between atoms: C1_1  and  C4_4 
REMARK    2  A    between atoms: C2_2  and  N10_10 
ROOT
HETATM    1  C5  UNL     1     -32.188   9.772   0.109  1.00 20.00     0.003 C 
HETATM    2  C6  UNL     1     -32.871  10.501   1.264  1.00 20.00     0.029 C 
HETATM    3  C7  UNL     1     -31.276   8.660   0.617  1.00 20.00     0.029 C 
HETATM    4  C8  UNL     1     -33.606   9.534   2.182  1.00 20.00     0.251 C 
HETATM    5  C9  UNL     1     -32.018   7.700   1.537  1.00 20.00     0.251 C 
HETATM    6  N10 UNL     1     -32.646   8.479   2.663  1.00 20.00    -0.006 N 
HETATM    7  H24 UNL     1     -31.891   8.950   3.184  1.00 20.00     0.297 HD
ENDROOT
BRANCH   6   8
HETATM    8  C2  UNL     1     -33.295   7.577   3.632  1.00 20.00     0.118 C 
HETATM    9  C1  UNL     1     -33.823   6.842   4.422  1.00 20.00    -0.049 C 
BRANCH   9  10
HETATM   10  C4  UNL     1     -34.450   5.972   5.352  1.00 20.00     0.056 C 
HETATM   11  C3  UNL     1     -34.636   4.674   5.089  1.00 20.00     0.021 C 
ENDBRANCH   9  10
ENDBRANCH   6   8
TORSDOF 2
ENDMDL
MODEL 6
REMARK VINA RESULT:      -3.7     11.068     11.714
REMARK  2 active torsions:
REMARK  status: ('A' for Active; 'I' for Inactive)
REMARK    1  A    between atoms: C1_1  and  C4_4 
REMARK    2  A    between atoms: C2_2  and  N10_10 
ROOT
HETATM    1  C5  UNL     1     -33.979  18.865  -0.130  1.00 20.00     0.003 C 
HETATM    2  C6  UNL     1     -34.987  17.746   0.121  1.00 20.00     0.029 C 
HETATM    3  C7  UNL     1     -32.798  18.371  -0.959  1.00 20.00     0.029 C 
HETATM    4  C8  UNL     1     -35.435  17.090  -1.177  1.00 20.00     0.251 C 
HETATM    5  C9  UNL     1     -33.254  17.713  -2.254  1.00 20.00     0.251 C 
HETATM    6  N10 UNL     1     -34.225  16.607  -1.932  1.00 20.00    -0.006 N 
HETATM    7  H24 UNL     1     -33.737  15.917  -1.343  1.00 20.00     0.297 HD
ENDROOT
BRANCH   6   8
HETATM    8  C2  UNL     1     -34.620  15.879  -3.152  1.00 20.00     0.118 C 
HETATM    9  C1  UNL     1     -34.942  15.286  -4.146  1.00 20.00    -0.049 C 
BRANCH   9  10
HETATM   10  C4  UNL     1     -35.317  14.584  -5.321  1.00 20.00     0.056 C 
HETATM   11  C3  UNL     1     -35.997  13.435  -5.270  1.00 20.00     0.021 C 
ENDBRANCH   9  10
ENDBRANCH   6   8
TORSDOF 2
ENDMDL
MODEL 7
REMARK VINA RESULT:      -3.7     10.939     11.990
REMARK  2 active torsions:
REMARK  status: ('A' for Active; 'I' for Inactive)
REMARK    1  A    between atoms: C1_1  and  C4_4 
REMARK    2  A    between atoms: C2_2  and  N10_10 
ROOT
HETATM    1  C5  UNL     1     -36.234  14.287  -6.472  1.00 20.00     0.003 C 
HETATM    2  C6  UNL     1     -35.730  13.448  -5.301  1.00 20.00     0.029 C 
HETATM    3  C7  UNL     1     -37.030  15.494  -5.987  1.00 20.00     0.029 C 
HETATM    4  C8  UNL     1     -34.943  14.288  -4.304  1.00 20.00     0.251 C 
HETATM    5  C9  UNL     1     -36.238  16.327  -4.988  1.00 20.00     0.251 C 
HETATM    6  N10 UNL     1     -35.793  15.445  -3.852  1.00 20.00    -0.006 N 
HETATM    7  H24 UNL     1     -36.635  15.063  -3.397  1.00 20.00     0.297 HD
ENDROOT
BRANCH   6   8
HETATM    8  C2  UNL     1     -35.103  16.231  -2.812  1.00 20.00     0.118 C 
HETATM    9  C1  UNL     1     -34.540  16.872  -1.966  1.00 20.00    -0.049 C 
BRANCH   9  10
HETATM   10  C4  UNL     1     -33.880  17.629  -0.963  1.00 20.00     0.056 C 
HETATM   11  C3  UNL     1     -32.730  18.266  -1.200  1.00 20.00     0.021 C 
ENDBRANCH   9  10
ENDBRANCH   6   8
TORSDOF 2
ENDMDL
MODEL 8
REMARK VINA RESULT:      -3.7     11.081     11.713
REMARK  2 active torsions:
REMARK  status: ('A' for Active; 'I' for Inactive)
REMARK    1  A    between atoms: C1_1  and  C4_4 
REMARK    2  A    between atoms: C2_2  and  N10_10 
ROOT
HETATM    1  C5  UNL     1     -36.042  13.589  -5.419  1.00 20.00     0.003 C 
HETATM    2  C6  UNL     1     -36.921  14.776  -5.033  1.00 20.00     0.029 C 
HETATM    3  C7  UNL     1     -34.575  13.994  -5.517  1.00 20.00     0.029 C 
HETATM    4  C8  UNL     1     -36.428  15.451  -3.760  1.00 20.00     0.251 C 
HETATM    5  C9  UNL     1     -34.091  14.672  -4.242  1.00 20.00     0.251 C 
HETATM    6  N10 UNL     1     -34.985  15.844  -3.934  1.00 20.00    -0.006 N 
HETATM    7  H24 UNL     1     -34.928  16.504  -4.723  1.00 20.00     0.297 HD
ENDROOT
BRANCH   6   8
HETATM    8  C2  UNL     1     -34.495  16.587  -2.758  1.00 20.00     0.118 C 
HETATM    9  C1  UNL     1     -34.096  17.192  -1.801  1.00 20.00    -0.049 C 
BRANCH   9  10
HETATM   10  C4  UNL     1     -33.624  17.912  -0.672  1.00 20.00     0.056 C 
HETATM   11  C3  UNL     1     -32.422  18.497  -0.659  1.00 20.00     0.021 C 
ENDBRANCH   9  10
ENDBRANCH   6   8
TORSDOF 2
ENDMDL
MODEL 9
REMARK VINA RESULT:      -3.7     10.960     11.680
REMARK  2 active torsions:
REMARK  status: ('A' for Active; 'I' for Inactive)
REMARK    1  A    between atoms: C1_1  and  C4_4 
REMARK    2  A    between atoms: C2_2  and  N10_10 
ROOT
HETATM    1  C5  UNL     1     -33.677  18.570   0.248  1.00 20.00     0.003 C 
HETATM    2  C6  UNL     1     -32.896  18.663  -1.060  1.00 20.00     0.029 C 
HETATM    3  C7  UNL     1     -35.148  18.255  -0.005  1.00 20.00     0.029 C 
HETATM    4  C8  UNL     1     -33.074  17.414  -1.913  1.00 20.00     0.251 C 
HETATM    5  C9  UNL     1     -35.318  17.008  -0.862  1.00 20.00     0.251 C 
HETATM    6  N10 UNL     1     -34.543  17.177  -2.142  1.00 20.00    -0.006 N 
HETATM    7  H24 UNL     1     -34.924  17.996  -2.639  1.00 20.00     0.297 HD
ENDROOT
BRANCH   6   8
HETATM    8  C2  UNL     1     -34.758  16.030  -3.045  1.00 20.00     0.118 C 
HETATM    9  C1  UNL     1     -34.932  15.096  -3.779  1.00 20.00    -0.049 C 
BRANCH   9  10
HETATM   10  C4  UNL     1     -35.143  13.994  -4.649  1.00 20.00     0.056 C 
HETATM   11  C3  UNL     1     -36.312  13.796  -5.267  1.00 20.00     0.021 C 
ENDBRANCH   9  10
ENDBRANCH   6   8
TORSDOF 2
ENDMDL
