MODEL 1
REMARK VINA RESULT:      -6.0      0.000      0.000
REMARK  5 active torsions:
REMARK  status: ('A' for Active; 'I' for Inactive)
REMARK    1  A    between atoms: C1_1  and  C5_5 
REMARK    2  A    between atoms: C2_2  and  C9_9 
REMARK    3  A    between atoms: C3_3  and  C6_6 
REMARK    4  A    between atoms: C9_9  and  C11_11 
REMARK    5  A    between atoms: C10_10  and  C11_11 
ROOT
HETATM    1  C4  UNL     1     -31.773   8.490   3.225  1.00 20.00     0.022 A 
HETATM    2  C5  UNL     1     -32.306   7.365   2.412  1.00 20.00     0.020 A 
HETATM    3  C6  UNL     1     -31.703   8.540   1.723  1.00 20.00     0.063 A 
ENDROOT
BRANCH   2   4
HETATM    4  C1  UNL     1     -33.787   7.175   2.382  1.00 20.00    -0.025 C 
HETATM    5  C2  UNL     1     -34.410   6.087   2.863  1.00 20.00    -0.030 C 
BRANCH   5   6
HETATM    6  C9  UNL     1     -33.695   4.926   3.491  1.00 20.00     0.027 C 
BRANCH   6   7
HETATM    7  C11 UNL     1     -34.220   4.587   4.889  1.00 20.00     0.003 C 
BRANCH   7   8
HETATM    8  C10 UNL     1     -34.863   5.783   5.596  1.00 20.00    -0.004 C 
HETATM    9  C8  UNL     1     -33.821   6.816   5.997  1.00 20.00     0.005 C 
ENDBRANCH   7   8
ENDBRANCH   6   7
ENDBRANCH   5   6
ENDBRANCH   2   4
BRANCH   3  10
HETATM   10  C3  UNL     1     -32.507   9.532   0.999  1.00 20.00     0.128 C 
HETATM   11  C7  UNL     1     -32.952   9.158  -0.390  1.00 20.00     0.091 C 
HETATM   12  O12 UNL     1     -32.804  10.614   1.501  1.00 20.00    -0.298 OA
ENDBRANCH   3  10
TORSDOF 5
ENDMDL
MODEL 2
REMARK VINA RESULT:      -6.0      2.450      5.365
REMARK  5 active torsions:
REMARK  status: ('A' for Active; 'I' for Inactive)
REMARK    1  A    between atoms: C1_1  and  C5_5 
REMARK    2  A    between atoms: C2_2  and  C9_9 
REMARK    3  A    between atoms: C3_3  and  C6_6 
REMARK    4  A    between atoms: C9_9  and  C11_11 
REMARK    5  A    between atoms: C10_10  and  C11_11 
ROOT
HETATM    1  C4  UNL     1     -34.581   6.349   5.831  1.00 20.00     0.022 A 
HETATM    2  C5  UNL     1     -34.066   7.169   4.702  1.00 20.00     0.020 A 
HETATM    3  C6  UNL     1     -34.760   5.882   4.413  1.00 20.00     0.063 A 
ENDROOT
BRANCH   2   4
HETATM    4  C1  UNL     1     -32.586   7.261   4.534  1.00 20.00    -0.025 C 
HETATM    5  C2  UNL     1     -31.988   7.796   3.458  1.00 20.00    -0.030 C 
BRANCH   5   6
HETATM    6  C9  UNL     1     -32.735   8.370   2.289  1.00 20.00     0.027 C 
BRANCH   6   7
HETATM    7  C11 UNL     1     -31.819   9.072   1.282  1.00 20.00     0.003 C 
BRANCH   7   8
HETATM    8  C10 UNL     1     -32.539  10.148   0.464  1.00 20.00    -0.004 C 
HETATM    9  C8  UNL     1     -33.344   9.535  -0.672  1.00 20.00     0.005 C 
ENDBRANCH   7   8
ENDBRANCH   6   7
ENDBRANCH   5   6
ENDBRANCH   2   4
BRANCH   3  10
HETATM   10  C3  UNL     1     -34.046   4.684   3.955  1.00 20.00     0.128 C 
HETATM   11  C7  UNL     1     -33.297   4.797   2.654  1.00 20.00     0.091 C 
HETATM   12  O12 UNL     1     -34.057   3.639   4.603  1.00 20.00    -0.298 OA
ENDBRANCH   3  10
TORSDOF 5
ENDMDL
MODEL 3
REMARK VINA RESULT:      -5.9      0.753      1.492
REMARK  5 active torsions:
REMARK  status: ('A' for Active; 'I' for Inactive)
REMARK    1  A    between atoms: C1_1  and  C5_5 
REMARK    2  A    between atoms: C2_2  and  C9_9 
REMARK    3  A    between atoms: C3_3  and  C6_6 
REMARK    4  A    between atoms: C9_9  and  C11_11 
REMARK    5  A    between atoms: C10_10  and  C11_11 
ROOT
HETATM    1  C4  UNL     1     -31.472   8.533   3.150  1.00 20.00     0.022 A 
HETATM    2  C5  UNL     1     -32.396   7.500   2.613  1.00 20.00     0.020 A 
HETATM    3  C6  UNL     1     -31.716   8.431   1.670  1.00 20.00     0.063 A 
ENDROOT
BRANCH   2   4
HETATM    4  C1  UNL     1     -33.854   7.665   2.889  1.00 20.00    -0.025 C 
HETATM    5  C2  UNL     1     -34.422   7.414   4.078  1.00 20.00    -0.030 C 
BRANCH   5   6
HETATM    6  C9  UNL     1     -33.662   6.934   5.281  1.00 20.00     0.027 C 
BRANCH   6   7
HETATM    7  C11 UNL     1     -34.305   5.713   5.946  1.00 20.00     0.003 C 
BRANCH   7   8
HETATM    8  C10 UNL     1     -34.982   4.771   4.946  1.00 20.00    -0.004 C 
HETATM    9  C8  UNL     1     -33.961   3.909   4.219  1.00 20.00     0.005 C 
ENDBRANCH   7   8
ENDBRANCH   6   7
ENDBRANCH   5   6
ENDBRANCH   2   4
BRANCH   3  10
HETATM   10  C3  UNL     1     -32.425   9.517   0.981  1.00 20.00     0.128 C 
HETATM   11  C7  UNL     1     -32.984   9.203  -0.380  1.00 20.00     0.091 C 
HETATM   12  O12 UNL     1     -32.557  10.628   1.492  1.00 20.00    -0.298 OA
ENDBRANCH   3  10
TORSDOF 5
ENDMDL
MODEL 4
REMARK VINA RESULT:      -5.4      2.315      5.464
REMARK  5 active torsions:
REMARK  status: ('A' for Active; 'I' for Inactive)
REMARK    1  A    between atoms: C1_1  and  C5_5 
REMARK    2  A    between atoms: C2_2  and  C9_9 
REMARK    3  A    between atoms: C3_3  and  C6_6 
REMARK    4  A    between atoms: C9_9  and  C11_11 
REMARK    5  A    between atoms: C10_10  and  C11_11 
ROOT
HETATM    1  C4  UNL     1     -34.642   6.623   2.831  1.00 20.00     0.022 A 
HETATM    2  C5  UNL     1     -33.188   6.333   2.936  1.00 20.00     0.020 A 
HETATM    3  C6  UNL     1     -34.156   5.496   3.699  1.00 20.00     0.063 A 
ENDROOT
BRANCH   2   4
HETATM    4  C1  UNL     1     -32.337   7.321   3.663  1.00 20.00    -0.025 C 
HETATM    5  C2  UNL     1     -31.710   8.347   3.068  1.00 20.00    -0.030 C 
BRANCH   5   6
HETATM    6  C9  UNL     1     -31.786   8.630   1.595  1.00 20.00     0.027 C 
BRANCH   6   7
HETATM    7  C11 UNL     1     -32.450   9.973   1.278  1.00 20.00     0.003 C 
BRANCH   7   8
HETATM    8  C10 UNL     1     -33.184   9.978  -0.066  1.00 20.00    -0.004 C 
HETATM    9  C8  UNL     1     -32.843   8.744  -0.888  1.00 20.00     0.005 C 
ENDBRANCH   7   8
ENDBRANCH   6   7
ENDBRANCH   5   6
ENDBRANCH   2   4
BRANCH   3  10
HETATM   10  C3  UNL     1     -34.309   5.593   5.156  1.00 20.00     0.128 C 
HETATM   11  C7  UNL     1     -34.044   6.938   5.777  1.00 20.00     0.091 C 
HETATM   12  O12 UNL     1     -34.639   4.623   5.836  1.00 20.00    -0.298 OA
ENDBRANCH   3  10
TORSDOF 5
ENDMDL
MODEL 5
REMARK VINA RESULT:      -4.6     10.493     11.624
REMARK  5 active torsions:
REMARK  status: ('A' for Active; 'I' for Inactive)
REMARK    1  A    between atoms: C1_1  and  C5_5 
REMARK    2  A    between atoms: C2_2  and  C9_9 
REMARK    3  A    between atoms: C3_3  and  C6_6 
REMARK    4  A    between atoms: C9_9  and  C11_11 
REMARK    5  A    between atoms: C10_10  and  C11_11 
ROOT
HETATM    1  C4  UNL     1     -36.950  14.006  -5.312  1.00 20.00     0.022 A 
HETATM    2  C5  UNL     1     -35.835  14.934  -4.988  1.00 20.00     0.020 A 
HETATM    3  C6  UNL     1     -36.005  14.459  -6.390  1.00 20.00     0.063 A 
ENDROOT
BRANCH   2   4
HETATM    4  C1  UNL     1     -34.711  14.402  -4.162  1.00 20.00    -0.025 C 
HETATM    5  C2  UNL     1     -33.595  15.094  -3.885  1.00 20.00    -0.030 C 
BRANCH   5   6
HETATM    6  C9  UNL     1     -33.338  16.491  -4.372  1.00 20.00     0.027 C 
BRANCH   6   7
HETATM    7  C11 UNL     1     -33.840  17.564  -3.402  1.00 20.00     0.003 C 
BRANCH   7   8
HETATM    8  C10 UNL     1     -33.657  17.177  -1.931  1.00 20.00    -0.004 C 
HETATM    9  C8  UNL     1     -34.997  17.029  -1.227  1.00 20.00     0.005 C 
ENDBRANCH   7   8
ENDBRANCH   6   7
ENDBRANCH   5   6
ENDBRANCH   2   4
BRANCH   3  10
HETATM   10  C3  UNL     1     -35.100  13.483  -7.010  1.00 20.00     0.128 C 
HETATM   11  C7  UNL     1     -34.030  14.032  -7.915  1.00 20.00     0.091 C 
HETATM   12  O12 UNL     1     -35.210  12.276  -6.799  1.00 20.00    -0.298 OA
ENDBRANCH   3  10
TORSDOF 5
ENDMDL
MODEL 6
REMARK VINA RESULT:      -4.6     10.620     11.457
REMARK  5 active torsions:
REMARK  status: ('A' for Active; 'I' for Inactive)
REMARK    1  A    between atoms: C1_1  and  C5_5 
REMARK    2  A    between atoms: C2_2  and  C9_9 
REMARK    3  A    between atoms: C3_3  and  C6_6 
REMARK    4  A    between atoms: C9_9  and  C11_11 
REMARK    5  A    between atoms: C10_10  and  C11_11 
ROOT
HETATM    1  C4  UNL     1     -36.635  13.931  -5.026  1.00 20.00     0.022 A 
HETATM    2  C5  UNL     1     -35.589  14.984  -4.941  1.00 20.00     0.020 A 
HETATM    3  C6  UNL     1     -35.930  14.401  -6.268  1.00 20.00     0.063 A 
ENDROOT
BRANCH   2   4
HETATM    4  C1  UNL     1     -34.295  14.623  -4.289  1.00 20.00    -0.025 C 
HETATM    5  C2  UNL     1     -33.634  15.428  -3.443  1.00 20.00    -0.030 C 
BRANCH   5   6
HETATM    6  C9  UNL     1     -34.114  16.795  -3.047  1.00 20.00     0.027 C 
BRANCH   6   7
HETATM    7  C11 UNL     1     -34.808  16.812  -1.682  1.00 20.00     0.003 C 
BRANCH   7   8
HETATM    8  C10 UNL     1     -34.165  17.790  -0.694  1.00 20.00    -0.004 C 
HETATM    9  C8  UNL     1     -32.760  18.174  -1.129  1.00 20.00     0.005 C 
ENDBRANCH   7   8
ENDBRANCH   6   7
ENDBRANCH   5   6
ENDBRANCH   2   4
BRANCH   3  10
HETATM   10  C3  UNL     1     -35.037  13.479  -6.981  1.00 20.00     0.128 C 
HETATM   11  C7  UNL     1     -34.034  14.096  -7.918  1.00 20.00     0.091 C 
HETATM   12  O12 UNL     1     -35.105  12.261  -6.819  1.00 20.00    -0.298 OA
ENDBRANCH   3  10
TORSDOF 5
ENDMDL
MODEL 7
REMARK VINA RESULT:      -4.5     10.731     11.240
REMARK  5 active torsions:
REMARK  status: ('A' for Active; 'I' for Inactive)
REMARK    1  A    between atoms: C1_1  and  C5_5 
REMARK    2  A    between atoms: C2_2  and  C9_9 
REMARK    3  A    between atoms: C3_3  and  C6_6 
REMARK    4  A    between atoms: C9_9  and  C11_11 
REMARK    5  A    between atoms: C10_10  and  C11_11 
ROOT
HETATM    1  C4  UNL     1     -33.396  15.825  -5.191  1.00 20.00     0.022 A 
HETATM    2  C5  UNL     1     -33.821  15.344  -3.850  1.00 20.00     0.020 A 
HETATM    3  C6  UNL     1     -33.783  14.386  -4.990  1.00 20.00     0.063 A 
ENDROOT
BRANCH   2   4
HETATM    4  C1  UNL     1     -35.138  15.818  -3.330  1.00 20.00    -0.025 C 
HETATM    5  C2  UNL     1     -35.274  16.624  -2.266  1.00 20.00    -0.030 C 
BRANCH   5   6
HETATM    6  C9  UNL     1     -34.118  17.150  -1.464  1.00 20.00     0.027 C 
BRANCH   6   7
HETATM    7  C11 UNL     1     -34.553  17.817  -0.156  1.00 20.00     0.003 C 
BRANCH   7   8
HETATM    8  C10 UNL     1     -33.429  18.611   0.516  1.00 20.00    -0.004 C 
HETATM    9  C8  UNL     1     -32.158  18.588  -0.320  1.00 20.00     0.005 C 
ENDBRANCH   7   8
ENDBRANCH   6   7
ENDBRANCH   5   6
ENDBRANCH   2   4
BRANCH   3  10
HETATM   10  C3  UNL     1     -34.999  13.872  -5.632  1.00 20.00     0.128 C 
HETATM   11  C7  UNL     1     -35.440  14.560  -6.896  1.00 20.00     0.091 C 
HETATM   12  O12 UNL     1     -35.626  12.924  -5.162  1.00 20.00    -0.298 OA
ENDBRANCH   3  10
TORSDOF 5
ENDMDL
MODEL 8
REMARK VINA RESULT:      -4.4      1.108      2.145
REMARK  5 active torsions:
REMARK  status: ('A' for Active; 'I' for Inactive)
REMARK    1  A    between atoms: C1_1  and  C5_5 
REMARK    2  A    between atoms: C2_2  and  C9_9 
REMARK    3  A    between atoms: C3_3  and  C6_6 
REMARK    4  A    between atoms: C9_9  and  C11_11 
REMARK    5  A    between atoms: C10_10  and  C11_11 
ROOT
HETATM    1  C4  UNL     1     -31.122   8.374   0.660  1.00 20.00     0.022 A 
HETATM    2  C5  UNL     1     -31.971   7.878   1.775  1.00 20.00     0.020 A 
HETATM    3  C6  UNL     1     -32.535   8.867   0.814  1.00 20.00     0.063 A 
ENDROOT
BRANCH   2   4
HETATM    4  C1  UNL     1     -31.619   8.315   3.159  1.00 20.00    -0.025 C 
HETATM    5  C2  UNL     1     -32.338   8.000   4.247  1.00 20.00    -0.030 C 
BRANCH   5   6
HETATM    6  C9  UNL     1     -33.588   7.168   4.208  1.00 20.00     0.027 C 
BRANCH   6   7
HETATM    7  C11 UNL     1     -34.110   6.810   5.603  1.00 20.00     0.003 C 
BRANCH   7   8
HETATM    8  C10 UNL     1     -34.521   5.341   5.731  1.00 20.00    -0.004 C 
HETATM    9  C8  UNL     1     -34.516   4.644   4.379  1.00 20.00     0.005 C 
ENDBRANCH   7   8
ENDBRANCH   6   7
ENDBRANCH   5   6
ENDBRANCH   2   4
BRANCH   3  10
HETATM   10  C3  UNL     1     -32.771  10.271   1.170  1.00 20.00     0.128 C 
HETATM   11  C7  UNL     1     -34.099  10.595   1.801  1.00 20.00     0.091 C 
HETATM   12  O12 UNL     1     -31.926  11.140   0.966  1.00 20.00    -0.298 OA
ENDBRANCH   3  10
TORSDOF 5
ENDMDL
MODEL 9
REMARK VINA RESULT:      -4.3     10.495     11.551
REMARK  5 active torsions:
REMARK  status: ('A' for Active; 'I' for Inactive)
REMARK    1  A    between atoms: C1_1  and  C5_5 
REMARK    2  A    between atoms: C2_2  and  C9_9 
REMARK    3  A    between atoms: C3_3  and  C6_6 
REMARK    4  A    between atoms: C9_9  and  C11_11 
REMARK    5  A    between atoms: C10_10  and  C11_11 
ROOT
HETATM    1  C4  UNL     1     -36.580  15.843  -4.186  1.00 20.00     0.022 A 
HETATM    2  C5  UNL     1     -35.522  16.696  -3.583  1.00 20.00     0.020 A 
HETATM    3  C6  UNL     1     -35.163  15.756  -4.682  1.00 20.00     0.063 A 
ENDROOT
BRANCH   2   4
HETATM    4  C1  UNL     1     -35.100  16.389  -2.184  1.00 20.00    -0.025 C 
HETATM    5  C2  UNL     1     -34.102  17.023  -1.549  1.00 20.00    -0.030 C 
BRANCH   5   6
HETATM    6  C9  UNL     1     -33.285  18.120  -2.167  1.00 20.00     0.027 C 
BRANCH   6   7
HETATM    7  C11 UNL     1     -32.853  19.186  -1.154  1.00 20.00     0.003 C 
BRANCH   7   8
HETATM    8  C10 UNL     1     -32.806  18.663   0.284  1.00 20.00    -0.004 C 
HETATM    9  C8  UNL     1     -31.433  18.871   0.904  1.00 20.00     0.005 C 
ENDBRANCH   7   8
ENDBRANCH   6   7
ENDBRANCH   5   6
ENDBRANCH   2   4
BRANCH   3  10
HETATM   10  C3  UNL     1     -34.394  14.526  -4.451  1.00 20.00     0.128 C 
HETATM   11  C7  UNL     1     -32.898  14.667  -4.372  1.00 20.00     0.091 C 
HETATM   12  O12 UNL     1     -34.946  13.434  -4.327  1.00 20.00    -0.298 OA
ENDBRANCH   3  10
TORSDOF 5
ENDMDL
