MODEL 1
REMARK VINA RESULT:      -5.1      0.000      0.000
REMARK  0 active torsions:
REMARK  status: ('A' for Active; 'I' for Inactive)
ROOT
HETATM    1  C1  UNL     1     -32.667   8.883   1.732  1.00 20.00     0.095 C 
HETATM    2  C2  UNL     1     -32.203   8.519   4.821  1.00 20.00     0.005 C 
HETATM    3  C3  UNL     1     -34.093   4.736   3.581  1.00 20.00     0.032 C 
HETATM    4  C4  UNL     1     -31.334   8.063   3.651  1.00 20.00     0.051 C 
HETATM    5  C5  UNL     1     -33.267   7.473   5.127  1.00 20.00     0.036 C 
HETATM    6  C6  UNL     1     -34.953   5.898   4.069  1.00 20.00     0.037 C 
HETATM    7  C7  UNL     1     -32.885   5.374   2.906  1.00 20.00     0.275 C 
HETATM    8  C8  UNL     1     -32.164   7.672   2.415  1.00 20.00     0.329 C 
HETATM    9  C9  UNL     1     -34.091   7.142   3.874  1.00 20.00     0.224 C 
HETATM   10  N10 UNL     1     -33.062   9.833   1.195  1.00 20.00    -0.195 NA
HETATM   11  N11 UNL     1     -33.280   6.768   2.708  1.00 20.00     0.111 N 
ENDROOT
TORSDOF 0
ENDMDL
MODEL 2
REMARK VINA RESULT:      -4.6     10.874     11.884
REMARK  0 active torsions:
REMARK  status: ('A' for Active; 'I' for Inactive)
ROOT
HETATM    1  C1  UNL     1     -35.347  13.868  -5.078  1.00 20.00     0.095 C 
HETATM    2  C2  UNL     1     -36.456  16.783  -5.480  1.00 20.00     0.005 C 
HETATM    3  C3  UNL     1     -33.978  17.084  -1.849  1.00 20.00     0.032 C 
HETATM    4  C4  UNL     1     -35.121  16.187  -5.919  1.00 20.00     0.051 C 
HETATM    5  C5  UNL     1     -36.357  17.304  -4.052  1.00 20.00     0.036 C 
HETATM    6  C6  UNL     1     -35.466  16.769  -1.736  1.00 20.00     0.037 C 
HETATM    7  C7  UNL     1     -33.527  16.471  -3.169  1.00 20.00     0.275 C 
HETATM    8  C8  UNL     1     -34.592  15.131  -4.932  1.00 20.00     0.329 C 
HETATM    9  C9  UNL     1     -35.859  16.207  -3.099  1.00 20.00     0.224 C 
HETATM   10  N10 UNL     1     -35.939  12.877  -5.193  1.00 20.00    -0.195 NA
HETATM   11  N11 UNL     1     -34.613  15.561  -3.531  1.00 20.00     0.111 N 
ENDROOT
TORSDOF 0
ENDMDL
MODEL 3
REMARK VINA RESULT:      -4.4     10.547     11.985
REMARK  0 active torsions:
REMARK  status: ('A' for Active; 'I' for Inactive)
ROOT
HETATM    1  C1  UNL     1     -35.273  13.655  -4.710  1.00 20.00     0.095 C 
HETATM    2  C2  UNL     1     -33.148  15.717  -5.769  1.00 20.00     0.005 C 
HETATM    3  C3  UNL     1     -35.259  17.912  -2.584  1.00 20.00     0.032 C 
HETATM    4  C4  UNL     1     -33.064  14.767  -4.576  1.00 20.00     0.051 C 
HETATM    5  C5  UNL     1     -33.817  17.022  -5.357  1.00 20.00     0.036 C 
HETATM    6  C6  UNL     1     -35.743  18.004  -4.028  1.00 20.00     0.037 C 
HETATM    7  C7  UNL     1     -34.660  16.519  -2.439  1.00 20.00     0.275 C 
HETATM    8  C8  UNL     1     -34.427  14.552  -3.895  1.00 20.00     0.329 C 
HETATM    9  C9  UNL     1     -35.187  16.760  -4.715  1.00 20.00     0.224 C 
HETATM   10  N10 UNL     1     -35.937  12.951  -5.350  1.00 20.00    -0.195 NA
HETATM   11  N11 UNL     1     -35.153  15.793  -3.609  1.00 20.00     0.111 N 
ENDROOT
TORSDOF 0
ENDMDL
MODEL 4
REMARK VINA RESULT:      -4.3     10.590     11.719
REMARK  0 active torsions:
REMARK  status: ('A' for Active; 'I' for Inactive)
ROOT
HETATM    1  C1  UNL     1     -34.308  14.658  -4.124  1.00 20.00     0.095 C 
HETATM    2  C2  UNL     1     -36.067  17.238  -4.492  1.00 20.00     0.005 C 
HETATM    3  C3  UNL     1     -34.013  17.896  -0.650  1.00 20.00     0.032 C 
HETATM    4  C4  UNL     1     -34.598  17.011  -4.840  1.00 20.00     0.051 C 
HETATM    5  C5  UNL     1     -36.204  17.675  -3.040  1.00 20.00     0.036 C 
HETATM    6  C6  UNL     1     -35.382  17.225  -0.681  1.00 20.00     0.037 C 
HETATM    7  C7  UNL     1     -33.329  17.496  -1.952  1.00 20.00     0.275 C 
HETATM    8  C8  UNL     1     -33.900  16.053  -3.858  1.00 20.00     0.329 C 
HETATM    9  C9  UNL     1     -35.523  16.672  -2.096  1.00 20.00     0.224 C 
HETATM   10  N10 UNL     1     -34.629  13.562  -4.333  1.00 20.00    -0.195 NA
HETATM   11  N11 UNL     1     -34.128  16.376  -2.446  1.00 20.00     0.111 N 
ENDROOT
TORSDOF 0
ENDMDL
MODEL 5
REMARK VINA RESULT:      -4.3     10.986     12.961
REMARK  0 active torsions:
REMARK  status: ('A' for Active; 'I' for Inactive)
ROOT
HETATM    1  C1  UNL     1     -35.900  13.892  -5.089  1.00 20.00     0.095 C 
HETATM    2  C2  UNL     1     -33.643  15.677  -3.823  1.00 20.00     0.005 C 
HETATM    3  C3  UNL     1     -35.092  18.063  -7.232  1.00 20.00     0.032 C 
HETATM    4  C4  UNL     1     -35.153  15.723  -3.599  1.00 20.00     0.051 C 
HETATM    5  C5  UNL     1     -33.263  16.521  -5.032  1.00 20.00     0.036 C 
HETATM    6  C6  UNL     1     -33.923  17.099  -7.414  1.00 20.00     0.037 C 
HETATM    7  C7  UNL     1     -35.977  17.439  -6.161  1.00 20.00     0.275 C 
HETATM    8  C8  UNL     1     -35.949  15.351  -4.863  1.00 20.00     0.329 C 
HETATM    9  C9  UNL     1     -34.057  16.092  -6.275  1.00 20.00     0.224 C 
HETATM   10  N10 UNL     1     -35.862  12.746  -5.267  1.00 20.00    -0.195 NA
HETATM   11  N11 UNL     1     -35.511  16.055  -6.072  1.00 20.00     0.111 N 
ENDROOT
TORSDOF 0
ENDMDL
MODEL 6
REMARK VINA RESULT:      -4.3     11.004     12.075
REMARK  0 active torsions:
REMARK  status: ('A' for Active; 'I' for Inactive)
ROOT
HETATM    1  C1  UNL     1     -37.513  14.909  -5.073  1.00 20.00     0.095 C 
HETATM    2  C2  UNL     1     -36.117  16.603  -2.822  1.00 20.00     0.005 C 
HETATM    3  C3  UNL     1     -32.827  15.569  -5.565  1.00 20.00     0.032 C 
HETATM    4  C4  UNL     1     -36.645  17.051  -4.184  1.00 20.00     0.051 C 
HETATM    5  C5  UNL     1     -34.688  16.091  -2.953  1.00 20.00     0.036 C 
HETATM    6  C6  UNL     1     -33.148  14.664  -4.379  1.00 20.00     0.037 C 
HETATM    7  C7  UNL     1     -34.156  16.185  -5.984  1.00 20.00     0.275 C 
HETATM    8  C8  UNL     1     -36.495  15.963  -5.262  1.00 20.00     0.329 C 
HETATM    9  C9  UNL     1     -34.594  14.984  -4.014  1.00 20.00     0.224 C 
HETATM   10  N10 UNL     1     -38.313  14.081  -4.925  1.00 20.00    -0.195 NA
HETATM   11  N11 UNL     1     -35.160  15.357  -5.317  1.00 20.00     0.111 N 
ENDROOT
TORSDOF 0
ENDMDL
MODEL 7
REMARK VINA RESULT:      -4.1     10.968     12.341
REMARK  0 active torsions:
REMARK  status: ('A' for Active; 'I' for Inactive)
ROOT
HETATM    1  C1  UNL     1     -33.668  17.239  -5.558  1.00 20.00     0.095 C 
HETATM    2  C2  UNL     1     -34.304  14.681  -3.845  1.00 20.00     0.005 C 
HETATM    3  C3  UNL     1     -35.564  13.567  -7.918  1.00 20.00     0.032 C 
HETATM    4  C4  UNL     1     -33.072  14.998  -4.689  1.00 20.00     0.051 C 
HETATM    5  C5  UNL     1     -35.386  14.045  -4.708  1.00 20.00     0.036 C 
HETATM    6  C6  UNL     1     -36.564  14.194  -6.951  1.00 20.00     0.037 C 
HETATM    7  C7  UNL     1     -34.210  14.162  -7.552  1.00 20.00     0.275 C 
HETATM    8  C8  UNL     1     -33.410  15.833  -5.937  1.00 20.00     0.329 C 
HETATM    9  C9  UNL     1     -35.714  14.930  -5.920  1.00 20.00     0.224 C 
HETATM   10  N10 UNL     1     -33.871  18.342  -5.262  1.00 20.00    -0.195 NA
HETATM   11  N11 UNL     1     -34.540  15.314  -6.714  1.00 20.00     0.111 N 
ENDROOT
TORSDOF 0
ENDMDL
MODEL 8
REMARK VINA RESULT:      -4.1     11.182     12.605
REMARK  0 active torsions:
REMARK  status: ('A' for Active; 'I' for Inactive)
ROOT
HETATM    1  C1  UNL     1     -37.208  13.903  -5.283  1.00 20.00     0.095 C 
HETATM    2  C2  UNL     1     -35.493  13.862  -7.918  1.00 20.00     0.005 C 
HETATM    3  C3  UNL     1     -32.971  16.057  -5.047  1.00 20.00     0.032 C 
HETATM    4  C4  UNL     1     -35.439  12.924  -6.714  1.00 20.00     0.051 C 
HETATM    5  C5  UNL     1     -34.609  15.079  -7.678  1.00 20.00     0.036 C 
HETATM    6  C6  UNL     1     -33.940  16.814  -5.950  1.00 20.00     0.037 C 
HETATM    7  C7  UNL     1     -33.624  14.706  -4.785  1.00 20.00     0.275 C 
HETATM    8  C8  UNL     1     -35.757  13.644  -5.391  1.00 20.00     0.329 C 
HETATM    9  C9  UNL     1     -34.986  15.784  -6.366  1.00 20.00     0.224 C 
HETATM   10  N10 UNL     1     -38.347  14.107  -5.198  1.00 20.00    -0.195 NA
HETATM   11  N11 UNL     1     -35.014  14.893  -5.198  1.00 20.00     0.111 N 
ENDROOT
TORSDOF 0
ENDMDL
MODEL 9
REMARK VINA RESULT:      -4.0     10.797     12.186
REMARK  0 active torsions:
REMARK  status: ('A' for Active; 'I' for Inactive)
ROOT
HETATM    1  C1  UNL     1     -36.693  16.333  -6.460  1.00 20.00     0.095 C 
HETATM    2  C2  UNL     1     -35.774  13.622  -5.158  1.00 20.00     0.005 C 
HETATM    3  C3  UNL     1     -34.624  16.668  -2.188  1.00 20.00     0.032 C 
HETATM    4  C4  UNL     1     -37.067  14.408  -4.946  1.00 20.00     0.051 C 
HETATM    5  C5  UNL     1     -34.687  14.134  -4.221  1.00 20.00     0.036 C 
HETATM    6  C6  UNL     1     -33.633  16.234  -3.263  1.00 20.00     0.037 C 
HETATM    7  C7  UNL     1     -36.002  16.543  -2.825  1.00 20.00     0.275 C 
HETATM    8  C8  UNL     1     -36.856  15.929  -5.047  1.00 20.00     0.329 C 
HETATM    9  C9  UNL     1     -34.489  15.648  -4.382  1.00 20.00     0.224 C 
HETATM   10  N10 UNL     1     -36.566  16.649  -7.569  1.00 20.00    -0.195 NA
HETATM   11  N11 UNL     1     -35.726  16.429  -4.257  1.00 20.00     0.111 N 
ENDROOT
TORSDOF 0
ENDMDL
