MODEL 1
REMARK VINA RESULT:      -6.5      0.000      0.000
REMARK  2 active torsions:
REMARK  status: ('A' for Active; 'I' for Inactive)
REMARK    1  A    between atoms: C3_3  and  C5_5 
REMARK    2  A    between atoms: C5_5  and  C9_9 
ROOT
HETATM    1  C1  UNL     1     -32.722   6.049   2.428  1.00 20.00    -0.012 A 
HETATM    2  C2  UNL     1     -34.239   4.829   4.027  1.00 20.00    -0.020 A 
HETATM    3  C3  UNL     1     -32.702   7.093   3.266  1.00 20.00    -0.003 A 
HETATM    4  C4  UNL     1     -34.221   5.875   4.872  1.00 20.00    -0.083 A 
HETATM    5  C6  UNL     1     -33.498   4.798   2.721  1.00 20.00     0.055 A 
HETATM    6  C7  UNL     1     -33.439   7.133   4.573  1.00 20.00     0.075 A 
HETATM    7  C8  UNL     1     -34.978   5.861   6.168  1.00 20.00     0.043 C 
ENDROOT
BRANCH   3   8
HETATM    8  C5  UNL     1     -31.909   8.264   2.880  1.00 20.00     0.261 C 
HETATM    9  O10 UNL     1     -31.091   8.757   3.658  1.00 20.00    -0.283 OA
BRANCH   8  10
HETATM   10  C9  UNL     1     -32.139   8.829   1.507  1.00 20.00     0.455 C 
HETATM   11  F11 UNL     1     -33.299   8.388   0.954  1.00 20.00    -0.163 F 
HETATM   12  F12 UNL     1     -31.142   8.492   0.649  1.00 20.00    -0.163 F 
HETATM   13  F13 UNL     1     -32.203  10.185   1.524  1.00 20.00    -0.163 F 
ENDBRANCH   8  10
ENDBRANCH   3   8
TORSDOF 2
ENDMDL
MODEL 2
REMARK VINA RESULT:      -6.4      1.738      2.426
REMARK  2 active torsions:
REMARK  status: ('A' for Active; 'I' for Inactive)
REMARK    1  A    between atoms: C3_3  and  C5_5 
REMARK    2  A    between atoms: C5_5  and  C9_9 
ROOT
HETATM    1  C1  UNL     1     -31.913   8.686   3.623  1.00 20.00    -0.012 A 
HETATM    2  C2  UNL     1     -33.391   7.164   4.981  1.00 20.00    -0.020 A 
HETATM    3  C3  UNL     1     -32.499   8.235   2.506  1.00 20.00    -0.003 A 
HETATM    4  C4  UNL     1     -33.983   6.708   3.862  1.00 20.00    -0.083 A 
HETATM    5  C6  UNL     1     -32.299   8.194   4.987  1.00 20.00     0.055 A 
HETATM    6  C7  UNL     1     -33.591   7.205   2.490  1.00 20.00     0.075 A 
HETATM    7  C8  UNL     1     -35.071   5.676   3.903  1.00 20.00     0.043 C 
ENDROOT
BRANCH   3   8
HETATM    8  C5  UNL     1     -32.044   8.785   1.226  1.00 20.00     0.261 C 
HETATM    9  O10 UNL     1     -31.071   8.304   0.643  1.00 20.00    -0.283 OA
BRANCH   8  10
HETATM   10  C9  UNL     1     -32.811   9.948   0.664  1.00 20.00     0.455 C 
HETATM   11  F11 UNL     1     -33.777  10.388   1.511  1.00 20.00    -0.163 F 
HETATM   12  F12 UNL     1     -33.426   9.631  -0.503  1.00 20.00    -0.163 F 
HETATM   13  F13 UNL     1     -32.002  11.008   0.408  1.00 20.00    -0.163 F 
ENDBRANCH   8  10
ENDBRANCH   3   8
TORSDOF 2
ENDMDL
MODEL 3
REMARK VINA RESULT:      -6.3      3.054      4.866
REMARK  2 active torsions:
REMARK  status: ('A' for Active; 'I' for Inactive)
REMARK    1  A    between atoms: C3_3  and  C5_5 
REMARK    2  A    between atoms: C5_5  and  C9_9 
ROOT
HETATM    1  C1  UNL     1     -32.163   7.506   3.572  1.00 20.00    -0.012 A 
HETATM    2  C2  UNL     1     -31.903   9.401   1.933  1.00 20.00    -0.020 A 
HETATM    3  C3  UNL     1     -32.999   6.901   2.718  1.00 20.00    -0.003 A 
HETATM    4  C4  UNL     1     -32.741   8.797   1.071  1.00 20.00    -0.083 A 
HETATM    5  C6  UNL     1     -31.523   8.829   3.268  1.00 20.00     0.055 A 
HETATM    6  C7  UNL     1     -33.384   7.465   1.382  1.00 20.00     0.075 A 
HETATM    7  C8  UNL     1     -33.092   9.406  -0.254  1.00 20.00     0.043 C 
ENDROOT
BRANCH   3   8
HETATM    8  C5  UNL     1     -33.567   5.610   3.117  1.00 20.00     0.261 C 
HETATM    9  O10 UNL     1     -33.098   4.555   2.686  1.00 20.00    -0.283 OA
BRANCH   8  10
HETATM   10  C9  UNL     1     -34.732   5.633   4.063  1.00 20.00     0.455 C 
HETATM   11  F11 UNL     1     -34.519   6.451   5.126  1.00 20.00    -0.163 F 
HETATM   12  F12 UNL     1     -35.001   4.400   4.564  1.00 20.00    -0.163 F 
HETATM   13  F13 UNL     1     -35.866   6.068   3.456  1.00 20.00    -0.163 F 
ENDBRANCH   8  10
ENDBRANCH   3   8
TORSDOF 2
ENDMDL
MODEL 4
REMARK VINA RESULT:      -6.1      0.814      2.083
REMARK  2 active torsions:
REMARK  status: ('A' for Active; 'I' for Inactive)
REMARK    1  A    between atoms: C3_3  and  C5_5 
REMARK    2  A    between atoms: C5_5  and  C9_9 
ROOT
HETATM    1  C1  UNL     1     -33.059   7.982   4.993  1.00 20.00    -0.012 A 
HETATM    2  C2  UNL     1     -34.403   5.933   5.577  1.00 20.00    -0.020 A 
HETATM    3  C3  UNL     1     -32.709   7.406   3.835  1.00 20.00    -0.003 A 
HETATM    4  C4  UNL     1     -34.056   5.351   4.414  1.00 20.00    -0.083 A 
HETATM    5  C6  UNL     1     -33.948   7.302   5.993  1.00 20.00     0.055 A 
HETATM    6  C7  UNL     1     -33.160   6.039   3.411  1.00 20.00     0.075 A 
HETATM    7  C8  UNL     1     -34.536   3.980   4.040  1.00 20.00     0.043 C 
ENDROOT
BRANCH   3   8
HETATM    8  C5  UNL     1     -31.836   8.161   2.933  1.00 20.00     0.261 C 
HETATM    9  O10 UNL     1     -30.665   8.392   3.236  1.00 20.00    -0.283 OA
BRANCH   8  10
HETATM   10  C9  UNL     1     -32.429   8.634   1.637  1.00 20.00     0.455 C 
HETATM   11  F11 UNL     1     -32.935   9.892   1.728  1.00 20.00    -0.163 F 
HETATM   12  F12 UNL     1     -33.443   7.833   1.223  1.00 20.00    -0.163 F 
HETATM   13  F13 UNL     1     -31.509   8.653   0.639  1.00 20.00    -0.163 F 
ENDBRANCH   8  10
ENDBRANCH   3   8
TORSDOF 2
ENDMDL
MODEL 5
REMARK VINA RESULT:      -5.5      2.874      4.674
REMARK  2 active torsions:
REMARK  status: ('A' for Active; 'I' for Inactive)
REMARK    1  A    between atoms: C3_3  and  C5_5 
REMARK    2  A    between atoms: C5_5  and  C9_9 
ROOT
HETATM    1  C1  UNL     1     -31.812   7.802   3.866  1.00 20.00    -0.012 A 
HETATM    2  C2  UNL     1     -31.471   8.898   1.625  1.00 20.00    -0.020 A 
HETATM    3  C3  UNL     1     -33.091   7.568   3.542  1.00 20.00    -0.003 A 
HETATM    4  C4  UNL     1     -32.755   8.666   1.294  1.00 20.00    -0.083 A 
HETATM    5  C6  UNL     1     -30.861   8.496   2.936  1.00 20.00     0.055 A 
HETATM    6  C7  UNL     1     -33.709   7.967   2.235  1.00 20.00     0.075 A 
HETATM    7  C8  UNL     1     -33.322   9.086  -0.029  1.00 20.00     0.043 C 
ENDROOT
BRANCH   3   8
HETATM    8  C5  UNL     1     -33.931   6.882   4.528  1.00 20.00     0.261 C 
HETATM    9  O10 UNL     1     -34.047   7.321   5.673  1.00 20.00    -0.283 OA
BRANCH   8  10
HETATM   10  C9  UNL     1     -34.635   5.633   4.081  1.00 20.00     0.455 C 
HETATM   11  F11 UNL     1     -35.846   5.892   3.523  1.00 20.00    -0.163 F 
HETATM   12  F12 UNL     1     -34.853   4.779   5.114  1.00 20.00    -0.163 F 
HETATM   13  F13 UNL     1     -33.914   4.952   3.153  1.00 20.00    -0.163 F 
ENDBRANCH   8  10
ENDBRANCH   3   8
TORSDOF 2
ENDMDL
MODEL 6
REMARK VINA RESULT:      -5.5     10.753     11.426
REMARK  2 active torsions:
REMARK  status: ('A' for Active; 'I' for Inactive)
REMARK    1  A    between atoms: C3_3  and  C5_5 
REMARK    2  A    between atoms: C5_5  and  C9_9 
ROOT
HETATM    1  C1  UNL     1     -35.523  16.456  -2.376  1.00 20.00    -0.012 A 
HETATM    2  C2  UNL     1     -34.482  17.710  -0.455  1.00 20.00    -0.020 A 
HETATM    3  C3  UNL     1     -34.368  16.553  -3.048  1.00 20.00    -0.003 A 
HETATM    4  C4  UNL     1     -33.320  17.809  -1.125  1.00 20.00    -0.083 A 
HETATM    5  C6  UNL     1     -35.704  17.028  -1.000  1.00 20.00     0.055 A 
HETATM    6  C7  UNL     1     -33.143  17.233  -2.511  1.00 20.00     0.075 A 
HETATM    7  C8  UNL     1     -32.124  18.501  -0.541  1.00 20.00     0.043 C 
ENDROOT
BRANCH   3   8
HETATM    8  C5  UNL     1     -34.303  15.958  -4.385  1.00 20.00     0.261 C 
HETATM    9  O10 UNL     1     -34.651  16.599  -5.378  1.00 20.00    -0.283 OA
BRANCH   8  10
HETATM   10  C9  UNL     1     -33.799  14.547  -4.487  1.00 20.00     0.455 C 
HETATM   11  F11 UNL     1     -34.529  13.681  -3.738  1.00 20.00    -0.163 F 
HETATM   12  F12 UNL     1     -32.512  14.439  -4.068  1.00 20.00    -0.163 F 
HETATM   13  F13 UNL     1     -33.837  14.089  -5.765  1.00 20.00    -0.163 F 
ENDBRANCH   8  10
ENDBRANCH   3   8
TORSDOF 2
ENDMDL
MODEL 7
REMARK VINA RESULT:      -5.2     11.165     11.823
REMARK  2 active torsions:
REMARK  status: ('A' for Active; 'I' for Inactive)
REMARK    1  A    between atoms: C3_3  and  C5_5 
REMARK    2  A    between atoms: C5_5  and  C9_9 
ROOT
HETATM    1  C1  UNL     1     -36.944  15.522  -4.532  1.00 20.00    -0.012 A 
HETATM    2  C2  UNL     1     -36.171  17.123  -2.748  1.00 20.00    -0.020 A 
HETATM    3  C3  UNL     1     -35.738  14.939  -4.512  1.00 20.00    -0.003 A 
HETATM    4  C4  UNL     1     -34.958  16.540  -2.723  1.00 20.00    -0.083 A 
HETATM    5  C6  UNL     1     -37.290  16.683  -3.647  1.00 20.00     0.055 A 
HETATM    6  C7  UNL     1     -34.614  15.371  -3.617  1.00 20.00     0.075 A 
HETATM    7  C8  UNL     1     -33.869  17.013  -1.807  1.00 20.00     0.043 C 
ENDROOT
BRANCH   3   8
HETATM    8  C5  UNL     1     -35.509  13.811  -5.419  1.00 20.00     0.261 C 
HETATM    9  O10 UNL     1     -35.875  12.674  -5.117  1.00 20.00    -0.283 OA
BRANCH   8  10
HETATM   10  C9  UNL     1     -34.816  14.102  -6.720  1.00 20.00     0.455 C 
HETATM   11  F11 UNL     1     -34.548  12.975  -7.427  1.00 20.00    -0.163 F 
HETATM   12  F12 UNL     1     -33.631  14.737  -6.529  1.00 20.00    -0.163 F 
HETATM   13  F13 UNL     1     -35.566  14.900  -7.522  1.00 20.00    -0.163 F 
ENDBRANCH   8  10
ENDBRANCH   3   8
TORSDOF 2
ENDMDL
MODEL 8
REMARK VINA RESULT:      -5.2     10.687     11.368
REMARK  2 active torsions:
REMARK  status: ('A' for Active; 'I' for Inactive)
REMARK    1  A    between atoms: C3_3  and  C5_5 
REMARK    2  A    between atoms: C5_5  and  C9_9 
ROOT
HETATM    1  C1  UNL     1     -33.310  17.422  -2.822  1.00 20.00    -0.012 A 
HETATM    2  C2  UNL     1     -33.767  18.157  -0.457  1.00 20.00    -0.020 A 
HETATM    3  C3  UNL     1     -34.468  16.748  -2.822  1.00 20.00    -0.003 A 
HETATM    4  C4  UNL     1     -34.931  17.483  -0.451  1.00 20.00    -0.083 A 
HETATM    5  C6  UNL     1     -32.834  18.203  -1.632  1.00 20.00     0.055 A 
HETATM    6  C7  UNL     1     -35.406  16.697  -1.652  1.00 20.00     0.075 A 
HETATM    7  C8  UNL     1     -35.833  17.465   0.747  1.00 20.00     0.043 C 
ENDROOT
BRANCH   3   8
HETATM    8  C5  UNL     1     -34.835  16.020  -4.039  1.00 20.00     0.261 C 
HETATM    9  O10 UNL     1     -35.718  16.445  -4.786  1.00 20.00    -0.283 OA
BRANCH   8  10
HETATM   10  C9  UNL     1     -34.093  14.747  -4.331  1.00 20.00     0.455 C 
HETATM   11  F11 UNL     1     -34.673  13.666  -3.750  1.00 20.00    -0.163 F 
HETATM   12  F12 UNL     1     -32.813  14.795  -3.882  1.00 20.00    -0.163 F 
HETATM   13  F13 UNL     1     -34.035  14.492  -5.663  1.00 20.00    -0.163 F 
ENDBRANCH   8  10
ENDBRANCH   3   8
TORSDOF 2
ENDMDL
MODEL 9
REMARK VINA RESULT:      -5.2     11.066     11.642
REMARK  2 active torsions:
REMARK  status: ('A' for Active; 'I' for Inactive)
REMARK    1  A    between atoms: C3_3  and  C5_5 
REMARK    2  A    between atoms: C5_5  and  C9_9 
ROOT
HETATM    1  C1  UNL     1     -35.861  16.111  -3.137  1.00 20.00    -0.012 A 
HETATM    2  C2  UNL     1     -35.049  17.853  -1.509  1.00 20.00    -0.020 A 
HETATM    3  C3  UNL     1     -34.588  15.790  -3.407  1.00 20.00    -0.003 A 
HETATM    4  C4  UNL     1     -33.769  17.534  -1.776  1.00 20.00    -0.083 A 
HETATM    5  C6  UNL     1     -36.228  17.183  -2.153  1.00 20.00     0.055 A 
HETATM    6  C7  UNL     1     -33.404  16.454  -2.768  1.00 20.00     0.075 A 
HETATM    7  C8  UNL     1     -32.622  18.232  -1.107  1.00 20.00     0.043 C 
ENDROOT
BRANCH   3   8
HETATM    8  C5  UNL     1     -34.344  14.726  -4.384  1.00 20.00     0.261 C 
HETATM    9  O10 UNL     1     -34.482  13.541  -4.074  1.00 20.00    -0.283 OA
BRANCH   8  10
HETATM   10  C9  UNL     1     -33.924  15.142  -5.765  1.00 20.00     0.455 C 
HETATM   11  F11 UNL     1     -34.001  14.122  -6.658  1.00 20.00    -0.163 F 
HETATM   12  F12 UNL     1     -32.644  15.590  -5.790  1.00 20.00    -0.163 F 
HETATM   13  F13 UNL     1     -34.703  16.144  -6.248  1.00 20.00    -0.163 F 
ENDBRANCH   8  10
ENDBRANCH   3   8
TORSDOF 2
ENDMDL
