MODEL 1
REMARK VINA RESULT:      -5.1      0.000      0.000
REMARK  5 active torsions:
REMARK  status: ('A' for Active; 'I' for Inactive)
REMARK    1  A    between atoms: C2_2  and  C7_7 
REMARK    2  A    between atoms: C7_7  and  N11_11 
REMARK    3  A    between atoms: C8_8  and  C9_9 
REMARK    4  A    between atoms: C8_8  and  C10_10 
REMARK    5  A    between atoms: C9_9  and  N11_11 
ROOT
HETATM    1  C1  UNL     1     -32.539   9.268   0.830  1.00 20.00    -0.109 C 
HETATM    2  C2  UNL     1     -32.157   8.822   1.877  1.00 20.00    -0.077 C 
HETATM    3  C3  UNL     1     -33.005   9.812  -0.445  1.00 20.00     0.112 C 
ENDROOT
BRANCH   2   4
HETATM    4  C7  UNL     1     -31.696   8.272   3.155  1.00 20.00     0.365 C 
BRANCH   4   5
HETATM    5  N11 UNL     1     -32.444   7.055   3.505  1.00 20.00     0.095 N 
HETATM    6  C6  UNL     1     -32.474   6.148   2.345  1.00 20.00     0.310 C 
BRANCH   5   7
HETATM    7  C9  UNL     1     -33.770   7.367   3.960  1.00 20.00     0.273 C 
BRANCH   7   8
HETATM    8  C8  UNL     1     -34.778   6.274   3.613  1.00 20.00     0.034 C 
BRANCH   8   9
HETATM    9  C10 UNL     1     -34.985   5.206   4.707  1.00 20.00    -0.021 C 
HETATM   10  C4  UNL     1     -34.584   5.779   6.070  1.00 20.00     0.009 C 
HETATM   11  C5  UNL     1     -34.192   3.928   4.432  1.00 20.00     0.009 C 
ENDBRANCH   8   9
ENDBRANCH   7   8
ENDBRANCH   5   7
ENDBRANCH   4   5
ENDBRANCH   2   4
TORSDOF 5
ENDMDL
MODEL 2
REMARK VINA RESULT:      -5.1      0.767      1.149
REMARK  5 active torsions:
REMARK  status: ('A' for Active; 'I' for Inactive)
REMARK    1  A    between atoms: C2_2  and  C7_7 
REMARK    2  A    between atoms: C7_7  and  N11_11 
REMARK    3  A    between atoms: C8_8  and  C9_9 
REMARK    4  A    between atoms: C8_8  and  C10_10 
REMARK    5  A    between atoms: C9_9  and  N11_11 
ROOT
HETATM    1  C1  UNL     1     -32.598   9.129   0.529  1.00 20.00    -0.109 C 
HETATM    2  C2  UNL     1     -32.304   8.706   1.614  1.00 20.00    -0.077 C 
HETATM    3  C3  UNL     1     -32.956   9.645  -0.791  1.00 20.00     0.112 C 
ENDROOT
BRANCH   2   4
HETATM    4  C7  UNL     1     -31.952   8.186   2.938  1.00 20.00     0.365 C 
BRANCH   4   5
HETATM    5  N11 UNL     1     -33.146   7.705   3.650  1.00 20.00     0.095 N 
HETATM    6  C6  UNL     1     -32.891   7.718   5.100  1.00 20.00     0.310 C 
BRANCH   5   7
HETATM    7  C9  UNL     1     -33.534   6.398   3.199  1.00 20.00     0.273 C 
BRANCH   7   8
HETATM    8  C8  UNL     1     -34.898   5.975   3.738  1.00 20.00     0.034 C 
BRANCH   8   9
HETATM    9  C10 UNL     1     -34.896   4.682   4.578  1.00 20.00    -0.021 C 
HETATM   10  C4  UNL     1     -34.667   5.025   6.053  1.00 20.00     0.009 C 
HETATM   11  C5  UNL     1     -33.836   3.684   4.111  1.00 20.00     0.009 C 
ENDBRANCH   8   9
ENDBRANCH   7   8
ENDBRANCH   5   7
ENDBRANCH   4   5
ENDBRANCH   2   4
TORSDOF 5
ENDMDL
MODEL 3
REMARK VINA RESULT:      -4.7      1.072      5.258
REMARK  5 active torsions:
REMARK  status: ('A' for Active; 'I' for Inactive)
REMARK    1  A    between atoms: C2_2  and  C7_7 
REMARK    2  A    between atoms: C7_7  and  N11_11 
REMARK    3  A    between atoms: C8_8  and  C9_9 
REMARK    4  A    between atoms: C8_8  and  C10_10 
REMARK    5  A    between atoms: C9_9  and  N11_11 
ROOT
HETATM    1  C1  UNL     1     -34.282   5.308   4.210  1.00 20.00    -0.109 C 
HETATM    2  C2  UNL     1     -33.695   6.074   3.496  1.00 20.00    -0.077 C 
HETATM    3  C3  UNL     1     -34.999   4.376   5.079  1.00 20.00     0.112 C 
ENDROOT
BRANCH   2   4
HETATM    4  C7  UNL     1     -32.972   7.010   2.630  1.00 20.00     0.365 C 
BRANCH   4   5
HETATM    5  N11 UNL     1     -31.909   7.703   3.374  1.00 20.00     0.095 N 
HETATM    6  C6  UNL     1     -32.445   8.186   4.658  1.00 20.00     0.310 C 
BRANCH   5   7
HETATM    7  C9  UNL     1     -31.344   8.776   2.606  1.00 20.00     0.273 C 
BRANCH   7   8
HETATM    8  C8  UNL     1     -31.573   8.603   1.107  1.00 20.00     0.034 C 
BRANCH   8   9
HETATM    9  C10 UNL     1     -32.234   9.807   0.404  1.00 20.00    -0.021 C 
HETATM   10  C4  UNL     1     -32.834  10.750   1.452  1.00 20.00     0.009 C 
HETATM   11  C5  UNL     1     -33.318   9.381  -0.587  1.00 20.00     0.009 C 
ENDBRANCH   8   9
ENDBRANCH   7   8
ENDBRANCH   5   7
ENDBRANCH   4   5
ENDBRANCH   2   4
TORSDOF 5
ENDMDL
MODEL 4
REMARK VINA RESULT:      -4.2     10.591     11.771
REMARK  5 active torsions:
REMARK  status: ('A' for Active; 'I' for Inactive)
REMARK    1  A    between atoms: C2_2  and  C7_7 
REMARK    2  A    between atoms: C7_7  and  N11_11 
REMARK    3  A    between atoms: C8_8  and  C9_9 
REMARK    4  A    between atoms: C8_8  and  C10_10 
REMARK    5  A    between atoms: C9_9  and  N11_11 
ROOT
HETATM    1  C1  UNL     1     -32.956  17.773  -1.437  1.00 20.00    -0.109 C 
HETATM    2  C2  UNL     1     -33.538  17.136  -2.271  1.00 20.00    -0.077 C 
HETATM    3  C3  UNL     1     -32.246  18.550  -0.421  1.00 20.00     0.112 C 
ENDROOT
BRANCH   2   4
HETATM    4  C7  UNL     1     -34.253  16.354  -3.284  1.00 20.00     0.365 C 
BRANCH   4   5
HETATM    5  N11 UNL     1     -33.373  16.034  -4.419  1.00 20.00     0.095 N 
HETATM    6  C6  UNL     1     -33.701  16.911  -5.556  1.00 20.00     0.310 C 
BRANCH   5   7
HETATM    7  C9  UNL     1     -33.468  14.648  -4.782  1.00 20.00     0.273 C 
BRANCH   7   8
HETATM    8  C8  UNL     1     -34.684  13.965  -4.160  1.00 20.00     0.034 C 
BRANCH   8   9
HETATM    9  C10 UNL     1     -35.758  13.502  -5.166  1.00 20.00    -0.021 C 
HETATM   10  C4  UNL     1     -35.199  13.579  -6.590  1.00 20.00     0.009 C 
HETATM   11  C5  UNL     1     -37.041  14.328  -5.070  1.00 20.00     0.009 C 
ENDBRANCH   8   9
ENDBRANCH   7   8
ENDBRANCH   5   7
ENDBRANCH   4   5
ENDBRANCH   2   4
TORSDOF 5
ENDMDL
MODEL 5
REMARK VINA RESULT:      -4.0     10.802     11.833
REMARK  5 active torsions:
REMARK  status: ('A' for Active; 'I' for Inactive)
REMARK    1  A    between atoms: C2_2  and  C7_7 
REMARK    2  A    between atoms: C7_7  and  N11_11 
REMARK    3  A    between atoms: C8_8  and  C9_9 
REMARK    4  A    between atoms: C8_8  and  C10_10 
REMARK    5  A    between atoms: C9_9  and  N11_11 
ROOT
HETATM    1  C1  UNL     1     -34.428  17.379  -1.029  1.00 20.00    -0.109 C 
HETATM    2  C2  UNL     1     -34.659  16.746  -2.022  1.00 20.00    -0.077 C 
HETATM    3  C3  UNL     1     -34.148  18.150   0.181  1.00 20.00     0.112 C 
ENDROOT
BRANCH   2   4
HETATM    4  C7  UNL     1     -34.939  15.978  -3.239  1.00 20.00     0.365 C 
BRANCH   4   5
HETATM    5  N11 UNL     1     -33.701  15.701  -3.984  1.00 20.00     0.095 N 
HETATM    6  C6  UNL     1     -33.471  16.773  -4.967  1.00 20.00     0.310 C 
BRANCH   5   7
HETATM    7  C9  UNL     1     -33.746  14.413  -4.616  1.00 20.00     0.273 C 
BRANCH   7   8
HETATM    8  C8  UNL     1     -35.150  13.815  -4.623  1.00 20.00     0.034 C 
BRANCH   8   9
HETATM    9  C10 UNL     1     -35.720  13.504  -6.022  1.00 20.00    -0.021 C 
HETATM   10  C4  UNL     1     -34.592  13.540  -7.059  1.00 20.00     0.009 C 
HETATM   11  C5  UNL     1     -36.827  14.477  -6.432  1.00 20.00     0.009 C 
ENDBRANCH   8   9
ENDBRANCH   7   8
ENDBRANCH   5   7
ENDBRANCH   4   5
ENDBRANCH   2   4
TORSDOF 5
ENDMDL
MODEL 6
REMARK VINA RESULT:      -3.8     11.211     12.298
REMARK  5 active torsions:
REMARK  status: ('A' for Active; 'I' for Inactive)
REMARK    1  A    between atoms: C2_2  and  C7_7 
REMARK    2  A    between atoms: C7_7  and  N11_11 
REMARK    3  A    between atoms: C8_8  and  C9_9 
REMARK    4  A    between atoms: C8_8  and  C10_10 
REMARK    5  A    between atoms: C9_9  and  N11_11 
ROOT
HETATM    1  C1  UNL     1     -34.290  16.263  -2.913  1.00 20.00    -0.109 C 
HETATM    2  C2  UNL     1     -33.662  15.896  -3.868  1.00 20.00    -0.077 C 
HETATM    3  C3  UNL     1     -35.054  16.711  -1.749  1.00 20.00     0.112 C 
ENDROOT
BRANCH   2   4
HETATM    4  C7  UNL     1     -32.892  15.442  -5.030  1.00 20.00     0.365 C 
BRANCH   4   5
HETATM    5  N11 UNL     1     -33.482  15.946  -6.281  1.00 20.00     0.095 N 
HETATM    6  C6  UNL     1     -34.058  17.281  -6.047  1.00 20.00     0.310 C 
BRANCH   5   7
HETATM    7  C9  UNL     1     -34.463  15.037  -6.801  1.00 20.00     0.273 C 
BRANCH   7   8
HETATM    8  C8  UNL     1     -35.891  15.527  -6.574  1.00 20.00     0.034 C 
BRANCH   8   9
HETATM    9  C10 UNL     1     -36.797  14.556  -5.790  1.00 20.00    -0.021 C 
HETATM   10  C4  UNL     1     -37.477  15.303  -4.637  1.00 20.00     0.009 C 
HETATM   11  C5  UNL     1     -36.028  13.353  -5.242  1.00 20.00     0.009 C 
ENDBRANCH   8   9
ENDBRANCH   7   8
ENDBRANCH   5   7
ENDBRANCH   4   5
ENDBRANCH   2   4
TORSDOF 5
ENDMDL
MODEL 7
REMARK VINA RESULT:      -3.8     11.240     12.701
REMARK  5 active torsions:
REMARK  status: ('A' for Active; 'I' for Inactive)
REMARK    1  A    between atoms: C2_2  and  C7_7 
REMARK    2  A    between atoms: C7_7  and  N11_11 
REMARK    3  A    between atoms: C8_8  and  C9_9 
REMARK    4  A    between atoms: C8_8  and  C10_10 
REMARK    5  A    between atoms: C9_9  and  N11_11 
ROOT
HETATM    1  C1  UNL     1     -35.605  16.198  -3.041  1.00 20.00    -0.109 C 
HETATM    2  C2  UNL     1     -36.445  15.764  -3.781  1.00 20.00    -0.077 C 
HETATM    3  C3  UNL     1     -34.584  16.728  -2.139  1.00 20.00     0.112 C 
ENDROOT
BRANCH   2   4
HETATM    4  C7  UNL     1     -37.464  15.231  -4.690  1.00 20.00     0.365 C 
BRANCH   4   5
HETATM    5  N11 UNL     1     -36.844  14.509  -5.812  1.00 20.00     0.095 N 
HETATM    6  C6  UNL     1     -36.033  13.396  -5.290  1.00 20.00     0.310 C 
BRANCH   5   7
HETATM    7  C9  UNL     1     -36.059  15.389  -6.631  1.00 20.00     0.273 C 
BRANCH   7   8
HETATM    8  C8  UNL     1     -34.641  14.870  -6.854  1.00 20.00     0.034 C 
BRANCH   8   9
HETATM    9  C10 UNL     1     -33.517  15.857  -6.479  1.00 20.00    -0.021 C 
HETATM   10  C4  UNL     1     -32.829  15.391  -5.192  1.00 20.00     0.009 C 
HETATM   11  C5  UNL     1     -34.032  17.286  -6.299  1.00 20.00     0.009 C 
ENDBRANCH   8   9
ENDBRANCH   7   8
ENDBRANCH   5   7
ENDBRANCH   4   5
ENDBRANCH   2   4
TORSDOF 5
ENDMDL
MODEL 8
REMARK VINA RESULT:      -3.8     10.764     11.993
REMARK  5 active torsions:
REMARK  status: ('A' for Active; 'I' for Inactive)
REMARK    1  A    between atoms: C2_2  and  C7_7 
REMARK    2  A    between atoms: C7_7  and  N11_11 
REMARK    3  A    between atoms: C8_8  and  C9_9 
REMARK    4  A    between atoms: C8_8  and  C10_10 
REMARK    5  A    between atoms: C9_9  and  N11_11 
ROOT
HETATM    1  C1  UNL     1     -38.470  15.174  -4.596  1.00 20.00    -0.109 C 
HETATM    2  C2  UNL     1     -37.536  14.489  -4.912  1.00 20.00    -0.077 C 
HETATM    3  C3  UNL     1     -39.608  16.008  -4.213  1.00 20.00     0.112 C 
ENDROOT
BRANCH   2   4
HETATM    4  C7  UNL     1     -36.391  13.658  -5.295  1.00 20.00     0.365 C 
BRANCH   4   5
HETATM    5  N11 UNL     1     -35.157  14.456  -5.353  1.00 20.00     0.095 N 
HETATM    6  C6  UNL     1     -34.359  14.039  -6.518  1.00 20.00     0.310 C 
BRANCH   5   7
HETATM    7  C9  UNL     1     -34.403  14.347  -4.136  1.00 20.00     0.273 C 
BRANCH   7   8
HETATM    8  C8  UNL     1     -33.964  15.706  -3.598  1.00 20.00     0.034 C 
BRANCH   8   9
HETATM    9  C10 UNL     1     -34.984  16.403  -2.674  1.00 20.00    -0.021 C 
HETATM   10  C4  UNL     1     -35.757  17.462  -3.465  1.00 20.00     0.009 C 
HETATM   11  C5  UNL     1     -34.321  17.051  -1.457  1.00 20.00     0.009 C 
ENDBRANCH   8   9
ENDBRANCH   7   8
ENDBRANCH   5   7
ENDBRANCH   4   5
ENDBRANCH   2   4
TORSDOF 5
ENDMDL
MODEL 9
REMARK VINA RESULT:      -3.8     10.962     12.056
REMARK  5 active torsions:
REMARK  status: ('A' for Active; 'I' for Inactive)
REMARK    1  A    between atoms: C2_2  and  C7_7 
REMARK    2  A    between atoms: C7_7  and  N11_11 
REMARK    3  A    between atoms: C8_8  and  C9_9 
REMARK    4  A    between atoms: C8_8  and  C10_10 
REMARK    5  A    between atoms: C9_9  and  N11_11 
ROOT
HETATM    1  C1  UNL     1     -36.456  14.713  -5.628  1.00 20.00    -0.109 C 
HETATM    2  C2  UNL     1     -35.342  14.986  -5.983  1.00 20.00    -0.077 C 
HETATM    3  C3  UNL     1     -37.813  14.382  -5.196  1.00 20.00     0.112 C 
ENDROOT
BRANCH   2   4
HETATM    4  C7  UNL     1     -33.982  15.324  -6.412  1.00 20.00     0.365 C 
BRANCH   4   5
HETATM    5  N11 UNL     1     -33.131  15.647  -5.256  1.00 20.00     0.095 N 
HETATM    6  C6  UNL     1     -32.980  14.451  -4.409  1.00 20.00     0.310 C 
BRANCH   5   7
HETATM    7  C9  UNL     1     -33.658  16.754  -4.509  1.00 20.00     0.273 C 
BRANCH   7   8
HETATM    8  C8  UNL     1     -33.831  16.429  -3.027  1.00 20.00     0.034 C 
BRANCH   8   9
HETATM    9  C10 UNL     1     -35.263  16.604  -2.483  1.00 20.00    -0.021 C 
HETATM   10  C4  UNL     1     -36.015  17.635  -3.332  1.00 20.00     0.009 C 
HETATM   11  C5  UNL     1     -35.281  17.034  -1.015  1.00 20.00     0.009 C 
ENDBRANCH   8   9
ENDBRANCH   7   8
ENDBRANCH   5   7
ENDBRANCH   4   5
ENDBRANCH   2   4
TORSDOF 5
ENDMDL
