MODEL 1
REMARK VINA RESULT:      -6.4      0.000      0.000
REMARK  0 active torsions:
REMARK  status: ('A' for Active; 'I' for Inactive)
ROOT
HETATM    1  C1  UNL     1     -34.234   4.834   4.018  1.00 20.00     0.044 A 
HETATM    2  C2  UNL     1     -33.523   5.240   2.949  1.00 20.00     0.014 A 
HETATM    3  C3  UNL     1     -34.374   5.697   5.169  1.00 20.00     0.156 A 
HETATM    4  C4  UNL     1     -33.808   6.914   5.206  1.00 20.00     0.202 A 
HETATM    5  C5  UNL     1     -32.842   6.548   2.879  1.00 20.00     0.224 A 
HETATM    6  C6  UNL     1     -33.002   7.454   4.100  1.00 20.00     0.293 A 
HETATM    7  O7  UNL     1     -33.553   7.793   2.821  1.00 20.00    -0.328 OA
HETATM    8  F8  UNL     1     -35.101   5.248   6.213  1.00 20.00    -0.203 F 
HETATM    9  F9  UNL     1     -33.982   7.675   6.309  1.00 20.00    -0.201 F 
HETATM   10  F10 UNL     1     -31.866   8.163   4.477  1.00 20.00    -0.200 F 
ENDROOT
TORSDOF 0
ENDMDL
MODEL 2
REMARK VINA RESULT:      -6.3      1.864      3.323
REMARK  0 active torsions:
REMARK  status: ('A' for Active; 'I' for Inactive)
ROOT
HETATM    1  C1  UNL     1     -33.514   7.264   5.778  1.00 20.00     0.044 A 
HETATM    2  C2  UNL     1     -34.408   6.258   5.800  1.00 20.00     0.014 A 
HETATM    3  C3  UNL     1     -32.798   7.575   4.561  1.00 20.00     0.156 A 
HETATM    4  C4  UNL     1     -33.001   6.879   3.431  1.00 20.00     0.202 A 
HETATM    5  C5  UNL     1     -34.705   5.413   4.626  1.00 20.00     0.224 A 
HETATM    6  C6  UNL     1     -33.946   5.755   3.344  1.00 20.00     0.293 A 
HETATM    7  O7  UNL     1     -35.366   5.913   3.455  1.00 20.00    -0.328 OA
HETATM    8  F8  UNL     1     -31.916   8.596   4.587  1.00 20.00    -0.203 F 
HETATM    9  F9  UNL     1     -32.306   7.224   2.325  1.00 20.00    -0.201 F 
HETATM   10  F10 UNL     1     -33.516   4.667   2.591  1.00 20.00    -0.200 F 
ENDROOT
TORSDOF 0
ENDMDL
MODEL 3
REMARK VINA RESULT:      -6.3      2.149      3.801
REMARK  0 active torsions:
REMARK  status: ('A' for Active; 'I' for Inactive)
ROOT
HETATM    1  C1  UNL     1     -33.072   7.583   4.377  1.00 20.00     0.044 A 
HETATM    2  C2  UNL     1     -33.868   7.130   5.363  1.00 20.00     0.014 A 
HETATM    3  C3  UNL     1     -32.822   6.768   3.210  1.00 20.00     0.156 A 
HETATM    4  C4  UNL     1     -33.370   5.549   3.076  1.00 20.00     0.202 A 
HETATM    5  C5  UNL     1     -34.515   5.802   5.337  1.00 20.00     0.224 A 
HETATM    6  C6  UNL     1     -34.247   4.951   4.095  1.00 20.00     0.293 A 
HETATM    7  O7  UNL     1     -35.551   5.460   4.405  1.00 20.00    -0.328 OA
HETATM    8  F8  UNL     1     -32.022   7.268   2.246  1.00 20.00    -0.203 F 
HETATM    9  F9  UNL     1     -33.103   4.839   1.958  1.00 20.00    -0.201 F 
HETATM   10  F10 UNL     1     -34.058   3.592   4.326  1.00 20.00    -0.200 F 
ENDROOT
TORSDOF 0
ENDMDL
MODEL 4
REMARK VINA RESULT:      -6.0      1.879      2.665
REMARK  0 active torsions:
REMARK  status: ('A' for Active; 'I' for Inactive)
ROOT
HETATM    1  C1  UNL     1     -34.018   6.835   5.867  1.00 20.00     0.044 A 
HETATM    2  C2  UNL     1     -33.564   7.714   4.955  1.00 20.00     0.014 A 
HETATM    3  C3  UNL     1     -34.368   5.490   5.471  1.00 20.00     0.156 A 
HETATM    4  C4  UNL     1     -34.251   5.081   4.197  1.00 20.00     0.202 A 
HETATM    5  C5  UNL     1     -33.407   7.387   3.523  1.00 20.00     0.224 A 
HETATM    6  C6  UNL     1     -33.775   5.959   3.117  1.00 20.00     0.293 A 
HETATM    7  O7  UNL     1     -32.431   6.452   3.041  1.00 20.00    -0.328 OA
HETATM    8  F8  UNL     1     -34.813   4.644   6.423  1.00 20.00    -0.203 F 
HETATM    9  F9  UNL     1     -34.588   3.808   3.892  1.00 20.00    -0.201 F 
HETATM   10  F10 UNL     1     -34.442   5.831   1.903  1.00 20.00    -0.200 F 
ENDROOT
TORSDOF 0
ENDMDL
MODEL 5
REMARK VINA RESULT:      -6.0      2.051      2.722
REMARK  0 active torsions:
REMARK  status: ('A' for Active; 'I' for Inactive)
ROOT
HETATM    1  C1  UNL     1     -34.474   5.570   5.339  1.00 20.00     0.044 A 
HETATM    2  C2  UNL     1     -34.221   6.891   5.388  1.00 20.00     0.014 A 
HETATM    3  C3  UNL     1     -34.071   4.793   4.189  1.00 20.00     0.156 A 
HETATM    4  C4  UNL     1     -33.438   5.359   3.148  1.00 20.00     0.202 A 
HETATM    5  C5  UNL     1     -33.547   7.627   4.299  1.00 20.00     0.224 A 
HETATM    6  C6  UNL     1     -33.119   6.794   3.091  1.00 20.00     0.293 A 
HETATM    7  O7  UNL     1     -32.168   7.422   3.959  1.00 20.00    -0.328 OA
HETATM    8  F8  UNL     1     -34.341   3.471   4.189  1.00 20.00    -0.203 F 
HETATM    9  F9  UNL     1     -33.080   4.577   2.106  1.00 20.00    -0.201 F 
HETATM   10  F10 UNL     1     -33.297   7.398   1.850  1.00 20.00    -0.200 F 
ENDROOT
TORSDOF 0
ENDMDL
MODEL 6
REMARK VINA RESULT:      -5.9      1.057      1.881
REMARK  0 active torsions:
REMARK  status: ('A' for Active; 'I' for Inactive)
ROOT
HETATM    1  C1  UNL     1     -33.266   5.076   2.853  1.00 20.00     0.044 A 
HETATM    2  C2  UNL     1     -32.799   6.332   2.731  1.00 20.00     0.014 A 
HETATM    3  C3  UNL     1     -34.035   4.694   4.016  1.00 20.00     0.156 A 
HETATM    4  C4  UNL     1     -34.304   5.571   4.996  1.00 20.00     0.202 A 
HETATM    5  C5  UNL     1     -33.017   7.380   3.750  1.00 20.00     0.224 A 
HETATM    6  C6  UNL     1     -33.836   6.966   4.972  1.00 20.00     0.293 A 
HETATM    7  O7  UNL     1     -34.309   7.936   4.029  1.00 20.00    -0.328 OA
HETATM    8  F8  UNL     1     -34.486   3.425   4.089  1.00 20.00    -0.203 F 
HETATM    9  F9  UNL     1     -35.034   5.155   6.054  1.00 20.00    -0.201 F 
HETATM   10  F10 UNL     1     -33.396   7.471   6.191  1.00 20.00    -0.200 F 
ENDROOT
TORSDOF 0
ENDMDL
MODEL 7
REMARK VINA RESULT:      -5.9      1.482      2.764
REMARK  0 active torsions:
REMARK  status: ('A' for Active; 'I' for Inactive)
ROOT
HETATM    1  C1  UNL     1     -32.479   7.700   3.859  1.00 20.00     0.044 A 
HETATM    2  C2  UNL     1     -32.804   7.042   2.731  1.00 20.00     0.014 A 
HETATM    3  C3  UNL     1     -33.176   7.419   5.094  1.00 20.00     0.156 A 
HETATM    4  C4  UNL     1     -34.156   6.501   5.151  1.00 20.00     0.202 A 
HETATM    5  C5  UNL     1     -33.872   6.024   2.667  1.00 20.00     0.224 A 
HETATM    6  C6  UNL     1     -34.599   5.730   3.979  1.00 20.00     0.293 A 
HETATM    7  O7  UNL     1     -33.777   4.754   3.327  1.00 20.00    -0.328 OA
HETATM    8  F8  UNL     1     -32.811   8.100   6.199  1.00 20.00    -0.203 F 
HETATM    9  F9  UNL     1     -34.764   6.279   6.337  1.00 20.00    -0.201 F 
HETATM   10  F10 UNL     1     -35.972   5.532   3.876  1.00 20.00    -0.200 F 
ENDROOT
TORSDOF 0
ENDMDL
MODEL 8
REMARK VINA RESULT:      -5.8      2.166      2.907
REMARK  0 active torsions:
REMARK  status: ('A' for Active; 'I' for Inactive)
ROOT
HETATM    1  C1  UNL     1     -34.108   4.188   4.193  1.00 20.00     0.044 A 
HETATM    2  C2  UNL     1     -34.636   4.835   5.249  1.00 20.00     0.014 A 
HETATM    3  C3  UNL     1     -33.388   4.919   3.176  1.00 20.00     0.156 A 
HETATM    4  C4  UNL     1     -33.226   6.250   3.252  1.00 20.00     0.202 A 
HETATM    5  C5  UNL     1     -34.537   6.297   5.434  1.00 20.00     0.224 A 
HETATM    6  C6  UNL     1     -33.769   7.060   4.355  1.00 20.00     0.293 A 
HETATM    7  O7  UNL     1     -33.296   6.964   5.704  1.00 20.00    -0.328 OA
HETATM    8  F8  UNL     1     -32.872   4.226   2.140  1.00 20.00    -0.203 F 
HETATM    9  F9  UNL     1     -32.537   6.876   2.272  1.00 20.00    -0.201 F 
HETATM   10  F10 UNL     1     -34.307   8.289   3.987  1.00 20.00    -0.200 F 
ENDROOT
TORSDOF 0
ENDMDL
MODEL 9
REMARK VINA RESULT:      -5.5      1.584      2.967
REMARK  0 active torsions:
REMARK  status: ('A' for Active; 'I' for Inactive)
ROOT
HETATM    1  C1  UNL     1     -33.964   6.086   2.659  1.00 20.00     0.044 A 
HETATM    2  C2  UNL     1     -34.839   5.560   3.536  1.00 20.00     0.014 A 
HETATM    3  C3  UNL     1     -32.968   7.035   3.102  1.00 20.00     0.156 A 
HETATM    4  C4  UNL     1     -32.886   7.415   4.388  1.00 20.00     0.202 A 
HETATM    5  C5  UNL     1     -34.858   5.913   4.971  1.00 20.00     0.224 A 
HETATM    6  C6  UNL     1     -33.796   6.913   5.429  1.00 20.00     0.293 A 
HETATM    7  O7  UNL     1     -33.804   5.550   5.874  1.00 20.00    -0.328 OA
HETATM    8  F8  UNL     1     -32.109   7.528   2.187  1.00 20.00    -0.203 F 
HETATM    9  F9  UNL     1     -31.928   8.300   4.741  1.00 20.00    -0.201 F 
HETATM   10  F10 UNL     1     -34.220   7.856   6.360  1.00 20.00    -0.200 F 
ENDROOT
TORSDOF 0
ENDMDL
