MODEL 1
REMARK VINA RESULT:      -5.8      0.000      0.000
REMARK  1 active torsions:
REMARK  status: ('A' for Active; 'I' for Inactive)
REMARK    1  A    between atoms: C5_5  and  C8_8 
ROOT
HETATM    1  C1  UNL     1     -34.671   5.372   5.876  1.00 20.00    -0.027 C 
HETATM    2  C2  UNL     1     -34.367   6.672   5.972  1.00 20.00    -0.029 C 
HETATM    3  C3  UNL     1     -33.958   4.812   3.508  1.00 20.00    -0.020 C 
HETATM    4  C4  UNL     1     -33.814   6.030   2.945  1.00 20.00    -0.076 C 
HETATM    5  C6  UNL     1     -33.971   4.416   4.958  1.00 20.00     0.054 C 
HETATM    6  C7  UNL     1     -33.265   7.293   5.179  1.00 20.00     0.043 C 
HETATM    7  C8  UNL     1     -33.547   7.339   3.671  1.00 20.00     0.086 C 
HETATM    8  C9  UNL     1     -33.980   6.148   1.444  1.00 20.00     0.044 C 
ENDROOT
BRANCH   7   9
HETATM    9  C5  UNL     1     -32.338   7.968   3.034  1.00 20.00     0.131 C 
HETATM   10  C10 UNL     1     -32.579   8.817   1.816  1.00 20.00     0.091 C 
HETATM   11  O11 UNL     1     -31.207   7.797   3.489  1.00 20.00    -0.298 OA
ENDBRANCH   7   9
TORSDOF 1
ENDMDL
MODEL 2
REMARK VINA RESULT:      -5.6      1.296      2.616
REMARK  1 active torsions:
REMARK  status: ('A' for Active; 'I' for Inactive)
REMARK    1  A    between atoms: C5_5  and  C8_8 
ROOT
HETATM    1  C1  UNL     1     -34.312   4.615   4.410  1.00 20.00    -0.027 C 
HETATM    2  C2  UNL     1     -33.722   4.671   3.210  1.00 20.00    -0.029 C 
HETATM    3  C3  UNL     1     -33.950   6.956   5.314  1.00 20.00    -0.020 C 
HETATM    4  C4  UNL     1     -32.996   7.447   4.495  1.00 20.00    -0.076 C 
HETATM    5  C6  UNL     1     -34.894   5.805   5.111  1.00 20.00     0.054 C 
HETATM    6  C7  UNL     1     -33.613   5.943   2.435  1.00 20.00     0.043 C 
HETATM    7  C8  UNL     1     -32.682   6.977   3.083  1.00 20.00     0.086 C 
HETATM    8  C9  UNL     1     -32.093   8.541   5.025  1.00 20.00     0.044 C 
ENDROOT
BRANCH   7   9
HETATM    9  C5  UNL     1     -32.709   8.188   2.190  1.00 20.00     0.131 C 
HETATM   10  C10 UNL     1     -31.454   8.484   1.415  1.00 20.00     0.091 C 
HETATM   11  O11 UNL     1     -33.708   8.899   2.099  1.00 20.00    -0.298 OA
ENDBRANCH   7   9
TORSDOF 1
ENDMDL
MODEL 3
REMARK VINA RESULT:      -5.4      1.810      4.224
REMARK  1 active torsions:
REMARK  status: ('A' for Active; 'I' for Inactive)
REMARK    1  A    between atoms: C5_5  and  C8_8 
ROOT
HETATM    1  C1  UNL     1     -32.493   8.202   2.074  1.00 20.00    -0.027 C 
HETATM    2  C2  UNL     1     -33.448   7.315   1.775  1.00 20.00    -0.029 C 
HETATM    3  C3  UNL     1     -32.302   7.984   4.593  1.00 20.00    -0.020 C 
HETATM    4  C4  UNL     1     -33.428   7.315   4.919  1.00 20.00    -0.076 C 
HETATM    5  C6  UNL     1     -31.596   8.095   3.271  1.00 20.00     0.054 C 
HETATM    6  C7  UNL     1     -33.695   6.100   2.608  1.00 20.00     0.043 C 
HETATM    7  C8  UNL     1     -34.247   6.417   4.005  1.00 20.00     0.086 C 
HETATM    8  C9  UNL     1     -33.989   7.497   6.314  1.00 20.00     0.044 C 
ENDROOT
BRANCH   7   9
HETATM    9  C5  UNL     1     -34.414   5.096   4.704  1.00 20.00     0.131 C 
HETATM   10  C10 UNL     1     -33.914   3.877   3.976  1.00 20.00     0.091 C 
HETATM   11  O11 UNL     1     -34.932   5.016   5.817  1.00 20.00    -0.298 OA
ENDBRANCH   7   9
TORSDOF 1
ENDMDL
MODEL 4
REMARK VINA RESULT:      -5.1     11.814     13.086
REMARK  1 active torsions:
REMARK  status: ('A' for Active; 'I' for Inactive)
REMARK    1  A    between atoms: C5_5  and  C8_8 
ROOT
HETATM    1  C1  UNL     1     -33.340  17.355  -4.127  1.00 20.00    -0.027 C 
HETATM    2  C2  UNL     1     -33.722  16.330  -3.358  1.00 20.00    -0.029 C 
HETATM    3  C3  UNL     1     -34.053  16.607  -6.442  1.00 20.00    -0.020 C 
HETATM    4  C4  UNL     1     -34.282  15.288  -6.272  1.00 20.00    -0.076 C 
HETATM    5  C6  UNL     1     -33.993  17.714  -5.428  1.00 20.00     0.054 C 
HETATM    6  C7  UNL     1     -34.874  15.450  -3.719  1.00 20.00     0.043 C 
HETATM    7  C8  UNL     1     -34.618  14.588  -4.964  1.00 20.00     0.086 C 
HETATM    8  C9  UNL     1     -34.146  14.377  -7.473  1.00 20.00     0.044 C 
ENDROOT
BRANCH   7   9
HETATM    9  C5  UNL     1     -35.874  13.791  -5.191  1.00 20.00     0.131 C 
HETATM   10  C10 UNL     1     -37.152  14.570  -5.341  1.00 20.00     0.091 C 
HETATM   11  O11 UNL     1     -35.855  12.563  -5.253  1.00 20.00    -0.298 OA
ENDBRANCH   7   9
TORSDOF 1
ENDMDL
MODEL 5
REMARK VINA RESULT:      -5.1     11.581     12.951
REMARK  1 active torsions:
REMARK  status: ('A' for Active; 'I' for Inactive)
REMARK    1  A    between atoms: C5_5  and  C8_8 
ROOT
HETATM    1  C1  UNL     1     -33.141  18.538  -2.486  1.00 20.00    -0.027 C 
HETATM    2  C2  UNL     1     -33.424  17.399  -1.844  1.00 20.00    -0.029 C 
HETATM    3  C3  UNL     1     -33.527  17.916  -4.914  1.00 20.00    -0.020 C 
HETATM    4  C4  UNL     1     -33.561  16.567  -4.873  1.00 20.00    -0.076 C 
HETATM    5  C6  UNL     1     -33.728  18.918  -3.812  1.00 20.00     0.054 C 
HETATM    6  C7  UNL     1     -34.388  16.397  -2.388  1.00 20.00     0.043 C 
HETATM    7  C8  UNL     1     -33.896  15.704  -3.666  1.00 20.00     0.086 C 
HETATM    8  C9  UNL     1     -33.182  15.804  -6.125  1.00 20.00     0.044 C 
ENDROOT
BRANCH   7   9
HETATM    9  C5  UNL     1     -34.987  14.756  -4.080  1.00 20.00     0.131 C 
HETATM   10  C10 UNL     1     -36.357  15.345  -4.279  1.00 20.00     0.091 C 
HETATM   11  O11 UNL     1     -34.770  13.557  -4.249  1.00 20.00    -0.298 OA
ENDBRANCH   7   9
TORSDOF 1
ENDMDL
MODEL 6
REMARK VINA RESULT:      -5.1     11.641     12.491
REMARK  1 active torsions:
REMARK  status: ('A' for Active; 'I' for Inactive)
REMARK    1  A    between atoms: C5_5  and  C8_8 
ROOT
HETATM    1  C1  UNL     1     -34.129  16.608  -2.777  1.00 20.00    -0.027 C 
HETATM    2  C2  UNL     1     -33.375  15.891  -3.619  1.00 20.00    -0.029 C 
HETATM    3  C3  UNL     1     -36.478  16.154  -3.617  1.00 20.00    -0.020 C 
HETATM    4  C4  UNL     1     -36.261  15.625  -4.839  1.00 20.00    -0.076 C 
HETATM    5  C6  UNL     1     -35.551  16.276  -2.440  1.00 20.00     0.054 C 
HETATM    6  C7  UNL     1     -33.883  14.657  -4.290  1.00 20.00     0.043 C 
HETATM    7  C8  UNL     1     -34.993  14.930  -5.314  1.00 20.00     0.086 C 
HETATM    8  C9  UNL     1     -37.348  15.765  -5.883  1.00 20.00     0.044 C 
ENDROOT
BRANCH   7   9
HETATM    9  C5  UNL     1     -35.396  13.591  -5.868  1.00 20.00     0.131 C 
HETATM   10  C10 UNL     1     -35.059  13.326  -7.311  1.00 20.00     0.091 C 
HETATM   11  O11 UNL     1     -35.971  12.753  -5.175  1.00 20.00    -0.298 OA
ENDBRANCH   7   9
TORSDOF 1
ENDMDL
MODEL 7
REMARK VINA RESULT:      -5.0     11.619     12.467
REMARK  1 active torsions:
REMARK  status: ('A' for Active; 'I' for Inactive)
REMARK    1  A    between atoms: C5_5  and  C8_8 
ROOT
HETATM    1  C1  UNL     1     -34.954  14.270  -4.432  1.00 20.00    -0.027 C 
HETATM    2  C2  UNL     1     -33.673  14.641  -4.321  1.00 20.00    -0.029 C 
HETATM    3  C3  UNL     1     -36.158  16.019  -3.046  1.00 20.00    -0.020 C 
HETATM    4  C4  UNL     1     -35.155  16.582  -2.340  1.00 20.00    -0.076 C 
HETATM    5  C6  UNL     1     -36.111  15.216  -4.315  1.00 20.00     0.054 C 
HETATM    6  C7  UNL     1     -33.272  16.062  -4.094  1.00 20.00     0.043 C 
HETATM    7  C8  UNL     1     -33.681  16.600  -2.716  1.00 20.00     0.086 C 
HETATM    8  C9  UNL     1     -35.488  17.224  -1.009  1.00 20.00     0.044 C 
ENDROOT
BRANCH   7   9
HETATM    9  C5  UNL     1     -33.223  18.033  -2.669  1.00 20.00     0.131 C 
HETATM   10  C10 UNL     1     -33.746  18.946  -3.743  1.00 20.00     0.091 C 
HETATM   11  O11 UNL     1     -32.458  18.436  -1.793  1.00 20.00    -0.298 OA
ENDBRANCH   7   9
TORSDOF 1
ENDMDL
MODEL 8
REMARK VINA RESULT:      -5.0      1.832      3.728
REMARK  1 active torsions:
REMARK  status: ('A' for Active; 'I' for Inactive)
REMARK    1  A    between atoms: C5_5  and  C8_8 
ROOT
HETATM    1  C1  UNL     1     -31.646   8.717   3.331  1.00 20.00    -0.027 C 
HETATM    2  C2  UNL     1     -32.067   8.391   4.558  1.00 20.00    -0.029 C 
HETATM    3  C3  UNL     1     -32.692   6.913   1.889  1.00 20.00    -0.020 C 
HETATM    4  C4  UNL     1     -33.061   5.984   2.796  1.00 20.00    -0.076 C 
HETATM    5  C6  UNL     1     -32.388   8.373   2.074  1.00 20.00     0.054 C 
HETATM    6  C7  UNL     1     -33.350   7.663   4.793  1.00 20.00     0.043 C 
HETATM    7  C8  UNL     1     -33.338   6.219   4.273  1.00 20.00     0.086 C 
HETATM    8  C9  UNL     1     -33.169   4.544   2.342  1.00 20.00     0.044 C 
ENDROOT
BRANCH   7   9
HETATM    9  C5  UNL     1     -34.700   5.651   4.571  1.00 20.00     0.131 C 
HETATM   10  C10 UNL     1     -34.806   4.735   5.759  1.00 20.00     0.091 C 
HETATM   11  O11 UNL     1     -35.678   5.925   3.877  1.00 20.00    -0.298 OA
ENDBRANCH   7   9
TORSDOF 1
ENDMDL
MODEL 9
REMARK VINA RESULT:      -4.9     11.931     12.865
REMARK  1 active torsions:
REMARK  status: ('A' for Active; 'I' for Inactive)
REMARK    1  A    between atoms: C5_5  and  C8_8 
ROOT
HETATM    1  C1  UNL     1     -33.237  15.835  -4.104  1.00 20.00    -0.027 C 
HETATM    2  C2  UNL     1     -34.338  15.642  -3.369  1.00 20.00    -0.029 C 
HETATM    3  C3  UNL     1     -33.914  14.913  -6.367  1.00 20.00    -0.020 C 
HETATM    4  C4  UNL     1     -35.024  14.202  -6.079  1.00 20.00    -0.076 C 
HETATM    5  C6  UNL     1     -33.247  16.014  -5.592  1.00 20.00     0.054 C 
HETATM    6  C7  UNL     1     -35.704  15.614  -3.973  1.00 20.00     0.043 C 
HETATM    7  C8  UNL     1     -35.945  14.403  -4.885  1.00 20.00     0.086 C 
HETATM    8  C9  UNL     1     -35.390  13.046  -6.986  1.00 20.00     0.044 C 
ENDROOT
BRANCH   7   9
HETATM    9  C5  UNL     1     -37.345  14.546  -5.417  1.00 20.00     0.131 C 
HETATM   10  C10 UNL     1     -37.584  15.655  -6.404  1.00 20.00     0.091 C 
HETATM   11  O11 UNL     1     -38.250  13.792  -5.061  1.00 20.00    -0.298 OA
ENDBRANCH   7   9
TORSDOF 1
ENDMDL
