MODEL 1
REMARK VINA RESULT:      -4.7      0.000      0.000
REMARK  1 active torsions:
REMARK  status: ('A' for Active; 'I' for Inactive)
REMARK    1  A    between atoms: C2_2  and  C4_4 
ROOT
HETATM    1  C1  UNL     1     -33.501   7.437   5.149  1.00 20.00     0.318 A 
HETATM    2  C2  UNL     1     -33.549   6.094   4.458  1.00 20.00     0.357 A 
HETATM    3  C3  UNL     1     -32.490   7.681   2.949  1.00 20.00     0.310 C 
HETATM    4  N5  UNL     1     -33.688   7.335   3.705  1.00 20.00     0.102 N 
ENDROOT
BRANCH   2   5
HETATM    5  C4  UNL     1     -34.738   5.213   4.615  1.00 20.00     0.419 C 
HETATM    6  F6  UNL     1     -35.814   5.705   3.952  1.00 20.00    -0.169 F 
HETATM    7  F7  UNL     1     -34.504   3.968   4.135  1.00 20.00    -0.169 F 
HETATM    8  F8  UNL     1     -35.093   5.083   5.916  1.00 20.00    -0.169 F 
ENDBRANCH   2   5
TORSDOF 1
ENDMDL
MODEL 2
REMARK VINA RESULT:      -4.7      0.016      1.335
REMARK  1 active torsions:
REMARK  status: ('A' for Active; 'I' for Inactive)
REMARK    1  A    between atoms: C2_2  and  C4_4 
ROOT
HETATM    1  C1  UNL     1     -33.514   7.436   5.148  1.00 20.00     0.318 A 
HETATM    2  C2  UNL     1     -33.552   6.094   4.456  1.00 20.00     0.357 A 
HETATM    3  C3  UNL     1     -32.510   7.690   2.945  1.00 20.00     0.310 C 
HETATM    4  N5  UNL     1     -33.703   7.334   3.704  1.00 20.00     0.102 N 
ENDROOT
BRANCH   2   5
HETATM    5  C4  UNL     1     -34.734   5.203   4.615  1.00 20.00     0.419 C 
HETATM    6  F6  UNL     1     -34.492   3.961   4.127  1.00 20.00    -0.169 F 
HETATM    7  F7  UNL     1     -35.082   5.063   5.917  1.00 20.00    -0.169 F 
HETATM    8  F8  UNL     1     -35.816   5.688   3.959  1.00 20.00    -0.169 F 
ENDBRANCH   2   5
TORSDOF 1
ENDMDL
MODEL 3
REMARK VINA RESULT:      -4.7      0.016      1.340
REMARK  1 active torsions:
REMARK  status: ('A' for Active; 'I' for Inactive)
REMARK    1  A    between atoms: C2_2  and  C4_4 
ROOT
HETATM    1  C1  UNL     1     -33.519   7.443   5.155  1.00 20.00     0.318 A 
HETATM    2  C2  UNL     1     -33.553   6.097   4.470  1.00 20.00     0.357 A 
HETATM    3  C3  UNL     1     -32.498   7.683   2.958  1.00 20.00     0.310 C 
HETATM    4  N5  UNL     1     -33.697   7.332   3.710  1.00 20.00     0.102 N 
ENDROOT
BRANCH   2   5
HETATM    5  C4  UNL     1     -34.737   5.208   4.626  1.00 20.00     0.419 C 
HETATM    6  F6  UNL     1     -35.085   5.063   5.928  1.00 20.00    -0.169 F 
HETATM    7  F7  UNL     1     -35.818   5.697   3.972  1.00 20.00    -0.169 F 
HETATM    8  F8  UNL     1     -34.496   3.967   4.135  1.00 20.00    -0.169 F 
ENDBRANCH   2   5
TORSDOF 1
ENDMDL
MODEL 4
REMARK VINA RESULT:      -4.3      4.336      5.251
REMARK  1 active torsions:
REMARK  status: ('A' for Active; 'I' for Inactive)
REMARK    1  A    between atoms: C2_2  and  C4_4 
ROOT
HETATM    1  C1  UNL     1     -31.574   8.370   3.084  1.00 20.00     0.318 A 
HETATM    2  C2  UNL     1     -32.641   8.784   2.099  1.00 20.00     0.357 A 
HETATM    3  C3  UNL     1     -33.469   6.864   3.342  1.00 20.00     0.310 C 
HETATM    4  N5  UNL     1     -32.441   7.382   2.448  1.00 20.00     0.102 N 
ENDROOT
BRANCH   2   5
HETATM    5  C4  UNL     1     -32.263   9.245   0.735  1.00 20.00     0.419 C 
HETATM    6  F6  UNL     1     -31.094   8.690   0.328  1.00 20.00    -0.169 F 
HETATM    7  F7  UNL     1     -33.205   8.918  -0.182  1.00 20.00    -0.169 F 
HETATM    8  F8  UNL     1     -32.106  10.590   0.689  1.00 20.00    -0.169 F 
ENDBRANCH   2   5
TORSDOF 1
ENDMDL
MODEL 5
REMARK VINA RESULT:      -4.3      4.337      5.201
REMARK  1 active torsions:
REMARK  status: ('A' for Active; 'I' for Inactive)
REMARK    1  A    between atoms: C2_2  and  C4_4 
ROOT
HETATM    1  C1  UNL     1     -31.589   8.343   3.098  1.00 20.00     0.318 A 
HETATM    2  C2  UNL     1     -32.646   8.765   2.105  1.00 20.00     0.357 A 
HETATM    3  C3  UNL     1     -33.485   6.833   3.321  1.00 20.00     0.310 C 
HETATM    4  N5  UNL     1     -32.447   7.361   2.442  1.00 20.00     0.102 N 
ENDROOT
BRANCH   2   5
HETATM    5  C4  UNL     1     -32.254   9.240   0.750  1.00 20.00     0.419 C 
HETATM    6  F6  UNL     1     -32.104  10.588   0.718  1.00 20.00    -0.169 F 
HETATM    7  F7  UNL     1     -31.080   8.694   0.350  1.00 20.00    -0.169 F 
HETATM    8  F8  UNL     1     -33.186   8.918  -0.180  1.00 20.00    -0.169 F 
ENDBRANCH   2   5
TORSDOF 1
ENDMDL
MODEL 6
REMARK VINA RESULT:      -4.3      1.278      1.923
REMARK  1 active torsions:
REMARK  status: ('A' for Active; 'I' for Inactive)
REMARK    1  A    between atoms: C2_2  and  C4_4 
ROOT
HETATM    1  C1  UNL     1     -32.621   5.664   2.913  1.00 20.00     0.318 A 
HETATM    2  C2  UNL     1     -34.037   6.182   2.998  1.00 20.00     0.357 A 
HETATM    3  C3  UNL     1     -32.602   8.026   2.326  1.00 20.00     0.310 C 
HETATM    4  N5  UNL     1     -32.904   7.030   3.347  1.00 20.00     0.102 N 
ENDROOT
BRANCH   2   5
HETATM    5  C4  UNL     1     -34.942   5.713   4.083  1.00 20.00     0.419 C 
HETATM    6  F6  UNL     1     -34.820   4.378   4.292  1.00 20.00    -0.169 F 
HETATM    7  F7  UNL     1     -34.675   6.330   5.259  1.00 20.00    -0.169 F 
HETATM    8  F8  UNL     1     -36.243   5.955   3.787  1.00 20.00    -0.169 F 
ENDBRANCH   2   5
TORSDOF 1
ENDMDL
MODEL 7
REMARK VINA RESULT:      -4.0      1.670      1.909
REMARK  1 active torsions:
REMARK  status: ('A' for Active; 'I' for Inactive)
REMARK    1  A    between atoms: C2_2  and  C4_4 
ROOT
HETATM    1  C1  UNL     1     -32.891   7.624   4.060  1.00 20.00     0.318 A 
HETATM    2  C2  UNL     1     -32.593   6.552   3.039  1.00 20.00     0.357 A 
HETATM    3  C3  UNL     1     -31.928   8.694   2.097  1.00 20.00     0.310 C 
HETATM    4  N5  UNL     1     -33.019   7.886   2.629  1.00 20.00     0.102 N 
ENDROOT
BRANCH   2   5
HETATM    5  C4  UNL     1     -33.532   5.412   2.855  1.00 20.00     0.419 C 
HETATM    6  F6  UNL     1     -34.625   5.776   2.139  1.00 20.00    -0.169 F 
HETATM    7  F7  UNL     1     -32.945   4.383   2.198  1.00 20.00    -0.169 F 
HETATM    8  F8  UNL     1     -33.972   4.932   4.044  1.00 20.00    -0.169 F 
ENDBRANCH   2   5
TORSDOF 1
ENDMDL
MODEL 8
REMARK VINA RESULT:      -4.0      2.873      3.607
REMARK  1 active torsions:
REMARK  status: ('A' for Active; 'I' for Inactive)
REMARK    1  A    between atoms: C2_2  and  C4_4 
ROOT
HETATM    1  C1  UNL     1     -33.709   7.138   5.326  1.00 20.00     0.318 A 
HETATM    2  C2  UNL     1     -33.771   7.335   3.830  1.00 20.00     0.357 A 
HETATM    3  C3  UNL     1     -35.195   5.447   4.400  1.00 20.00     0.310 C 
HETATM    4  N5  UNL     1     -33.847   6.003   4.418  1.00 20.00     0.102 N 
ENDROOT
BRANCH   2   5
HETATM    5  C4  UNL     1     -32.547   7.716   3.074  1.00 20.00     0.419 C 
HETATM    6  F6  UNL     1     -32.822   8.622   2.103  1.00 20.00    -0.169 F 
HETATM    7  F7  UNL     1     -31.611   8.267   3.884  1.00 20.00    -0.169 F 
HETATM    8  F8  UNL     1     -31.978   6.643   2.472  1.00 20.00    -0.169 F 
ENDBRANCH   2   5
TORSDOF 1
ENDMDL
MODEL 9
REMARK VINA RESULT:      -4.0      2.205      2.981
REMARK  1 active torsions:
REMARK  status: ('A' for Active; 'I' for Inactive)
REMARK    1  A    between atoms: C2_2  and  C4_4 
ROOT
HETATM    1  C1  UNL     1     -35.077   5.656   4.511  1.00 20.00     0.318 A 
HETATM    2  C2  UNL     1     -33.627   5.688   4.091  1.00 20.00     0.357 A 
HETATM    3  C3  UNL     1     -33.884   7.145   6.022  1.00 20.00     0.310 C 
HETATM    4  N5  UNL     1     -34.277   6.870   4.645  1.00 20.00     0.102 N 
ENDROOT
BRANCH   2   5
HETATM    5  C4  UNL     1     -33.265   5.679   2.647  1.00 20.00     0.419 C 
HETATM    6  F6  UNL     1     -32.771   4.476   2.264  1.00 20.00    -0.169 F 
HETATM    7  F7  UNL     1     -34.337   5.943   1.862  1.00 20.00    -0.169 F 
HETATM    8  F8  UNL     1     -32.321   6.609   2.364  1.00 20.00    -0.169 F 
ENDBRANCH   2   5
TORSDOF 1
ENDMDL
