MODEL 1
REMARK VINA RESULT:      -6.5      0.000      0.000
REMARK  2 active torsions:
REMARK  status: ('A' for Active; 'I' for Inactive)
REMARK    1  A    between atoms: C1_1  and  C8_8 
REMARK    2  A    between atoms: C2_2  and  C9_9 
ROOT
HETATM    1  C3  UNL     1     -33.711   7.102   5.207  1.00 20.00     0.082 C 
HETATM    2  C6  UNL     1     -35.107   5.906   3.474  1.00 20.00     0.040 A 
HETATM    3  C7  UNL     1     -33.833   5.131   3.632  1.00 20.00     0.040 A 
HETATM    4  C9  UNL     1     -33.836   6.623   3.862  1.00 20.00     0.112 A 
HETATM    5  N10 UNL     1     -33.610   7.490   6.296  1.00 20.00    -0.195 NA
ENDROOT
BRANCH   4   6
HETATM    6  C2  UNL     1     -33.204   7.460   2.883  1.00 20.00    -0.081 C 
HETATM    7  C1  UNL     1     -32.675   8.161   2.063  1.00 20.00    -0.100 C 
BRANCH   7   8
HETATM    8  C8  UNL     1     -32.031   9.014   1.065  1.00 20.00     0.065 A 
HETATM    9  C4  UNL     1     -32.522  10.415   0.926  1.00 20.00     0.018 A 
HETATM   10  C5  UNL     1     -32.825   9.402  -0.136  1.00 20.00     0.018 A 
ENDBRANCH   7   8
ENDBRANCH   4   6
TORSDOF 2
ENDMDL
MODEL 2
REMARK VINA RESULT:      -5.5      1.757      2.131
REMARK  2 active torsions:
REMARK  status: ('A' for Active; 'I' for Inactive)
REMARK    1  A    between atoms: C1_1  and  C8_8 
REMARK    2  A    between atoms: C2_2  and  C9_9 
ROOT
HETATM    1  C3  UNL     1     -33.240   4.899   2.944  1.00 20.00     0.082 C 
HETATM    2  C6  UNL     1     -34.041   6.331   4.865  1.00 20.00     0.040 A 
HETATM    3  C7  UNL     1     -35.151   6.276   3.858  1.00 20.00     0.040 A 
HETATM    4  C9  UNL     1     -33.716   6.173   3.400  1.00 20.00     0.112 A 
HETATM    5  N10 UNL     1     -32.854   3.869   2.575  1.00 20.00    -0.195 NA
ENDROOT
BRANCH   4   6
HETATM    6  C2  UNL     1     -33.144   7.292   2.708  1.00 20.00    -0.081 C 
HETATM    7  C1  UNL     1     -32.665   8.228   2.128  1.00 20.00    -0.100 C 
BRANCH   7   8
HETATM    8  C8  UNL     1     -32.082   9.369   1.422  1.00 20.00     0.065 A 
HETATM    9  C4  UNL     1     -32.880  10.627   1.355  1.00 20.00     0.018 A 
HETATM   10  C5  UNL     1     -32.705   9.780   0.131  1.00 20.00     0.018 A 
ENDBRANCH   7   8
ENDBRANCH   4   6
TORSDOF 2
ENDMDL
MODEL 3
REMARK VINA RESULT:      -4.7      1.960      4.825
REMARK  2 active torsions:
REMARK  status: ('A' for Active; 'I' for Inactive)
REMARK    1  A    between atoms: C1_1  and  C8_8 
REMARK    2  A    between atoms: C2_2  and  C9_9 
ROOT
HETATM    1  C3  UNL     1     -32.536  10.425   1.662  1.00 20.00     0.082 C 
HETATM    2  C6  UNL     1     -31.360   8.781   0.146  1.00 20.00     0.040 A 
HETATM    3  C7  UNL     1     -32.783   8.875  -0.319  1.00 20.00     0.040 A 
HETATM    4  C9  UNL     1     -32.453   9.092   1.139  1.00 20.00     0.112 A 
HETATM    5  N10 UNL     1     -32.602  11.503   2.085  1.00 20.00    -0.195 NA
ENDROOT
BRANCH   4   6
HETATM    6  C2  UNL     1     -32.827   8.073   2.077  1.00 20.00    -0.081 C 
HETATM    7  C1  UNL     1     -33.140   7.219   2.862  1.00 20.00    -0.100 C 
BRANCH   7   8
HETATM    8  C8  UNL     1     -33.522   6.180   3.817  1.00 20.00     0.065 A 
HETATM    9  C4  UNL     1     -34.976   5.921   4.020  1.00 20.00     0.018 A 
HETATM   10  C5  UNL     1     -34.177   6.608   5.086  1.00 20.00     0.018 A 
ENDBRANCH   7   8
ENDBRANCH   4   6
TORSDOF 2
ENDMDL
MODEL 4
REMARK VINA RESULT:      -4.7      2.381      4.990
REMARK  2 active torsions:
REMARK  status: ('A' for Active; 'I' for Inactive)
REMARK    1  A    between atoms: C1_1  and  C8_8 
REMARK    2  A    between atoms: C2_2  and  C9_9 
ROOT
HETATM    1  C3  UNL     1     -32.562   8.775   1.447  1.00 20.00     0.082 C 
HETATM    2  C6  UNL     1     -31.623   9.203   3.753  1.00 20.00     0.040 A 
HETATM    3  C7  UNL     1     -30.791   8.123   3.127  1.00 20.00     0.040 A 
HETATM    4  C9  UNL     1     -32.246   8.264   2.749  1.00 20.00     0.112 A 
HETATM    5  N10 UNL     1     -32.818   9.189   0.393  1.00 20.00    -0.195 NA
ENDROOT
BRANCH   4   6
HETATM    6  C2  UNL     1     -33.169   7.275   3.227  1.00 20.00    -0.081 C 
HETATM    7  C1  UNL     1     -33.942   6.447   3.627  1.00 20.00    -0.100 C 
BRANCH   7   8
HETATM    8  C8  UNL     1     -34.882   5.439   4.115  1.00 20.00     0.065 A 
HETATM    9  C4  UNL     1     -34.770   5.015   5.541  1.00 20.00     0.018 A 
HETATM   10  C5  UNL     1     -34.346   4.087   4.443  1.00 20.00     0.018 A 
ENDBRANCH   7   8
ENDBRANCH   4   6
TORSDOF 2
ENDMDL
MODEL 5
REMARK VINA RESULT:      -4.6     10.285     11.017
REMARK  2 active torsions:
REMARK  status: ('A' for Active; 'I' for Inactive)
REMARK    1  A    between atoms: C1_1  and  C8_8 
REMARK    2  A    between atoms: C2_2  and  C9_9 
ROOT
HETATM    1  C3  UNL     1     -35.169  13.817  -4.836  1.00 20.00     0.082 C 
HETATM    2  C6  UNL     1     -33.315  15.417  -5.459  1.00 20.00     0.040 A 
HETATM    3  C7  UNL     1     -32.746  14.438  -4.475  1.00 20.00     0.040 A 
HETATM    4  C9  UNL     1     -34.211  14.798  -4.414  1.00 20.00     0.112 A 
HETATM    5  N10 UNL     1     -35.943  13.024  -5.178  1.00 20.00    -0.195 NA
ENDROOT
BRANCH   4   6
HETATM    6  C2  UNL     1     -34.662  15.624  -3.331  1.00 20.00    -0.081 C 
HETATM    7  C1  UNL     1     -35.038  16.316  -2.424  1.00 20.00    -0.100 C 
BRANCH   7   8
HETATM    8  C8  UNL     1     -35.497  17.158  -1.319  1.00 20.00     0.065 A 
HETATM    9  C4  UNL     1     -35.185  18.615  -1.379  1.00 20.00     0.018 A 
HETATM   10  C5  UNL     1     -34.466  17.729  -0.406  1.00 20.00     0.018 A 
ENDBRANCH   7   8
ENDBRANCH   4   6
TORSDOF 2
ENDMDL
MODEL 6
REMARK VINA RESULT:      -4.5     10.104     11.069
REMARK  2 active torsions:
REMARK  status: ('A' for Active; 'I' for Inactive)
REMARK    1  A    between atoms: C1_1  and  C8_8 
REMARK    2  A    between atoms: C2_2  and  C9_9 
ROOT
HETATM    1  C3  UNL     1     -32.258  18.215  -0.530  1.00 20.00     0.082 C 
HETATM    2  C6  UNL     1     -34.606  19.102  -0.820  1.00 20.00     0.040 A 
HETATM    3  C7  UNL     1     -34.694  17.890   0.058  1.00 20.00     0.040 A 
HETATM    4  C9  UNL     1     -33.601  17.987  -0.979  1.00 20.00     0.112 A 
HETATM    5  N10 UNL     1     -31.172  18.400  -0.167  1.00 20.00    -0.195 NA
ENDROOT
BRANCH   4   6
HETATM    6  C2  UNL     1     -33.694  17.150  -2.141  1.00 20.00    -0.081 C 
HETATM    7  C1  UNL     1     -33.771  16.450  -3.114  1.00 20.00    -0.100 C 
BRANCH   7   8
HETATM    8  C8  UNL     1     -33.866  15.597  -4.298  1.00 20.00     0.065 A 
HETATM    9  C4  UNL     1     -34.480  14.248  -4.136  1.00 20.00     0.018 A 
HETATM   10  C5  UNL     1     -33.003  14.382  -4.351  1.00 20.00     0.018 A 
ENDBRANCH   7   8
ENDBRANCH   4   6
TORSDOF 2
ENDMDL
MODEL 7
REMARK VINA RESULT:      -4.3     10.610     11.490
REMARK  2 active torsions:
REMARK  status: ('A' for Active; 'I' for Inactive)
REMARK    1  A    between atoms: C1_1  and  C8_8 
REMARK    2  A    between atoms: C2_2  and  C9_9 
ROOT
HETATM    1  C3  UNL     1     -35.345  13.895  -5.262  1.00 20.00     0.082 C 
HETATM    2  C6  UNL     1     -34.930  16.049  -6.515  1.00 20.00     0.040 A 
HETATM    3  C7  UNL     1     -33.607  15.358  -6.369  1.00 20.00     0.040 A 
HETATM    4  C9  UNL     1     -34.676  15.162  -5.321  1.00 20.00     0.112 A 
HETATM    5  N10 UNL     1     -35.886  12.870  -5.215  1.00 20.00    -0.195 NA
ENDROOT
BRANCH   4   6
HETATM    6  C2  UNL     1     -34.491  15.784  -4.041  1.00 20.00    -0.081 C 
HETATM    7  C1  UNL     1     -34.337  16.305  -2.970  1.00 20.00    -0.100 C 
BRANCH   7   8
HETATM    8  C8  UNL     1     -34.149  16.939  -1.665  1.00 20.00     0.065 A 
HETATM    9  C4  UNL     1     -35.360  17.184  -0.830  1.00 20.00     0.018 A 
HETATM   10  C5  UNL     1     -34.655  18.331  -1.489  1.00 20.00     0.018 A 
ENDBRANCH   7   8
ENDBRANCH   4   6
TORSDOF 2
ENDMDL
MODEL 8
REMARK VINA RESULT:      -4.2      9.924     10.964
REMARK  2 active torsions:
REMARK  status: ('A' for Active; 'I' for Inactive)
REMARK    1  A    between atoms: C1_1  and  C8_8 
REMARK    2  A    between atoms: C2_2  and  C9_9 
ROOT
HETATM    1  C3  UNL     1     -34.752  17.714  -0.086  1.00 20.00     0.082 C 
HETATM    2  C6  UNL     1     -32.298  18.190  -0.456  1.00 20.00     0.040 A 
HETATM    3  C7  UNL     1     -33.071  19.262  -1.164  1.00 20.00     0.040 A 
HETATM    4  C9  UNL     1     -33.669  17.884  -1.010  1.00 20.00     0.112 A 
HETATM    5  N10 UNL     1     -35.628  17.575   0.662  1.00 20.00    -0.195 NA
ENDROOT
BRANCH   4   6
HETATM    6  C2  UNL     1     -33.759  17.051  -2.175  1.00 20.00    -0.081 C 
HETATM    7  C1  UNL     1     -33.834  16.354  -3.151  1.00 20.00    -0.100 C 
BRANCH   7   8
HETATM    8  C8  UNL     1     -33.926  15.505  -4.338  1.00 20.00     0.065 A 
HETATM    9  C4  UNL     1     -34.503  14.140  -4.174  1.00 20.00     0.018 A 
HETATM   10  C5  UNL     1     -33.034  14.313  -4.411  1.00 20.00     0.018 A 
ENDBRANCH   7   8
ENDBRANCH   4   6
TORSDOF 2
ENDMDL
MODEL 9
REMARK VINA RESULT:      -4.2     10.569     11.582
REMARK  2 active torsions:
REMARK  status: ('A' for Active; 'I' for Inactive)
REMARK    1  A    between atoms: C1_1  and  C8_8 
REMARK    2  A    between atoms: C2_2  and  C9_9 
ROOT
HETATM    1  C3  UNL     1     -33.924  16.467  -5.392  1.00 20.00     0.082 C 
HETATM    2  C6  UNL     1     -32.984  14.385  -4.313  1.00 20.00     0.040 A 
HETATM    3  C7  UNL     1     -34.478  14.302  -4.213  1.00 20.00     0.040 A 
HETATM    4  C9  UNL     1     -33.800  15.651  -4.219  1.00 20.00     0.112 A 
HETATM    5  N10 UNL     1     -34.024  17.127  -6.341  1.00 20.00    -0.195 NA
ENDROOT
BRANCH   4   6
HETATM    6  C2  UNL     1     -33.760  16.395  -2.993  1.00 20.00    -0.081 C 
HETATM    7  C1  UNL     1     -33.727  17.017  -1.965  1.00 20.00    -0.100 C 
BRANCH   7   8
HETATM    8  C8  UNL     1     -33.685  17.774  -0.715  1.00 20.00     0.065 A 
HETATM    9  C4  UNL     1     -33.650  19.263  -0.805  1.00 20.00     0.018 A 
HETATM   10  C5  UNL     1     -32.428  18.504  -0.385  1.00 20.00     0.018 A 
ENDBRANCH   7   8
ENDBRANCH   4   6
TORSDOF 2
ENDMDL
