MODEL 1
REMARK VINA RESULT:      -5.7      0.000      0.000
REMARK  0 active torsions:
REMARK  status: ('A' for Active; 'I' for Inactive)
ROOT
HETATM    1  C1  UNL     1     -31.963   9.168   1.083  1.00 20.00     0.017 C 
HETATM    2  C2  UNL     1     -32.211   8.350   1.925  1.00 20.00    -0.057 C 
HETATM    3  C3  UNL     1     -33.751   7.000   4.930  1.00 20.00     0.182 C 
HETATM    4  C4  UNL     1     -33.354   5.174   3.275  1.00 20.00     0.182 C 
HETATM    5  C5  UNL     1     -32.512   7.352   2.956  1.00 20.00     0.341 C 
HETATM    6  C6  UNL     1     -34.331   5.701   4.341  1.00 20.00    -0.004 C 
HETATM    7  C7  UNL     1     -35.696   5.995   3.690  1.00 20.00     0.019 C 
HETATM    8  C8  UNL     1     -34.514   4.657   5.449  1.00 20.00     0.019 C 
HETATM    9  O9  UNL     1     -33.428   7.927   3.891  1.00 20.00    -0.350 OA
HETATM   10  O10 UNL     1     -33.051   6.191   2.318  1.00 20.00    -0.350 OA
ENDROOT
TORSDOF 0
ENDMDL
MODEL 2
REMARK VINA RESULT:      -4.2     11.428     12.490
REMARK  0 active torsions:
REMARK  status: ('A' for Active; 'I' for Inactive)
ROOT
HETATM    1  C1  UNL     1     -33.717  17.436  -1.652  1.00 20.00     0.017 C 
HETATM    2  C2  UNL     1     -33.662  16.691  -2.591  1.00 20.00    -0.057 C 
HETATM    3  C3  UNL     1     -34.836  14.179  -4.943  1.00 20.00     0.182 C 
HETATM    4  C4  UNL     1     -33.204  15.703  -6.059  1.00 20.00     0.182 C 
HETATM    5  C5  UNL     1     -33.595  15.778  -3.736  1.00 20.00     0.341 C 
HETATM    6  C6  UNL     1     -34.506  14.907  -6.259  1.00 20.00    -0.004 C 
HETATM    7  C7  UNL     1     -35.652  15.875  -6.614  1.00 20.00     0.019 C 
HETATM    8  C8  UNL     1     -34.334  13.891  -7.394  1.00 20.00     0.019 C 
HETATM    9  O9  UNL     1     -34.845  15.094  -3.846  1.00 20.00    -0.350 OA
HETATM   10  O10 UNL     1     -33.294  16.542  -4.907  1.00 20.00    -0.350 OA
ENDROOT
TORSDOF 0
ENDMDL
MODEL 3
REMARK VINA RESULT:      -4.1     11.210     12.141
REMARK  0 active torsions:
REMARK  status: ('A' for Active; 'I' for Inactive)
ROOT
HETATM    1  C1  UNL     1     -35.219  16.961  -1.212  1.00 20.00     0.017 C 
HETATM    2  C2  UNL     1     -34.933  16.601  -2.321  1.00 20.00    -0.057 C 
HETATM    3  C3  UNL     1     -33.689  14.351  -4.892  1.00 20.00     0.182 C 
HETATM    4  C4  UNL     1     -35.467  15.830  -5.833  1.00 20.00     0.182 C 
HETATM    5  C5  UNL     1     -34.581  16.160  -3.674  1.00 20.00     0.341 C 
HETATM    6  C6  UNL     1     -34.885  14.404  -5.859  1.00 20.00    -0.004 C 
HETATM    7  C7  UNL     1     -35.962  13.400  -5.404  1.00 20.00     0.019 C 
HETATM    8  C8  UNL     1     -34.431  14.047  -7.279  1.00 20.00     0.019 C 
HETATM    9  O9  UNL     1     -34.061  14.831  -3.599  1.00 20.00    -0.350 OA
HETATM   10  O10 UNL     1     -35.751  16.236  -4.493  1.00 20.00    -0.350 OA
ENDROOT
TORSDOF 0
ENDMDL
MODEL 4
REMARK VINA RESULT:      -4.0     11.427     12.421
REMARK  0 active torsions:
REMARK  status: ('A' for Active; 'I' for Inactive)
ROOT
HETATM    1  C1  UNL     1     -34.546  17.416  -1.341  1.00 20.00     0.017 C 
HETATM    2  C2  UNL     1     -34.613  16.636  -2.251  1.00 20.00    -0.057 C 
HETATM    3  C3  UNL     1     -35.655  15.352  -5.489  1.00 20.00     0.182 C 
HETATM    4  C4  UNL     1     -33.387  14.482  -4.911  1.00 20.00     0.182 C 
HETATM    5  C5  UNL     1     -34.696  15.683  -3.362  1.00 20.00     0.341 C 
HETATM    6  C6  UNL     1     -34.272  14.992  -6.063  1.00 20.00    -0.004 C 
HETATM    7  C7  UNL     1     -33.632  16.246  -6.689  1.00 20.00     0.019 C 
HETATM    8  C8  UNL     1     -34.414  13.908  -7.137  1.00 20.00     0.019 C 
HETATM    9  O9  UNL     1     -35.527  16.244  -4.381  1.00 20.00    -0.350 OA
HETATM   10  O10 UNL     1     -33.372  15.418  -3.831  1.00 20.00    -0.350 OA
ENDROOT
TORSDOF 0
ENDMDL
MODEL 5
REMARK VINA RESULT:      -3.9     11.114     11.983
REMARK  0 active torsions:
REMARK  status: ('A' for Active; 'I' for Inactive)
ROOT
HETATM    1  C1  UNL     1     -32.945  18.105  -1.496  1.00 20.00     0.017 C 
HETATM    2  C2  UNL     1     -33.644  17.265  -1.991  1.00 20.00    -0.057 C 
HETATM    3  C3  UNL     1     -36.499  15.928  -3.803  1.00 20.00     0.182 C 
HETATM    4  C4  UNL     1     -34.502  14.471  -4.154  1.00 20.00     0.182 C 
HETATM    5  C5  UNL     1     -34.500  16.239  -2.595  1.00 20.00     0.341 C 
HETATM    6  C6  UNL     1     -35.749  15.066  -4.834  1.00 20.00    -0.004 C 
HETATM    7  C7  UNL     1     -35.318  15.944  -6.024  1.00 20.00     0.019 C 
HETATM    8  C8  UNL     1     -36.659  13.941  -5.341  1.00 20.00     0.019 C 
HETATM    9  O9  UNL     1     -35.620  16.883  -3.205  1.00 20.00    -0.350 OA
HETATM   10  O10 UNL     1     -33.723  15.499  -3.539  1.00 20.00    -0.350 OA
ENDROOT
TORSDOF 0
ENDMDL
MODEL 6
REMARK VINA RESULT:      -3.9      1.732      4.386
REMARK  0 active torsions:
REMARK  status: ('A' for Active; 'I' for Inactive)
ROOT
HETATM    1  C1  UNL     1     -34.102   7.091   6.275  1.00 20.00     0.017 C 
HETATM    2  C2  UNL     1     -33.514   7.180   5.232  1.00 20.00    -0.057 C 
HETATM    3  C3  UNL     1     -33.114   7.575   1.640  1.00 20.00     0.182 C 
HETATM    4  C4  UNL     1     -31.135   8.521   2.833  1.00 20.00     0.182 C 
HETATM    5  C5  UNL     1     -32.798   7.286   3.957  1.00 20.00     0.341 C 
HETATM    6  C6  UNL     1     -32.083   8.719   1.636  1.00 20.00    -0.004 C 
HETATM    7  C7  UNL     1     -32.812  10.070   1.773  1.00 20.00     0.019 C 
HETATM    8  C8  UNL     1     -31.287   8.706   0.326  1.00 20.00     0.019 C 
HETATM    9  O9  UNL     1     -33.755   7.475   2.913  1.00 20.00    -0.350 OA
HETATM   10  O10 UNL     1     -31.875   8.374   4.046  1.00 20.00    -0.350 OA
ENDROOT
TORSDOF 0
ENDMDL
MODEL 7
REMARK VINA RESULT:      -3.8     11.236     12.345
REMARK  0 active torsions:
REMARK  status: ('A' for Active; 'I' for Inactive)
ROOT
HETATM    1  C1  UNL     1     -35.255  17.337  -0.315  1.00 20.00     0.017 C 
HETATM    2  C2  UNL     1     -35.138  17.143  -1.493  1.00 20.00    -0.057 C 
HETATM    3  C3  UNL     1     -33.435  16.951  -4.700  1.00 20.00     0.182 C 
HETATM    4  C4  UNL     1     -35.285  15.276  -4.610  1.00 20.00     0.182 C 
HETATM    5  C5  UNL     1     -34.993  16.907  -2.933  1.00 20.00     0.341 C 
HETATM    6  C6  UNL     1     -33.851  15.525  -5.109  1.00 20.00    -0.004 C 
HETATM    7  C7  UNL     1     -32.895  14.504  -4.463  1.00 20.00     0.019 C 
HETATM    8  C8  UNL     1     -33.791  15.377  -6.634  1.00 20.00     0.019 C 
HETATM    9  O9  UNL     1     -33.635  17.154  -3.300  1.00 20.00    -0.350 OA
HETATM   10  O10 UNL     1     -35.392  15.563  -3.214  1.00 20.00    -0.350 OA
ENDROOT
TORSDOF 0
ENDMDL
MODEL 8
REMARK VINA RESULT:      -3.7      1.000      4.097
REMARK  0 active torsions:
REMARK  status: ('A' for Active; 'I' for Inactive)
ROOT
HETATM    1  C1  UNL     1     -34.776   4.559   5.616  1.00 20.00     0.017 C 
HETATM    2  C2  UNL     1     -34.504   5.307   4.718  1.00 20.00    -0.057 C 
HETATM    3  C3  UNL     1     -33.782   8.491   3.117  1.00 20.00     0.182 C 
HETATM    4  C4  UNL     1     -32.571   6.648   1.945  1.00 20.00     0.182 C 
HETATM    5  C5  UNL     1     -34.173   6.223   3.621  1.00 20.00     0.341 C 
HETATM    6  C6  UNL     1     -32.468   8.113   2.408  1.00 20.00    -0.004 C 
HETATM    7  C7  UNL     1     -31.291   8.262   3.391  1.00 20.00     0.019 C 
HETATM    8  C8  UNL     1     -32.237   9.031   1.202  1.00 20.00     0.019 C 
HETATM    9  O9  UNL     1     -34.091   7.550   4.146  1.00 20.00    -0.350 OA
HETATM   10  O10 UNL     1     -32.941   5.798   3.033  1.00 20.00    -0.350 OA
ENDROOT
TORSDOF 0
ENDMDL
MODEL 9
REMARK VINA RESULT:      -3.7     11.692     12.689
REMARK  0 active torsions:
REMARK  status: ('A' for Active; 'I' for Inactive)
ROOT
HETATM    1  C1  UNL     1     -31.379  18.766   0.869  1.00 20.00     0.017 C 
HETATM    2  C2  UNL     1     -32.231  18.689   0.028  1.00 20.00    -0.057 C 
HETATM    3  C3  UNL     1     -33.612  18.535  -3.333  1.00 20.00     0.182 C 
HETATM    4  C4  UNL     1     -35.062  17.260  -1.750  1.00 20.00     0.182 C 
HETATM    5  C5  UNL     1     -33.271  18.597  -1.002  1.00 20.00     0.341 C 
HETATM    6  C6  UNL     1     -34.485  17.277  -3.178  1.00 20.00    -0.004 C 
HETATM    7  C7  UNL     1     -33.622  16.020  -3.400  1.00 20.00     0.019 C 
HETATM    8  C8  UNL     1     -35.623  17.296  -4.205  1.00 20.00     0.019 C 
HETATM    9  O9  UNL     1     -32.643  18.611  -2.285  1.00 20.00    -0.350 OA
HETATM   10  O10 UNL     1     -34.021  17.399  -0.782  1.00 20.00    -0.350 OA
ENDROOT
TORSDOF 0
ENDMDL
