MODEL 1
REMARK VINA RESULT:      -5.1      0.000      0.000
REMARK  0 active torsions:
REMARK  status: ('A' for Active; 'I' for Inactive)
ROOT
HETATM    1  C1  UNL     1     -33.460   6.350   6.215  1.00 20.00     0.012 A 
HETATM    2  C2  UNL     1     -32.518   5.950   2.489  1.00 20.00     0.006 A 
HETATM    3  C3  UNL     1     -34.710   4.764   4.907  1.00 20.00     0.101 C 
HETATM    4  C4  UNL     1     -34.665   5.954   5.797  1.00 20.00     0.016 A 
HETATM    5  C5  UNL     1     -33.606   5.859   3.272  1.00 20.00     0.035 A 
HETATM    6  C6  UNL     1     -32.698   8.470   1.880  1.00 20.00     0.015 A 
HETATM    7  C7  UNL     1     -34.152   7.237   5.331  1.00 20.00     0.017 A 
HETATM    8  C8  UNL     1     -31.938   7.303   2.437  1.00 20.00     0.015 A 
HETATM    9  C9  UNL     1     -33.953   7.244   3.837  1.00 20.00     0.048 A 
HETATM   10  C10 UNL     1     -32.827   8.140   3.344  1.00 20.00     0.004 A 
HETATM   11  N11 UNL     1     -34.231   4.713   3.697  1.00 20.00    -0.269 NA
ENDROOT
TORSDOF 0
ENDMDL
MODEL 2
REMARK VINA RESULT:      -4.8      1.342      2.233
REMARK  0 active torsions:
REMARK  status: ('A' for Active; 'I' for Inactive)
ROOT
HETATM    1  C1  UNL     1     -35.519   5.930   3.713  1.00 20.00     0.012 A 
HETATM    2  C2  UNL     1     -32.792   8.649   4.026  1.00 20.00     0.006 A 
HETATM    3  C3  UNL     1     -34.294   6.056   5.780  1.00 20.00     0.101 C 
HETATM    4  C4  UNL     1     -34.760   5.281   4.601  1.00 20.00     0.016 A 
HETATM    5  C5  UNL     1     -33.041   7.410   4.481  1.00 20.00     0.035 A 
HETATM    6  C6  UNL     1     -31.503   8.007   1.862  1.00 20.00     0.015 A 
HETATM    7  C7  UNL     1     -34.222   5.522   3.267  1.00 20.00     0.017 A 
HETATM    8  C8  UNL     1     -32.621   8.720   2.565  1.00 20.00     0.015 A 
HETATM    9  C9  UNL     1     -33.008   6.414   3.313  1.00 20.00     0.048 A 
HETATM   10  C10 UNL     1     -32.808   7.288   2.085  1.00 20.00     0.004 A 
HETATM   11  N11 UNL     1     -33.459   7.055   5.740  1.00 20.00    -0.269 NA
ENDROOT
TORSDOF 0
ENDMDL
MODEL 3
REMARK VINA RESULT:      -4.7     11.895     13.087
REMARK  0 active torsions:
REMARK  status: ('A' for Active; 'I' for Inactive)
ROOT
HETATM    1  C1  UNL     1     -34.862  15.237  -7.916  1.00 20.00     0.012 A 
HETATM    2  C2  UNL     1     -35.680  14.763  -4.170  1.00 20.00     0.006 A 
HETATM    3  C3  UNL     1     -35.168  12.991  -7.111  1.00 20.00     0.101 C 
HETATM    4  C4  UNL     1     -34.339  14.013  -7.801  1.00 20.00     0.016 A 
HETATM    5  C5  UNL     1     -35.043  14.110  -5.156  1.00 20.00     0.035 A 
HETATM    6  C6  UNL     1     -33.668  16.138  -3.266  1.00 20.00     0.015 A 
HETATM    7  C7  UNL     1     -33.714  15.110  -7.072  1.00 20.00     0.017 A 
HETATM    8  C8  UNL     1     -35.060  16.053  -3.818  1.00 20.00     0.015 A 
HETATM    9  C9  UNL     1     -33.798  14.901  -5.581  1.00 20.00     0.048 A 
HETATM   10  C10 UNL     1     -33.870  16.178  -4.758  1.00 20.00     0.004 A 
HETATM   11  N11 UNL     1     -35.491  13.012  -5.850  1.00 20.00    -0.269 NA
ENDROOT
TORSDOF 0
ENDMDL
MODEL 4
REMARK VINA RESULT:      -4.6     11.736     12.808
REMARK  0 active torsions:
REMARK  status: ('A' for Active; 'I' for Inactive)
ROOT
HETATM    1  C1  UNL     1     -34.256  14.395  -4.132  1.00 20.00     0.012 A 
HETATM    2  C2  UNL     1     -33.295  17.691  -2.360  1.00 20.00     0.006 A 
HETATM    3  C3  UNL     1     -33.618  16.263  -5.508  1.00 20.00     0.101 C 
HETATM    4  C4  UNL     1     -34.598  15.210  -5.133  1.00 20.00     0.016 A 
HETATM    5  C5  UNL     1     -33.855  17.289  -3.513  1.00 20.00     0.035 A 
HETATM    6  C6  UNL     1     -35.459  17.888  -0.935  1.00 20.00     0.015 A 
HETATM    7  C7  UNL     1     -35.355  15.279  -3.889  1.00 20.00     0.017 A 
HETATM    8  C8  UNL     1     -34.082  17.339  -1.165  1.00 20.00     0.015 A 
HETATM    9  C9  UNL     1     -35.209  16.625  -3.226  1.00 20.00     0.048 A 
HETATM   10  C10 UNL     1     -35.299  16.605  -1.708  1.00 20.00     0.004 A 
HETATM   11  N11 UNL     1     -33.273  17.269  -4.757  1.00 20.00    -0.269 NA
ENDROOT
TORSDOF 0
ENDMDL
MODEL 5
REMARK VINA RESULT:      -4.5     11.898     12.700
REMARK  0 active torsions:
REMARK  status: ('A' for Active; 'I' for Inactive)
ROOT
HETATM    1  C1  UNL     1     -33.711  15.944  -6.257  1.00 20.00     0.012 A 
HETATM    2  C2  UNL     1     -35.949  16.435  -3.146  1.00 20.00     0.006 A 
HETATM    3  C3  UNL     1     -35.173  14.139  -5.632  1.00 20.00     0.101 C 
HETATM    4  C4  UNL     1     -33.812  14.651  -5.939  1.00 20.00     0.016 A 
HETATM    5  C5  UNL     1     -35.323  15.439  -3.794  1.00 20.00     0.035 A 
HETATM    6  C6  UNL     1     -34.031  17.093  -1.520  1.00 20.00     0.015 A 
HETATM    7  C7  UNL     1     -33.107  15.542  -5.025  1.00 20.00     0.017 A 
HETATM    8  C8  UNL     1     -35.032  17.441  -2.581  1.00 20.00     0.015 A 
HETATM    9  C9  UNL     1     -33.803  15.629  -3.690  1.00 20.00     0.048 A 
HETATM   10  C10 UNL     1     -33.643  16.958  -2.969  1.00 20.00     0.004 A 
HETATM   11  N11 UNL     1     -35.893  14.488  -4.604  1.00 20.00    -0.269 NA
ENDROOT
TORSDOF 0
ENDMDL
MODEL 6
REMARK VINA RESULT:      -4.4     11.610     12.729
REMARK  0 active torsions:
REMARK  status: ('A' for Active; 'I' for Inactive)
ROOT
HETATM    1  C1  UNL     1     -33.775  16.506  -5.685  1.00 20.00     0.012 A 
HETATM    2  C2  UNL     1     -36.125  13.453  -5.393  1.00 20.00     0.006 A 
HETATM    3  C3  UNL     1     -33.084  14.691  -4.266  1.00 20.00     0.101 C 
HETATM    4  C4  UNL     1     -33.386  16.132  -4.463  1.00 20.00     0.016 A 
HETATM    5  C5  UNL     1     -35.234  14.118  -4.640  1.00 20.00     0.035 A 
HETATM    6  C6  UNL     1     -38.252  14.795  -4.736  1.00 20.00     0.015 A 
HETATM    7  C7  UNL     1     -34.753  16.609  -4.644  1.00 20.00     0.017 A 
HETATM    8  C8  UNL     1     -37.302  14.258  -5.766  1.00 20.00     0.015 A 
HETATM    9  C9  UNL     1     -35.760  15.529  -4.340  1.00 20.00     0.048 A 
HETATM   10  C10 UNL     1     -37.055  15.619  -5.132  1.00 20.00     0.004 A 
HETATM   11  N11 UNL     1     -33.956  13.725  -4.325  1.00 20.00    -0.269 NA
ENDROOT
TORSDOF 0
ENDMDL
MODEL 7
REMARK VINA RESULT:      -4.4     12.081     12.902
REMARK  0 active torsions:
REMARK  status: ('A' for Active; 'I' for Inactive)
ROOT
HETATM    1  C1  UNL     1     -35.359  18.758  -0.575  1.00 20.00     0.012 A 
HETATM    2  C2  UNL     1     -33.589  17.801  -3.874  1.00 20.00     0.006 A 
HETATM    3  C3  UNL     1     -32.995  19.173  -0.741  1.00 20.00     0.101 C 
HETATM    4  C4  UNL     1     -34.151  18.551  -0.044  1.00 20.00     0.016 A 
HETATM    5  C5  UNL     1     -33.309  17.880  -2.563  1.00 20.00     0.035 A 
HETATM    6  C6  UNL     1     -34.420  15.339  -3.936  1.00 20.00     0.015 A 
HETATM    7  C7  UNL     1     -34.866  17.415  -0.614  1.00 20.00     0.017 A 
HETATM    8  C8  UNL     1     -34.623  16.802  -4.199  1.00 20.00     0.015 A 
HETATM    9  C9  UNL     1     -34.129  16.834  -1.794  1.00 20.00     0.048 A 
HETATM   10  C10 UNL     1     -35.017  16.204  -2.856  1.00 20.00     0.004 A 
HETATM   11  N11 UNL     1     -32.570  18.848  -1.928  1.00 20.00    -0.269 NA
ENDROOT
TORSDOF 0
ENDMDL
MODEL 8
REMARK VINA RESULT:      -4.4     11.691     12.528
REMARK  0 active torsions:
REMARK  status: ('A' for Active; 'I' for Inactive)
ROOT
HETATM    1  C1  UNL     1     -34.999  14.276  -5.963  1.00 20.00     0.012 A 
HETATM    2  C2  UNL     1     -35.781  17.312  -3.705  1.00 20.00     0.006 A 
HETATM    3  C3  UNL     1     -37.170  14.375  -4.931  1.00 20.00     0.101 C 
HETATM    4  C4  UNL     1     -35.893  13.659  -5.186  1.00 20.00     0.016 A 
HETATM    5  C5  UNL     1     -36.106  16.012  -3.800  1.00 20.00     0.035 A 
HETATM    6  C6  UNL     1     -33.694  17.070  -2.175  1.00 20.00     0.015 A 
HETATM    7  C7  UNL     1     -34.637  14.101  -4.590  1.00 20.00     0.017 A 
HETATM    8  C8  UNL     1     -34.351  17.546  -3.437  1.00 20.00     0.015 A 
HETATM    9  C9  UNL     1     -34.866  15.148  -3.530  1.00 20.00     0.048 A 
HETATM   10  C10 UNL     1     -33.738  16.155  -3.370  1.00 20.00     0.004 A 
HETATM   11  N11 UNL     1     -37.288  15.482  -4.255  1.00 20.00    -0.269 NA
ENDROOT
TORSDOF 0
ENDMDL
MODEL 9
REMARK VINA RESULT:      -4.2     12.045     13.173
REMARK  0 active torsions:
REMARK  status: ('A' for Active; 'I' for Inactive)
ROOT
HETATM    1  C1  UNL     1     -35.604  17.678  -1.348  1.00 20.00     0.012 A 
HETATM    2  C2  UNL     1     -33.265  18.547  -4.298  1.00 20.00     0.006 A 
HETATM    3  C3  UNL     1     -33.491  18.709  -0.837  1.00 20.00     0.101 C 
HETATM    4  C4  UNL     1     -34.460  17.596  -0.663  1.00 20.00     0.016 A 
HETATM    5  C5  UNL     1     -33.173  18.184  -3.009  1.00 20.00     0.035 A 
HETATM    6  C6  UNL     1     -33.259  16.176  -5.362  1.00 20.00     0.015 A 
HETATM    7  C7  UNL     1     -34.709  16.626  -1.724  1.00 20.00     0.017 A 
HETATM    8  C8  UNL     1     -33.885  17.524  -5.159  1.00 20.00     0.015 A 
HETATM    9  C9  UNL     1     -33.699  16.752  -2.836  1.00 20.00     0.048 A 
HETATM   10  C10 UNL     1     -34.216  16.376  -4.216  1.00 20.00     0.004 A 
HETATM   11  N11 UNL     1     -32.855  18.985  -1.940  1.00 20.00    -0.269 NA
ENDROOT
TORSDOF 0
ENDMDL
