MODEL 1
REMARK VINA RESULT:      -5.8      0.000      0.000
REMARK  0 active torsions:
REMARK  status: ('A' for Active; 'I' for Inactive)
ROOT
HETATM    1  C1  UNL     1     -33.271   6.037   3.223  1.00 20.00    -0.054 C 
HETATM    2  C2  UNL     1     -33.664   7.189   5.220  1.00 20.00     0.226 C 
HETATM    3  C3  UNL     1     -33.106   4.987   2.407  1.00 20.00     0.017 C 
HETATM    4  C4  UNL     1     -34.314   6.166   4.306  1.00 20.00     0.104 C 
HETATM    5  C5  UNL     1     -32.348   7.222   3.242  1.00 20.00     0.109 C 
HETATM    6  C6  UNL     1     -34.664   4.894   5.063  1.00 20.00     0.025 C 
HETATM    7  C7  UNL     1     -32.678   8.247   2.166  1.00 20.00     0.037 C 
HETATM    8  N8  UNL     1     -32.586   7.754   4.557  1.00 20.00    -0.352 N 
HETATM    9  O9  UNL     1     -34.052   7.479   6.343  1.00 20.00    -0.273 OA
HETATM   10  H20 UNL     1     -32.011   8.485   4.967  1.00 20.00     0.163 HD
ENDROOT
TORSDOF 0
ENDMDL
MODEL 2
REMARK VINA RESULT:      -4.6      1.813      2.980
REMARK  0 active torsions:
REMARK  status: ('A' for Active; 'I' for Inactive)
ROOT
HETATM    1  C1  UNL     1     -34.004   5.587   4.257  1.00 20.00    -0.054 C 
HETATM    2  C2  UNL     1     -32.939   7.086   2.811  1.00 20.00     0.226 C 
HETATM    3  C3  UNL     1     -34.686   4.497   4.632  1.00 20.00     0.017 C 
HETATM    4  C4  UNL     1     -32.888   5.631   3.241  1.00 20.00     0.104 C 
HETATM    5  C5  UNL     1     -34.332   6.973   4.732  1.00 20.00     0.109 C 
HETATM    6  C6  UNL     1     -33.023   4.698   2.047  1.00 20.00     0.025 C 
HETATM    7  C7  UNL     1     -33.726   7.293   6.091  1.00 20.00     0.037 C 
HETATM    8  N8  UNL     1     -33.746   7.782   3.698  1.00 20.00    -0.352 N 
HETATM    9  O9  UNL     1     -32.340   7.560   1.856  1.00 20.00    -0.273 OA
HETATM   10  H20 UNL     1     -33.909   8.782   3.622  1.00 20.00     0.163 HD
ENDROOT
TORSDOF 0
ENDMDL
MODEL 3
REMARK VINA RESULT:      -4.6      1.567      2.468
REMARK  0 active torsions:
REMARK  status: ('A' for Active; 'I' for Inactive)
ROOT
HETATM    1  C1  UNL     1     -34.191   5.943   4.119  1.00 20.00    -0.054 C 
HETATM    2  C2  UNL     1     -32.516   7.541   3.788  1.00 20.00     0.226 C 
HETATM    3  C3  UNL     1     -34.961   5.069   4.784  1.00 20.00     0.017 C 
HETATM    4  C4  UNL     1     -33.775   7.310   4.605  1.00 20.00     0.104 C 
HETATM    5  C5  UNL     1     -33.533   5.632   2.805  1.00 20.00     0.109 C 
HETATM    6  C6  UNL     1     -33.498   7.443   6.095  1.00 20.00     0.025 C 
HETATM    7  C7  UNL     1     -34.461   5.833   1.616  1.00 20.00     0.037 C 
HETATM    8  N8  UNL     1     -32.454   6.582   2.789  1.00 20.00    -0.352 N 
HETATM    9  O9  UNL     1     -31.713   8.445   3.973  1.00 20.00    -0.273 OA
HETATM   10  H20 UNL     1     -31.706   6.554   2.102  1.00 20.00     0.163 HD
ENDROOT
TORSDOF 0
ENDMDL
MODEL 4
REMARK VINA RESULT:      -4.5      1.606      2.617
REMARK  0 active torsions:
REMARK  status: ('A' for Active; 'I' for Inactive)
ROOT
HETATM    1  C1  UNL     1     -33.323   6.804   3.644  1.00 20.00    -0.054 C 
HETATM    2  C2  UNL     1     -34.469   5.545   5.248  1.00 20.00     0.226 C 
HETATM    3  C3  UNL     1     -32.857   7.897   3.024  1.00 20.00     0.017 C 
HETATM    4  C4  UNL     1     -33.362   6.578   5.136  1.00 20.00     0.104 C 
HETATM    5  C5  UNL     1     -33.984   5.663   2.925  1.00 20.00     0.109 C 
HETATM    6  C6  UNL     1     -33.655   7.796   5.998  1.00 20.00     0.025 C 
HETATM    7  C7  UNL     1     -32.986   4.675   2.338  1.00 20.00     0.037 C 
HETATM    8  N8  UNL     1     -34.753   5.061   3.980  1.00 20.00    -0.352 N 
HETATM    9  O9  UNL     1     -34.995   5.186   6.292  1.00 20.00    -0.273 OA
HETATM   10  H20 UNL     1     -35.448   4.340   3.811  1.00 20.00     0.163 HD
ENDROOT
TORSDOF 0
ENDMDL
MODEL 5
REMARK VINA RESULT:      -4.4      2.065      2.756
REMARK  0 active torsions:
REMARK  status: ('A' for Active; 'I' for Inactive)
ROOT
HETATM    1  C1  UNL     1     -33.483   6.891   4.723  1.00 20.00    -0.054 C 
HETATM    2  C2  UNL     1     -33.402   5.437   2.892  1.00 20.00     0.226 C 
HETATM    3  C3  UNL     1     -33.954   7.445   5.848  1.00 20.00     0.017 C 
HETATM    4  C4  UNL     1     -33.441   5.414   4.410  1.00 20.00     0.104 C 
HETATM    5  C5  UNL     1     -33.012   7.689   3.541  1.00 20.00     0.109 C 
HETATM    6  C6  UNL     1     -34.607   4.581   4.920  1.00 20.00     0.025 C 
HETATM    7  C7  UNL     1     -31.575   8.167   3.683  1.00 20.00     0.037 C 
HETATM    8  N8  UNL     1     -33.139   6.732   2.474  1.00 20.00    -0.352 N 
HETATM    9  O9  UNL     1     -33.551   4.462   2.169  1.00 20.00    -0.273 OA
HETATM   10  H20 UNL     1     -33.044   6.985   1.495  1.00 20.00     0.163 HD
ENDROOT
TORSDOF 0
ENDMDL
MODEL 6
REMARK VINA RESULT:      -4.4      1.209      2.821
REMARK  0 active torsions:
REMARK  status: ('A' for Active; 'I' for Inactive)
ROOT
HETATM    1  C1  UNL     1     -33.968   6.112   3.029  1.00 20.00    -0.054 C 
HETATM    2  C2  UNL     1     -33.158   7.372   4.826  1.00 20.00     0.226 C 
HETATM    3  C3  UNL     1     -34.364   5.847   1.777  1.00 20.00     0.017 C 
HETATM    4  C4  UNL     1     -32.765   6.933   3.426  1.00 20.00     0.104 C 
HETATM    5  C5  UNL     1     -34.747   5.703   4.247  1.00 20.00     0.109 C 
HETATM    6  C6  UNL     1     -32.441   8.128   2.543  1.00 20.00     0.025 C 
HETATM    7  C7  UNL     1     -34.478   4.265   4.667  1.00 20.00     0.037 C 
HETATM    8  N8  UNL     1     -34.258   6.632   5.230  1.00 20.00    -0.352 N 
HETATM    9  O9  UNL     1     -32.575   8.219   5.488  1.00 20.00    -0.273 OA
HETATM   10  H20 UNL     1     -34.684   6.738   6.146  1.00 20.00     0.163 HD
ENDROOT
TORSDOF 0
ENDMDL
MODEL 7
REMARK VINA RESULT:      -4.2     11.718     12.755
REMARK  0 active torsions:
REMARK  status: ('A' for Active; 'I' for Inactive)
ROOT
HETATM    1  C1  UNL     1     -34.259  15.711  -5.568  1.00 20.00    -0.054 C 
HETATM    2  C2  UNL     1     -35.335  13.688  -5.097  1.00 20.00     0.226 C 
HETATM    3  C3  UNL     1     -33.652  16.653  -6.303  1.00 20.00     0.017 C 
HETATM    4  C4  UNL     1     -35.483  14.923  -5.967  1.00 20.00     0.104 C 
HETATM    5  C5  UNL     1     -33.730  15.221  -4.250  1.00 20.00     0.109 C 
HETATM    6  C6  UNL     1     -35.597  14.551  -7.438  1.00 20.00     0.025 C 
HETATM    7  C7  UNL     1     -34.123  16.118  -3.084  1.00 20.00     0.037 C 
HETATM    8  N8  UNL     1     -34.354  13.930  -4.147  1.00 20.00    -0.352 N 
HETATM    9  O9  UNL     1     -35.996  12.665  -5.206  1.00 20.00    -0.273 OA
HETATM   10  H20 UNL     1     -34.098  13.250  -3.437  1.00 20.00     0.163 HD
ENDROOT
TORSDOF 0
ENDMDL
MODEL 8
REMARK VINA RESULT:      -4.0     11.469     12.344
REMARK  0 active torsions:
REMARK  status: ('A' for Active; 'I' for Inactive)
ROOT
HETATM    1  C1  UNL     1     -36.033  15.493  -4.294  1.00 20.00    -0.054 C 
HETATM    2  C2  UNL     1     -34.091  14.193  -4.390  1.00 20.00     0.226 C 
HETATM    3  C3  UNL     1     -36.927  16.353  -3.788  1.00 20.00     0.017 C 
HETATM    4  C4  UNL     1     -34.531  15.638  -4.240  1.00 20.00     0.104 C 
HETATM    5  C5  UNL     1     -36.409  14.176  -4.911  1.00 20.00     0.109 C 
HETATM    6  C6  UNL     1     -33.957  16.261  -2.977  1.00 20.00     0.025 C 
HETATM    7  C7  UNL     1     -36.828  14.303  -6.368  1.00 20.00     0.037 C 
HETATM    8  N8  UNL     1     -35.183  13.435  -4.785  1.00 20.00    -0.352 N 
HETATM    9  O9  UNL     1     -32.952  13.781  -4.216  1.00 20.00    -0.273 OA
HETATM   10  H20 UNL     1     -35.121  12.438  -4.971  1.00 20.00     0.163 HD
ENDROOT
TORSDOF 0
ENDMDL
MODEL 9
REMARK VINA RESULT:      -3.9     11.420     12.401
REMARK  0 active torsions:
REMARK  status: ('A' for Active; 'I' for Inactive)
ROOT
HETATM    1  C1  UNL     1     -35.007  15.772  -3.684  1.00 20.00    -0.054 C 
HETATM    2  C2  UNL     1     -35.556  13.919  -5.001  1.00 20.00     0.226 C 
HETATM    3  C3  UNL     1     -34.363  16.484  -2.749  1.00 20.00     0.017 C 
HETATM    4  C4  UNL     1     -34.376  14.811  -4.662  1.00 20.00     0.104 C 
HETATM    5  C5  UNL     1     -36.503  15.752  -3.824  1.00 20.00     0.109 C 
HETATM    6  C6  UNL     1     -33.199  13.997  -4.146  1.00 20.00     0.025 C 
HETATM    7  C7  UNL     1     -37.038  16.932  -4.623  1.00 20.00     0.037 C 
HETATM    8  N8  UNL     1     -36.713  14.513  -4.522  1.00 20.00    -0.352 N 
HETATM    9  O9  UNL     1     -35.489  12.866  -5.620  1.00 20.00    -0.273 OA
HETATM   10  H20 UNL     1     -37.635  14.106  -4.654  1.00 20.00     0.163 HD
ENDROOT
TORSDOF 0
ENDMDL
