MODEL 1
REMARK VINA RESULT:      -3.4      0.000      0.000
REMARK  1 active torsions:
REMARK  status: ('A' for Active; 'I' for Inactive)
REMARK    1  A    between atoms: CA_2  and  C_3 
ROOT
ATOM      1  N   GLY A   1     -34.219  13.820  -4.218  1.00 20.00    -0.249 NA
ATOM      2  CA  GLY A   1     -35.121  14.201  -5.193  1.00 20.00     0.122 A 
HETATM    3  C1  UNK A   1     -33.188  14.636  -4.254  1.00 20.00     0.168 A 
HETATM    4  C2  UNK A   1     -34.762  15.295  -5.953  1.00 20.00     0.104 A 
HETATM    5  S3  UNK A   1     -35.691  15.956  -7.206  1.00 20.00    -0.070 SA
HETATM    6  S4  UNK A   1     -33.237  15.881  -5.433  1.00 20.00    -0.069 SA
ENDROOT
BRANCH   2   7
ATOM      7  C   GLY A   1     -36.334  13.432  -5.327  1.00 20.00     0.292 C 
ATOM      8  O   GLY A   1     -37.430  13.796  -4.873  1.00 20.00    -0.300 OA
ENDBRANCH   2   7
TORSDOF 1
ENDMDL
MODEL 2
REMARK VINA RESULT:      -3.4      1.747      1.747
REMARK  1 active torsions:
REMARK  status: ('A' for Active; 'I' for Inactive)
REMARK    1  A    between atoms: CA_2  and  C_3 
ROOT
ATOM      1  N   GLY A   1     -34.036  13.902  -4.893  1.00 20.00    -0.249 NA
ATOM      2  CA  GLY A   1     -34.275  14.337  -6.182  1.00 20.00     0.122 A 
HETATM    3  C1  UNK A   1     -33.600  14.915  -4.177  1.00 20.00     0.168 A 
HETATM    4  C2  UNK A   1     -34.018  15.670  -6.425  1.00 20.00     0.104 A 
HETATM    5  S3  UNK A   1     -34.228  16.445  -7.918  1.00 20.00    -0.070 SA
HETATM    6  S4  UNK A   1     -33.455  16.420  -4.990  1.00 20.00    -0.069 SA
ENDROOT
BRANCH   2   7
ATOM      7  C   GLY A   1     -34.762  13.375  -7.140  1.00 20.00     0.292 C 
ATOM      8  O   GLY A   1     -35.091  12.216  -6.840  1.00 20.00    -0.300 OA
ENDBRANCH   2   7
TORSDOF 1
ENDMDL
MODEL 3
REMARK VINA RESULT:      -3.3      1.835      1.849
REMARK  1 active torsions:
REMARK  status: ('A' for Active; 'I' for Inactive)
REMARK    1  A    between atoms: CA_2  and  C_3 
ROOT
ATOM      1  N   GLY A   1     -33.740  14.066  -4.750  1.00 20.00    -0.249 NA
ATOM      2  CA  GLY A   1     -35.038  14.513  -4.598  1.00 20.00     0.122 A 
HETATM    3  C1  UNK A   1     -32.921  14.967  -4.254  1.00 20.00     0.168 A 
HETATM    4  C2  UNK A   1     -35.185  15.743  -3.991  1.00 20.00     0.104 A 
HETATM    5  S3  UNK A   1     -36.667  16.508  -3.690  1.00 20.00    -0.070 SA
HETATM    6  S4  UNK A   1     -33.643  16.374  -3.589  1.00 20.00    -0.069 SA
ENDROOT
BRANCH   2   7
ATOM      7  C   GLY A   1     -36.103  13.668  -5.079  1.00 20.00     0.292 C 
ATOM      8  O   GLY A   1     -35.926  12.513  -5.500  1.00 20.00    -0.300 OA
ENDBRANCH   2   7
TORSDOF 1
ENDMDL
MODEL 4
REMARK VINA RESULT:      -3.3      2.765      3.543
REMARK  1 active torsions:
REMARK  status: ('A' for Active; 'I' for Inactive)
REMARK    1  A    between atoms: CA_2  and  C_3 
ROOT
ATOM      1  N   GLY A   1     -38.050  14.254  -4.917  1.00 20.00    -0.249 NA
ATOM      2  CA  GLY A   1     -36.759  14.717  -4.759  1.00 20.00     0.122 A 
HETATM    3  C1  UNK A   1     -38.887  15.228  -4.632  1.00 20.00     0.168 A 
HETATM    4  C2  UNK A   1     -36.634  16.030  -4.356  1.00 20.00     0.104 A 
HETATM    5  S3  UNK A   1     -35.164  16.831  -4.091  1.00 20.00    -0.070 SA
HETATM    6  S4  UNK A   1     -38.189  16.725  -4.166  1.00 20.00    -0.069 SA
ENDROOT
BRANCH   2   7
ATOM      7  C   GLY A   1     -35.677  13.800  -5.023  1.00 20.00     0.292 C 
ATOM      8  O   GLY A   1     -35.841  12.588  -5.232  1.00 20.00    -0.300 OA
ENDBRANCH   2   7
TORSDOF 1
ENDMDL
MODEL 5
REMARK VINA RESULT:      -3.3     12.408     12.916
REMARK  1 active torsions:
REMARK  status: ('A' for Active; 'I' for Inactive)
REMARK    1  A    between atoms: CA_2  and  C_3 
ROOT
ATOM      1  N   GLY A   1     -34.582   5.254   4.676  1.00 20.00    -0.249 NA
ATOM      2  CA  GLY A   1     -33.763   5.885   3.760  1.00 20.00     0.122 A 
HETATM    3  C1  UNK A   1     -34.601   5.960   5.785  1.00 20.00     0.168 A 
HETATM    4  C2  UNK A   1     -33.174   7.058   4.186  1.00 20.00     0.104 A 
HETATM    5  S3  UNK A   1     -32.132   8.017   3.255  1.00 20.00    -0.070 SA
HETATM    6  S4  UNK A   1     -33.659   7.394   5.795  1.00 20.00    -0.069 SA
ENDROOT
BRANCH   2   7
ATOM      7  C   GLY A   1     -33.600   5.272   2.465  1.00 20.00     0.292 C 
ATOM      8  O   GLY A   1     -32.808   4.342   2.241  1.00 20.00    -0.300 OA
ENDBRANCH   2   7
TORSDOF 1
ENDMDL
MODEL 6
REMARK VINA RESULT:      -3.3      2.062      2.952
REMARK  1 active torsions:
REMARK  status: ('A' for Active; 'I' for Inactive)
REMARK    1  A    between atoms: CA_2  and  C_3 
ROOT
ATOM      1  N   GLY A   1     -35.138  13.450  -4.675  1.00 20.00    -0.249 NA
ATOM      2  CA  GLY A   1     -34.283  14.445  -5.107  1.00 20.00     0.122 A 
HETATM    3  C1  UNK A   1     -36.239  13.496  -5.394  1.00 20.00     0.168 A 
HETATM    4  C2  UNK A   1     -34.744  15.228  -6.145  1.00 20.00     0.104 A 
HETATM    5  S3  UNK A   1     -33.888  16.509  -6.852  1.00 20.00    -0.070 SA
HETATM    6  S4  UNK A   1     -36.311  14.708  -6.607  1.00 20.00    -0.069 SA
ENDROOT
BRANCH   2   7
ATOM      7  C   GLY A   1     -33.007  14.571  -4.446  1.00 20.00     0.292 C 
ATOM      8  O   GLY A   1     -32.316  13.601  -4.098  1.00 20.00    -0.300 OA
ENDBRANCH   2   7
TORSDOF 1
ENDMDL
MODEL 7
REMARK VINA RESULT:      -3.3     12.403     12.954
REMARK  1 active torsions:
REMARK  status: ('A' for Active; 'I' for Inactive)
REMARK    1  A    between atoms: CA_2  and  C_3 
ROOT
ATOM      1  N   GLY A   1     -33.625   7.446   5.279  1.00 20.00    -0.249 NA
ATOM      2  CA  GLY A   1     -33.240   6.928   4.059  1.00 20.00     0.122 A 
HETATM    3  C1  UNK A   1     -34.327   6.539   5.923  1.00 20.00     0.168 A 
HETATM    4  C2  UNK A   1     -33.653   5.639   3.793  1.00 20.00     0.104 A 
HETATM    5  S3  UNK A   1     -33.313   4.781   2.372  1.00 20.00    -0.070 SA
HETATM    6  S4  UNK A   1     -34.560   5.041   5.120  1.00 20.00    -0.069 SA
ENDROOT
BRANCH   2   7
ATOM      7  C   GLY A   1     -32.455   7.767   3.187  1.00 20.00     0.292 C 
ATOM      8  O   GLY A   1     -31.411   8.337   3.541  1.00 20.00    -0.300 OA
ENDBRANCH   2   7
TORSDOF 1
ENDMDL
MODEL 8
REMARK VINA RESULT:      -3.2     12.172     12.690
REMARK  1 active torsions:
REMARK  status: ('A' for Active; 'I' for Inactive)
REMARK    1  A    between atoms: CA_2  and  C_3 
ROOT
ATOM      1  N   GLY A   1     -33.588   5.842   2.432  1.00 20.00    -0.249 NA
ATOM      2  CA  GLY A   1     -33.935   5.987   3.761  1.00 20.00     0.122 A 
HETATM    3  C1  UNK A   1     -32.786   6.827   2.093  1.00 20.00     0.168 A 
HETATM    4  C2  UNK A   1     -33.393   7.077   4.410  1.00 20.00     0.104 A 
HETATM    5  S3  UNK A   1     -33.664   7.475   6.035  1.00 20.00    -0.070 SA
HETATM    6  S4  UNK A   1     -32.406   7.962   3.323  1.00 20.00    -0.069 SA
ENDROOT
BRANCH   2   7
ATOM      7  C   GLY A   1     -34.818   5.004   4.339  1.00 20.00     0.292 C 
ATOM      8  O   GLY A   1     -34.543   3.796   4.416  1.00 20.00    -0.300 OA
ENDBRANCH   2   7
TORSDOF 1
ENDMDL
MODEL 9
REMARK VINA RESULT:      -3.2      2.253      2.738
REMARK  1 active torsions:
REMARK  status: ('A' for Active; 'I' for Inactive)
REMARK    1  A    between atoms: CA_2  and  C_3 
ROOT
ATOM      1  N   GLY A   1     -36.860  15.585  -4.030  1.00 20.00    -0.249 NA
ATOM      2  CA  GLY A   1     -35.757  14.914  -4.520  1.00 20.00     0.122 A 
HETATM    3  C1  UNK A   1     -36.455  16.495  -3.170  1.00 20.00     0.168 A 
HETATM    4  C2  UNK A   1     -34.535  15.322  -4.027  1.00 20.00     0.104 A 
HETATM    5  S3  UNK A   1     -33.038  14.660  -4.468  1.00 20.00    -0.070 SA
HETATM    6  S4  UNK A   1     -34.763  16.597  -2.905  1.00 20.00    -0.069 SA
ENDROOT
BRANCH   2   7
ATOM      7  C   GLY A   1     -35.980  13.865  -5.486  1.00 20.00     0.292 C 
ATOM      8  O   GLY A   1     -35.947  12.657  -5.205  1.00 20.00    -0.300 OA
ENDBRANCH   2   7
TORSDOF 1
ENDMDL
