MODEL 1
REMARK VINA RESULT:      -5.5      0.000      0.000
REMARK  1 active torsions:
REMARK  status: ('A' for Active; 'I' for Inactive)
REMARK    1  A    between atoms: C1_1  and  C6_6 
ROOT
HETATM    1  C2  UNL     1     -33.960   7.393   6.044  1.00 20.00     0.001 C 
HETATM    2  C3  UNL     1     -32.902   7.698   4.998  1.00 20.00     0.001 C 
HETATM    3  C4  UNL     1     -34.328   5.947   5.743  1.00 20.00     0.018 C 
HETATM    4  C5  UNL     1     -33.396   6.998   3.734  1.00 20.00     0.018 C 
HETATM    5  C6  UNL     1     -34.329   5.866   4.208  1.00 20.00     0.032 C 
HETATM    6  C7  UNL     1     -35.720   6.123   3.685  1.00 20.00     0.025 C 
ENDROOT
BRANCH   5   7
HETATM    7  C1  UNL     1     -33.877   4.493   3.715  1.00 20.00     0.227 C 
HETATM    8  O8  UNL     1     -34.259   3.457   4.250  1.00 20.00    -0.279 OA
HETATM    9 CL9  UNL     1     -32.800   4.610   2.356  1.00 20.00    -0.043 Cl
ENDBRANCH   5   7
TORSDOF 1
ENDMDL
MODEL 2
REMARK VINA RESULT:      -5.1      1.536      1.816
REMARK  1 active torsions:
REMARK  status: ('A' for Active; 'I' for Inactive)
REMARK    1  A    between atoms: C1_1  and  C6_6 
ROOT
HETATM    1  C2  UNL     1     -34.779   5.486   6.117  1.00 20.00     0.001 C 
HETATM    2  C3  UNL     1     -33.956   6.761   6.177  1.00 20.00     0.001 C 
HETATM    3  C4  UNL     1     -34.342   4.862   4.800  1.00 20.00     0.018 C 
HETATM    4  C5  UNL     1     -33.943   7.280   4.741  1.00 20.00     0.018 C 
HETATM    5  C6  UNL     1     -34.202   6.055   3.841  1.00 20.00     0.032 C 
HETATM    6  C7  UNL     1     -35.493   6.260   3.090  1.00 20.00     0.025 C 
ENDROOT
BRANCH   5   7
HETATM    7  C1  UNL     1     -33.085   5.834   2.823  1.00 20.00     0.227 C 
HETATM    8  O8  UNL     1     -32.811   4.715   2.399  1.00 20.00    -0.279 OA
HETATM    9 CL9  UNL     1     -32.301   7.320   2.380  1.00 20.00    -0.043 Cl
ENDBRANCH   5   7
TORSDOF 1
ENDMDL
MODEL 3
REMARK VINA RESULT:      -4.9      1.778      2.122
REMARK  1 active torsions:
REMARK  status: ('A' for Active; 'I' for Inactive)
REMARK    1  A    between atoms: C1_1  and  C6_6 
ROOT
HETATM    1  C2  UNL     1     -32.950   7.879   3.608  1.00 20.00     0.001 C 
HETATM    2  C3  UNL     1     -32.335   6.808   2.725  1.00 20.00     0.001 C 
HETATM    3  C4  UNL     1     -33.716   7.067   4.643  1.00 20.00     0.018 C 
HETATM    4  C5  UNL     1     -33.418   5.738   2.605  1.00 20.00     0.018 C 
HETATM    5  C6  UNL     1     -34.324   5.905   3.841  1.00 20.00     0.032 C 
HETATM    6  C7  UNL     1     -35.714   6.272   3.386  1.00 20.00     0.025 C 
ENDROOT
BRANCH   5   7
HETATM    7  C1  UNL     1     -34.413   4.629   4.675  1.00 20.00     0.227 C 
HETATM    8  O8  UNL     1     -34.247   3.520   4.177  1.00 20.00    -0.279 OA
HETATM    9 CL9  UNL     1     -34.763   4.963   6.343  1.00 20.00    -0.043 Cl
ENDBRANCH   5   7
TORSDOF 1
ENDMDL
MODEL 4
REMARK VINA RESULT:      -4.8      2.154      3.027
REMARK  1 active torsions:
REMARK  status: ('A' for Active; 'I' for Inactive)
REMARK    1  A    between atoms: C1_1  and  C6_6 
ROOT
HETATM    1  C2  UNL     1     -34.190   3.912   4.335  1.00 20.00     0.001 C 
HETATM    2  C3  UNL     1     -34.459   4.732   5.584  1.00 20.00     0.001 C 
HETATM    3  C4  UNL     1     -33.364   4.861   3.478  1.00 20.00     0.018 C 
HETATM    4  C5  UNL     1     -34.713   6.148   5.070  1.00 20.00     0.018 C 
HETATM    5  C6  UNL     1     -34.013   6.237   3.699  1.00 20.00     0.032 C 
HETATM    6  C7  UNL     1     -35.050   6.489   2.633  1.00 20.00     0.025 C 
ENDROOT
BRANCH   5   7
HETATM    7  C1  UNL     1     -32.984   7.363   3.643  1.00 20.00     0.227 C 
HETATM    8  O8  UNL     1     -32.487   7.834   4.662  1.00 20.00    -0.279 OA
HETATM    9 CL9  UNL     1     -32.639   7.852   2.012  1.00 20.00    -0.043 Cl
ENDBRANCH   5   7
TORSDOF 1
ENDMDL
MODEL 5
REMARK VINA RESULT:      -4.7      2.009      3.013
REMARK  1 active torsions:
REMARK  status: ('A' for Active; 'I' for Inactive)
REMARK    1  A    between atoms: C1_1  and  C6_6 
ROOT
HETATM    1  C2  UNL     1     -32.948   6.199   2.164  1.00 20.00     0.001 C 
HETATM    2  C3  UNL     1     -32.764   4.762   2.618  1.00 20.00     0.001 C 
HETATM    3  C4  UNL     1     -33.440   6.893   3.427  1.00 20.00     0.018 C 
HETATM    4  C5  UNL     1     -33.943   4.497   3.551  1.00 20.00     0.018 C 
HETATM    5  C6  UNL     1     -34.394   5.875   4.073  1.00 20.00     0.032 C 
HETATM    6  C7  UNL     1     -35.806   6.138   3.614  1.00 20.00     0.025 C 
ENDROOT
BRANCH   5   7
HETATM    7  C1  UNL     1     -34.361   5.960   5.598  1.00 20.00     0.227 C 
HETATM    8  O8  UNL     1     -34.781   5.048   6.303  1.00 20.00    -0.279 OA
HETATM    9 CL9  UNL     1     -33.678   7.457   6.154  1.00 20.00    -0.043 Cl
ENDBRANCH   5   7
TORSDOF 1
ENDMDL
MODEL 6
REMARK VINA RESULT:      -4.4      2.371      3.218
REMARK  1 active torsions:
REMARK  status: ('A' for Active; 'I' for Inactive)
REMARK    1  A    between atoms: C1_1  and  C6_6 
ROOT
HETATM    1  C2  UNL     1     -32.444   8.432   1.661  1.00 20.00     0.001 C 
HETATM    2  C3  UNL     1     -31.684   8.667   2.955  1.00 20.00     0.001 C 
HETATM    3  C4  UNL     1     -33.699   7.711   2.131  1.00 20.00     0.018 C 
HETATM    4  C5  UNL     1     -31.902   7.393   3.768  1.00 20.00     0.018 C 
HETATM    5  C6  UNL     1     -33.202   6.761   3.233  1.00 20.00     0.032 C 
HETATM    6  C7  UNL     1     -32.886   5.412   2.639  1.00 20.00     0.025 C 
ENDROOT
BRANCH   5   7
HETATM    7  C1  UNL     1     -34.250   6.570   4.328  1.00 20.00     0.227 C 
HETATM    8  O8  UNL     1     -35.273   5.920   4.136  1.00 20.00    -0.279 OA
HETATM    9 CL9  UNL     1     -33.802   7.365   5.807  1.00 20.00    -0.043 Cl
ENDBRANCH   5   7
TORSDOF 1
ENDMDL
MODEL 7
REMARK VINA RESULT:      -4.1      3.374      4.289
REMARK  1 active torsions:
REMARK  status: ('A' for Active; 'I' for Inactive)
REMARK    1  A    between atoms: C1_1  and  C6_6 
ROOT
HETATM    1  C2  UNL     1     -34.210   6.817   3.910  1.00 20.00     0.001 C 
HETATM    2  C3  UNL     1     -33.688   5.827   2.883  1.00 20.00     0.001 C 
HETATM    3  C4  UNL     1     -33.796   8.161   3.327  1.00 20.00     0.018 C 
HETATM    4  C5  UNL     1     -32.338   6.395   2.451  1.00 20.00     0.018 C 
HETATM    5  C6  UNL     1     -32.396   7.907   2.745  1.00 20.00     0.032 C 
HETATM    6  C7  UNL     1     -31.346   8.250   3.772  1.00 20.00     0.025 C 
ENDROOT
BRANCH   5   7
HETATM    7  C1  UNL     1     -32.141   8.753   1.499  1.00 20.00     0.227 C 
HETATM    8  O8  UNL     1     -31.270   8.458   0.686  1.00 20.00    -0.279 OA
HETATM    9 CL9  UNL     1     -33.210  10.119   1.407  1.00 20.00    -0.043 Cl
ENDBRANCH   5   7
TORSDOF 1
ENDMDL
MODEL 8
REMARK VINA RESULT:      -4.1     12.333     13.104
REMARK  1 active torsions:
REMARK  status: ('A' for Active; 'I' for Inactive)
REMARK    1  A    between atoms: C1_1  and  C6_6 
ROOT
HETATM    1  C2  UNL     1     -32.933  15.291  -4.638  1.00 20.00     0.001 C 
HETATM    2  C3  UNL     1     -33.362  15.622  -6.057  1.00 20.00     0.001 C 
HETATM    3  C4  UNL     1     -34.015  14.327  -4.173  1.00 20.00     0.018 C 
HETATM    4  C5  UNL     1     -34.883  15.733  -5.984  1.00 20.00     0.018 C 
HETATM    5  C6  UNL     1     -35.315  14.902  -4.759  1.00 20.00     0.032 C 
HETATM    6  C7  UNL     1     -35.968  15.814  -3.751  1.00 20.00     0.025 C 
ENDROOT
BRANCH   5   7
HETATM    7  C1  UNL     1     -36.307  13.800  -5.123  1.00 20.00     0.227 C 
HETATM    8  O8  UNL     1     -35.945  12.642  -5.309  1.00 20.00    -0.279 OA
HETATM    9 CL9  UNL     1     -37.936  14.396  -5.228  1.00 20.00    -0.043 Cl
ENDBRANCH   5   7
TORSDOF 1
ENDMDL
MODEL 9
REMARK VINA RESULT:      -4.1     12.627     13.036
REMARK  1 active torsions:
REMARK  status: ('A' for Active; 'I' for Inactive)
REMARK    1  A    between atoms: C1_1  and  C6_6 
ROOT
HETATM    1  C2  UNL     1     -33.664  15.965  -3.653  1.00 20.00     0.001 C 
HETATM    2  C3  UNL     1     -32.962  14.918  -4.500  1.00 20.00     0.001 C 
HETATM    3  C4  UNL     1     -35.114  15.502  -3.673  1.00 20.00     0.018 C 
HETATM    4  C5  UNL     1     -33.938  14.625  -5.638  1.00 20.00     0.018 C 
HETATM    5  C6  UNL     1     -35.335  15.010  -5.113  1.00 20.00     0.032 C 
HETATM    6  C7  UNL     1     -35.887  16.132  -5.956  1.00 20.00     0.025 C 
ENDROOT
BRANCH   5   7
HETATM    7  C1  UNL     1     -36.319  13.843  -5.165  1.00 20.00     0.227 C 
HETATM    8  O8  UNL     1     -35.937  12.680  -5.249  1.00 20.00    -0.279 OA
HETATM    9 CL9  UNL     1     -37.971  14.378  -5.093  1.00 20.00    -0.043 Cl
ENDBRANCH   5   7
TORSDOF 1
ENDMDL
