MODEL 1
REMARK VINA RESULT:      -6.0      0.000      0.000
REMARK  0 active torsions:
REMARK  status: ('A' for Active; 'I' for Inactive)
ROOT
HETATM    1  C1  UNL     1     -32.819   7.088   2.051  1.00 20.00     0.031 A 
HETATM    2  C2  UNL     1     -34.375   5.709   3.347  1.00 20.00    -0.014 A 
HETATM    3  C3  UNL     1     -33.567   7.088   5.711  1.00 20.00    -0.013 A 
HETATM    4  C4  UNL     1     -31.915   8.083   2.076  1.00 20.00     0.117 A 
HETATM    5  C5  UNL     1     -32.054   8.452   4.326  1.00 20.00     0.128 A 
HETATM    6  C6  UNL     1     -33.453   6.684   3.292  1.00 20.00    -0.027 A 
HETATM    7  C7  UNL     1     -33.067   7.377   4.504  1.00 20.00    -0.012 A 
HETATM    8  C8  UNL     1     -35.049   5.285   4.624  1.00 20.00     0.032 A 
HETATM    9  C9  UNL     1     -34.582   5.999   5.907  1.00 20.00     0.032 A 
HETATM   10  N10 UNL     1     -31.512   8.787   3.194  1.00 20.00    -0.272 NA
ENDROOT
TORSDOF 0
ENDMDL
MODEL 2
REMARK VINA RESULT:      -5.9      0.622      2.105
REMARK  0 active torsions:
REMARK  status: ('A' for Active; 'I' for Inactive)
ROOT
HETATM    1  C1  UNL     1     -32.015   8.448   4.341  1.00 20.00     0.031 A 
HETATM    2  C2  UNL     1     -33.530   7.078   5.696  1.00 20.00    -0.014 A 
HETATM    3  C3  UNL     1     -34.408   5.768   3.318  1.00 20.00    -0.013 A 
HETATM    4  C4  UNL     1     -31.545   8.716   3.111  1.00 20.00     0.117 A 
HETATM    5  C5  UNL     1     -32.832   7.163   2.038  1.00 20.00     0.128 A 
HETATM    6  C6  UNL     1     -33.021   7.414   4.499  1.00 20.00    -0.027 A 
HETATM    7  C7  UNL     1     -33.475   6.726   3.307  1.00 20.00    -0.012 A 
HETATM    8  C8  UNL     1     -34.566   6.002   5.878  1.00 20.00     0.032 A 
HETATM    9  C9  UNL     1     -35.072   5.324   4.590  1.00 20.00     0.032 A 
HETATM   10  N10 UNL     1     -31.929   8.092   1.940  1.00 20.00    -0.272 NA
ENDROOT
TORSDOF 0
ENDMDL
MODEL 3
REMARK VINA RESULT:      -5.5      1.716      4.075
REMARK  0 active torsions:
REMARK  status: ('A' for Active; 'I' for Inactive)
ROOT
HETATM    1  C1  UNL     1     -33.689   6.986   5.852  1.00 20.00     0.031 A 
HETATM    2  C2  UNL     1     -32.200   8.358   4.471  1.00 20.00    -0.014 A 
HETATM    3  C3  UNL     1     -32.996   6.850   2.184  1.00 20.00    -0.013 A 
HETATM    4  C4  UNL     1     -34.583   5.982   5.879  1.00 20.00     0.117 A 
HETATM    5  C5  UNL     1     -34.491   5.542   3.640  1.00 20.00     0.128 A 
HETATM    6  C6  UNL     1     -33.090   7.358   4.584  1.00 20.00    -0.027 A 
HETATM    7  C7  UNL     1     -33.487   6.614   3.406  1.00 20.00    -0.012 A 
HETATM    8  C8  UNL     1     -31.578   8.763   3.162  1.00 20.00     0.032 A 
HETATM    9  C9  UNL     1     -31.974   7.921   1.934  1.00 20.00     0.032 A 
HETATM   10  N10 UNL     1     -35.008   5.242   4.794  1.00 20.00    -0.272 NA
ENDROOT
TORSDOF 0
ENDMDL
MODEL 4
REMARK VINA RESULT:      -5.4      1.643      3.489
REMARK  0 active torsions:
REMARK  status: ('A' for Active; 'I' for Inactive)
ROOT
HETATM    1  C1  UNL     1     -34.498   5.523   3.655  1.00 20.00     0.031 A 
HETATM    2  C2  UNL     1     -33.025   6.817   2.184  1.00 20.00    -0.014 A 
HETATM    3  C3  UNL     1     -32.212   8.374   4.432  1.00 20.00    -0.013 A 
HETATM    4  C4  UNL     1     -34.941   5.332   4.909  1.00 20.00     0.117 A 
HETATM    5  C5  UNL     1     -33.692   7.001   5.844  1.00 20.00     0.128 A 
HETATM    6  C6  UNL     1     -33.526   6.572   3.406  1.00 20.00    -0.027 A 
HETATM    7  C7  UNL     1     -33.089   7.369   4.534  1.00 20.00    -0.012 A 
HETATM    8  C8  UNL     1     -32.010   7.894   1.911  1.00 20.00     0.032 A 
HETATM    9  C9  UNL     1     -31.603   8.763   3.116  1.00 20.00     0.032 A 
HETATM   10  N10 UNL     1     -34.558   6.050   6.026  1.00 20.00    -0.272 NA
ENDROOT
TORSDOF 0
ENDMDL
MODEL 5
REMARK VINA RESULT:      -4.5     11.515     12.087
REMARK  0 active torsions:
REMARK  status: ('A' for Active; 'I' for Inactive)
ROOT
HETATM    1  C1  UNL     1     -32.659  18.898   0.633  1.00 20.00     0.031 A 
HETATM    2  C2  UNL     1     -32.858  17.863  -1.580  1.00 20.00    -0.014 A 
HETATM    3  C3  UNL     1     -35.504  17.032  -0.910  1.00 20.00    -0.013 A 
HETATM    4  C4  UNL     1     -33.264  19.164   1.803  1.00 20.00     0.117 A 
HETATM    5  C5  UNL     1     -35.231  18.128   1.279  1.00 20.00     0.128 A 
HETATM    6  C6  UNL     1     -33.387  18.157  -0.381  1.00 20.00    -0.027 A 
HETATM    7  C7  UNL     1     -34.737  17.734  -0.068  1.00 20.00    -0.012 A 
HETATM    8  C8  UNL     1     -33.603  17.105  -2.645  1.00 20.00     0.032 A 
HETATM    9  C9  UNL     1     -35.015  16.618  -2.268  1.00 20.00     0.032 A 
HETATM   10  N10 UNL     1     -34.548  18.797   2.158  1.00 20.00    -0.272 NA
ENDROOT
TORSDOF 0
ENDMDL
MODEL 6
REMARK VINA RESULT:      -4.5     11.519     12.060
REMARK  0 active torsions:
REMARK  status: ('A' for Active; 'I' for Inactive)
ROOT
HETATM    1  C1  UNL     1     -35.238  18.141   1.334  1.00 20.00     0.031 A 
HETATM    2  C2  UNL     1     -35.477  17.049  -0.847  1.00 20.00    -0.014 A 
HETATM    3  C3  UNL     1     -32.842  17.909  -1.523  1.00 20.00    -0.013 A 
HETATM    4  C4  UNL     1     -34.438  18.845   2.152  1.00 20.00     0.117 A 
HETATM    5  C5  UNL     1     -32.674  18.949   0.704  1.00 20.00     0.128 A 
HETATM    6  C6  UNL     1     -34.745  17.764   0.022  1.00 20.00    -0.027 A 
HETATM    7  C7  UNL     1     -33.405  18.180  -0.339  1.00 20.00    -0.012 A 
HETATM    8  C8  UNL     1     -34.977  16.642  -2.206  1.00 20.00     0.032 A 
HETATM    9  C9  UNL     1     -33.571  17.143  -2.589  1.00 20.00     0.032 A 
HETATM   10  N10 UNL     1     -33.151  19.263   1.871  1.00 20.00    -0.272 NA
ENDROOT
TORSDOF 0
ENDMDL
MODEL 7
REMARK VINA RESULT:      -4.4     11.475     12.097
REMARK  0 active torsions:
REMARK  status: ('A' for Active; 'I' for Inactive)
ROOT
HETATM    1  C1  UNL     1     -34.993  13.917  -4.790  1.00 20.00     0.031 A 
HETATM    2  C2  UNL     1     -33.797  15.605  -3.476  1.00 20.00    -0.014 A 
HETATM    3  C3  UNL     1     -36.283  16.904  -2.955  1.00 20.00    -0.013 A 
HETATM    4  C4  UNL     1     -36.184  13.481  -5.236  1.00 20.00     0.117 A 
HETATM    5  C5  UNL     1     -37.409  15.146  -4.263  1.00 20.00     0.128 A 
HETATM    6  C6  UNL     1     -34.945  15.114  -3.971  1.00 20.00    -0.027 A 
HETATM    7  C7  UNL     1     -36.197  15.785  -3.683  1.00 20.00    -0.012 A 
HETATM    8  C8  UNL     1     -33.732  16.839  -2.618  1.00 20.00     0.032 A 
HETATM    9  C9  UNL     1     -35.068  17.565  -2.372  1.00 20.00     0.032 A 
HETATM   10  N10 UNL     1     -37.410  14.069  -4.989  1.00 20.00    -0.272 NA
ENDROOT
TORSDOF 0
ENDMDL
MODEL 8
REMARK VINA RESULT:      -4.4     11.639     12.088
REMARK  0 active torsions:
REMARK  status: ('A' for Active; 'I' for Inactive)
ROOT
HETATM    1  C1  UNL     1     -33.391  17.216  -2.484  1.00 20.00     0.031 A 
HETATM    2  C2  UNL     1     -32.104  18.327  -0.718  1.00 20.00    -0.014 A 
HETATM    3  C3  UNL     1     -34.434  18.323   0.928  1.00 20.00    -0.013 A 
HETATM    4  C4  UNL     1     -34.576  16.697  -2.849  1.00 20.00     0.117 A 
HETATM    5  C5  UNL     1     -35.642  17.176  -0.887  1.00 20.00     0.128 A 
HETATM    6  C6  UNL     1     -33.257  17.801  -1.163  1.00 20.00    -0.027 A 
HETATM    7  C7  UNL     1     -34.424  17.800  -0.304  1.00 20.00    -0.012 A 
HETATM    8  C8  UNL     1     -31.947  18.928   0.652  1.00 20.00     0.032 A 
HETATM    9  C9  UNL     1     -33.216  18.965   1.525  1.00 20.00     0.032 A 
HETATM   10  N10 UNL     1     -35.720  16.658  -2.076  1.00 20.00    -0.272 NA
ENDROOT
TORSDOF 0
ENDMDL
MODEL 9
REMARK VINA RESULT:      -4.4     11.594     12.126
REMARK  0 active torsions:
REMARK  status: ('A' for Active; 'I' for Inactive)
ROOT
HETATM    1  C1  UNL     1     -35.623  17.010  -1.106  1.00 20.00     0.031 A 
HETATM    2  C2  UNL     1     -34.524  18.150   0.765  1.00 20.00    -0.014 A 
HETATM    3  C3  UNL     1     -32.159  18.377  -0.815  1.00 20.00    -0.013 A 
HETATM    4  C4  UNL     1     -35.511  16.568  -2.370  1.00 20.00     0.117 A 
HETATM    5  C5  UNL     1     -33.351  17.255  -2.655  1.00 20.00     0.128 A 
HETATM    6  C6  UNL     1     -34.486  17.668  -0.489  1.00 20.00    -0.027 A 
HETATM    7  C7  UNL     1     -33.278  17.806  -1.275  1.00 20.00    -0.012 A 
HETATM    8  C8  UNL     1     -33.358  18.842   1.416  1.00 20.00     0.032 A 
HETATM    9  C9  UNL     1     -32.067  18.927   0.579  1.00 20.00     0.032 A 
HETATM   10  N10 UNL     1     -34.392  16.676  -3.174  1.00 20.00    -0.272 NA
ENDROOT
TORSDOF 0
ENDMDL
