MODEL 1
REMARK VINA RESULT:      -5.9      0.000      0.000
REMARK  1 active torsions:
REMARK  status: ('A' for Active; 'I' for Inactive)
REMARK    1  A    between atoms: C4_4  and  C5_5 
ROOT
HETATM    1  C1  UNL     1     -32.944   6.900   2.498  1.00 20.00     0.014 C 
HETATM    2  C2  UNL     1     -33.405   5.516   2.936  1.00 20.00     0.062 C 
HETATM    3  C3  UNL     1     -32.532   7.638   3.761  1.00 20.00     0.077 C 
HETATM    4  C4  UNL     1     -34.418   5.746   4.052  1.00 20.00     0.209 C 
HETATM    5  F6  UNL     1     -35.597   6.141   3.498  1.00 20.00    -0.225 F 
HETATM    6  S9  UNL     1     -33.732   7.123   5.022  1.00 20.00    -0.121 SA
ENDROOT
BRANCH   4   7
HETATM    7  C5  UNL     1     -34.671   4.516   4.901  1.00 20.00     0.403 C 
HETATM    8  F7  UNL     1     -34.218   4.741   6.156  1.00 20.00    -0.210 F 
HETATM    9  F8  UNL     1     -33.962   3.477   4.402  1.00 20.00    -0.210 F 
ENDBRANCH   4   7
TORSDOF 1
ENDMDL
MODEL 2
REMARK VINA RESULT:      -5.3      1.153      1.503
REMARK  1 active torsions:
REMARK  status: ('A' for Active; 'I' for Inactive)
REMARK    1  A    between atoms: C4_4  and  C5_5 
ROOT
HETATM    1  C1  UNL     1     -33.233   5.144   2.397  1.00 20.00     0.014 C 
HETATM    2  C2  UNL     1     -33.770   4.663   3.739  1.00 20.00     0.062 C 
HETATM    3  C3  UNL     1     -32.565   6.484   2.654  1.00 20.00     0.077 C 
HETATM    4  C4  UNL     1     -34.578   5.823   4.307  1.00 20.00     0.209 C 
HETATM    5  F6  UNL     1     -35.777   5.878   3.663  1.00 20.00    -0.225 F 
HETATM    6  S9  UNL     1     -33.616   7.308   3.884  1.00 20.00    -0.121 SA
ENDROOT
BRANCH   4   7
HETATM    7  C5  UNL     1     -34.834   5.709   5.797  1.00 20.00     0.403 C 
HETATM    8  F7  UNL     1     -34.339   6.805   6.417  1.00 20.00    -0.210 F 
HETATM    9  F8  UNL     1     -34.164   4.639   6.283  1.00 20.00    -0.210 F 
ENDBRANCH   4   7
TORSDOF 1
ENDMDL
MODEL 3
REMARK VINA RESULT:      -5.1      2.563      3.695
REMARK  1 active torsions:
REMARK  status: ('A' for Active; 'I' for Inactive)
REMARK    1  A    between atoms: C4_4  and  C5_5 
ROOT
HETATM    1  C1  UNL     1     -34.673   5.826   5.408  1.00 20.00     0.014 C 
HETATM    2  C2  UNL     1     -33.534   6.828   5.268  1.00 20.00     0.062 C 
HETATM    3  C3  UNL     1     -34.370   4.690   4.445  1.00 20.00     0.077 C 
HETATM    4  C4  UNL     1     -33.402   7.106   3.776  1.00 20.00     0.209 C 
HETATM    5  F6  UNL     1     -34.403   7.947   3.398  1.00 20.00    -0.225 F 
HETATM    6  S9  UNL     1     -33.657   5.491   2.980  1.00 20.00    -0.121 SA
ENDROOT
BRANCH   4   7
HETATM    7  C5  UNL     1     -32.075   7.732   3.395  1.00 20.00     0.403 C 
HETATM    8  F7  UNL     1     -31.605   8.451   4.440  1.00 20.00    -0.210 F 
HETATM    9  F8  UNL     1     -32.267   8.595   2.371  1.00 20.00    -0.210 F 
ENDBRANCH   4   7
TORSDOF 1
ENDMDL
MODEL 4
REMARK VINA RESULT:      -4.9      2.008      3.134
REMARK  1 active torsions:
REMARK  status: ('A' for Active; 'I' for Inactive)
REMARK    1  A    between atoms: C4_4  and  C5_5 
ROOT
HETATM    1  C1  UNL     1     -34.548   6.453   5.931  1.00 20.00     0.014 C 
HETATM    2  C2  UNL     1     -33.805   6.855   4.664  1.00 20.00     0.062 C 
HETATM    3  C3  UNL     1     -34.331   4.959   6.103  1.00 20.00     0.077 C 
HETATM    4  C4  UNL     1     -34.266   5.887   3.582  1.00 20.00     0.209 C 
HETATM    5  F6  UNL     1     -35.509   6.257   3.165  1.00 20.00    -0.225 F 
HETATM    6  S9  UNL     1     -34.383   4.277   4.421  1.00 20.00    -0.121 SA
ENDROOT
BRANCH   4   7
HETATM    7  C5  UNL     1     -33.346   5.842   2.379  1.00 20.00     0.403 C 
HETATM    8  F7  UNL     1     -32.705   4.650   2.354  1.00 20.00    -0.210 F 
HETATM    9  F8  UNL     1     -32.400   6.801   2.505  1.00 20.00    -0.210 F 
ENDBRANCH   4   7
TORSDOF 1
ENDMDL
MODEL 5
REMARK VINA RESULT:      -4.7      1.960      2.799
REMARK  1 active torsions:
REMARK  status: ('A' for Active; 'I' for Inactive)
REMARK    1  A    between atoms: C4_4  and  C5_5 
ROOT
HETATM    1  C1  UNL     1     -34.043   3.896   3.777  1.00 20.00     0.014 C 
HETATM    2  C2  UNL     1     -34.153   4.835   4.970  1.00 20.00     0.062 C 
HETATM    3  C3  UNL     1     -33.019   4.510   2.837  1.00 20.00     0.077 C 
HETATM    4  C4  UNL     1     -34.385   6.225   4.390  1.00 20.00     0.209 C 
HETATM    5  F6  UNL     1     -35.683   6.320   3.989  1.00 20.00    -0.225 F 
HETATM    6  S9  UNL     1     -33.310   6.299   2.924  1.00 20.00    -0.121 SA
ENDROOT
BRANCH   4   7
HETATM    7  C5  UNL     1     -34.098   7.344   5.370  1.00 20.00     0.403 C 
HETATM    8  F7  UNL     1     -32.781   7.650   5.323  1.00 20.00    -0.210 F 
HETATM    9  F8  UNL     1     -34.363   6.916   6.626  1.00 20.00    -0.210 F 
ENDBRANCH   4   7
TORSDOF 1
ENDMDL
MODEL 6
REMARK VINA RESULT:      -4.3      2.426      3.728
REMARK  1 active torsions:
REMARK  status: ('A' for Active; 'I' for Inactive)
REMARK    1  A    between atoms: C4_4  and  C5_5 
ROOT
HETATM    1  C1  UNL     1     -34.807   5.210   4.320  1.00 20.00     0.014 C 
HETATM    2  C2  UNL     1     -34.554   6.174   3.167  1.00 20.00     0.062 C 
HETATM    3  C3  UNL     1     -34.660   6.018   5.598  1.00 20.00     0.077 C 
HETATM    4  C4  UNL     1     -33.236   6.869   3.484  1.00 20.00     0.209 C 
HETATM    5  F6  UNL     1     -32.213   6.014   3.208  1.00 20.00    -0.225 F 
HETATM    6  S9  UNL     1     -33.287   7.163   5.278  1.00 20.00    -0.121 SA
ENDROOT
BRANCH   4   7
HETATM    7  C5  UNL     1     -33.023   8.148   2.699  1.00 20.00     0.403 C 
HETATM    8  F7  UNL     1     -33.003   7.859   1.377  1.00 20.00    -0.210 F 
HETATM    9  F8  UNL     1     -31.814   8.668   3.011  1.00 20.00    -0.210 F 
ENDBRANCH   4   7
TORSDOF 1
ENDMDL
MODEL 7
REMARK VINA RESULT:      -4.2      1.520      2.108
REMARK  1 active torsions:
REMARK  status: ('A' for Active; 'I' for Inactive)
REMARK    1  A    between atoms: C4_4  and  C5_5 
ROOT
HETATM    1  C1  UNL     1     -33.509   7.976   4.501  1.00 20.00     0.014 C 
HETATM    2  C2  UNL     1     -32.974   6.841   3.639  1.00 20.00     0.062 C 
HETATM    3  C3  UNL     1     -33.777   7.386   5.876  1.00 20.00     0.077 C 
HETATM    4  C4  UNL     1     -33.962   5.692   3.798  1.00 20.00     0.209 C 
HETATM    5  F6  UNL     1     -35.066   5.958   3.048  1.00 20.00    -0.225 F 
HETATM    6  S9  UNL     1     -34.426   5.722   5.557  1.00 20.00    -0.121 SA
ENDROOT
BRANCH   4   7
HETATM    7  C5  UNL     1     -33.400   4.349   3.375  1.00 20.00     0.403 C 
HETATM    8  F7  UNL     1     -33.350   4.295   2.024  1.00 20.00    -0.210 F 
HETATM    9  F8  UNL     1     -34.237   3.367   3.783  1.00 20.00    -0.210 F 
ENDBRANCH   4   7
TORSDOF 1
ENDMDL
MODEL 8
REMARK VINA RESULT:      -3.7      1.929      3.374
REMARK  1 active torsions:
REMARK  status: ('A' for Active; 'I' for Inactive)
REMARK    1  A    between atoms: C4_4  and  C5_5 
ROOT
HETATM    1  C1  UNL     1     -34.653   5.202   5.538  1.00 20.00     0.014 C 
HETATM    2  C2  UNL     1     -34.967   5.489   4.075  1.00 20.00     0.062 C 
HETATM    3  C3  UNL     1     -34.228   6.523   6.156  1.00 20.00     0.077 C 
HETATM    4  C4  UNL     1     -33.757   6.235   3.526  1.00 20.00     0.209 C 
HETATM    5  F6  UNL     1     -32.755   5.340   3.304  1.00 20.00    -0.225 F 
HETATM    6  S9  UNL     1     -33.257   7.356   4.869  1.00 20.00    -0.121 SA
ENDROOT
BRANCH   4   7
HETATM    7  C5  UNL     1     -34.040   6.976   2.235  1.00 20.00     0.403 C 
HETATM    8  F7  UNL     1     -34.403   6.086   1.282  1.00 20.00    -0.210 F 
HETATM    9  F8  UNL     1     -32.905   7.576   1.807  1.00 20.00    -0.210 F 
ENDBRANCH   4   7
TORSDOF 1
ENDMDL
MODEL 9
REMARK VINA RESULT:      -3.7     12.194     12.795
REMARK  1 active torsions:
REMARK  status: ('A' for Active; 'I' for Inactive)
REMARK    1  A    between atoms: C4_4  and  C5_5 
ROOT
HETATM    1  C1  UNL     1     -34.617  16.337  -2.849  1.00 20.00     0.014 C 
HETATM    2  C2  UNL     1     -35.558  15.504  -3.709  1.00 20.00     0.062 C 
HETATM    3  C3  UNL     1     -33.571  16.915  -3.789  1.00 20.00     0.077 C 
HETATM    4  C4  UNL     1     -34.668  14.575  -4.526  1.00 20.00     0.209 C 
HETATM    5  F6  UNL     1     -34.242  13.561  -3.725  1.00 20.00    -0.225 F 
HETATM    6  S9  UNL     1     -33.238  15.597  -4.992  1.00 20.00    -0.121 SA
ENDROOT
BRANCH   4   7
HETATM    7  C5  UNL     1     -35.365  13.978  -5.733  1.00 20.00     0.403 C 
HETATM    8  F7  UNL     1     -36.123  12.930  -5.335  1.00 20.00    -0.210 F 
HETATM    9  F8  UNL     1     -34.437  13.496  -6.590  1.00 20.00    -0.210 F 
ENDBRANCH   4   7
TORSDOF 1
ENDMDL
