MODEL 1
REMARK VINA RESULT:      -6.1      0.000      0.000
REMARK  2 active torsions:
REMARK  status: ('A' for Active; 'I' for Inactive)
REMARK    1  A    between atoms: C1_1  and  C4_4 
REMARK    2  A    between atoms: C2_2  and  C5_5 
ROOT
HETATM    1  C5  UNL     1     -33.940   5.881   3.373  1.00 20.00     0.235 A 
HETATM    2  C6  UNL     1     -34.263   5.991   4.845  1.00 20.00     0.092 A 
HETATM    3  C8  UNL     1     -33.956   7.226   5.636  1.00 20.00     0.049 C 
HETATM    4  C9  UNL     1     -34.438   4.728   5.630  1.00 20.00     0.049 C 
HETATM    5  O10 UNL     1     -35.261   6.185   3.834  1.00 20.00    -0.357 OA
ENDROOT
BRANCH   1   6
HETATM    6  C2  UNL     1     -33.336   6.976   2.657  1.00 20.00    -0.066 C 
HETATM    7  C1  UNL     1     -32.832   7.889   2.061  1.00 20.00    -0.070 C 
BRANCH   7   8
HETATM    8  C4  UNL     1     -32.234   8.970   1.345  1.00 20.00    -0.018 C 
HETATM    9  C3  UNL     1     -31.135   8.742   0.610  1.00 20.00     0.028 C 
HETATM   10  C7  UNL     1     -32.856  10.332   1.437  1.00 20.00     0.057 C 
ENDBRANCH   7   8
ENDBRANCH   1   6
TORSDOF 2
ENDMDL
MODEL 2
REMARK VINA RESULT:      -5.2      1.869      5.104
REMARK  2 active torsions:
REMARK  status: ('A' for Active; 'I' for Inactive)
REMARK    1  A    between atoms: C1_1  and  C4_4 
REMARK    2  A    between atoms: C2_2  and  C5_5 
ROOT
HETATM    1  C5  UNL     1     -32.528   7.803   1.404  1.00 20.00     0.235 A 
HETATM    2  C6  UNL     1     -32.609   9.234   0.928  1.00 20.00     0.092 A 
HETATM    3  C8  UNL     1     -33.216  10.317   1.767  1.00 20.00     0.049 C 
HETATM    4  C9  UNL     1     -32.536   9.499  -0.544  1.00 20.00     0.049 C 
HETATM    5  O10 UNL     1     -31.403   8.686   1.475  1.00 20.00    -0.357 OA
ENDROOT
BRANCH   1   6
HETATM    6  C2  UNL     1     -33.017   7.419   2.703  1.00 20.00    -0.066 C 
HETATM    7  C1  UNL     1     -33.425   7.098   3.787  1.00 20.00    -0.070 C 
BRANCH   7   8
HETATM    8  C4  UNL     1     -33.911   6.712   5.072  1.00 20.00    -0.018 C 
HETATM    9  C3  UNL     1     -33.676   7.504   6.128  1.00 20.00     0.028 C 
HETATM   10  C7  UNL     1     -34.673   5.427   5.202  1.00 20.00     0.057 C 
ENDBRANCH   7   8
ENDBRANCH   1   6
TORSDOF 2
ENDMDL
MODEL 3
REMARK VINA RESULT:      -4.6     10.819     11.682
REMARK  2 active torsions:
REMARK  status: ('A' for Active; 'I' for Inactive)
REMARK    1  A    between atoms: C1_1  and  C4_4 
REMARK    2  A    between atoms: C2_2  and  C5_5 
ROOT
HETATM    1  C5  UNL     1     -34.836  14.428  -4.586  1.00 20.00     0.235 A 
HETATM    2  C6  UNL     1     -34.130  14.590  -5.911  1.00 20.00     0.092 A 
HETATM    3  C8  UNL     1     -33.239  15.761  -6.198  1.00 20.00     0.049 C 
HETATM    4  C9  UNL     1     -34.680  13.868  -7.103  1.00 20.00     0.049 C 
HETATM    5  O10 UNL     1     -33.629  13.720  -4.889  1.00 20.00    -0.357 OA
ENDROOT
BRANCH   1   6
HETATM    6  C2  UNL     1     -34.666  15.388  -3.526  1.00 20.00    -0.066 C 
HETATM    7  C1  UNL     1     -34.523  16.189  -2.642  1.00 20.00    -0.070 C 
BRANCH   7   8
HETATM    8  C4  UNL     1     -34.354  17.135  -1.587  1.00 20.00    -0.018 C 
HETATM    9  C3  UNL     1     -35.337  17.300  -0.689  1.00 20.00     0.028 C 
HETATM   10  C7  UNL     1     -33.077  17.919  -1.512  1.00 20.00     0.057 C 
ENDBRANCH   7   8
ENDBRANCH   1   6
TORSDOF 2
ENDMDL
MODEL 4
REMARK VINA RESULT:      -4.3     11.210     12.060
REMARK  2 active torsions:
REMARK  status: ('A' for Active; 'I' for Inactive)
REMARK    1  A    between atoms: C1_1  and  C4_4 
REMARK    2  A    between atoms: C2_2  and  C5_5 
ROOT
HETATM    1  C5  UNL     1     -33.455  14.761  -5.107  1.00 20.00     0.235 A 
HETATM    2  C6  UNL     1     -34.412  14.799  -6.275  1.00 20.00     0.092 A 
HETATM    3  C8  UNL     1     -35.633  15.669  -6.274  1.00 20.00     0.049 C 
HETATM    4  C9  UNL     1     -34.427  13.638  -7.220  1.00 20.00     0.049 C 
HETATM    5  O10 UNL     1     -33.181  15.533  -6.282  1.00 20.00    -0.357 OA
ENDROOT
BRANCH   1   6
HETATM    6  C2  UNL     1     -33.667  15.580  -3.941  1.00 20.00    -0.066 C 
HETATM    7  C1  UNL     1     -33.843  16.263  -2.968  1.00 20.00    -0.070 C 
BRANCH   7   8
HETATM    8  C4  UNL     1     -34.046  17.076  -1.813  1.00 20.00    -0.018 C 
HETATM    9  C3  UNL     1     -35.218  17.013  -1.163  1.00 20.00     0.028 C 
HETATM   10  C7  UNL     1     -32.937  17.979  -1.357  1.00 20.00     0.057 C 
ENDBRANCH   7   8
ENDBRANCH   1   6
TORSDOF 2
ENDMDL
MODEL 5
REMARK VINA RESULT:      -4.2     11.047     11.454
REMARK  2 active torsions:
REMARK  status: ('A' for Active; 'I' for Inactive)
REMARK    1  A    between atoms: C1_1  and  C4_4 
REMARK    2  A    between atoms: C2_2  and  C5_5 
ROOT
HETATM    1  C5  UNL     1     -34.411  14.996  -4.141  1.00 20.00     0.235 A 
HETATM    2  C6  UNL     1     -35.785  14.703  -4.696  1.00 20.00     0.092 A 
HETATM    3  C8  UNL     1     -37.017  15.361  -4.152  1.00 20.00     0.049 C 
HETATM    4  C9  UNL     1     -35.992  13.422  -5.443  1.00 20.00     0.049 C 
HETATM    5  O10 UNL     1     -34.884  15.610  -5.344  1.00 20.00    -0.357 OA
ENDROOT
BRANCH   1   6
HETATM    6  C2  UNL     1     -34.222  15.941  -3.070  1.00 20.00    -0.066 C 
HETATM    7  C1  UNL     1     -34.066  16.729  -2.177  1.00 20.00    -0.070 C 
BRANCH   7   8
HETATM    8  C4  UNL     1     -33.878  17.671  -1.122  1.00 20.00    -0.018 C 
HETATM    9  C3  UNL     1     -32.756  18.405  -1.089  1.00 20.00     0.028 C 
HETATM   10  C7  UNL     1     -34.946  17.813  -0.078  1.00 20.00     0.057 C 
ENDBRANCH   7   8
ENDBRANCH   1   6
TORSDOF 2
ENDMDL
MODEL 6
REMARK VINA RESULT:      -4.0     10.917     11.452
REMARK  2 active torsions:
REMARK  status: ('A' for Active; 'I' for Inactive)
REMARK    1  A    between atoms: C1_1  and  C4_4 
REMARK    2  A    between atoms: C2_2  and  C5_5 
ROOT
HETATM    1  C5  UNL     1     -34.941  17.371  -0.839  1.00 20.00     0.235 A 
HETATM    2  C6  UNL     1     -33.883  18.245  -0.206  1.00 20.00     0.092 A 
HETATM    3  C8  UNL     1     -32.502  18.359  -0.776  1.00 20.00     0.049 C 
HETATM    4  C9  UNL     1     -34.038  18.617   1.236  1.00 20.00     0.049 C 
HETATM    5  O10 UNL     1     -34.905  18.786  -1.054  1.00 20.00    -0.357 OA
ENDROOT
BRANCH   1   6
HETATM    6  C2  UNL     1     -34.670  16.619  -2.037  1.00 20.00    -0.066 C 
HETATM    7  C1  UNL     1     -34.444  15.993  -3.037  1.00 20.00    -0.070 C 
BRANCH   7   8
HETATM    8  C4  UNL     1     -34.171  15.244  -4.221  1.00 20.00    -0.018 C 
HETATM    9  C3  UNL     1     -33.140  15.603  -5.001  1.00 20.00     0.028 C 
HETATM   10  C7  UNL     1     -35.047  14.074  -4.558  1.00 20.00     0.057 C 
ENDBRANCH   7   8
ENDBRANCH   1   6
TORSDOF 2
ENDMDL
MODEL 7
REMARK VINA RESULT:      -3.8      1.956      5.199
REMARK  2 active torsions:
REMARK  status: ('A' for Active; 'I' for Inactive)
REMARK    1  A    between atoms: C1_1  and  C4_4 
REMARK    2  A    between atoms: C2_2  and  C5_5 
ROOT
HETATM    1  C5  UNL     1     -32.297   9.186   2.025  1.00 20.00     0.235 A 
HETATM    2  C6  UNL     1     -32.521   9.698   0.621  1.00 20.00     0.092 A 
HETATM    3  C8  UNL     1     -33.230   8.883  -0.417  1.00 20.00     0.049 C 
HETATM    4  C9  UNL     1     -31.634  10.793   0.113  1.00 20.00     0.049 C 
HETATM    5  O10 UNL     1     -33.359  10.095   1.715  1.00 20.00    -0.357 OA
ENDROOT
BRANCH   1   6
HETATM    6  C2  UNL     1     -32.775   7.890   2.433  1.00 20.00    -0.066 C 
HETATM    7  C1  UNL     1     -33.174   6.809   2.773  1.00 20.00    -0.070 C 
BRANCH   7   8
HETATM    8  C4  UNL     1     -33.655   5.528   3.179  1.00 20.00    -0.018 C 
HETATM    9  C3  UNL     1     -33.080   4.423   2.681  1.00 20.00     0.028 C 
HETATM   10  C7  UNL     1     -34.792   5.456   4.155  1.00 20.00     0.057 C 
ENDBRANCH   7   8
ENDBRANCH   1   6
TORSDOF 2
ENDMDL
MODEL 8
REMARK VINA RESULT:      -3.7     10.501     11.392
REMARK  2 active torsions:
REMARK  status: ('A' for Active; 'I' for Inactive)
REMARK    1  A    between atoms: C1_1  and  C4_4 
REMARK    2  A    between atoms: C2_2  and  C5_5 
ROOT
HETATM    1  C5  UNL     1     -43.417   5.257  -0.810  1.00 20.00     0.235 A 
HETATM    2  C6  UNL     1     -42.279   5.961  -0.109  1.00 20.00     0.092 A 
HETATM    3  C8  UNL     1     -40.851   5.761  -0.517  1.00 20.00     0.049 C 
HETATM    4  C9  UNL     1     -42.507   6.472   1.280  1.00 20.00     0.049 C 
HETATM    5  O10 UNL     1     -43.077   6.617  -1.103  1.00 20.00    -0.357 OA
ENDROOT
BRANCH   1   6
HETATM    6  C2  UNL     1     -43.178   4.372  -1.921  1.00 20.00    -0.066 C 
HETATM    7  C1  UNL     1     -42.978   3.634  -2.848  1.00 20.00    -0.070 C 
BRANCH   7   8
HETATM    8  C4  UNL     1     -42.738   2.762  -3.952  1.00 20.00    -0.018 C 
HETATM    9  C3  UNL     1     -41.914   1.716  -3.794  1.00 20.00     0.028 C 
HETATM   10  C7  UNL     1     -43.417   3.043  -5.259  1.00 20.00     0.057 C 
ENDBRANCH   7   8
ENDBRANCH   1   6
TORSDOF 2
ENDMDL
MODEL 9
REMARK VINA RESULT:      -3.7     11.048     12.179
REMARK  2 active torsions:
REMARK  status: ('A' for Active; 'I' for Inactive)
REMARK    1  A    between atoms: C1_1  and  C4_4 
REMARK    2  A    between atoms: C2_2  and  C5_5 
ROOT
HETATM    1  C5  UNL     1     -38.021  15.280  -4.329  1.00 20.00     0.235 A 
HETATM    2  C6  UNL     1     -38.547  15.176  -5.741  1.00 20.00     0.092 A 
HETATM    3  C8  UNL     1     -37.646  15.277  -6.934  1.00 20.00     0.049 C 
HETATM    4  C9  UNL     1     -39.999  15.456  -5.981  1.00 20.00     0.049 C 
HETATM    5  O10 UNL     1     -38.310  14.015  -4.935  1.00 20.00    -0.357 OA
ENDROOT
BRANCH   1   6
HETATM    6  C2  UNL     1     -36.616  15.463  -4.067  1.00 20.00    -0.066 C 
HETATM    7  C1  UNL     1     -35.445  15.616  -3.848  1.00 20.00    -0.070 C 
BRANCH   7   8
HETATM    8  C4  UNL     1     -34.051  15.794  -3.595  1.00 20.00    -0.018 C 
HETATM    9  C3  UNL     1     -33.661  16.685  -2.671  1.00 20.00     0.028 C 
HETATM   10  C7  UNL     1     -33.062  14.975  -4.370  1.00 20.00     0.057 C 
ENDBRANCH   7   8
ENDBRANCH   1   6
TORSDOF 2
ENDMDL
