MODEL 1
REMARK VINA RESULT:      -4.7      0.000      0.000
REMARK  1 active torsions:
REMARK  status: ('A' for Active; 'I' for Inactive)
REMARK    1  A    between atoms: C1_1  and  C4_4 
ROOT
HETATM    1  C2  UNL     1     -37.194  15.116  -4.347  1.00 20.00     0.014 C 
HETATM    2  C3  UNL     1     -36.423  16.342  -3.849  1.00 20.00     0.012 C 
HETATM    3  C4  UNL     1     -36.182  15.002  -5.506  1.00 20.00     0.064 C 
HETATM    4  C5  UNL     1     -33.932  15.448  -4.014  1.00 20.00    -0.000 A 
HETATM    5  C6  UNL     1     -35.269  15.786  -4.615  1.00 20.00    -0.019 A 
HETATM    6  C7  UNL     1     -34.046  16.583  -5.026  1.00 20.00    -0.035 A 
HETATM    7  C9  UNL     1     -33.168  14.202  -4.299  1.00 20.00     0.011 C 
HETATM    8  C10 UNL     1     -33.509  16.420  -6.425  1.00 20.00     0.016 C 
HETATM    9  C11 UNL     1     -33.877  17.984  -4.489  1.00 20.00     0.016 C 
ENDROOT
BRANCH   3  10
HETATM   10  C1  UNL     1     -35.748  13.599  -5.921  1.00 20.00     0.128 C 
HETATM   11  C8  UNL     1     -35.166  13.450  -7.300  1.00 20.00     0.091 C 
HETATM   12  O12 UNL     1     -35.867  12.637  -5.163  1.00 20.00    -0.298 OA
ENDBRANCH   3  10
TORSDOF 1
ENDMDL
MODEL 2
REMARK VINA RESULT:      -4.6      0.935      1.034
REMARK  1 active torsions:
REMARK  status: ('A' for Active; 'I' for Inactive)
REMARK    1  A    between atoms: C1_1  and  C4_4 
ROOT
HETATM    1  C2  UNL     1     -37.250  14.233  -5.296  1.00 20.00     0.014 C 
HETATM    2  C3  UNL     1     -36.985  15.312  -4.243  1.00 20.00     0.012 C 
HETATM    3  C4  UNL     1     -36.023  14.752  -6.075  1.00 20.00     0.064 C 
HETATM    4  C5  UNL     1     -34.368  15.039  -3.916  1.00 20.00    -0.000 A 
HETATM    5  C6  UNL     1     -35.584  15.311  -4.757  1.00 20.00    -0.019 A 
HETATM    6  C7  UNL     1     -34.581  16.423  -4.520  1.00 20.00    -0.035 A 
HETATM    7  C9  UNL     1     -33.239  14.159  -4.322  1.00 20.00     0.011 C 
HETATM    8  C10 UNL     1     -33.733  16.894  -5.674  1.00 20.00     0.016 C 
HETATM    9  C11 UNL     1     -34.937  17.531  -3.559  1.00 20.00     0.016 C 
ENDROOT
BRANCH   3  10
HETATM   10  C1  UNL     1     -35.129  13.712  -6.745  1.00 20.00     0.128 C 
HETATM   11  C8  UNL     1     -34.226  14.203  -7.844  1.00 20.00     0.091 C 
HETATM   12  O12 UNL     1     -35.145  12.530  -6.403  1.00 20.00    -0.298 OA
ENDBRANCH   3  10
TORSDOF 1
ENDMDL
MODEL 3
REMARK VINA RESULT:      -4.6      1.349      2.829
REMARK  1 active torsions:
REMARK  status: ('A' for Active; 'I' for Inactive)
REMARK    1  A    between atoms: C1_1  and  C4_4 
ROOT
HETATM    1  C2  UNL     1     -33.921  14.858  -4.163  1.00 20.00     0.014 C 
HETATM    2  C3  UNL     1     -33.226  15.737  -5.206  1.00 20.00     0.012 C 
HETATM    3  C4  UNL     1     -35.253  15.104  -4.905  1.00 20.00     0.064 C 
HETATM    4  C5  UNL     1     -34.276  14.766  -7.438  1.00 20.00    -0.000 A 
HETATM    5  C6  UNL     1     -34.387  15.416  -6.086  1.00 20.00    -0.019 A 
HETATM    6  C7  UNL     1     -34.771  16.203  -7.323  1.00 20.00    -0.035 A 
HETATM    7  C9  UNL     1     -35.149  13.660  -7.918  1.00 20.00     0.011 C 
HETATM    8  C10 UNL     1     -36.224  16.534  -7.552  1.00 20.00     0.016 C 
HETATM    9  C11 UNL     1     -33.837  17.280  -7.820  1.00 20.00     0.016 C 
ENDROOT
BRANCH   3  10
HETATM   10  C1  UNL     1     -36.219  13.929  -5.015  1.00 20.00     0.128 C 
HETATM   11  C8  UNL     1     -37.677  14.264  -5.183  1.00 20.00     0.091 C 
HETATM   12  O12 UNL     1     -35.826  12.763  -4.969  1.00 20.00    -0.298 OA
ENDBRANCH   3  10
TORSDOF 1
ENDMDL
MODEL 4
REMARK VINA RESULT:      -4.2      1.692      3.007
REMARK  1 active torsions:
REMARK  status: ('A' for Active; 'I' for Inactive)
REMARK    1  A    between atoms: C1_1  and  C4_4 
ROOT
HETATM    1  C2  UNL     1     -33.958  14.161  -5.037  1.00 20.00     0.014 C 
HETATM    2  C3  UNL     1     -33.056  15.140  -4.280  1.00 20.00     0.012 C 
HETATM    3  C4  UNL     1     -35.123  14.593  -4.121  1.00 20.00     0.064 C 
HETATM    4  C5  UNL     1     -34.619  17.280  -4.202  1.00 20.00    -0.000 A 
HETATM    5  C6  UNL     1     -34.320  15.837  -3.902  1.00 20.00    -0.019 A 
HETATM    6  C7  UNL     1     -34.449  16.823  -2.758  1.00 20.00    -0.035 A 
HETATM    7  C9  UNL     1     -35.917  17.783  -4.730  1.00 20.00     0.011 C 
HETATM    8  C10 UNL     1     -35.640  16.721  -1.841  1.00 20.00     0.016 C 
HETATM    9  C11 UNL     1     -33.197  17.281  -2.048  1.00 20.00     0.016 C 
ENDROOT
BRANCH   3  10
HETATM   10  C1  UNL     1     -36.502  14.733  -4.761  1.00 20.00     0.128 C 
HETATM   11  C8  UNL     1     -36.563  14.645  -6.262  1.00 20.00     0.091 C 
HETATM   12  O12 UNL     1     -37.513  14.909  -4.082  1.00 20.00    -0.298 OA
ENDBRANCH   3  10
TORSDOF 1
ENDMDL
MODEL 5
REMARK VINA RESULT:      -4.1      1.489      2.664
REMARK  1 active torsions:
REMARK  status: ('A' for Active; 'I' for Inactive)
REMARK    1  A    between atoms: C1_1  and  C4_4 
ROOT
HETATM    1  C2  UNL     1     -36.251  13.536  -5.300  1.00 20.00     0.014 C 
HETATM    2  C3  UNL     1     -37.397  14.479  -4.921  1.00 20.00     0.012 C 
HETATM    3  C4  UNL     1     -35.361  14.777  -5.525  1.00 20.00     0.064 C 
HETATM    4  C5  UNL     1     -36.136  16.140  -3.284  1.00 20.00    -0.000 A 
HETATM    5  C6  UNL     1     -36.327  15.475  -4.618  1.00 20.00    -0.019 A 
HETATM    6  C7  UNL     1     -36.553  16.968  -4.493  1.00 20.00    -0.035 A 
HETATM    7  C9  UNL     1     -34.821  16.322  -2.610  1.00 20.00     0.011 C 
HETATM    8  C10 UNL     1     -35.576  17.909  -5.152  1.00 20.00     0.016 C 
HETATM    9  C11 UNL     1     -37.969  17.492  -4.497  1.00 20.00     0.016 C 
ENDROOT
BRANCH   3  10
HETATM   10  C1  UNL     1     -33.904  14.681  -5.082  1.00 20.00     0.128 C 
HETATM   11  C8  UNL     1     -32.955  15.702  -5.649  1.00 20.00     0.091 C 
HETATM   12  O12 UNL     1     -33.523  13.812  -4.298  1.00 20.00    -0.298 OA
ENDBRANCH   3  10
TORSDOF 1
ENDMDL
MODEL 6
REMARK VINA RESULT:      -4.1      1.747      2.395
REMARK  1 active torsions:
REMARK  status: ('A' for Active; 'I' for Inactive)
REMARK    1  A    between atoms: C1_1  and  C4_4 
ROOT
HETATM    1  C2  UNL     1     -35.967  17.494  -6.557  1.00 20.00     0.014 C 
HETATM    2  C3  UNL     1     -35.773  17.604  -5.042  1.00 20.00     0.012 C 
HETATM    3  C4  UNL     1     -34.869  16.408  -6.575  1.00 20.00     0.064 C 
HETATM    4  C5  UNL     1     -35.731  15.040  -4.370  1.00 20.00    -0.000 A 
HETATM    5  C6  UNL     1     -35.205  16.227  -5.128  1.00 20.00    -0.019 A 
HETATM    6  C7  UNL     1     -34.342  15.585  -4.059  1.00 20.00    -0.035 A 
HETATM    7  C9  UNL     1     -35.943  13.688  -4.956  1.00 20.00     0.011 C 
HETATM    8  C10 UNL     1     -33.110  14.826  -4.480  1.00 20.00     0.016 C 
HETATM    9  C11 UNL     1     -34.175  16.293  -2.736  1.00 20.00     0.016 C 
ENDROOT
BRANCH   3  10
HETATM   10  C1  UNL     1     -35.075  15.222  -7.513  1.00 20.00     0.128 C 
HETATM   11  C8  UNL     1     -33.844  14.457  -7.917  1.00 20.00     0.091 C 
HETATM   12  O12 UNL     1     -36.193  14.906  -7.918  1.00 20.00    -0.298 OA
ENDBRANCH   3  10
TORSDOF 1
ENDMDL
MODEL 7
REMARK VINA RESULT:      -4.0      1.926      3.373
REMARK  1 active torsions:
REMARK  status: ('A' for Active; 'I' for Inactive)
REMARK    1  A    between atoms: C1_1  and  C4_4 
ROOT
HETATM    1  C2  UNL     1     -37.266  14.372  -5.029  1.00 20.00     0.014 C 
HETATM    2  C3  UNL     1     -36.598  14.188  -6.395  1.00 20.00     0.012 C 
HETATM    3  C4  UNL     1     -35.928  14.927  -4.496  1.00 20.00     0.064 C 
HETATM    4  C5  UNL     1     -35.361  16.519  -6.647  1.00 20.00    -0.000 A 
HETATM    5  C6  UNL     1     -35.627  15.223  -5.933  1.00 20.00    -0.019 A 
HETATM    6  C7  UNL     1     -34.266  15.463  -6.555  1.00 20.00    -0.035 A 
HETATM    7  C9  UNL     1     -35.245  17.844  -5.979  1.00 20.00     0.011 C 
HETATM    8  C10 UNL     1     -33.079  15.666  -5.649  1.00 20.00     0.016 C 
HETATM    9  C11 UNL     1     -33.914  14.742  -7.835  1.00 20.00     0.016 C 
ENDROOT
BRANCH   3  10
HETATM   10  C1  UNL     1     -35.995  16.099  -3.522  1.00 20.00     0.128 C 
HETATM   11  C8  UNL     1     -34.795  16.317  -2.641  1.00 20.00     0.091 C 
HETATM   12  O12 UNL     1     -36.982  16.831  -3.460  1.00 20.00    -0.298 OA
ENDBRANCH   3  10
TORSDOF 1
ENDMDL
MODEL 8
REMARK VINA RESULT:      -4.0      1.768      2.571
REMARK  1 active torsions:
REMARK  status: ('A' for Active; 'I' for Inactive)
REMARK    1  A    between atoms: C1_1  and  C4_4 
ROOT
HETATM    1  C2  UNL     1     -36.301  16.546  -2.722  1.00 20.00     0.014 C 
HETATM    2  C3  UNL     1     -34.819  16.214  -2.915  1.00 20.00     0.012 C 
HETATM    3  C4  UNL     1     -36.478  16.449  -4.253  1.00 20.00     0.064 C 
HETATM    4  C5  UNL     1     -34.993  14.179  -4.605  1.00 20.00    -0.000 A 
HETATM    5  C6  UNL     1     -35.239  15.610  -4.213  1.00 20.00    -0.019 A 
HETATM    6  C7  UNL     1     -34.299  15.306  -5.363  1.00 20.00    -0.035 A 
HETATM    7  C9  UNL     1     -36.002  13.293  -5.246  1.00 20.00     0.011 C 
HETATM    8  C10 UNL     1     -34.726  15.663  -6.764  1.00 20.00     0.016 C 
HETATM    9  C11 UNL     1     -32.812  15.450  -5.145  1.00 20.00     0.016 C 
ENDROOT
BRANCH   3  10
HETATM   10  C1  UNL     1     -37.762  15.806  -4.769  1.00 20.00     0.128 C 
HETATM   11  C8  UNL     1     -38.220  16.216  -6.142  1.00 20.00     0.091 C 
HETATM   12  O12 UNL     1     -38.392  14.991  -4.095  1.00 20.00    -0.298 OA
ENDBRANCH   3  10
TORSDOF 1
ENDMDL
MODEL 9
REMARK VINA RESULT:      -3.9      1.918      3.574
REMARK  1 active torsions:
REMARK  status: ('A' for Active; 'I' for Inactive)
REMARK    1  A    between atoms: C1_1  and  C4_4 
ROOT
HETATM    1  C2  UNL     1     -35.525  17.077  -2.924  1.00 20.00     0.014 C 
HETATM    2  C3  UNL     1     -36.922  16.702  -3.427  1.00 20.00     0.012 C 
HETATM    3  C4  UNL     1     -34.994  15.770  -3.551  1.00 20.00     0.064 C 
HETATM    4  C5  UNL     1     -36.361  15.968  -5.912  1.00 20.00    -0.000 A 
HETATM    5  C6  UNL     1     -36.211  15.846  -4.421  1.00 20.00    -0.019 A 
HETATM    6  C7  UNL     1     -36.855  14.715  -5.198  1.00 20.00    -0.035 A 
HETATM    7  C9  UNL     1     -35.232  15.938  -6.881  1.00 20.00     0.011 C 
HETATM    8  C10 UNL     1     -36.111  13.411  -5.335  1.00 20.00     0.016 C 
HETATM    9  C11 UNL     1     -38.352  14.533  -5.111  1.00 20.00     0.016 C 
ENDROOT
BRANCH   3  10
HETATM   10  C1  UNL     1     -33.627  15.822  -4.225  1.00 20.00     0.128 C 
HETATM   11  C8  UNL     1     -32.892  14.517  -4.370  1.00 20.00     0.091 C 
HETATM   12  O12 UNL     1     -33.148  16.881  -4.632  1.00 20.00    -0.298 OA
ENDBRANCH   3  10
TORSDOF 1
ENDMDL
