MODEL 1
REMARK VINA RESULT:      -4.5      0.000      0.000
REMARK  1 active torsions:
REMARK  status: ('A' for Active; 'I' for Inactive)
REMARK    1  A    between atoms: C3_3  and  C9_9 
ROOT
HETATM    1  C1  UNL     1     -34.031  15.461  -3.681  1.00 20.00    -0.030 C 
HETATM    2  C2  UNL     1     -35.010  16.334  -3.995  1.00 20.00    -0.029 C 
HETATM    3  C4  UNL     1     -33.471  14.434  -4.644  1.00 20.00     0.032 C 
HETATM    4  C5  UNL     1     -35.715  16.378  -5.340  1.00 20.00     0.044 C 
HETATM    5  C6  UNL     1     -34.145  13.948  -7.290  1.00 20.00     0.007 C 
HETATM    6  C7  UNL     1     -35.366  14.878  -7.594  1.00 20.00     0.018 C 
HETATM    7  C8  UNL     1     -33.947  14.823  -6.031  1.00 20.00     0.005 C 
HETATM    8  C9  UNL     1     -35.502  15.028  -6.037  1.00 20.00     0.027 C 
ENDROOT
BRANCH   8   9
HETATM    9  C3  UNL     1     -36.430  13.923  -5.408  1.00 20.00     0.132 C 
HETATM   10  C10 UNL     1     -37.845  14.326  -5.095  1.00 20.00     0.091 C 
HETATM   11  O11 UNL     1     -36.018  12.785  -5.186  1.00 20.00    -0.298 OA
ENDBRANCH   8   9
TORSDOF 1
ENDMDL
MODEL 2
REMARK VINA RESULT:      -4.3      1.194      3.111
REMARK  1 active torsions:
REMARK  status: ('A' for Active; 'I' for Inactive)
REMARK    1  A    between atoms: C3_3  and  C9_9 
ROOT
HETATM    1  C1  UNL     1     -34.162  13.978  -7.700  1.00 20.00    -0.030 C 
HETATM    2  C2  UNL     1     -33.923  15.288  -7.494  1.00 20.00    -0.029 C 
HETATM    3  C4  UNL     1     -35.304  13.213  -7.060  1.00 20.00     0.032 C 
HETATM    4  C5  UNL     1     -34.737  16.166  -6.557  1.00 20.00     0.044 C 
HETATM    5  C6  UNL     1     -37.273  14.112  -5.326  1.00 20.00     0.007 C 
HETATM    6  C7  UNL     1     -36.903  15.595  -4.997  1.00 20.00     0.018 C 
HETATM    7  C8  UNL     1     -36.258  14.243  -6.484  1.00 20.00     0.005 C 
HETATM    8  C9  UNL     1     -35.482  15.256  -5.573  1.00 20.00     0.027 C 
ENDROOT
BRANCH   8   9
HETATM    9  C3  UNL     1     -34.504  14.709  -4.468  1.00 20.00     0.132 C 
HETATM   10  C10 UNL     1     -33.562  15.704  -3.845  1.00 20.00     0.091 C 
HETATM   11  O11 UNL     1     -34.511  13.527  -4.127  1.00 20.00    -0.298 OA
ENDBRANCH   8   9
TORSDOF 1
ENDMDL
MODEL 3
REMARK VINA RESULT:      -4.2      1.476      1.978
REMARK  1 active torsions:
REMARK  status: ('A' for Active; 'I' for Inactive)
REMARK    1  A    between atoms: C3_3  and  C9_9 
ROOT
HETATM    1  C1  UNL     1     -35.458  16.610  -2.422  1.00 20.00    -0.030 C 
HETATM    2  C2  UNL     1     -36.455  16.804  -3.309  1.00 20.00    -0.029 C 
HETATM    3  C4  UNL     1     -34.040  16.239  -2.809  1.00 20.00     0.032 C 
HETATM    4  C5  UNL     1     -36.305  16.635  -4.811  1.00 20.00     0.044 C 
HETATM    5  C6  UNL     1     -32.946  15.850  -5.327  1.00 20.00     0.007 C 
HETATM    6  C7  UNL     1     -34.142  15.950  -6.330  1.00 20.00     0.018 C 
HETATM    7  C8  UNL     1     -33.910  16.485  -4.300  1.00 20.00     0.005 C 
HETATM    8  C9  UNL     1     -35.069  15.767  -5.075  1.00 20.00     0.027 C 
ENDROOT
BRANCH   8   9
HETATM    9  C3  UNL     1     -35.375  14.252  -4.775  1.00 20.00     0.132 C 
HETATM   10  C10 UNL     1     -36.683  13.712  -5.287  1.00 20.00     0.091 C 
HETATM   11  O11 UNL     1     -34.583  13.544  -4.155  1.00 20.00    -0.298 OA
ENDBRANCH   8   9
TORSDOF 1
ENDMDL
MODEL 4
REMARK VINA RESULT:      -4.1      1.233      2.783
REMARK  1 active torsions:
REMARK  status: ('A' for Active; 'I' for Inactive)
REMARK    1  A    between atoms: C3_3  and  C9_9 
ROOT
HETATM    1  C1  UNL     1     -37.562  16.071  -5.380  1.00 20.00    -0.030 C 
HETATM    2  C2  UNL     1     -36.928  16.316  -6.544  1.00 20.00    -0.029 C 
HETATM    3  C4  UNL     1     -36.877  15.528  -4.140  1.00 20.00     0.032 C 
HETATM    4  C5  UNL     1     -35.453  16.042  -6.787  1.00 20.00     0.044 C 
HETATM    5  C6  UNL     1     -34.212  14.874  -3.743  1.00 20.00     0.007 C 
HETATM    6  C7  UNL     1     -33.522  15.041  -5.137  1.00 20.00     0.018 C 
HETATM    7  C8  UNL     1     -35.383  15.670  -4.363  1.00 20.00     0.005 C 
HETATM    8  C9  UNL     1     -34.974  15.033  -5.736  1.00 20.00     0.027 C 
ENDROOT
BRANCH   8   9
HETATM    9  C3  UNL     1     -35.465  13.580  -6.092  1.00 20.00     0.132 C 
HETATM   10  C10 UNL     1     -35.339  13.156  -7.530  1.00 20.00     0.091 C 
HETATM   11  O11 UNL     1     -35.928  12.828  -5.235  1.00 20.00    -0.298 OA
ENDBRANCH   8   9
TORSDOF 1
ENDMDL
MODEL 5
REMARK VINA RESULT:      -4.1      1.815      3.174
REMARK  1 active torsions:
REMARK  status: ('A' for Active; 'I' for Inactive)
REMARK    1  A    between atoms: C3_3  and  C9_9 
ROOT
HETATM    1  C1  UNL     1     -37.173  14.079  -5.195  1.00 20.00    -0.030 C 
HETATM    2  C2  UNL     1     -37.460  15.146  -4.423  1.00 20.00    -0.029 C 
HETATM    3  C4  UNL     1     -35.771  13.546  -5.417  1.00 20.00     0.032 C 
HETATM    4  C5  UNL     1     -36.416  15.987  -3.707  1.00 20.00     0.044 C 
HETATM    5  C6  UNL     1     -33.360  14.449  -4.389  1.00 20.00     0.007 C 
HETATM    6  C7  UNL     1     -33.697  15.760  -3.606  1.00 20.00     0.018 C 
HETATM    7  C8  UNL     1     -34.883  14.189  -4.369  1.00 20.00     0.005 C 
HETATM    8  C9  UNL     1     -35.061  15.747  -4.384  1.00 20.00     0.027 C 
ENDROOT
BRANCH   8   9
HETATM    9  C3  UNL     1     -34.975  16.521  -5.752  1.00 20.00     0.132 C 
HETATM   10  C10 UNL     1     -35.549  17.912  -5.780  1.00 20.00     0.091 C 
HETATM   11  O11 UNL     1     -34.463  16.014  -6.749  1.00 20.00    -0.298 OA
ENDBRANCH   8   9
TORSDOF 1
ENDMDL
MODEL 6
REMARK VINA RESULT:      -4.0      1.730      2.368
REMARK  1 active torsions:
REMARK  status: ('A' for Active; 'I' for Inactive)
REMARK    1  A    between atoms: C3_3  and  C9_9 
ROOT
HETATM    1  C1  UNL     1     -34.543  15.039  -3.847  1.00 20.00    -0.030 C 
HETATM    2  C2  UNL     1     -33.604  15.871  -4.342  1.00 20.00    -0.029 C 
HETATM    3  C4  UNL     1     -35.243  13.969  -4.662  1.00 20.00     0.032 C 
HETATM    4  C5  UNL     1     -33.153  15.880  -5.793  1.00 20.00     0.044 C 
HETATM    5  C6  UNL     1     -34.908  13.286  -7.329  1.00 20.00     0.007 C 
HETATM    6  C7  UNL     1     -33.917  14.343  -7.917  1.00 20.00     0.018 C 
HETATM    7  C8  UNL     1     -34.452  13.804  -5.946  1.00 20.00     0.005 C 
HETATM    8  C9  UNL     1     -34.236  15.196  -6.637  1.00 20.00     0.027 C 
ENDROOT
BRANCH   8   9
HETATM    9  C3  UNL     1     -35.467  16.153  -6.848  1.00 20.00     0.132 C 
HETATM   10  C10 UNL     1     -35.160  17.597  -7.141  1.00 20.00     0.091 C 
HETATM   11  O11 UNL     1     -36.624  15.740  -6.780  1.00 20.00    -0.298 OA
ENDBRANCH   8   9
TORSDOF 1
ENDMDL
MODEL 7
REMARK VINA RESULT:      -4.0      2.289      3.726
REMARK  1 active torsions:
REMARK  status: ('A' for Active; 'I' for Inactive)
REMARK    1  A    between atoms: C3_3  and  C9_9 
ROOT
HETATM    1  C1  UNL     1     -36.160  16.750  -2.599  1.00 20.00    -0.030 C 
HETATM    2  C2  UNL     1     -35.003  17.134  -2.023  1.00 20.00    -0.029 C 
HETATM    3  C4  UNL     1     -36.248  15.786  -3.766  1.00 20.00     0.032 C 
HETATM    4  C5  UNL     1     -33.628  16.689  -2.493  1.00 20.00     0.044 C 
HETATM    5  C6  UNL     1     -34.217  14.465  -5.116  1.00 20.00     0.007 C 
HETATM    6  C7  UNL     1     -32.882  15.022  -4.522  1.00 20.00     0.018 C 
HETATM    7  C8  UNL     1     -34.893  15.114  -3.887  1.00 20.00     0.005 C 
HETATM    8  C9  UNL     1     -33.753  16.190  -3.938  1.00 20.00     0.027 C 
ENDROOT
BRANCH   8   9
HETATM    9  C3  UNL     1     -33.877  17.400  -4.937  1.00 20.00     0.132 C 
HETATM   10  C10 UNL     1     -33.231  18.693  -4.518  1.00 20.00     0.091 C 
HETATM   11  O11 UNL     1     -34.471  17.293  -6.010  1.00 20.00    -0.298 OA
ENDBRANCH   8   9
TORSDOF 1
ENDMDL
MODEL 8
REMARK VINA RESULT:      -3.9      1.972      3.508
REMARK  1 active torsions:
REMARK  status: ('A' for Active; 'I' for Inactive)
REMARK    1  A    between atoms: C3_3  and  C9_9 
ROOT
HETATM    1  C1  UNL     1     -33.587  15.506  -6.134  1.00 20.00    -0.030 C 
HETATM    2  C2  UNL     1     -34.029  14.409  -5.486  1.00 20.00    -0.029 C 
HETATM    3  C4  UNL     1     -33.488  16.881  -5.502  1.00 20.00     0.032 C 
HETATM    4  C5  UNL     1     -34.530  14.409  -4.052  1.00 20.00     0.044 C 
HETATM    5  C6  UNL     1     -34.104  17.681  -2.920  1.00 20.00     0.007 C 
HETATM    6  C7  UNL     1     -34.735  16.429  -2.227  1.00 20.00     0.018 C 
HETATM    7  C8  UNL     1     -33.624  16.689  -4.004  1.00 20.00     0.005 C 
HETATM    8  C9  UNL     1     -34.906  15.847  -3.675  1.00 20.00     0.027 C 
ENDROOT
BRANCH   8   9
HETATM    9  C3  UNL     1     -36.283  16.251  -4.323  1.00 20.00     0.132 C 
HETATM   10  C10 UNL     1     -37.355  15.195  -4.350  1.00 20.00     0.091 C 
HETATM   11  O11 UNL     1     -36.474  17.377  -4.783  1.00 20.00    -0.298 OA
ENDBRANCH   8   9
TORSDOF 1
ENDMDL
MODEL 9
REMARK VINA RESULT:      -3.9      2.074      3.593
REMARK  1 active torsions:
REMARK  status: ('A' for Active; 'I' for Inactive)
REMARK    1  A    between atoms: C3_3  and  C9_9 
ROOT
HETATM    1  C1  UNL     1     -33.930  14.717  -5.945  1.00 20.00    -0.030 C 
HETATM    2  C2  UNL     1     -35.168  14.311  -5.601  1.00 20.00    -0.029 C 
HETATM    3  C4  UNL     1     -33.077  15.645  -5.102  1.00 20.00     0.032 C 
HETATM    4  C5  UNL     1     -35.895  14.762  -4.345  1.00 20.00     0.044 C 
HETATM    5  C6  UNL     1     -33.638  16.810  -2.648  1.00 20.00     0.007 C 
HETATM    6  C7  UNL     1     -35.122  16.434  -2.330  1.00 20.00     0.018 C 
HETATM    7  C8  UNL     1     -33.716  15.706  -3.728  1.00 20.00     0.005 C 
HETATM    8  C9  UNL     1     -35.240  16.057  -3.850  1.00 20.00     0.027 C 
ENDROOT
BRANCH   8   9
HETATM    9  C3  UNL     1     -35.682  17.280  -4.736  1.00 20.00     0.132 C 
HETATM   10  C10 UNL     1     -37.133  17.341  -5.131  1.00 20.00     0.091 C 
HETATM   11  O11 UNL     1     -34.882  18.146  -5.086  1.00 20.00    -0.298 OA
ENDBRANCH   8   9
TORSDOF 1
ENDMDL
