MODEL 1
REMARK VINA RESULT:      -4.6      0.000      0.000
REMARK  1 active torsions:
REMARK  status: ('A' for Active; 'I' for Inactive)
REMARK    1  A    between atoms: C6_6  and  N10_10 
ROOT
HETATM    1  C1  UNL     1     -32.450   8.748   1.806  1.00 20.00     0.064 C 
HETATM    2  C2  UNL     1     -32.777   6.288   1.879  1.00 20.00     0.021 C 
HETATM    3  C3  UNL     1     -33.698   5.654   2.921  1.00 20.00     0.037 C 
HETATM    4  C4  UNL     1     -32.749   7.565   3.967  1.00 20.00     0.055 C 
HETATM    5  C5  UNL     1     -32.147   7.518   2.556  1.00 20.00     0.095 C 
HETATM    6  C6  UNL     1     -34.075   6.818   3.830  1.00 20.00     0.223 C 
HETATM    7  N9  UNL     1     -32.690   9.717   1.215  1.00 20.00    -0.197 NA
ENDROOT
BRANCH   6   8
HETATM    8  N10 UNL     1     -34.618   6.395   5.110  1.00 20.00     0.084 N 
HETATM    9  C7  UNL     1     -33.892   7.024   6.217  1.00 20.00     0.309 C 
HETATM   10  C8  UNL     1     -34.570   4.935   5.240  1.00 20.00     0.309 C 
ENDBRANCH   6   8
TORSDOF 1
ENDMDL
MODEL 2
REMARK VINA RESULT:      -4.2     11.332     12.297
REMARK  1 active torsions:
REMARK  status: ('A' for Active; 'I' for Inactive)
REMARK    1  A    between atoms: C6_6  and  N10_10 
ROOT
HETATM    1  C1  UNL     1     -32.166  18.463  -0.594  1.00 20.00     0.064 C 
HETATM    2  C2  UNL     1     -34.479  17.570  -0.732  1.00 20.00     0.021 C 
HETATM    3  C3  UNL     1     -34.889  16.639  -1.872  1.00 20.00     0.037 C 
HETATM    4  C4  UNL     1     -33.271  18.119  -2.789  1.00 20.00     0.055 C 
HETATM    5  C5  UNL     1     -33.442  18.542  -1.323  1.00 20.00     0.095 C 
HETATM    6  C6  UNL     1     -33.680  16.647  -2.801  1.00 20.00     0.223 C 
HETATM    7  N9  UNL     1     -31.161  18.401  -0.019  1.00 20.00    -0.197 NA
ENDROOT
BRANCH   6   8
HETATM    8  N10 UNL     1     -33.977  16.155  -4.135  1.00 20.00     0.084 N 
HETATM    9  C7  UNL     1     -33.271  14.898  -4.397  1.00 20.00     0.309 C 
HETATM   10  C8  UNL     1     -33.622  17.152  -5.150  1.00 20.00     0.309 C 
ENDBRANCH   6   8
TORSDOF 1
ENDMDL
MODEL 3
REMARK VINA RESULT:      -4.0     11.215     12.002
REMARK  1 active torsions:
REMARK  status: ('A' for Active; 'I' for Inactive)
REMARK    1  A    between atoms: C6_6  and  N10_10 
ROOT
HETATM    1  C1  UNL     1     -35.725  13.912  -5.218  1.00 20.00     0.064 C 
HETATM    2  C2  UNL     1     -34.162  15.754  -5.789  1.00 20.00     0.021 C 
HETATM    3  C3  UNL     1     -33.415  16.513  -4.692  1.00 20.00     0.037 C 
HETATM    4  C4  UNL     1     -35.511  15.903  -3.752  1.00 20.00     0.055 C 
HETATM    5  C5  UNL     1     -35.527  15.370  -5.192  1.00 20.00     0.095 C 
HETATM    6  C6  UNL     1     -34.026  15.979  -3.401  1.00 20.00     0.223 C 
HETATM    7  N9  UNL     1     -35.881  12.762  -5.239  1.00 20.00    -0.197 NA
ENDROOT
BRANCH   6   8
HETATM    8  N10 UNL     1     -33.762  16.824  -2.249  1.00 20.00     0.084 N 
HETATM    9  C7  UNL     1     -34.957  16.949  -1.410  1.00 20.00     0.309 C 
HETATM   10  C8  UNL     1     -33.302  18.151  -2.670  1.00 20.00     0.309 C 
ENDBRANCH   6   8
TORSDOF 1
ENDMDL
MODEL 4
REMARK VINA RESULT:      -3.9     11.159     11.795
REMARK  1 active torsions:
REMARK  status: ('A' for Active; 'I' for Inactive)
REMARK    1  A    between atoms: C6_6  and  N10_10 
ROOT
HETATM    1  C1  UNL     1     -35.444  13.946  -5.077  1.00 20.00     0.064 C 
HETATM    2  C2  UNL     1     -33.645  15.343  -4.090  1.00 20.00     0.021 C 
HETATM    3  C3  UNL     1     -33.933  16.265  -2.906  1.00 20.00     0.037 C 
HETATM    4  C4  UNL     1     -35.931  16.212  -4.192  1.00 20.00     0.055 C 
HETATM    5  C5  UNL     1     -34.930  15.318  -4.937  1.00 20.00     0.095 C 
HETATM    6  C6  UNL     1     -35.447  16.185  -2.743  1.00 20.00     0.223 C 
HETATM    7  N9  UNL     1     -35.850  12.864  -5.186  1.00 20.00    -0.197 NA
ENDROOT
BRANCH   6   8
HETATM    8  N10 UNL     1     -35.997  17.268  -1.945  1.00 20.00     0.084 N 
HETATM    9  C7  UNL     1     -35.830  18.554  -2.627  1.00 20.00     0.309 C 
HETATM   10  C8  UNL     1     -35.364  17.314  -0.623  1.00 20.00     0.309 C 
ENDBRANCH   6   8
TORSDOF 1
ENDMDL
MODEL 5
REMARK VINA RESULT:      -3.8      1.323      4.031
REMARK  1 active torsions:
REMARK  status: ('A' for Active; 'I' for Inactive)
REMARK    1  A    between atoms: C6_6  and  N10_10 
ROOT
HETATM    1  C1  UNL     1     -34.708   5.402   5.192  1.00 20.00     0.064 C 
HETATM    2  C2  UNL     1     -34.034   4.988   2.839  1.00 20.00     0.021 C 
HETATM    3  C3  UNL     1     -32.897   5.785   2.201  1.00 20.00     0.037 C 
HETATM    4  C4  UNL     1     -33.946   7.263   3.738  1.00 20.00     0.055 C 
HETATM    5  C5  UNL     1     -34.728   5.945   3.824  1.00 20.00     0.095 C 
HETATM    6  C6  UNL     1     -32.562   6.842   3.247  1.00 20.00     0.223 C 
HETATM    7  N9  UNL     1     -34.692   4.974   6.270  1.00 20.00    -0.197 NA
ENDROOT
BRANCH   6   8
HETATM    8  N10 UNL     1     -31.790   7.953   2.716  1.00 20.00     0.084 N 
HETATM    9  C7  UNL     1     -31.346   8.841   3.793  1.00 20.00     0.309 C 
HETATM   10  C8  UNL     1     -32.573   8.707   1.732  1.00 20.00     0.309 C 
ENDBRANCH   6   8
TORSDOF 1
ENDMDL
MODEL 6
REMARK VINA RESULT:      -3.7     11.515     12.005
REMARK  1 active torsions:
REMARK  status: ('A' for Active; 'I' for Inactive)
REMARK    1  A    between atoms: C6_6  and  N10_10 
ROOT
HETATM    1  C1  UNL     1     -33.628  17.549  -3.843  1.00 20.00     0.064 C 
HETATM    2  C2  UNL     1     -35.106  16.554  -2.114  1.00 20.00     0.021 C 
HETATM    3  C3  UNL     1     -35.304  17.245  -0.765  1.00 20.00     0.037 C 
HETATM    4  C4  UNL     1     -33.077  17.742  -1.431  1.00 20.00     0.055 C 
HETATM    5  C5  UNL     1     -33.660  16.858  -2.544  1.00 20.00     0.095 C 
HETATM    6  C6  UNL     1     -34.303  18.395  -0.795  1.00 20.00     0.223 C 
HETATM    7  N9  UNL     1     -33.604  18.093  -4.868  1.00 20.00    -0.197 NA
ENDROOT
BRANCH   6   8
HETATM    8  N10 UNL     1     -34.027  18.951   0.518  1.00 20.00     0.084 N 
HETATM    9  C7  UNL     1     -32.598  18.865   0.831  1.00 20.00     0.309 C 
HETATM   10  C8  UNL     1     -34.811  18.265   1.550  1.00 20.00     0.309 C 
ENDBRANCH   6   8
TORSDOF 1
ENDMDL
MODEL 7
REMARK VINA RESULT:      -3.7     10.839     11.810
REMARK  1 active torsions:
REMARK  status: ('A' for Active; 'I' for Inactive)
REMARK    1  A    between atoms: C6_6  and  N10_10 
ROOT
HETATM    1  C1  UNL     1     -35.221  13.529  -6.406  1.00 20.00     0.064 C 
HETATM    2  C2  UNL     1     -36.890  14.575  -4.895  1.00 20.00     0.021 C 
HETATM    3  C3  UNL     1     -36.471  15.654  -3.897  1.00 20.00     0.037 C 
HETATM    4  C4  UNL     1     -34.610  14.190  -4.093  1.00 20.00     0.055 C 
HETATM    5  C5  UNL     1     -35.694  13.614  -5.015  1.00 20.00     0.095 C 
HETATM    6  C6  UNL     1     -34.950  15.677  -4.003  1.00 20.00     0.223 C 
HETATM    7  N9  UNL     1     -34.848  13.462  -7.502  1.00 20.00    -0.197 NA
ENDROOT
BRANCH   6   8
HETATM    8  N10 UNL     1     -34.306  16.335  -2.879  1.00 20.00     0.084 N 
HETATM    9  C7  UNL     1     -35.291  16.709  -1.860  1.00 20.00     0.309 C 
HETATM   10  C8  UNL     1     -33.566  17.521  -3.324  1.00 20.00     0.309 C 
ENDBRANCH   6   8
TORSDOF 1
ENDMDL
MODEL 8
REMARK VINA RESULT:      -3.7     10.909     12.918
REMARK  1 active torsions:
REMARK  status: ('A' for Active; 'I' for Inactive)
REMARK    1  A    between atoms: C6_6  and  N10_10 
ROOT
HETATM    1  C1  UNL     1     -36.794  14.043  -5.169  1.00 20.00     0.064 C 
HETATM    2  C2  UNL     1     -34.547  14.060  -4.112  1.00 20.00     0.021 C 
HETATM    3  C3  UNL     1     -33.679  15.318  -4.144  1.00 20.00     0.037 C 
HETATM    4  C4  UNL     1     -34.925  15.335  -6.168  1.00 20.00     0.055 C 
HETATM    5  C5  UNL     1     -35.345  14.057  -5.428  1.00 20.00     0.095 C 
HETATM    6  C6  UNL     1     -34.448  16.268  -5.055  1.00 20.00     0.223 C 
HETATM    7  N9  UNL     1     -37.936  14.033  -4.964  1.00 20.00    -0.197 NA
ENDROOT
BRANCH   6   8
HETATM    8  N10 UNL     1     -33.640  17.369  -5.551  1.00 20.00     0.084 N 
HETATM    9  C7  UNL     1     -33.467  18.394  -4.518  1.00 20.00     0.309 C 
HETATM   10  C8  UNL     1     -34.243  17.959  -6.750  1.00 20.00     0.309 C 
ENDBRANCH   6   8
TORSDOF 1
ENDMDL
MODEL 9
REMARK VINA RESULT:      -3.7     11.072     12.435
REMARK  1 active torsions:
REMARK  status: ('A' for Active; 'I' for Inactive)
REMARK    1  A    between atoms: C6_6  and  N10_10 
ROOT
HETATM    1  C1  UNL     1     -34.659  16.286  -2.662  1.00 20.00     0.064 C 
HETATM    2  C2  UNL     1     -33.434  16.583  -4.800  1.00 20.00     0.021 C 
HETATM    3  C3  UNL     1     -33.922  15.905  -6.080  1.00 20.00     0.037 C 
HETATM    4  C4  UNL     1     -34.493  14.433  -4.304  1.00 20.00     0.055 C 
HETATM    5  C5  UNL     1     -33.787  15.627  -3.647  1.00 20.00     0.095 C 
HETATM    6  C6  UNL     1     -35.056  15.005  -5.605  1.00 20.00     0.223 C 
HETATM    7  N9  UNL     1     -35.347  16.806  -1.885  1.00 20.00    -0.197 NA
ENDROOT
BRANCH   6   8
HETATM    8  N10 UNL     1     -35.412  13.974  -6.565  1.00 20.00     0.084 N 
HETATM    9  C7  UNL     1     -34.321  13.750  -7.518  1.00 20.00     0.309 C 
HETATM   10  C8  UNL     1     -36.640  14.332  -7.282  1.00 20.00     0.309 C 
ENDBRANCH   6   8
TORSDOF 1
ENDMDL
