MODEL 1
REMARK VINA RESULT:      -4.2      0.000      0.000
REMARK  1 active torsions:
REMARK  status: ('A' for Active; 'I' for Inactive)
REMARK    1  A    between atoms: C1_1  and  N7_7 
ROOT
HETATM    1  C2  UNL     1     -34.709   6.113   3.445  1.00 20.00     0.159 C 
HETATM    2  C3  UNL     1     -34.897   5.067   4.526  1.00 20.00     0.138 C 
HETATM    3  C4  UNL     1     -33.436   6.677   5.359  1.00 20.00     0.221 C 
HETATM    4  C5  UNL     1     -34.098   3.796   4.269  1.00 20.00     0.041 C 
HETATM    5  C6  UNL     1     -33.685   7.936   6.173  1.00 20.00     0.063 C 
HETATM    6  N7  UNL     1     -33.594   6.876   3.937  1.00 20.00    -0.330 N 
HETATM    7  O9  UNL     1     -34.416   5.691   5.734  1.00 20.00    -0.360 OA
ENDROOT
BRANCH   6   8
HETATM    8  C1  UNL     1     -32.751   7.616   3.142  1.00 20.00     0.352 C 
HETATM    9  O8  UNL     1     -31.626   8.012   3.423  1.00 20.00    -0.283 OA
ENDBRANCH   6   8
TORSDOF 1
ENDMDL
MODEL 2
REMARK VINA RESULT:      -4.2      1.195      3.335
REMARK  1 active torsions:
REMARK  status: ('A' for Active; 'I' for Inactive)
REMARK    1  A    between atoms: C1_1  and  N7_7 
ROOT
HETATM    1  C2  UNL     1     -32.715   6.144   2.951  1.00 20.00     0.159 C 
HETATM    2  C3  UNL     1     -32.068   7.515   2.913  1.00 20.00     0.138 C 
HETATM    3  C4  UNL     1     -33.642   7.532   4.628  1.00 20.00     0.221 C 
HETATM    4  C5  UNL     1     -32.595   8.390   1.783  1.00 20.00     0.041 C 
HETATM    5  C6  UNL     1     -33.517   7.229   6.112  1.00 20.00     0.063 C 
HETATM    6  N7  UNL     1     -33.841   6.352   3.819  1.00 20.00    -0.330 N 
HETATM    7  O9  UNL     1     -32.408   8.120   4.177  1.00 20.00    -0.360 OA
ENDROOT
BRANCH   6   8
HETATM    8  C1  UNL     1     -34.980   5.581   3.809  1.00 20.00     0.352 C 
HETATM    9  O8  UNL     1     -35.153   4.509   4.376  1.00 20.00    -0.283 OA
ENDBRANCH   6   8
TORSDOF 1
ENDMDL
MODEL 3
REMARK VINA RESULT:      -3.8     12.470     13.593
REMARK  1 active torsions:
REMARK  status: ('A' for Active; 'I' for Inactive)
REMARK    1  A    between atoms: C1_1  and  N7_7 
ROOT
HETATM    1  C2  UNL     1     -35.601  16.181  -4.812  1.00 20.00     0.159 C 
HETATM    2  C3  UNL     1     -34.217  16.749  -4.567  1.00 20.00     0.138 C 
HETATM    3  C4  UNL     1     -33.975  14.885  -5.942  1.00 20.00     0.221 C 
HETATM    4  C5  UNL     1     -33.662  16.395  -3.194  1.00 20.00     0.041 C 
HETATM    5  C6  UNL     1     -33.935  14.750  -7.454  1.00 20.00     0.063 C 
HETATM    6  N7  UNL     1     -35.317  14.904  -5.406  1.00 20.00    -0.330 N 
HETATM    7  O9  UNL     1     -33.386  16.149  -5.582  1.00 20.00    -0.360 OA
ENDROOT
BRANCH   6   8
HETATM    8  C1  UNL     1     -36.175  13.830  -5.382  1.00 20.00     0.352 C 
HETATM    9  O8  UNL     1     -35.881  12.650  -5.236  1.00 20.00    -0.283 OA
ENDBRANCH   6   8
TORSDOF 1
ENDMDL
MODEL 4
REMARK VINA RESULT:      -3.7     12.281     13.667
REMARK  1 active torsions:
REMARK  status: ('A' for Active; 'I' for Inactive)
REMARK    1  A    between atoms: C1_1  and  N7_7 
ROOT
HETATM    1  C2  UNL     1     -33.883  14.612  -6.175  1.00 20.00     0.159 C 
HETATM    2  C3  UNL     1     -33.430  16.035  -6.438  1.00 20.00     0.138 C 
HETATM    3  C4  UNL     1     -34.857  16.084  -4.599  1.00 20.00     0.221 C 
HETATM    4  C5  UNL     1     -34.153  16.683  -7.611  1.00 20.00     0.041 C 
HETATM    5  C6  UNL     1     -34.578  15.995  -3.107  1.00 20.00     0.063 C 
HETATM    6  N7  UNL     1     -34.958  14.792  -5.238  1.00 20.00    -0.330 N 
HETATM    7  O9  UNL     1     -33.749  16.754  -5.230  1.00 20.00    -0.360 OA
ENDROOT
BRANCH   6   8
HETATM    8  C1  UNL     1     -35.980  13.893  -5.049  1.00 20.00     0.352 C 
HETATM    9  O8  UNL     1     -35.946  12.683  -5.238  1.00 20.00    -0.283 OA
ENDBRANCH   6   8
TORSDOF 1
ENDMDL
MODEL 5
REMARK VINA RESULT:      -3.5     12.312     13.052
REMARK  1 active torsions:
REMARK  status: ('A' for Active; 'I' for Inactive)
REMARK    1  A    between atoms: C1_1  and  N7_7 
ROOT
HETATM    1  C2  UNL     1     -35.932  15.508  -6.162  1.00 20.00     0.159 C 
HETATM    2  C3  UNL     1     -36.422  15.834  -4.764  1.00 20.00     0.138 C 
HETATM    3  C4  UNL     1     -34.690  14.292  -4.556  1.00 20.00     0.221 C 
HETATM    4  C5  UNL     1     -37.724  15.127  -4.410  1.00 20.00     0.041 C 
HETATM    5  C6  UNL     1     -33.195  14.480  -4.356  1.00 20.00     0.063 C 
HETATM    6  N7  UNL     1     -35.093  14.362  -5.942  1.00 20.00    -0.330 N 
HETATM    7  O9  UNL     1     -35.377  15.366  -3.887  1.00 20.00    -0.360 OA
ENDROOT
BRANCH   6   8
HETATM    8  C1  UNL     1     -34.796  13.423  -6.902  1.00 20.00     0.352 C 
HETATM    9  O8  UNL     1     -35.090  12.234  -6.890  1.00 20.00    -0.283 OA
ENDBRANCH   6   8
TORSDOF 1
ENDMDL
MODEL 6
REMARK VINA RESULT:      -3.4     12.224     13.000
REMARK  1 active torsions:
REMARK  status: ('A' for Active; 'I' for Inactive)
REMARK    1  A    between atoms: C1_1  and  N7_7 
ROOT
HETATM    1  C2  UNL     1     -34.229  14.248  -4.272  1.00 20.00     0.159 C 
HETATM    2  C3  UNL     1     -34.599  15.545  -3.579  1.00 20.00     0.138 C 
HETATM    3  C4  UNL     1     -36.241  15.111  -5.172  1.00 20.00     0.221 C 
HETATM    4  C5  UNL     1     -33.778  16.733  -4.063  1.00 20.00     0.041 C 
HETATM    5  C6  UNL     1     -37.569  14.378  -5.074  1.00 20.00     0.063 C 
HETATM    6  N7  UNL     1     -35.119  14.230  -5.401  1.00 20.00    -0.330 N 
HETATM    7  O9  UNL     1     -35.985  15.761  -3.913  1.00 20.00    -0.360 OA
ENDROOT
BRANCH   6   8
HETATM    8  C1  UNL     1     -34.880  13.538  -6.565  1.00 20.00     0.352 C 
HETATM    9  O8  UNL     1     -35.124  12.359  -6.788  1.00 20.00    -0.283 OA
ENDBRANCH   6   8
TORSDOF 1
ENDMDL
MODEL 7
REMARK VINA RESULT:      -3.4     12.420     13.054
REMARK  1 active torsions:
REMARK  status: ('A' for Active; 'I' for Inactive)
REMARK    1  A    between atoms: C1_1  and  N7_7 
ROOT
HETATM    1  C2  UNL     1     -36.205  13.530  -5.329  1.00 20.00     0.159 C 
HETATM    2  C3  UNL     1     -35.451  13.180  -6.597  1.00 20.00     0.138 C 
HETATM    3  C4  UNL     1     -34.145  14.692  -5.402  1.00 20.00     0.221 C 
HETATM    4  C5  UNL     1     -35.992  13.896  -7.828  1.00 20.00     0.041 C 
HETATM    5  C6  UNL     1     -33.042  14.479  -4.379  1.00 20.00     0.063 C 
HETATM    6  N7  UNL     1     -35.470  14.659  -4.828  1.00 20.00    -0.330 N 
HETATM    7  O9  UNL     1     -34.097  13.613  -6.355  1.00 20.00    -0.360 OA
ENDROOT
BRANCH   6   8
HETATM    8  C1  UNL     1     -35.994  15.615  -3.990  1.00 20.00     0.352 C 
HETATM    9  O8  UNL     1     -37.167  15.955  -3.896  1.00 20.00    -0.283 OA
ENDBRANCH   6   8
TORSDOF 1
ENDMDL
MODEL 8
REMARK VINA RESULT:      -3.3     12.198     13.531
REMARK  1 active torsions:
REMARK  status: ('A' for Active; 'I' for Inactive)
REMARK    1  A    between atoms: C1_1  and  N7_7 
ROOT
HETATM    1  C2  UNL     1     -35.177  15.997  -6.407  1.00 20.00     0.159 C 
HETATM    2  C3  UNL     1     -34.970  17.089  -5.376  1.00 20.00     0.138 C 
HETATM    3  C4  UNL     1     -34.312  15.078  -4.405  1.00 20.00     0.221 C 
HETATM    4  C5  UNL     1     -36.267  17.531  -4.709  1.00 20.00     0.041 C 
HETATM    5  C6  UNL     1     -32.958  14.393  -4.330  1.00 20.00     0.063 C 
HETATM    6  N7  UNL     1     -35.027  14.797  -5.629  1.00 20.00    -0.330 N 
HETATM    7  O9  UNL     1     -34.104  16.503  -4.383  1.00 20.00    -0.360 OA
ENDROOT
BRANCH   6   8
HETATM    8  C1  UNL     1     -35.568  13.580  -5.969  1.00 20.00     0.352 C 
HETATM    9  O8  UNL     1     -35.935  12.694  -5.207  1.00 20.00    -0.283 OA
ENDBRANCH   6   8
TORSDOF 1
ENDMDL
MODEL 9
REMARK VINA RESULT:      -3.3     12.589     13.953
REMARK  1 active torsions:
REMARK  status: ('A' for Active; 'I' for Inactive)
REMARK    1  A    between atoms: C1_1  and  N7_7 
ROOT
HETATM    1  C2  UNL     1     -33.186  15.810  -5.923  1.00 20.00     0.159 C 
HETATM    2  C3  UNL     1     -33.292  14.955  -4.675  1.00 20.00     0.138 C 
HETATM    3  C4  UNL     1     -34.951  14.249  -6.149  1.00 20.00     0.221 C 
HETATM    4  C5  UNL     1     -33.970  15.675  -3.517  1.00 20.00     0.041 C 
HETATM    5  C6  UNL     1     -34.957  13.160  -7.209  1.00 20.00     0.063 C 
HETATM    6  N7  UNL     1     -34.405  15.501  -6.621  1.00 20.00    -0.330 N 
HETATM    7  O9  UNL     1     -34.100  13.826  -5.067  1.00 20.00    -0.360 OA
ENDROOT
BRANCH   6   8
HETATM    8  C1  UNL     1     -35.003  16.330  -7.540  1.00 20.00     0.352 C 
HETATM    9  O8  UNL     1     -36.188  16.632  -7.603  1.00 20.00    -0.283 OA
ENDBRANCH   6   8
TORSDOF 1
ENDMDL
