MODEL 1
REMARK VINA RESULT:      -6.0      0.000      0.000
REMARK  3 active torsions:
REMARK  status: ('A' for Active; 'I' for Inactive)
REMARK    1  A    between atoms: C1_1  and  C7_7 
REMARK    2  A    between atoms: C2_2  and  C9_9 
REMARK    3  A    between atoms: C9_9  and  C10_10 
ROOT
HETATM    1  C3  UNL     1     -34.471   4.757   4.578  1.00 20.00     0.128 C 
HETATM    2  C4  UNL     1     -33.614   5.338   5.672  1.00 20.00     0.079 C 
HETATM    3  C5  UNL     1     -35.265   5.813   3.849  1.00 20.00     0.095 C 
HETATM    4  C6  UNL     1     -34.147   6.765   5.764  1.00 20.00     0.025 C 
HETATM    5  C7  UNL     1     -34.631   7.111   4.354  1.00 20.00     0.072 C 
HETATM    6  O11 UNL     1     -34.519   3.562   4.312  1.00 20.00    -0.298 OA
ENDROOT
BRANCH   5   7
HETATM    7  C1  UNL     1     -33.513   7.536   3.493  1.00 20.00    -0.101 C 
HETATM    8  C2  UNL     1     -32.601   7.880   2.791  1.00 20.00    -0.106 C 
BRANCH   8   9
HETATM    9  C9  UNL     1     -31.487   8.304   1.930  1.00 20.00     0.093 C 
BRANCH   9  10
HETATM   10  C10 UNL     1     -31.963   9.111   0.722  1.00 20.00     0.007 C 
HETATM   11  C8  UNL     1     -32.739  10.362   1.108  1.00 20.00     0.006 C 
ENDBRANCH   9  10
ENDBRANCH   8   9
ENDBRANCH   5   7
TORSDOF 3
ENDMDL
MODEL 2
REMARK VINA RESULT:      -6.0      2.563      5.357
REMARK  3 active torsions:
REMARK  status: ('A' for Active; 'I' for Inactive)
REMARK    1  A    between atoms: C1_1  and  C7_7 
REMARK    2  A    between atoms: C2_2  and  C9_9 
REMARK    3  A    between atoms: C9_9  and  C10_10 
ROOT
HETATM    1  C3  UNL     1     -32.798   9.371   0.125  1.00 20.00     0.128 C 
HETATM    2  C4  UNL     1     -33.214  10.268   1.260  1.00 20.00     0.079 C 
HETATM    3  C5  UNL     1     -31.745   8.372   0.539  1.00 20.00     0.095 C 
HETATM    4  C6  UNL     1     -32.152   9.957   2.312  1.00 20.00     0.025 C 
HETATM    5  C7  UNL     1     -31.745   8.503   2.064  1.00 20.00     0.072 C 
HETATM    6  O11 UNL     1     -33.260   9.444  -1.007  1.00 20.00    -0.298 OA
ENDROOT
BRANCH   5   7
HETATM    7  C1  UNL     1     -32.699   7.567   2.685  1.00 20.00    -0.101 C 
HETATM    8  C2  UNL     1     -33.476   6.805   3.192  1.00 20.00    -0.106 C 
BRANCH   8   9
HETATM    9  C9  UNL     1     -34.429   5.872   3.810  1.00 20.00     0.093 C 
BRANCH   9  10
HETATM   10  C10 UNL     1     -34.445   5.985   5.334  1.00 20.00     0.007 C 
HETATM   11  C8  UNL     1     -33.769   7.249   5.846  1.00 20.00     0.006 C 
ENDBRANCH   9  10
ENDBRANCH   8   9
ENDBRANCH   5   7
TORSDOF 3
ENDMDL
MODEL 3
REMARK VINA RESULT:      -5.0      1.569      2.416
REMARK  3 active torsions:
REMARK  status: ('A' for Active; 'I' for Inactive)
REMARK    1  A    between atoms: C1_1  and  C7_7 
REMARK    2  A    between atoms: C2_2  and  C9_9 
REMARK    3  A    between atoms: C9_9  and  C10_10 
ROOT
HETATM    1  C3  UNL     1     -34.673   6.145   3.625  1.00 20.00     0.128 C 
HETATM    2  C4  UNL     1     -33.947   5.469   2.492  1.00 20.00     0.079 C 
HETATM    3  C5  UNL     1     -33.762   7.022   4.449  1.00 20.00     0.095 C 
HETATM    4  C6  UNL     1     -32.487   5.748   2.845  1.00 20.00     0.025 C 
HETATM    5  C7  UNL     1     -32.497   7.084   3.591  1.00 20.00     0.072 C 
HETATM    6  O11 UNL     1     -35.868   6.000   3.852  1.00 20.00    -0.298 OA
ENDROOT
BRANCH   5   7
HETATM    7  C1  UNL     1     -32.536   8.221   2.655  1.00 20.00    -0.101 C 
HETATM    8  C2  UNL     1     -32.568   9.147   1.890  1.00 20.00    -0.106 C 
BRANCH   8   9
HETATM    9  C9  UNL     1     -32.610  10.281   0.956  1.00 20.00     0.093 C 
BRANCH   9  10
HETATM   10  C10 UNL     1     -33.274   9.915  -0.370  1.00 20.00     0.007 C 
HETATM   11  C8  UNL     1     -32.684   8.666  -1.009  1.00 20.00     0.006 C 
ENDBRANCH   9  10
ENDBRANCH   8   9
ENDBRANCH   5   7
TORSDOF 3
ENDMDL
MODEL 4
REMARK VINA RESULT:      -4.8      1.049      1.504
REMARK  3 active torsions:
REMARK  status: ('A' for Active; 'I' for Inactive)
REMARK    1  A    between atoms: C1_1  and  C7_7 
REMARK    2  A    between atoms: C2_2  and  C9_9 
REMARK    3  A    between atoms: C9_9  and  C10_10 
ROOT
HETATM    1  C3  UNL     1     -34.085   4.783   5.118  1.00 20.00     0.128 C 
HETATM    2  C4  UNL     1     -35.030   5.953   5.206  1.00 20.00     0.079 C 
HETATM    3  C5  UNL     1     -33.795   4.386   3.691  1.00 20.00     0.095 C 
HETATM    4  C6  UNL     1     -35.529   6.061   3.767  1.00 20.00     0.025 C 
HETATM    5  C7  UNL     1     -34.376   5.556   2.896  1.00 20.00     0.072 C 
HETATM    6  O11 UNL     1     -33.607   4.218   6.094  1.00 20.00    -0.298 OA
ENDROOT
BRANCH   5   7
HETATM    7  C1  UNL     1     -33.370   6.610   2.675  1.00 20.00    -0.101 C 
HETATM    8  C2  UNL     1     -32.550   7.469   2.496  1.00 20.00    -0.106 C 
BRANCH   8   9
HETATM    9  C9  UNL     1     -31.546   8.520   2.274  1.00 20.00     0.093 C 
BRANCH   9  10
HETATM   10  C10 UNL     1     -31.660   9.145   0.884  1.00 20.00     0.007 C 
HETATM   11  C8  UNL     1     -32.686  10.268   0.817  1.00 20.00     0.006 C 
ENDBRANCH   9  10
ENDBRANCH   8   9
ENDBRANCH   5   7
TORSDOF 3
ENDMDL
MODEL 5
REMARK VINA RESULT:      -4.7     10.819     11.905
REMARK  3 active torsions:
REMARK  status: ('A' for Active; 'I' for Inactive)
REMARK    1  A    between atoms: C1_1  and  C7_7 
REMARK    2  A    between atoms: C2_2  and  C9_9 
REMARK    3  A    between atoms: C9_9  and  C10_10 
ROOT
HETATM    1  C3  UNL     1     -35.243  13.906  -5.067  1.00 20.00     0.128 C 
HETATM    2  C4  UNL     1     -35.582  15.211  -5.737  1.00 20.00     0.079 C 
HETATM    3  C5  UNL     1     -33.979  13.993  -4.247  1.00 20.00     0.095 C 
HETATM    4  C6  UNL     1     -34.304  16.017  -5.520  1.00 20.00     0.025 C 
HETATM    5  C7  UNL     1     -33.714  15.499  -4.206  1.00 20.00     0.072 C 
HETATM    6  O11 UNL     1     -35.916  12.888  -5.176  1.00 20.00    -0.298 OA
ENDROOT
BRANCH   5   7
HETATM    7  C1  UNL     1     -34.364  16.129  -3.042  1.00 20.00    -0.101 C 
HETATM    8  C2  UNL     1     -34.893  16.643  -2.095  1.00 20.00    -0.106 C 
BRANCH   8   9
HETATM    9  C9  UNL     1     -35.542  17.270  -0.934  1.00 20.00     0.093 C 
BRANCH   9  10
HETATM   10  C10 UNL     1     -34.530  17.766   0.098  1.00 20.00     0.007 C 
HETATM   11  C8  UNL     1     -33.360  18.513  -0.526  1.00 20.00     0.006 C 
ENDBRANCH   9  10
ENDBRANCH   8   9
ENDBRANCH   5   7
TORSDOF 3
ENDMDL
MODEL 6
REMARK VINA RESULT:      -4.5     11.287     12.139
REMARK  3 active torsions:
REMARK  status: ('A' for Active; 'I' for Inactive)
REMARK    1  A    between atoms: C1_1  and  C7_7 
REMARK    2  A    between atoms: C2_2  and  C9_9 
REMARK    3  A    between atoms: C9_9  and  C10_10 
ROOT
HETATM    1  C3  UNL     1     -37.036  14.314  -5.239  1.00 20.00     0.128 C 
HETATM    2  C4  UNL     1     -36.816  15.624  -5.948  1.00 20.00     0.079 C 
HETATM    3  C5  UNL     1     -35.739  13.640  -4.862  1.00 20.00     0.095 C 
HETATM    4  C6  UNL     1     -35.318  15.573  -6.242  1.00 20.00     0.025 C 
HETATM    5  C7  UNL     1     -34.708  14.742  -5.112  1.00 20.00     0.072 C 
HETATM    6  O11 UNL     1     -38.142  13.847  -4.997  1.00 20.00    -0.298 OA
ENDROOT
BRANCH   5   7
HETATM    7  C1  UNL     1     -34.489  15.559  -3.905  1.00 20.00    -0.101 C 
HETATM    8  C2  UNL     1     -34.312  16.226  -2.921  1.00 20.00    -0.106 C 
BRANCH   8   9
HETATM    9  C9  UNL     1     -34.094  17.039  -1.716  1.00 20.00     0.093 C 
BRANCH   9  10
HETATM   10  C10 UNL     1     -35.343  17.121  -0.840  1.00 20.00     0.007 C 
HETATM   11  C8  UNL     1     -35.102  17.847   0.477  1.00 20.00     0.006 C 
ENDBRANCH   9  10
ENDBRANCH   8   9
ENDBRANCH   5   7
TORSDOF 3
ENDMDL
MODEL 7
REMARK VINA RESULT:      -4.3     11.567     12.542
REMARK  3 active torsions:
REMARK  status: ('A' for Active; 'I' for Inactive)
REMARK    1  A    between atoms: C1_1  and  C7_7 
REMARK    2  A    between atoms: C2_2  and  C9_9 
REMARK    3  A    between atoms: C9_9  and  C10_10 
ROOT
HETATM    1  C3  UNL     1     -33.918  16.200  -5.811  1.00 20.00     0.128 C 
HETATM    2  C4  UNL     1     -32.902  15.292  -5.170  1.00 20.00     0.079 C 
HETATM    3  C5  UNL     1     -35.267  16.118  -5.140  1.00 20.00     0.095 C 
HETATM    4  C6  UNL     1     -33.779  14.437  -4.258  1.00 20.00     0.025 C 
HETATM    5  C7  UNL     1     -34.955  15.333  -3.865  1.00 20.00     0.072 C 
HETATM    6  O11 UNL     1     -33.676  16.923  -6.770  1.00 20.00    -0.298 OA
ENDROOT
BRANCH   5   7
HETATM    7  C1  UNL     1     -34.596  16.231  -2.753  1.00 20.00    -0.101 C 
HETATM    8  C2  UNL     1     -34.303  16.962  -1.846  1.00 20.00    -0.106 C 
BRANCH   8   9
HETATM    9  C9  UNL     1     -33.943  17.858  -0.738  1.00 20.00     0.093 C 
BRANCH   9  10
HETATM   10  C10 UNL     1     -32.515  18.389  -0.863  1.00 20.00     0.007 C 
HETATM   11  C8  UNL     1     -31.959  18.919   0.451  1.00 20.00     0.006 C 
ENDBRANCH   9  10
ENDBRANCH   8   9
ENDBRANCH   5   7
TORSDOF 3
ENDMDL
MODEL 8
REMARK VINA RESULT:      -4.3     10.902     12.050
REMARK  3 active torsions:
REMARK  status: ('A' for Active; 'I' for Inactive)
REMARK    1  A    between atoms: C1_1  and  C7_7 
REMARK    2  A    between atoms: C2_2  and  C9_9 
REMARK    3  A    between atoms: C9_9  and  C10_10 
ROOT
HETATM    1  C3  UNL     1     -35.290  13.929  -5.004  1.00 20.00     0.128 C 
HETATM    2  C4  UNL     1     -35.794  15.218  -5.599  1.00 20.00     0.079 C 
HETATM    3  C5  UNL     1     -33.954  14.096  -4.322  1.00 20.00     0.095 C 
HETATM    4  C6  UNL     1     -34.562  16.113  -5.497  1.00 20.00     0.025 C 
HETATM    5  C7  UNL     1     -33.797  15.617  -4.268  1.00 20.00     0.072 C 
HETATM    6  O11 UNL     1     -35.895  12.866  -5.069  1.00 20.00    -0.298 OA
ENDROOT
BRANCH   5   7
HETATM    7  C1  UNL     1     -34.361  16.173  -3.025  1.00 20.00    -0.101 C 
HETATM    8  C2  UNL     1     -34.822  16.626  -2.013  1.00 20.00    -0.106 C 
BRANCH   8   9
HETATM    9  C9  UNL     1     -35.383  17.180  -0.772  1.00 20.00     0.093 C 
BRANCH   9  10
HETATM   10  C10 UNL     1     -36.628  18.029  -1.028  1.00 20.00     0.007 C 
HETATM   11  C8  UNL     1     -37.283  18.529   0.252  1.00 20.00     0.006 C 
ENDBRANCH   9  10
ENDBRANCH   8   9
ENDBRANCH   5   7
TORSDOF 3
ENDMDL
MODEL 9
REMARK VINA RESULT:      -4.2     11.606     12.484
REMARK  3 active torsions:
REMARK  status: ('A' for Active; 'I' for Inactive)
REMARK    1  A    between atoms: C1_1  and  C7_7 
REMARK    2  A    between atoms: C2_2  and  C9_9 
REMARK    3  A    between atoms: C9_9  and  C10_10 
ROOT
HETATM    1  C3  UNL     1     -35.028  15.162  -6.310  1.00 20.00     0.128 C 
HETATM    2  C4  UNL     1     -33.890  16.148  -6.306  1.00 20.00     0.079 C 
HETATM    3  C5  UNL     1     -34.924  14.161  -5.186  1.00 20.00     0.095 C 
HETATM    4  C6  UNL     1     -32.933  15.518  -5.297  1.00 20.00     0.025 C 
HETATM    5  C7  UNL     1     -33.822  14.760  -4.310  1.00 20.00     0.072 C 
HETATM    6  O11 UNL     1     -35.935  15.170  -7.134  1.00 20.00    -0.298 OA
ENDROOT
BRANCH   5   7
HETATM    7  C1  UNL     1     -34.378  15.663  -3.287  1.00 20.00    -0.101 C 
HETATM    8  C2  UNL     1     -34.830  16.400  -2.453  1.00 20.00    -0.106 C 
BRANCH   8   9
HETATM    9  C9  UNL     1     -35.385  17.303  -1.434  1.00 20.00     0.093 C 
BRANCH   9  10
HETATM   10  C10 UNL     1     -34.338  17.726  -0.403  1.00 20.00     0.007 C 
HETATM   11  C8  UNL     1     -33.046  18.225  -1.034  1.00 20.00     0.006 C 
ENDBRANCH   9  10
ENDBRANCH   8   9
ENDBRANCH   5   7
TORSDOF 3
ENDMDL
