MODEL 1
REMARK VINA RESULT:      -4.7      0.000      0.000
REMARK  2 active torsions:
REMARK  status: ('A' for Active; 'I' for Inactive)
REMARK    1  A    between atoms: C7_7  and  O10_10 
REMARK    2  A    between atoms: C9_9  and  O10_10 
ROOT
HETATM    1  C1  UNL     1     -33.300   7.670   6.090  1.00 20.00     0.015 C 
HETATM    2  C2  UNL     1     -33.557   7.203   5.015  1.00 20.00    -0.079 C 
HETATM    3  C3  UNL     1     -33.838   4.247   4.124  1.00 20.00     0.004 C 
HETATM    4  C4  UNL     1     -35.279   4.740   4.260  1.00 20.00     0.004 C 
HETATM    5  C5  UNL     1     -33.074   5.361   3.413  1.00 20.00     0.051 C 
HETATM    6  C6  UNL     1     -35.313   6.128   3.626  1.00 20.00     0.051 C 
HETATM    7  C7  UNL     1     -33.874   6.630   3.697  1.00 20.00     0.122 C 
ENDROOT
BRANCH   7   8
HETATM    8  O10 UNL     1     -33.650   7.604   2.688  1.00 20.00    -0.368 OA
BRANCH   8   9
HETATM    9  C9  UNL     1     -32.264   7.855   2.499  1.00 20.00     0.165 C 
HETATM   10  C8  UNL     1     -32.092   8.864   1.385  1.00 20.00     0.033 C 
ENDBRANCH   8   9
ENDBRANCH   7   8
TORSDOF 2
ENDMDL
MODEL 2
REMARK VINA RESULT:      -4.7      1.443      3.962
REMARK  2 active torsions:
REMARK  status: ('A' for Active; 'I' for Inactive)
REMARK    1  A    between atoms: C7_7  and  O10_10 
REMARK    2  A    between atoms: C9_9  and  O10_10 
ROOT
HETATM    1  C1  UNL     1     -32.911   4.782   2.491  1.00 20.00     0.015 C 
HETATM    2  C2  UNL     1     -33.078   5.904   2.882  1.00 20.00    -0.079 C 
HETATM    3  C3  UNL     1     -31.173   8.350   2.839  1.00 20.00     0.004 C 
HETATM    4  C4  UNL     1     -32.141   8.603   1.683  1.00 20.00     0.004 C 
HETATM    5  C5  UNL     1     -32.026   7.859   4.007  1.00 20.00     0.051 C 
HETATM    6  C6  UNL     1     -33.530   8.252   2.209  1.00 20.00     0.051 C 
HETATM    7  C7  UNL     1     -33.282   7.280   3.360  1.00 20.00     0.122 C 
ENDROOT
BRANCH   7   8
HETATM    8  O10 UNL     1     -34.376   7.313   4.264  1.00 20.00    -0.368 OA
BRANCH   8   9
HETATM    9  C9  UNL     1     -33.995   6.881   5.564  1.00 20.00     0.165 C 
HETATM   10  C8  UNL     1     -34.620   5.530   5.838  1.00 20.00     0.033 C 
ENDBRANCH   8   9
ENDBRANCH   7   8
TORSDOF 2
ENDMDL
MODEL 3
REMARK VINA RESULT:      -4.3      0.966      2.416
REMARK  2 active torsions:
REMARK  status: ('A' for Active; 'I' for Inactive)
REMARK    1  A    between atoms: C7_7  and  O10_10 
REMARK    2  A    between atoms: C9_9  and  O10_10 
ROOT
HETATM    1  C1  UNL     1     -32.523   4.259   2.445  1.00 20.00     0.015 C 
HETATM    2  C2  UNL     1     -33.064   5.271   2.797  1.00 20.00    -0.079 C 
HETATM    3  C3  UNL     1     -35.125   5.763   5.060  1.00 20.00     0.004 C 
HETATM    4  C4  UNL     1     -33.800   6.263   5.638  1.00 20.00     0.004 C 
HETATM    5  C5  UNL     1     -35.183   6.279   3.624  1.00 20.00     0.051 C 
HETATM    6  C6  UNL     1     -33.124   7.056   4.522  1.00 20.00     0.051 C 
HETATM    7  C7  UNL     1     -33.726   6.510   3.230  1.00 20.00     0.122 C 
ENDROOT
BRANCH   7   8
HETATM    8  O10 UNL     1     -33.631   7.486   2.203  1.00 20.00    -0.368 OA
BRANCH   8   9
HETATM    9  C9  UNL     1     -32.373   8.149   2.225  1.00 20.00     0.165 C 
HETATM   10  C8  UNL     1     -32.339   9.178   1.116  1.00 20.00     0.033 C 
ENDBRANCH   8   9
ENDBRANCH   7   8
TORSDOF 2
ENDMDL
MODEL 4
REMARK VINA RESULT:      -4.0     11.179     12.284
REMARK  2 active torsions:
REMARK  status: ('A' for Active; 'I' for Inactive)
REMARK    1  A    between atoms: C7_7  and  O10_10 
REMARK    2  A    between atoms: C9_9  and  O10_10 
ROOT
HETATM    1  C1  UNL     1     -34.479  16.931  -1.607  1.00 20.00     0.015 C 
HETATM    2  C2  UNL     1     -34.780  16.353  -2.615  1.00 20.00    -0.079 C 
HETATM    3  C3  UNL     1     -33.206  15.973  -5.259  1.00 20.00     0.004 C 
HETATM    4  C4  UNL     1     -33.055  14.636  -4.531  1.00 20.00     0.004 C 
HETATM    5  C5  UNL     1     -34.670  16.379  -5.101  1.00 20.00     0.051 C 
HETATM    6  C6  UNL     1     -34.434  14.301  -3.970  1.00 20.00     0.051 C 
HETATM    7  C7  UNL     1     -35.148  15.645  -3.850  1.00 20.00     0.122 C 
ENDROOT
BRANCH   7   8
HETATM    8  O10 UNL     1     -36.554  15.450  -3.887  1.00 20.00    -0.368 OA
BRANCH   8   9
HETATM    9  C9  UNL     1     -36.933  14.565  -4.932  1.00 20.00     0.165 C 
HETATM   10  C8  UNL     1     -38.432  14.647  -5.130  1.00 20.00     0.033 C 
ENDBRANCH   8   9
ENDBRANCH   7   8
TORSDOF 2
ENDMDL
MODEL 5
REMARK VINA RESULT:      -3.8      1.144      3.642
REMARK  2 active torsions:
REMARK  status: ('A' for Active; 'I' for Inactive)
REMARK    1  A    between atoms: C7_7  and  O10_10 
REMARK    2  A    between atoms: C9_9  and  O10_10 
ROOT
HETATM    1  C1  UNL     1     -33.618   7.528   5.916  1.00 20.00     0.015 C 
HETATM    2  C2  UNL     1     -33.559   7.308   4.738  1.00 20.00    -0.079 C 
HETATM    3  C3  UNL     1     -32.581   9.102   2.406  1.00 20.00     0.004 C 
HETATM    4  C4  UNL     1     -31.424   8.132   2.650  1.00 20.00     0.004 C 
HETATM    5  C5  UNL     1     -33.856   8.263   2.459  1.00 20.00     0.051 C 
HETATM    6  C6  UNL     1     -32.057   6.756   2.838  1.00 20.00     0.051 C 
HETATM    7  C7  UNL     1     -33.486   7.039   3.294  1.00 20.00     0.122 C 
ENDROOT
BRANCH   7   8
HETATM    8  O10 UNL     1     -34.323   5.938   2.971  1.00 20.00    -0.368 OA
BRANCH   8   9
HETATM    9  C9  UNL     1     -33.682   4.697   3.239  1.00 20.00     0.165 C 
HETATM   10  C8  UNL     1     -34.321   4.064   4.456  1.00 20.00     0.033 C 
ENDBRANCH   8   9
ENDBRANCH   7   8
TORSDOF 2
ENDMDL
MODEL 6
REMARK VINA RESULT:      -3.7     11.503     12.613
REMARK  2 active torsions:
REMARK  status: ('A' for Active; 'I' for Inactive)
REMARK    1  A    between atoms: C7_7  and  O10_10 
REMARK    2  A    between atoms: C9_9  and  O10_10 
ROOT
HETATM    1  C1  UNL     1     -32.985  14.424  -4.259  1.00 20.00     0.015 C 
HETATM    2  C2  UNL     1     -33.739  15.329  -4.031  1.00 20.00    -0.079 C 
HETATM    3  C3  UNL     1     -33.995  17.152  -1.536  1.00 20.00     0.004 C 
HETATM    4  C4  UNL     1     -33.261  18.015  -2.563  1.00 20.00     0.004 C 
HETATM    5  C5  UNL     1     -35.122  16.456  -2.296  1.00 20.00     0.051 C 
HETATM    6  C6  UNL     1     -33.980  17.797  -3.892  1.00 20.00     0.051 C 
HETATM    7  C7  UNL     1     -34.663  16.439  -3.752  1.00 20.00     0.122 C 
ENDROOT
BRANCH   7   8
HETATM    8  O10 UNL     1     -35.776  16.365  -4.631  1.00 20.00    -0.368 OA
BRANCH   8   9
HETATM    9  C9  UNL     1     -36.861  15.658  -4.045  1.00 20.00     0.165 C 
HETATM   10  C8  UNL     1     -37.238  14.500  -4.943  1.00 20.00     0.033 C 
ENDBRANCH   8   9
ENDBRANCH   7   8
TORSDOF 2
ENDMDL
MODEL 7
REMARK VINA RESULT:      -3.7     11.126     12.338
REMARK  2 active torsions:
REMARK  status: ('A' for Active; 'I' for Inactive)
REMARK    1  A    between atoms: C7_7  and  O10_10 
REMARK    2  A    between atoms: C9_9  and  O10_10 
ROOT
HETATM    1  C1  UNL     1     -33.669  16.688  -6.426  1.00 20.00     0.015 C 
HETATM    2  C2  UNL     1     -34.007  16.179  -5.394  1.00 20.00    -0.079 C 
HETATM    3  C3  UNL     1     -36.693  14.854  -4.593  1.00 20.00     0.004 C 
HETATM    4  C4  UNL     1     -35.759  13.677  -4.873  1.00 20.00     0.004 C 
HETATM    5  C5  UNL     1     -35.878  15.861  -3.784  1.00 20.00     0.051 C 
HETATM    6  C6  UNL     1     -34.425  14.031  -4.220  1.00 20.00     0.051 C 
HETATM    7  C7  UNL     1     -34.422  15.554  -4.128  1.00 20.00     0.122 C 
ENDROOT
BRANCH   7   8
HETATM    8  O10 UNL     1     -33.558  15.974  -3.083  1.00 20.00    -0.368 OA
BRANCH   8   9
HETATM    9  C9  UNL     1     -34.208  16.872  -2.193  1.00 20.00     0.165 C 
HETATM   10  C8  UNL     1     -33.169  17.748  -1.528  1.00 20.00     0.033 C 
ENDBRANCH   8   9
ENDBRANCH   7   8
TORSDOF 2
ENDMDL
MODEL 8
REMARK VINA RESULT:      -3.7     11.735     12.835
REMARK  2 active torsions:
REMARK  status: ('A' for Active; 'I' for Inactive)
REMARK    1  A    between atoms: C7_7  and  O10_10 
REMARK    2  A    between atoms: C9_9  and  O10_10 
ROOT
HETATM    1  C1  UNL     1     -33.942  17.014  -7.018  1.00 20.00     0.015 C 
HETATM    2  C2  UNL     1     -34.088  16.114  -6.237  1.00 20.00    -0.079 C 
HETATM    3  C3  UNL     1     -33.726  16.050  -3.158  1.00 20.00     0.004 C 
HETATM    4  C4  UNL     1     -35.239  16.127  -3.361  1.00 20.00     0.004 C 
HETATM    5  C5  UNL     1     -33.213  15.031  -4.174  1.00 20.00     0.051 C 
HETATM    6  C6  UNL     1     -35.566  15.151  -4.489  1.00 20.00     0.051 C 
HETATM    7  C7  UNL     1     -34.267  15.013  -5.279  1.00 20.00     0.122 C 
ENDROOT
BRANCH   7   8
HETATM    8  O10 UNL     1     -34.252  13.773  -5.970  1.00 20.00    -0.368 OA
BRANCH   8   9
HETATM    9  C9  UNL     1     -35.557  13.385  -6.380  1.00 20.00     0.165 C 
HETATM   10  C8  UNL     1     -35.608  13.347  -7.892  1.00 20.00     0.033 C 
ENDBRANCH   8   9
ENDBRANCH   7   8
TORSDOF 2
ENDMDL
MODEL 9
REMARK VINA RESULT:      -3.7     11.291     12.856
REMARK  2 active torsions:
REMARK  status: ('A' for Active; 'I' for Inactive)
REMARK    1  A    between atoms: C7_7  and  O10_10 
REMARK    2  A    between atoms: C9_9  and  O10_10 
ROOT
HETATM    1  C1  UNL     1     -34.408  14.060  -4.087  1.00 20.00     0.015 C 
HETATM    2  C2  UNL     1     -34.606  15.236  -3.956  1.00 20.00    -0.079 C 
HETATM    3  C3  UNL     1     -35.385  16.873  -1.441  1.00 20.00     0.004 C 
HETATM    4  C4  UNL     1     -33.889  17.139  -1.619  1.00 20.00     0.004 C 
HETATM    5  C5  UNL     1     -36.001  16.965  -2.835  1.00 20.00     0.051 C 
HETATM    6  C6  UNL     1     -33.676  17.379  -3.112  1.00 20.00     0.051 C 
HETATM    7  C7  UNL     1     -34.848  16.678  -3.794  1.00 20.00     0.122 C 
ENDROOT
BRANCH   7   8
HETATM    8  O10 UNL     1     -35.089  17.266  -5.064  1.00 20.00    -0.368 OA
BRANCH   8   9
HETATM    9  C9  UNL     1     -33.880  17.486  -5.778  1.00 20.00     0.165 C 
HETATM   10  C8  UNL     1     -34.051  16.999  -7.201  1.00 20.00     0.033 C 
ENDBRANCH   8   9
ENDBRANCH   7   8
TORSDOF 2
ENDMDL
