MODEL 1
REMARK VINA RESULT:      -5.6      0.000      0.000
REMARK  1 active torsions:
REMARK  status: ('A' for Active; 'I' for Inactive)
REMARK    1  A    between atoms: C3_3  and  C7_7 
ROOT
HETATM    1  C1  UNL     1     -34.170   6.581   5.230  1.00 20.00     0.218 C 
HETATM    2  C4  UNL     1     -34.876   5.503   4.437  1.00 20.00     0.103 C 
HETATM    3  C5  UNL     1     -33.879   4.774   3.542  1.00 20.00     0.012 C 
HETATM    4  C6  UNL     1     -33.087   5.721   2.632  1.00 20.00     0.029 C 
HETATM    5  C7  UNL     1     -33.221   7.190   3.032  1.00 20.00     0.106 C 
HETATM    6  N8  UNL     1     -33.301   7.344   4.472  1.00 20.00    -0.353 N 
HETATM    7  O9  UNL     1     -34.382   6.765   6.426  1.00 20.00    -0.274 OA
HETATM    8  H20 UNL     1     -32.727   8.004   4.919  1.00 20.00     0.163 HD
ENDROOT
BRANCH   5   9
HETATM    9  C3  UNL     1     -32.033   7.924   2.449  1.00 20.00    -0.012 C 
HETATM   10  C2  UNL     1     -32.119   8.830   1.471  1.00 20.00     0.009 C 
ENDBRANCH   5   9
TORSDOF 1
ENDMDL
MODEL 2
REMARK VINA RESULT:      -5.1      1.569      2.159
REMARK  1 active torsions:
REMARK  status: ('A' for Active; 'I' for Inactive)
REMARK    1  A    between atoms: C3_3  and  C7_7 
ROOT
HETATM    1  C1  UNL     1     -34.712   6.203   4.011  1.00 20.00     0.218 C 
HETATM    2  C4  UNL     1     -34.235   6.083   5.442  1.00 20.00     0.103 C 
HETATM    3  C5  UNL     1     -33.708   7.427   5.934  1.00 20.00     0.012 C 
HETATM    4  C6  UNL     1     -32.625   8.016   5.023  1.00 20.00     0.029 C 
HETATM    5  C7  UNL     1     -32.532   7.312   3.669  1.00 20.00     0.106 C 
HETATM    6  N8  UNL     1     -33.837   6.895   3.195  1.00 20.00    -0.353 N 
HETATM    7  O9  UNL     1     -35.766   5.705   3.623  1.00 20.00    -0.274 OA
HETATM    8  H20 UNL     1     -34.106   7.108   2.274  1.00 20.00     0.163 HD
ENDROOT
BRANCH   5   9
HETATM    9  C3  UNL     1     -31.860   8.271   2.710  1.00 20.00    -0.012 C 
HETATM   10  C2  UNL     1     -32.462   8.812   1.647  1.00 20.00     0.009 C 
ENDBRANCH   5   9
TORSDOF 1
ENDMDL
MODEL 3
REMARK VINA RESULT:      -5.0      1.575      2.178
REMARK  1 active torsions:
REMARK  status: ('A' for Active; 'I' for Inactive)
REMARK    1  A    between atoms: C3_3  and  C7_7 
ROOT
HETATM    1  C1  UNL     1     -34.524   5.101   4.498  1.00 20.00     0.218 C 
HETATM    2  C4  UNL     1     -33.984   5.566   5.833  1.00 20.00     0.103 C 
HETATM    3  C5  UNL     1     -33.995   7.089   5.901  1.00 20.00     0.012 C 
HETATM    4  C6  UNL     1     -33.256   7.748   4.731  1.00 20.00     0.029 C 
HETATM    5  C7  UNL     1     -32.951   6.776   3.591  1.00 20.00     0.106 C 
HETATM    6  N8  UNL     1     -34.013   5.803   3.422  1.00 20.00    -0.353 N 
HETATM    7  O9  UNL     1     -35.320   4.171   4.397  1.00 20.00    -0.274 OA
HETATM    8  H20 UNL     1     -34.378   5.638   2.525  1.00 20.00     0.163 HD
ENDROOT
BRANCH   5   9
HETATM    9  C3  UNL     1     -32.735   7.602   2.342  1.00 20.00    -0.012 C 
HETATM   10  C2  UNL     1     -31.854   8.603   2.248  1.00 20.00     0.009 C 
ENDBRANCH   5   9
TORSDOF 1
ENDMDL
MODEL 4
REMARK VINA RESULT:      -4.3     11.488     11.943
REMARK  1 active torsions:
REMARK  status: ('A' for Active; 'I' for Inactive)
REMARK    1  A    between atoms: C3_3  and  C7_7 
ROOT
HETATM    1  C1  UNL     1     -35.378  13.854  -4.965  1.00 20.00     0.218 C 
HETATM    2  C4  UNL     1     -34.057  14.283  -5.566  1.00 20.00     0.103 C 
HETATM    3  C5  UNL     1     -33.121  14.784  -4.471  1.00 20.00     0.012 C 
HETATM    4  C6  UNL     1     -33.741  15.895  -3.614  1.00 20.00     0.029 C 
HETATM    5  C7  UNL     1     -35.249  16.038  -3.818  1.00 20.00     0.106 C 
HETATM    6  N8  UNL     1     -35.881  14.753  -4.042  1.00 20.00    -0.353 N 
HETATM    7  O9  UNL     1     -35.948  12.818  -5.297  1.00 20.00    -0.274 OA
HETATM    8  H20 UNL     1     -36.684  14.514  -3.529  1.00 20.00     0.163 HD
ENDROOT
BRANCH   5   9
HETATM    9  C3  UNL     1     -35.803  16.736  -2.595  1.00 20.00    -0.012 C 
HETATM   10  C2  UNL     1     -35.131  16.883  -1.448  1.00 20.00     0.009 C 
ENDBRANCH   5   9
TORSDOF 1
ENDMDL
MODEL 5
REMARK VINA RESULT:      -4.2     11.544     12.127
REMARK  1 active torsions:
REMARK  status: ('A' for Active; 'I' for Inactive)
REMARK    1  A    between atoms: C3_3  and  C7_7 
ROOT
HETATM    1  C1  UNL     1     -37.179  14.579  -4.683  1.00 20.00     0.218 C 
HETATM    2  C4  UNL     1     -35.854  14.335  -5.373  1.00 20.00     0.103 C 
HETATM    3  C5  UNL     1     -34.731  14.274  -4.343  1.00 20.00     0.012 C 
HETATM    4  C6  UNL     1     -34.679  15.510  -3.437  1.00 20.00     0.029 C 
HETATM    5  C7  UNL     1     -35.934  16.377  -3.534  1.00 20.00     0.106 C 
HETATM    6  N8  UNL     1     -37.125  15.571  -3.722  1.00 20.00    -0.353 N 
HETATM    7  O9  UNL     1     -38.200  13.964  -4.981  1.00 20.00    -0.274 OA
HETATM    8  H20 UNL     1     -37.911  15.732  -3.155  1.00 20.00     0.163 HD
ENDROOT
BRANCH   5   9
HETATM    9  C3  UNL     1     -36.005  17.207  -2.270  1.00 20.00    -0.012 C 
HETATM   10  C2  UNL     1     -35.239  17.000  -1.195  1.00 20.00     0.009 C 
ENDBRANCH   5   9
TORSDOF 1
ENDMDL
MODEL 6
REMARK VINA RESULT:      -4.1      2.064      3.835
REMARK  1 active torsions:
REMARK  status: ('A' for Active; 'I' for Inactive)
REMARK    1  A    between atoms: C3_3  and  C7_7 
ROOT
HETATM    1  C1  UNL     1     -32.788   7.451   3.558  1.00 20.00     0.218 C 
HETATM    2  C4  UNL     1     -33.350   8.334   4.652  1.00 20.00     0.103 C 
HETATM    3  C5  UNL     1     -33.446   7.552   5.957  1.00 20.00     0.012 C 
HETATM    4  C6  UNL     1     -34.240   6.247   5.818  1.00 20.00     0.029 C 
HETATM    5  C7  UNL     1     -34.483   5.846   4.364  1.00 20.00     0.106 C 
HETATM    6  N8  UNL     1     -33.357   6.191   3.520  1.00 20.00    -0.353 N 
HETATM    7  O9  UNL     1     -31.929   7.843   2.771  1.00 20.00    -0.274 OA
HETATM    8  H20 UNL     1     -32.988   5.517   2.907  1.00 20.00     0.163 HD
ENDROOT
BRANCH   5   9
HETATM    9  C3  UNL     1     -34.767   4.359   4.350  1.00 20.00    -0.012 C 
HETATM   10  C2  UNL     1     -33.839   3.422   4.134  1.00 20.00     0.009 C 
ENDBRANCH   5   9
TORSDOF 1
ENDMDL
MODEL 7
REMARK VINA RESULT:      -4.1     11.784     12.273
REMARK  1 active torsions:
REMARK  status: ('A' for Active; 'I' for Inactive)
REMARK    1  A    between atoms: C3_3  and  C7_7 
ROOT
HETATM    1  C1  UNL     1     -32.491  18.218  -0.724  1.00 20.00     0.218 C 
HETATM    2  C4  UNL     1     -33.523  18.981   0.077  1.00 20.00     0.103 C 
HETATM    3  C5  UNL     1     -34.652  18.048   0.501  1.00 20.00     0.012 C 
HETATM    4  C6  UNL     1     -35.289  17.303  -0.678  1.00 20.00     0.029 C 
HETATM    5  C7  UNL     1     -34.465  17.397  -1.962  1.00 20.00     0.106 C 
HETATM    6  N8  UNL     1     -33.042  17.389  -1.684  1.00 20.00    -0.353 N 
HETATM    7  O9  UNL     1     -31.284  18.355  -0.545  1.00 20.00    -0.274 OA
HETATM    8  H20 UNL     1     -32.456  16.781  -2.187  1.00 20.00     0.163 HD
ENDROOT
BRANCH   5   9
HETATM    9  C3  UNL     1     -34.877  16.239  -2.845  1.00 20.00    -0.012 C 
HETATM   10  C2  UNL     1     -34.050  15.606  -3.684  1.00 20.00     0.009 C 
ENDBRANCH   5   9
TORSDOF 1
ENDMDL
MODEL 8
REMARK VINA RESULT:      -4.0      1.876      2.371
REMARK  1 active torsions:
REMARK  status: ('A' for Active; 'I' for Inactive)
REMARK    1  A    between atoms: C3_3  and  C7_7 
ROOT
HETATM    1  C1  UNL     1     -33.736   7.104   5.584  1.00 20.00     0.218 C 
HETATM    2  C4  UNL     1     -34.811   6.218   6.177  1.00 20.00     0.103 C 
HETATM    3  C5  UNL     1     -34.552   4.762   5.807  1.00 20.00     0.012 C 
HETATM    4  C6  UNL     1     -34.406   4.543   4.297  1.00 20.00     0.029 C 
HETATM    5  C7  UNL     1     -34.227   5.845   3.517  1.00 20.00     0.106 C 
HETATM    6  N8  UNL     1     -33.446   6.811   4.264  1.00 20.00    -0.353 N 
HETATM    7  O9  UNL     1     -33.203   8.009   6.221  1.00 20.00    -0.274 OA
HETATM    8  H20 UNL     1     -32.695   7.267   3.826  1.00 20.00     0.163 HD
ENDROOT
BRANCH   5   9
HETATM    9  C3  UNL     1     -33.577   5.491   2.196  1.00 20.00    -0.012 C 
HETATM   10  C2  UNL     1     -32.805   4.416   2.005  1.00 20.00     0.009 C 
ENDBRANCH   5   9
TORSDOF 1
ENDMDL
MODEL 9
REMARK VINA RESULT:      -3.9      2.230      3.970
REMARK  1 active torsions:
REMARK  status: ('A' for Active; 'I' for Inactive)
REMARK    1  A    between atoms: C3_3  and  C7_7 
ROOT
HETATM    1  C1  UNL     1     -32.428   7.652   2.720  1.00 20.00     0.218 C 
HETATM    2  C4  UNL     1     -32.492   8.722   3.787  1.00 20.00     0.103 C 
HETATM    3  C5  UNL     1     -32.560   8.081   5.169  1.00 20.00     0.012 C 
HETATM    4  C6  UNL     1     -33.708   7.074   5.307  1.00 20.00     0.029 C 
HETATM    5  C7  UNL     1     -34.329   6.686   3.966  1.00 20.00     0.106 C 
HETATM    6  N8  UNL     1     -33.333   6.624   2.915  1.00 20.00    -0.353 N 
HETATM    7  O9  UNL     1     -31.658   7.718   1.764  1.00 20.00    -0.274 OA
HETATM    8  H20 UNL     1     -33.298   5.837   2.328  1.00 20.00     0.163 HD
ENDROOT
BRANCH   5   9
HETATM    9  C3  UNL     1     -35.028   5.357   4.163  1.00 20.00    -0.012 C 
HETATM   10  C2  UNL     1     -34.436   4.267   4.661  1.00 20.00     0.009 C 
ENDBRANCH   5   9
TORSDOF 1
ENDMDL
