MODEL 1
REMARK VINA RESULT:      -5.8      0.000      0.000
REMARK  1 active torsions:
REMARK  status: ('A' for Active; 'I' for Inactive)
REMARK    1  A    between atoms: C2_2  and  C3_3 
ROOT
HETATM    1  C1  UNL     1     -33.594   6.172   3.886  1.00 20.00    -0.043 C 
HETATM    2  C2  UNL     1     -33.027   6.656   2.782  1.00 20.00     0.055 C 
HETATM    3  C4  UNL     1     -34.410   4.931   4.173  1.00 20.00     0.040 C 
HETATM    4  C5  UNL     1     -34.862   5.705   5.427  1.00 20.00     0.046 C 
HETATM    5  C6  UNL     1     -33.651   6.664   5.322  1.00 20.00     0.199 C 
HETATM    6  F9  UNL     1     -33.926   7.967   5.564  1.00 20.00    -0.245 F 
ENDROOT
BRANCH   2   7
HETATM    7  C3  UNL     1     -32.267   7.936   2.811  1.00 20.00     0.145 C 
HETATM    8  C7  UNL     1     -32.568   8.929   1.719  1.00 20.00     0.096 C 
HETATM    9  O8  UNL     1     -31.451   8.190   3.694  1.00 20.00    -0.294 OA
ENDBRANCH   2   7
TORSDOF 1
ENDMDL
MODEL 2
REMARK VINA RESULT:      -5.7      1.685      1.993
REMARK  1 active torsions:
REMARK  status: ('A' for Active; 'I' for Inactive)
REMARK    1  A    between atoms: C2_2  and  C3_3 
ROOT
HETATM    1  C1  UNL     1     -33.798   6.341   4.219  1.00 20.00    -0.043 C 
HETATM    2  C2  UNL     1     -33.168   7.509   4.337  1.00 20.00     0.055 C 
HETATM    3  C4  UNL     1     -34.805   5.616   5.084  1.00 20.00     0.040 C 
HETATM    4  C5  UNL     1     -34.362   4.372   4.288  1.00 20.00     0.046 C 
HETATM    5  C6  UNL     1     -33.774   5.254   3.159  1.00 20.00     0.199 C 
HETATM    6  F9  UNL     1     -32.584   4.838   2.667  1.00 20.00    -0.245 F 
ENDROOT
BRANCH   2   7
HETATM    7  C3  UNL     1     -32.208   7.967   3.296  1.00 20.00     0.145 C 
HETATM    8  C7  UNL     1     -32.786   8.329   1.952  1.00 20.00     0.096 C 
HETATM    9  O8  UNL     1     -31.004   8.073   3.519  1.00 20.00    -0.294 OA
ENDBRANCH   2   7
TORSDOF 1
ENDMDL
MODEL 3
REMARK VINA RESULT:      -5.7      1.968      2.305
REMARK  1 active torsions:
REMARK  status: ('A' for Active; 'I' for Inactive)
REMARK    1  A    between atoms: C2_2  and  C3_3 
ROOT
HETATM    1  C1  UNL     1     -33.988   6.109   4.134  1.00 20.00    -0.043 C 
HETATM    2  C2  UNL     1     -33.543   7.366   4.130  1.00 20.00     0.055 C 
HETATM    3  C4  UNL     1     -34.854   5.321   5.091  1.00 20.00     0.040 C 
HETATM    4  C5  UNL     1     -34.240   4.092   4.391  1.00 20.00     0.046 C 
HETATM    5  C6  UNL     1     -33.817   4.947   3.172  1.00 20.00     0.199 C 
HETATM    6  F9  UNL     1     -32.586   4.674   2.678  1.00 20.00    -0.245 F 
ENDROOT
BRANCH   2   7
HETATM    7  C3  UNL     1     -32.685   7.868   3.022  1.00 20.00     0.145 C 
HETATM    8  C7  UNL     1     -31.277   8.265   3.381  1.00 20.00     0.096 C 
HETATM    9  O8  UNL     1     -33.089   7.936   1.863  1.00 20.00    -0.294 OA
ENDBRANCH   2   7
TORSDOF 1
ENDMDL
MODEL 4
REMARK VINA RESULT:      -5.5      1.996      3.604
REMARK  1 active torsions:
REMARK  status: ('A' for Active; 'I' for Inactive)
REMARK    1  A    between atoms: C2_2  and  C3_3 
ROOT
HETATM    1  C1  UNL     1     -32.921   6.981   3.063  1.00 20.00    -0.043 C 
HETATM    2  C2  UNL     1     -33.618   5.880   2.781  1.00 20.00     0.055 C 
HETATM    3  C4  UNL     1     -31.869   7.760   2.306  1.00 20.00     0.040 C 
HETATM    4  C5  UNL     1     -31.521   8.339   3.693  1.00 20.00     0.046 C 
HETATM    5  C6  UNL     1     -32.899   7.915   4.259  1.00 20.00     0.199 C 
HETATM    6  F9  UNL     1     -32.871   7.391   5.507  1.00 20.00    -0.245 F 
ENDROOT
BRANCH   2   7
HETATM    7  C3  UNL     1     -34.610   5.337   3.750  1.00 20.00     0.145 C 
HETATM    8  C7  UNL     1     -34.191   4.125   4.541  1.00 20.00     0.096 C 
HETATM    9  O8  UNL     1     -35.709   5.859   3.921  1.00 20.00    -0.294 OA
ENDBRANCH   2   7
TORSDOF 1
ENDMDL
MODEL 5
REMARK VINA RESULT:      -5.4      2.244      4.069
REMARK  1 active torsions:
REMARK  status: ('A' for Active; 'I' for Inactive)
REMARK    1  A    between atoms: C2_2  and  C3_3 
ROOT
HETATM    1  C1  UNL     1     -32.910   7.362   3.974  1.00 20.00    -0.043 C 
HETATM    2  C2  UNL     1     -33.780   7.042   4.932  1.00 20.00     0.055 C 
HETATM    3  C4  UNL     1     -31.852   8.435   3.854  1.00 20.00     0.040 C 
HETATM    4  C5  UNL     1     -31.952   8.149   2.342  1.00 20.00     0.046 C 
HETATM    5  C6  UNL     1     -32.614   6.774   2.606  1.00 20.00     0.199 C 
HETATM    6  F9  UNL     1     -33.643   6.464   1.783  1.00 20.00    -0.245 F 
ENDROOT
BRANCH   2   7
HETATM    7  C3  UNL     1     -34.722   5.902   4.758  1.00 20.00     0.145 C 
HETATM    8  C7  UNL     1     -34.527   4.716   5.667  1.00 20.00     0.096 C 
HETATM    9  O8  UNL     1     -35.633   5.928   3.934  1.00 20.00    -0.294 OA
ENDBRANCH   2   7
TORSDOF 1
ENDMDL
MODEL 6
REMARK VINA RESULT:      -5.1      1.642      1.943
REMARK  1 active torsions:
REMARK  status: ('A' for Active; 'I' for Inactive)
REMARK    1  A    between atoms: C2_2  and  C3_3 
ROOT
HETATM    1  C1  UNL     1     -33.496   7.189   4.521  1.00 20.00    -0.043 C 
HETATM    2  C2  UNL     1     -32.545   7.951   3.979  1.00 20.00     0.055 C 
HETATM    3  C4  UNL     1     -33.962   6.971   5.943  1.00 20.00     0.040 C 
HETATM    4  C5  UNL     1     -34.582   5.677   5.377  1.00 20.00     0.046 C 
HETATM    5  C6  UNL     1     -34.513   6.228   3.932  1.00 20.00     0.199 C 
HETATM    6  F9  UNL     1     -34.113   5.336   2.995  1.00 20.00    -0.245 F 
ENDROOT
BRANCH   2   7
HETATM    7  C3  UNL     1     -32.316   7.955   2.509  1.00 20.00     0.145 C 
HETATM    8  C7  UNL     1     -32.533   9.263   1.792  1.00 20.00     0.096 C 
HETATM    9  O8  UNL     1     -31.942   6.953   1.904  1.00 20.00    -0.294 OA
ENDBRANCH   2   7
TORSDOF 1
ENDMDL
MODEL 7
REMARK VINA RESULT:      -4.5      1.813      2.266
REMARK  1 active torsions:
REMARK  status: ('A' for Active; 'I' for Inactive)
REMARK    1  A    between atoms: C2_2  and  C3_3 
ROOT
HETATM    1  C1  UNL     1     -33.113   7.600   2.840  1.00 20.00    -0.043 C 
HETATM    2  C2  UNL     1     -33.221   8.117   1.616  1.00 20.00     0.055 C 
HETATM    3  C4  UNL     1     -33.979   6.659   3.646  1.00 20.00     0.040 C 
HETATM    4  C5  UNL     1     -33.202   7.223   4.853  1.00 20.00     0.046 C 
HETATM    5  C6  UNL     1     -32.067   7.736   3.932  1.00 20.00     0.199 C 
HETATM    6  F9  UNL     1     -31.589   8.964   4.240  1.00 20.00    -0.245 F 
ENDROOT
BRANCH   2   7
HETATM    7  C3  UNL     1     -32.181   9.039   1.082  1.00 20.00     0.145 C 
HETATM    8  C7  UNL     1     -32.493  10.512   1.127  1.00 20.00     0.096 C 
HETATM    9  O8  UNL     1     -31.107   8.629   0.647  1.00 20.00    -0.294 OA
ENDBRANCH   2   7
TORSDOF 1
ENDMDL
MODEL 8
REMARK VINA RESULT:      -4.4     11.706     12.152
REMARK  1 active torsions:
REMARK  status: ('A' for Active; 'I' for Inactive)
REMARK    1  A    between atoms: C2_2  and  C3_3 
ROOT
HETATM    1  C1  UNL     1     -35.174  15.398  -3.774  1.00 20.00    -0.043 C 
HETATM    2  C2  UNL     1     -36.214  14.850  -4.403  1.00 20.00     0.055 C 
HETATM    3  C4  UNL     1     -35.056  16.402  -2.649  1.00 20.00     0.040 C 
HETATM    4  C5  UNL     1     -33.617  16.587  -3.173  1.00 20.00     0.046 C 
HETATM    5  C6  UNL     1     -33.671  15.232  -3.920  1.00 20.00     0.199 C 
HETATM    6  F9  UNL     1     -33.124  15.236  -5.158  1.00 20.00    -0.245 F 
ENDROOT
BRANCH   2   7
HETATM    7  C3  UNL     1     -36.011  13.865  -5.499  1.00 20.00     0.145 C 
HETATM    8  C7  UNL     1     -35.961  14.412  -6.902  1.00 20.00     0.096 C 
HETATM    9  O8  UNL     1     -35.864  12.665  -5.280  1.00 20.00    -0.294 OA
ENDBRANCH   2   7
TORSDOF 1
ENDMDL
MODEL 9
REMARK VINA RESULT:      -4.4     11.509     11.954
REMARK  1 active torsions:
REMARK  status: ('A' for Active; 'I' for Inactive)
REMARK    1  A    between atoms: C2_2  and  C3_3 
ROOT
HETATM    1  C1  UNL     1     -34.795  15.425  -3.784  1.00 20.00    -0.043 C 
HETATM    2  C2  UNL     1     -34.339  14.402  -4.507  1.00 20.00     0.055 C 
HETATM    3  C4  UNL     1     -34.161  16.319  -2.742  1.00 20.00     0.040 C 
HETATM    4  C5  UNL     1     -35.619  16.631  -2.346  1.00 20.00     0.046 C 
HETATM    5  C6  UNL     1     -36.140  16.126  -3.714  1.00 20.00     0.199 C 
HETATM    6  F9  UNL     1     -37.270  15.382  -3.660  1.00 20.00    -0.245 F 
ENDROOT
BRANCH   2   7
HETATM    7  C3  UNL     1     -35.222  13.702  -5.479  1.00 20.00     0.145 C 
HETATM    8  C7  UNL     1     -35.176  14.183  -6.906  1.00 20.00     0.096 C 
HETATM    9  O8  UNL     1     -35.937  12.759  -5.149  1.00 20.00    -0.294 OA
ENDBRANCH   2   7
TORSDOF 1
ENDMDL
