MODEL 1
REMARK VINA RESULT:      -4.5      0.000      0.000
REMARK  3 active torsions:
REMARK  status: ('A' for Active; 'I' for Inactive)
REMARK    1  A    between atoms: C1_1  and  C3_3 
REMARK    2  A    between atoms: C2_2  and  N8_8 
REMARK    3  A    between atoms: C4_4  and  C5_5 
ROOT
HETATM    1  C1  UNL     1     -32.334   7.897   2.638  1.00 20.00    -0.056 C 
HETATM    2  C2  UNL     1     -33.145   7.453   3.401  1.00 20.00     0.012 C 
ENDROOT
BRANCH   1   3
HETATM    3  C3  UNL     1     -31.368   8.422   1.736  1.00 20.00     0.069 C 
HETATM    4  C4  UNL     1     -31.733   9.125   0.659  1.00 20.00     0.050 C 
BRANCH   4   5
HETATM    5  C5  UNL     1     -33.169   9.356   0.410  1.00 20.00     0.259 C 
HETATM    6  O9  UNL     1     -33.636   9.379  -0.722  1.00 20.00    -0.302 OA
ENDBRANCH   4   5
ENDBRANCH   1   3
BRANCH   2   7
HETATM    7  N8  UNL     1     -34.117   6.921   4.318  1.00 20.00    -0.350 N 
HETATM    8  C6  UNL     1     -33.861   7.062   5.743  1.00 20.00     0.159 C 
HETATM    9  C7  UNL     1     -34.914   5.782   3.885  1.00 20.00     0.159 C 
ENDBRANCH   2   7
TORSDOF 3
ENDMDL
MODEL 2
REMARK VINA RESULT:      -4.1      2.864      4.873
REMARK  3 active torsions:
REMARK  status: ('A' for Active; 'I' for Inactive)
REMARK    1  A    between atoms: C1_1  and  C3_3 
REMARK    2  A    between atoms: C2_2  and  N8_8 
REMARK    3  A    between atoms: C4_4  and  C5_5 
ROOT
HETATM    1  C1  UNL     1     -33.262   6.910   2.702  1.00 20.00    -0.056 C 
HETATM    2  C2  UNL     1     -32.771   7.863   2.165  1.00 20.00     0.012 C 
ENDROOT
BRANCH   1   3
HETATM    3  C3  UNL     1     -33.840   5.778   3.341  1.00 20.00     0.069 C 
HETATM    4  C4  UNL     1     -34.291   5.846   4.598  1.00 20.00     0.050 C 
BRANCH   4   5
HETATM    5  C5  UNL     1     -34.184   7.124   5.328  1.00 20.00     0.259 C 
HETATM    6  O9  UNL     1     -33.300   7.328   6.151  1.00 20.00    -0.302 OA
ENDBRANCH   4   5
ENDBRANCH   1   3
BRANCH   2   7
HETATM    7  N8  UNL     1     -32.181   9.005   1.520  1.00 20.00    -0.350 N 
HETATM    8  C6  UNL     1     -32.981  10.215   1.408  1.00 20.00     0.159 C 
HETATM    9  C7  UNL     1     -31.171   8.768   0.499  1.00 20.00     0.159 C 
ENDBRANCH   2   7
TORSDOF 3
ENDMDL
MODEL 3
REMARK VINA RESULT:      -4.1      2.828      4.971
REMARK  3 active torsions:
REMARK  status: ('A' for Active; 'I' for Inactive)
REMARK    1  A    between atoms: C1_1  and  C3_3 
REMARK    2  A    between atoms: C2_2  and  N8_8 
REMARK    3  A    between atoms: C4_4  and  C5_5 
ROOT
HETATM    1  C1  UNL     1     -33.415   7.560   4.218  1.00 20.00    -0.056 C 
HETATM    2  C2  UNL     1     -33.074   8.010   3.160  1.00 20.00     0.012 C 
ENDROOT
BRANCH   1   3
HETATM    3  C3  UNL     1     -33.815   7.029   5.475  1.00 20.00     0.069 C 
HETATM    4  C4  UNL     1     -34.410   5.836   5.567  1.00 20.00     0.050 C 
BRANCH   4   5
HETATM    5  C5  UNL     1     -34.650   5.060   4.334  1.00 20.00     0.259 C 
HETATM    6  O9  UNL     1     -34.412   3.861   4.266  1.00 20.00    -0.302 OA
ENDBRANCH   4   5
ENDBRANCH   1   3
BRANCH   2   7
HETATM    7  N8  UNL     1     -32.664   8.550   1.891  1.00 20.00    -0.350 N 
HETATM    8  C6  UNL     1     -31.344   8.194   1.392  1.00 20.00     0.159 C 
HETATM    9  C7  UNL     1     -33.216   9.834   1.484  1.00 20.00     0.159 C 
ENDBRANCH   2   7
TORSDOF 3
ENDMDL
MODEL 4
REMARK VINA RESULT:      -4.0      2.832      4.957
REMARK  3 active torsions:
REMARK  status: ('A' for Active; 'I' for Inactive)
REMARK    1  A    between atoms: C1_1  and  C3_3 
REMARK    2  A    between atoms: C2_2  and  N8_8 
REMARK    3  A    between atoms: C4_4  and  C5_5 
ROOT
HETATM    1  C1  UNL     1     -33.854   6.355   3.191  1.00 20.00    -0.056 C 
HETATM    2  C2  UNL     1     -33.034   7.135   2.795  1.00 20.00     0.012 C 
ENDROOT
BRANCH   1   3
HETATM    3  C3  UNL     1     -34.828   5.432   3.664  1.00 20.00     0.069 C 
HETATM    4  C4  UNL     1     -34.967   5.180   4.970  1.00 20.00     0.050 C 
BRANCH   4   5
HETATM    5  C5  UNL     1     -34.090   5.877   5.930  1.00 20.00     0.259 C 
HETATM    6  O9  UNL     1     -34.251   7.058   6.215  1.00 20.00    -0.302 OA
ENDBRANCH   4   5
ENDBRANCH   1   3
BRANCH   2   7
HETATM    7  N8  UNL     1     -32.049   8.070   2.322  1.00 20.00    -0.350 N 
HETATM    8  C6  UNL     1     -31.079   8.583   3.278  1.00 20.00     0.159 C 
HETATM    9  C7  UNL     1     -32.401   8.922   1.195  1.00 20.00     0.159 C 
ENDBRANCH   2   7
TORSDOF 3
ENDMDL
MODEL 5
REMARK VINA RESULT:      -3.9      2.997      5.058
REMARK  3 active torsions:
REMARK  status: ('A' for Active; 'I' for Inactive)
REMARK    1  A    between atoms: C1_1  and  C3_3 
REMARK    2  A    between atoms: C2_2  and  N8_8 
REMARK    3  A    between atoms: C4_4  and  C5_5 
ROOT
HETATM    1  C1  UNL     1     -33.257   5.914   2.965  1.00 20.00    -0.056 C 
HETATM    2  C2  UNL     1     -32.855   7.009   2.689  1.00 20.00     0.012 C 
ENDROOT
BRANCH   1   3
HETATM    3  C3  UNL     1     -33.734   4.616   3.298  1.00 20.00     0.069 C 
HETATM    4  C4  UNL     1     -34.518   4.417   4.362  1.00 20.00     0.050 C 
BRANCH   4   5
HETATM    5  C5  UNL     1     -34.891   5.572   5.201  1.00 20.00     0.259 C 
HETATM    6  O9  UNL     1     -34.170   5.975   6.106  1.00 20.00    -0.302 OA
ENDBRANCH   4   5
ENDBRANCH   1   3
BRANCH   2   7
HETATM    7  N8  UNL     1     -32.371   8.323   2.358  1.00 20.00    -0.350 N 
HETATM    8  C6  UNL     1     -32.504   8.773   0.980  1.00 20.00     0.159 C 
HETATM    9  C7  UNL     1     -31.270   8.863   3.141  1.00 20.00     0.159 C 
ENDBRANCH   2   7
TORSDOF 3
ENDMDL
MODEL 6
REMARK VINA RESULT:      -3.8     10.070     10.835
REMARK  3 active torsions:
REMARK  status: ('A' for Active; 'I' for Inactive)
REMARK    1  A    between atoms: C1_1  and  C3_3 
REMARK    2  A    between atoms: C2_2  and  N8_8 
REMARK    3  A    between atoms: C4_4  and  C5_5 
ROOT
HETATM    1  C1  UNL     1     -34.516  16.743  -2.008  1.00 20.00    -0.056 C 
HETATM    2  C2  UNL     1     -34.395  16.134  -3.035  1.00 20.00     0.012 C 
ENDROOT
BRANCH   1   3
HETATM    3  C3  UNL     1     -34.665  17.467  -0.793  1.00 20.00     0.069 C 
HETATM    4  C4  UNL     1     -33.669  18.212  -0.303  1.00 20.00     0.050 C 
BRANCH   4   5
HETATM    5  C5  UNL     1     -32.395  18.280  -1.044  1.00 20.00     0.259 C 
HETATM    6  O9  UNL     1     -31.315  18.352  -0.471  1.00 20.00    -0.302 OA
ENDBRANCH   4   5
ENDBRANCH   1   3
BRANCH   2   7
HETATM    7  N8  UNL     1     -34.249  15.406  -4.266  1.00 20.00    -0.350 N 
HETATM    8  C6  UNL     1     -34.891  14.103  -4.368  1.00 20.00     0.159 C 
HETATM    9  C7  UNL     1     -33.047  15.630  -5.055  1.00 20.00     0.159 C 
ENDBRANCH   2   7
TORSDOF 3
ENDMDL
MODEL 7
REMARK VINA RESULT:      -3.7      9.977     10.386
REMARK  3 active torsions:
REMARK  status: ('A' for Active; 'I' for Inactive)
REMARK    1  A    between atoms: C1_1  and  C3_3 
REMARK    2  A    between atoms: C2_2  and  N8_8 
REMARK    3  A    between atoms: C4_4  and  C5_5 
ROOT
HETATM    1  C1  UNL     1     -33.603  15.885  -4.154  1.00 20.00    -0.056 C 
HETATM    2  C2  UNL     1     -33.749  16.377  -3.070  1.00 20.00     0.012 C 
ENDROOT
BRANCH   1   3
HETATM    3  C3  UNL     1     -33.436  15.300  -5.440  1.00 20.00     0.069 C 
HETATM    4  C4  UNL     1     -34.236  14.317  -5.865  1.00 20.00     0.050 C 
BRANCH   4   5
HETATM    5  C5  UNL     1     -35.311  13.837  -4.976  1.00 20.00     0.259 C 
HETATM    6  O9  UNL     1     -35.911  12.790  -5.191  1.00 20.00    -0.302 OA
ENDBRANCH   4   5
ENDBRANCH   1   3
BRANCH   2   7
HETATM    7  N8  UNL     1     -33.925  16.967  -1.770  1.00 20.00    -0.350 N 
HETATM    8  C6  UNL     1     -35.271  17.014  -1.218  1.00 20.00     0.159 C 
HETATM    9  C7  UNL     1     -32.989  18.002  -1.357  1.00 20.00     0.159 C 
ENDBRANCH   2   7
TORSDOF 3
ENDMDL
MODEL 8
REMARK VINA RESULT:      -3.7      2.868      4.930
REMARK  3 active torsions:
REMARK  status: ('A' for Active; 'I' for Inactive)
REMARK    1  A    between atoms: C1_1  and  C3_3 
REMARK    2  A    between atoms: C2_2  and  N8_8 
REMARK    3  A    between atoms: C4_4  and  C5_5 
ROOT
HETATM    1  C1  UNL     1     -33.329   7.582   4.391  1.00 20.00    -0.056 C 
HETATM    2  C2  UNL     1     -32.851   8.070   3.405  1.00 20.00     0.012 C 
ENDROOT
BRANCH   1   3
HETATM    3  C3  UNL     1     -33.902   7.004   5.558  1.00 20.00     0.069 C 
HETATM    4  C4  UNL     1     -34.455   5.787   5.529  1.00 20.00     0.050 C 
BRANCH   4   5
HETATM    5  C5  UNL     1     -34.467   5.037   4.259  1.00 20.00     0.259 C 
HETATM    6  O9  UNL     1     -34.386   3.815   4.227  1.00 20.00    -0.302 OA
ENDBRANCH   4   5
ENDBRANCH   1   3
BRANCH   2   7
HETATM    7  N8  UNL     1     -32.278   8.656   2.224  1.00 20.00    -0.350 N 
HETATM    8  C6  UNL     1     -32.885   9.871   1.701  1.00 20.00     0.159 C 
HETATM    9  C7  UNL     1     -31.611   7.773   1.277  1.00 20.00     0.159 C 
ENDBRANCH   2   7
TORSDOF 3
ENDMDL
MODEL 9
REMARK VINA RESULT:      -3.5      9.952     10.368
REMARK  3 active torsions:
REMARK  status: ('A' for Active; 'I' for Inactive)
REMARK    1  A    between atoms: C1_1  and  C3_3 
REMARK    2  A    between atoms: C2_2  and  N8_8 
REMARK    3  A    between atoms: C4_4  and  C5_5 
ROOT
HETATM    1  C1  UNL     1     -34.699  15.008  -3.783  1.00 20.00    -0.056 C 
HETATM    2  C2  UNL     1     -34.618  15.931  -3.021  1.00 20.00     0.012 C 
ENDROOT
BRANCH   1   3
HETATM    3  C3  UNL     1     -34.800  13.912  -4.684  1.00 20.00     0.069 C 
HETATM    4  C4  UNL     1     -35.950  13.626  -5.303  1.00 20.00     0.050 C 
BRANCH   4   5
HETATM    5  C5  UNL     1     -37.131  14.470  -5.042  1.00 20.00     0.259 C 
HETATM    6  O9  UNL     1     -38.244  13.990  -4.862  1.00 20.00    -0.302 OA
ENDBRANCH   4   5
ENDBRANCH   1   3
BRANCH   2   7
HETATM    7  N8  UNL     1     -34.521  17.037  -2.107  1.00 20.00    -0.350 N 
HETATM    8  C6  UNL     1     -33.208  17.625  -1.884  1.00 20.00     0.159 C 
HETATM    9  C7  UNL     1     -35.488  17.114  -1.022  1.00 20.00     0.159 C 
ENDBRANCH   2   7
TORSDOF 3
ENDMDL
