MODEL 1
REMARK VINA RESULT:      -4.9      0.000      0.000
REMARK  0 active torsions:
REMARK  status: ('A' for Active; 'I' for Inactive)
ROOT
HETATM    1  C1  UNL     1     -32.610   7.641   2.739  1.00 20.00     0.026 C 
HETATM    2  C2  UNL     1     -33.536   7.014   4.569  1.00 20.00     0.017 C 
HETATM    3  C3  UNL     1     -31.685   8.192   1.947  1.00 20.00     0.040 C 
HETATM    4  C4  UNL     1     -33.661   6.681   2.264  1.00 20.00     0.073 C 
HETATM    5  C5  UNL     1     -34.133   6.037   3.574  1.00 20.00    -0.002 C 
HETATM    6  C6  UNL     1     -33.876   6.974   6.027  1.00 20.00     0.066 C 
HETATM    7  C7  UNL     1     -35.655   5.978   3.655  1.00 20.00     0.021 C 
HETATM    8  C8  UNL     1     -33.516   4.650   3.773  1.00 20.00     0.021 C 
HETATM    9  N9  UNL     1     -32.687   7.870   4.090  1.00 20.00    -0.263 NA
ENDROOT
TORSDOF 0
ENDMDL
MODEL 2
REMARK VINA RESULT:      -4.5      1.151      2.277
REMARK  0 active torsions:
REMARK  status: ('A' for Active; 'I' for Inactive)
ROOT
HETATM    1  C1  UNL     1     -32.763   7.138   2.998  1.00 20.00     0.026 C 
HETATM    2  C2  UNL     1     -33.532   5.197   3.486  1.00 20.00     0.017 C 
HETATM    3  C3  UNL     1     -32.149   8.079   2.273  1.00 20.00     0.040 C 
HETATM    4  C4  UNL     1     -33.687   7.429   4.143  1.00 20.00     0.073 C 
HETATM    5  C5  UNL     1     -34.432   6.098   4.309  1.00 20.00    -0.002 C 
HETATM    6  C6  UNL     1     -33.685   3.707   3.482  1.00 20.00     0.066 C 
HETATM    7  C7  UNL     1     -34.503   5.672   5.773  1.00 20.00     0.021 C 
HETATM    8  C8  UNL     1     -35.828   6.151   3.683  1.00 20.00     0.021 C 
HETATM    9  N9  UNL     1     -32.638   5.793   2.758  1.00 20.00    -0.263 NA
ENDROOT
TORSDOF 0
ENDMDL
MODEL 3
REMARK VINA RESULT:      -4.1      0.954      2.991
REMARK  0 active torsions:
REMARK  status: ('A' for Active; 'I' for Inactive)
ROOT
HETATM    1  C1  UNL     1     -33.693   6.932   5.293  1.00 20.00     0.026 C 
HETATM    2  C2  UNL     1     -32.845   7.183   3.340  1.00 20.00     0.017 C 
HETATM    3  C3  UNL     1     -34.117   7.283   6.512  1.00 20.00     0.040 C 
HETATM    4  C4  UNL     1     -34.091   5.665   4.597  1.00 20.00     0.073 C 
HETATM    5  C5  UNL     1     -33.723   5.963   3.138  1.00 20.00    -0.002 C 
HETATM    6  C6  UNL     1     -32.031   7.772   2.229  1.00 20.00     0.066 C 
HETATM    7  C7  UNL     1     -32.969   4.800   2.500  1.00 20.00     0.021 C 
HETATM    8  C8  UNL     1     -34.955   6.340   2.312  1.00 20.00     0.021 C 
HETATM    9  N9  UNL     1     -32.863   7.710   4.526  1.00 20.00    -0.263 NA
ENDROOT
TORSDOF 0
ENDMDL
MODEL 4
REMARK VINA RESULT:      -3.8     11.032     12.059
REMARK  0 active torsions:
REMARK  status: ('A' for Active; 'I' for Inactive)
ROOT
HETATM    1  C1  UNL     1     -34.926  16.334  -2.744  1.00 20.00     0.026 C 
HETATM    2  C2  UNL     1     -35.184  15.075  -4.460  1.00 20.00     0.017 C 
HETATM    3  C3  UNL     1     -35.170  16.832  -1.527  1.00 20.00     0.040 C 
HETATM    4  C4  UNL     1     -33.635  16.520  -3.484  1.00 20.00     0.073 C 
HETATM    5  C5  UNL     1     -33.711  15.423  -4.555  1.00 20.00    -0.002 C 
HETATM    6  C6  UNL     1     -35.857  14.183  -5.456  1.00 20.00     0.066 C 
HETATM    7  C7  UNL     1     -33.324  15.955  -5.932  1.00 20.00     0.021 C 
HETATM    8  C8  UNL     1     -32.863  14.207  -4.176  1.00 20.00     0.021 C 
HETATM    9  N9  UNL     1     -35.824  15.569  -3.445  1.00 20.00    -0.263 NA
ENDROOT
TORSDOF 0
ENDMDL
MODEL 5
REMARK VINA RESULT:      -3.6     11.045     12.016
REMARK  0 active torsions:
REMARK  status: ('A' for Active; 'I' for Inactive)
ROOT
HETATM    1  C1  UNL     1     -36.134  14.771  -4.559  1.00 20.00     0.026 C 
HETATM    2  C2  UNL     1     -34.487  15.784  -3.634  1.00 20.00     0.017 C 
HETATM    3  C3  UNL     1     -37.398  14.556  -4.940  1.00 20.00     0.040 C 
HETATM    4  C4  UNL     1     -34.945  14.086  -5.166  1.00 20.00     0.073 C 
HETATM    5  C5  UNL     1     -33.785  14.984  -4.715  1.00 20.00    -0.002 C 
HETATM    6  C6  UNL     1     -33.740  16.687  -2.701  1.00 20.00     0.066 C 
HETATM    7  C7  UNL     1     -32.619  14.164  -4.172  1.00 20.00     0.021 C 
HETATM    8  C8  UNL     1     -33.327  15.918  -5.838  1.00 20.00     0.021 C 
HETATM    9  N9  UNL     1     -35.778  15.667  -3.583  1.00 20.00    -0.263 NA
ENDROOT
TORSDOF 0
ENDMDL
MODEL 6
REMARK VINA RESULT:      -3.6     11.094     12.352
REMARK  0 active torsions:
REMARK  status: ('A' for Active; 'I' for Inactive)
ROOT
HETATM    1  C1  UNL     1     -35.223  16.807  -2.184  1.00 20.00     0.026 C 
HETATM    2  C2  UNL     1     -35.727  16.285  -4.201  1.00 20.00     0.017 C 
HETATM    3  C3  UNL     1     -35.422  17.077  -0.889  1.00 20.00     0.040 C 
HETATM    4  C4  UNL     1     -33.891  16.446  -2.772  1.00 20.00     0.073 C 
HETATM    5  C5  UNL     1     -34.286  15.820  -4.116  1.00 20.00    -0.002 C 
HETATM    6  C6  UNL     1     -36.543  16.124  -5.446  1.00 20.00     0.066 C 
HETATM    7  C7  UNL     1     -33.430  16.358  -5.259  1.00 20.00     0.021 C 
HETATM    8  C8  UNL     1     -34.235  14.291  -4.062  1.00 20.00     0.021 C 
HETATM    9  N9  UNL     1     -36.225  16.803  -3.121  1.00 20.00    -0.263 NA
ENDROOT
TORSDOF 0
ENDMDL
MODEL 7
REMARK VINA RESULT:      -3.5     11.594     12.266
REMARK  0 active torsions:
REMARK  status: ('A' for Active; 'I' for Inactive)
ROOT
HETATM    1  C1  UNL     1     -34.470  16.758  -2.161  1.00 20.00     0.026 C 
HETATM    2  C2  UNL     1     -33.868  15.990  -4.069  1.00 20.00     0.017 C 
HETATM    3  C3  UNL     1     -34.376  17.452  -1.021  1.00 20.00     0.040 C 
HETATM    4  C4  UNL     1     -35.760  16.248  -2.730  1.00 20.00     0.073 C 
HETATM    5  C5  UNL     1     -35.380  15.951  -4.187  1.00 20.00    -0.002 C 
HETATM    6  C6  UNL     1     -32.971  15.549  -5.185  1.00 20.00     0.066 C 
HETATM    7  C7  UNL     1     -35.896  14.587  -4.635  1.00 20.00     0.021 C 
HETATM    8  C8  UNL     1     -35.857  17.058  -5.130  1.00 20.00     0.021 C 
HETATM    9  N9  UNL     1     -33.393  16.457  -2.956  1.00 20.00    -0.263 NA
ENDROOT
TORSDOF 0
ENDMDL
MODEL 8
REMARK VINA RESULT:      -3.5     11.404     12.335
REMARK  0 active torsions:
REMARK  status: ('A' for Active; 'I' for Inactive)
ROOT
HETATM    1  C1  UNL     1     -35.739  14.530  -4.493  1.00 20.00     0.026 C 
HETATM    2  C2  UNL     1     -36.157  16.453  -3.642  1.00 20.00     0.017 C 
HETATM    3  C3  UNL     1     -35.935  13.441  -5.244  1.00 20.00     0.040 C 
HETATM    4  C4  UNL     1     -34.409  14.936  -3.930  1.00 20.00     0.073 C 
HETATM    5  C5  UNL     1     -34.642  16.409  -3.569  1.00 20.00    -0.002 C 
HETATM    6  C6  UNL     1     -36.942  17.635  -3.164  1.00 20.00     0.066 C 
HETATM    7  C7  UNL     1     -34.115  16.735  -2.175  1.00 20.00     0.021 C 
HETATM    8  C8  UNL     1     -34.042  17.347  -4.618  1.00 20.00     0.021 C 
HETATM    9  N9  UNL     1     -36.734  15.420  -4.173  1.00 20.00    -0.263 NA
ENDROOT
TORSDOF 0
ENDMDL
MODEL 9
REMARK VINA RESULT:      -3.5     11.489     12.940
REMARK  0 active torsions:
REMARK  status: ('A' for Active; 'I' for Inactive)
ROOT
HETATM    1  C1  UNL     1     -33.494  17.929  -3.464  1.00 20.00     0.026 C 
HETATM    2  C2  UNL     1     -33.663  16.715  -5.222  1.00 20.00     0.017 C 
HETATM    3  C3  UNL     1     -33.511  19.042  -2.722  1.00 20.00     0.040 C 
HETATM    4  C4  UNL     1     -33.574  16.542  -2.898  1.00 20.00     0.073 C 
HETATM    5  C5  UNL     1     -33.964  15.710  -4.127  1.00 20.00    -0.002 C 
HETATM    6  C6  UNL     1     -33.670  16.339  -6.672  1.00 20.00     0.066 C 
HETATM    7  C7  UNL     1     -33.115  14.448  -4.243  1.00 20.00     0.021 C 
HETATM    8  C8  UNL     1     -35.457  15.372  -4.127  1.00 20.00     0.021 C 
HETATM    9  N9  UNL     1     -33.430  17.931  -4.834  1.00 20.00    -0.263 NA
ENDROOT
TORSDOF 0
ENDMDL
