MODEL 1
REMARK VINA RESULT:      -5.4      0.000      0.000
REMARK  0 active torsions:
REMARK  status: ('A' for Active; 'I' for Inactive)
ROOT
HETATM    1  C1  UNL     1     -32.426   8.048   3.793  1.00 20.00     0.027 C 
HETATM    2  C2  UNL     1     -32.162   7.288   2.597  1.00 20.00     0.027 C 
HETATM    3  C3  UNL     1     -33.299   7.316   4.583  1.00 20.00     0.012 C 
HETATM    4  C4  UNL     1     -32.890   6.132   2.711  1.00 20.00     0.012 C 
HETATM    5  C5  UNL     1     -33.786   7.410   5.988  1.00 20.00     0.057 C 
HETATM    6  C6  UNL     1     -33.104   4.798   2.111  1.00 20.00     0.059 C 
HETATM    7  C7  UNL     1     -34.777   6.275   6.346  1.00 20.00     0.008 C 
HETATM    8  C8  UNL     1     -33.721   4.013   3.318  1.00 20.00     0.032 C 
HETATM    9  C9  UNL     1     -34.429   4.921   5.684  1.00 20.00     0.026 C 
HETATM   10  C10 UNL     1     -34.435   5.084   4.168  1.00 20.00     0.090 C 
HETATM   11  N11 UNL     1     -33.654   6.261   3.822  1.00 20.00    -0.349 N 
ENDROOT
TORSDOF 0
ENDMDL
MODEL 2
REMARK VINA RESULT:      -5.4      0.756      3.982
REMARK  0 active torsions:
REMARK  status: ('A' for Active; 'I' for Inactive)
ROOT
HETATM    1  C1  UNL     1     -34.405   4.132   4.374  1.00 20.00     0.027 C 
HETATM    2  C2  UNL     1     -34.687   4.685   5.675  1.00 20.00     0.027 C 
HETATM    3  C3  UNL     1     -33.862   5.138   3.588  1.00 20.00     0.012 C 
HETATM    4  C4  UNL     1     -34.310   6.002   5.619  1.00 20.00     0.012 C 
HETATM    5  C5  UNL     1     -33.172   5.193   2.270  1.00 20.00     0.057 C 
HETATM    6  C6  UNL     1     -34.086   7.210   6.442  1.00 20.00     0.059 C 
HETATM    7  C7  UNL     1     -32.760   6.634   1.879  1.00 20.00     0.008 C 
HETATM    8  C8  UNL     1     -33.108   8.026   5.531  1.00 20.00     0.032 C 
HETATM    9  C9  UNL     1     -32.306   7.493   3.082  1.00 20.00     0.026 C 
HETATM   10  C10 UNL     1     -33.447   7.591   4.091  1.00 20.00     0.090 C 
HETATM   11  N11 UNL     1     -33.971   6.256   4.334  1.00 20.00    -0.349 N 
ENDROOT
TORSDOF 0
ENDMDL
MODEL 3
REMARK VINA RESULT:      -5.3      0.595      3.617
REMARK  0 active torsions:
REMARK  status: ('A' for Active; 'I' for Inactive)
ROOT
HETATM    1  C1  UNL     1     -33.446   4.656   2.686  1.00 20.00     0.027 C 
HETATM    2  C2  UNL     1     -34.211   4.279   3.849  1.00 20.00     0.027 C 
HETATM    3  C3  UNL     1     -33.067   5.981   2.833  1.00 20.00     0.012 C 
HETATM    4  C4  UNL     1     -34.267   5.393   4.645  1.00 20.00     0.012 C 
HETATM    5  C5  UNL     1     -32.118   6.893   2.136  1.00 20.00     0.057 C 
HETATM    6  C6  UNL     1     -34.655   5.876   5.988  1.00 20.00     0.059 C 
HETATM    7  C7  UNL     1     -32.097   8.311   2.757  1.00 20.00     0.008 C 
HETATM    8  C8  UNL     1     -33.786   7.173   6.111  1.00 20.00     0.032 C 
HETATM    9  C9  UNL     1     -32.260   8.313   4.295  1.00 20.00     0.026 C 
HETATM   10  C10 UNL     1     -33.591   7.662   4.661  1.00 20.00     0.090 C 
HETATM   11  N11 UNL     1     -33.710   6.405   3.940  1.00 20.00    -0.349 N 
ENDROOT
TORSDOF 0
ENDMDL
MODEL 4
REMARK VINA RESULT:      -5.2      0.801      2.502
REMARK  0 active torsions:
REMARK  status: ('A' for Active; 'I' for Inactive)
ROOT
HETATM    1  C1  UNL     1     -33.656   7.426   6.219  1.00 20.00     0.027 C 
HETATM    2  C2  UNL     1     -32.926   8.359   5.397  1.00 20.00     0.027 C 
HETATM    3  C3  UNL     1     -34.023   6.350   5.424  1.00 20.00     0.012 C 
HETATM    4  C4  UNL     1     -32.888   7.812   4.141  1.00 20.00     0.012 C 
HETATM    5  C5  UNL     1     -34.578   4.991   5.675  1.00 20.00     0.057 C 
HETATM    6  C6  UNL     1     -32.274   7.950   2.803  1.00 20.00     0.059 C 
HETATM    7  C7  UNL     1     -34.787   4.188   4.368  1.00 20.00     0.008 C 
HETATM    8  C8  UNL     1     -32.431   6.496   2.241  1.00 20.00     0.032 C 
HETATM    9  C9  UNL     1     -33.694   4.447   3.304  1.00 20.00     0.026 C 
HETATM   10  C10 UNL     1     -33.681   5.929   2.944  1.00 20.00     0.090 C 
HETATM   11  N11 UNL     1     -33.670   6.708   4.173  1.00 20.00    -0.349 N 
ENDROOT
TORSDOF 0
ENDMDL
MODEL 5
REMARK VINA RESULT:      -4.9      1.019      3.115
REMARK  0 active torsions:
REMARK  status: ('A' for Active; 'I' for Inactive)
ROOT
HETATM    1  C1  UNL     1     -33.464   7.596   6.173  1.00 20.00     0.027 C 
HETATM    2  C2  UNL     1     -34.423   6.526   6.054  1.00 20.00     0.027 C 
HETATM    3  C3  UNL     1     -32.814   7.728   4.955  1.00 20.00     0.012 C 
HETATM    4  C4  UNL     1     -34.308   6.052   4.773  1.00 20.00     0.012 C 
HETATM    5  C5  UNL     1     -31.906   8.738   4.345  1.00 20.00     0.057 C 
HETATM    6  C6  UNL     1     -34.936   5.160   3.775  1.00 20.00     0.059 C 
HETATM    7  C7  UNL     1     -31.484   8.360   2.904  1.00 20.00     0.008 C 
HETATM    8  C8  UNL     1     -34.385   5.758   2.437  1.00 20.00     0.032 C 
HETATM    9  C9  UNL     1     -32.606   7.667   2.095  1.00 20.00     0.026 C 
HETATM   10  C10 UNL     1     -33.026   6.387   2.810  1.00 20.00     0.090 C 
HETATM   11  N11 UNL     1     -33.252   6.689   4.215  1.00 20.00    -0.349 N 
ENDROOT
TORSDOF 0
ENDMDL
MODEL 6
REMARK VINA RESULT:      -4.5     12.256     13.104
REMARK  0 active torsions:
REMARK  status: ('A' for Active; 'I' for Inactive)
ROOT
HETATM    1  C1  UNL     1     -35.751  17.658   1.189  1.00 20.00     0.027 C 
HETATM    2  C2  UNL     1     -34.801  18.296   2.067  1.00 20.00     0.027 C 
HETATM    3  C3  UNL     1     -35.196  17.607  -0.081  1.00 20.00     0.012 C 
HETATM    4  C4  UNL     1     -33.715  18.608   1.290  1.00 20.00     0.012 C 
HETATM    5  C5  UNL     1     -35.532  16.913  -1.354  1.00 20.00     0.057 C 
HETATM    6  C6  UNL     1     -32.316  19.084   1.340  1.00 20.00     0.059 C 
HETATM    7  C7  UNL     1     -34.519  17.226  -2.483  1.00 20.00     0.008 C 
HETATM    8  C8  UNL     1     -31.762  18.550  -0.024  1.00 20.00     0.032 C 
HETATM    9  C9  UNL     1     -33.062  17.366  -1.982  1.00 20.00     0.026 C 
HETATM   10  C10 UNL     1     -32.987  18.496  -0.960  1.00 20.00     0.090 C 
HETATM   11  N11 UNL     1     -34.055  18.319   0.012  1.00 20.00    -0.349 N 
ENDROOT
TORSDOF 0
ENDMDL
MODEL 7
REMARK VINA RESULT:      -4.5      0.781      2.393
REMARK  0 active torsions:
REMARK  status: ('A' for Active; 'I' for Inactive)
ROOT
HETATM    1  C1  UNL     1     -32.560   6.065   2.293  1.00 20.00     0.027 C 
HETATM    2  C2  UNL     1     -33.250   4.808   2.445  1.00 20.00     0.027 C 
HETATM    3  C3  UNL     1     -32.857   6.854   3.394  1.00 20.00     0.012 C 
HETATM    4  C4  UNL     1     -33.939   4.892   3.627  1.00 20.00     0.012 C 
HETATM    5  C5  UNL     1     -32.326   8.126   3.957  1.00 20.00     0.057 C 
HETATM    6  C6  UNL     1     -34.720   4.106   4.606  1.00 20.00     0.059 C 
HETATM    7  C7  UNL     1     -33.056   8.548   5.256  1.00 20.00     0.008 C 
HETATM    8  C8  UNL     1     -34.571   4.985   5.895  1.00 20.00     0.032 C 
HETATM    9  C9  UNL     1     -33.455   7.354   6.154  1.00 20.00     0.026 C 
HETATM   10  C10 UNL     1     -34.383   6.425   5.376  1.00 20.00     0.090 C 
HETATM   11  N11 UNL     1     -33.795   6.163   4.072  1.00 20.00    -0.349 N 
ENDROOT
TORSDOF 0
ENDMDL
MODEL 8
REMARK VINA RESULT:      -4.4     12.136     13.472
REMARK  0 active torsions:
REMARK  status: ('A' for Active; 'I' for Inactive)
ROOT
HETATM    1  C1  UNL     1     -35.905  13.592  -4.919  1.00 20.00     0.027 C 
HETATM    2  C2  UNL     1     -35.685  13.306  -6.315  1.00 20.00     0.027 C 
HETATM    3  C3  UNL     1     -35.038  14.608  -4.547  1.00 20.00     0.012 C 
HETATM    4  C4  UNL     1     -34.690  14.155  -6.726  1.00 20.00     0.012 C 
HETATM    5  C5  UNL     1     -34.899  15.498  -3.361  1.00 20.00     0.057 C 
HETATM    6  C6  UNL     1     -33.978  14.662  -7.918  1.00 20.00     0.059 C 
HETATM    7  C7  UNL     1     -33.715  16.486  -3.500  1.00 20.00     0.008 C 
HETATM    8  C8  UNL     1     -33.420  16.025  -7.386  1.00 20.00     0.032 C 
HETATM    9  C9  UNL     1     -33.509  17.001  -4.943  1.00 20.00     0.026 C 
HETATM   10  C10 UNL     1     -33.240  15.818  -5.868  1.00 20.00     0.090 C 
HETATM   11  N11 UNL     1     -34.243  14.794  -5.620  1.00 20.00    -0.349 N 
ENDROOT
TORSDOF 0
ENDMDL
MODEL 9
REMARK VINA RESULT:      -4.4     12.218     12.661
REMARK  0 active torsions:
REMARK  status: ('A' for Active; 'I' for Inactive)
ROOT
HETATM    1  C1  UNL     1     -31.959  18.841   0.922  1.00 20.00     0.027 C 
HETATM    2  C2  UNL     1     -31.726  18.374  -0.422  1.00 20.00     0.027 C 
HETATM    3  C3  UNL     1     -33.315  18.731   1.186  1.00 20.00     0.012 C 
HETATM    4  C4  UNL     1     -32.952  18.008  -0.916  1.00 20.00     0.012 C 
HETATM    5  C5  UNL     1     -34.166  18.826   2.405  1.00 20.00     0.057 C 
HETATM    6  C6  UNL     1     -33.624  17.323  -2.040  1.00 20.00     0.059 C 
HETATM    7  C7  UNL     1     -35.667  18.599   2.097  1.00 20.00     0.008 C 
HETATM    8  C8  UNL     1     -34.987  16.918  -1.384  1.00 20.00     0.032 C 
HETATM    9  C9  UNL     1     -35.917  17.539   0.999  1.00 20.00     0.026 C 
HETATM   10  C10 UNL     1     -35.236  17.980  -0.293  1.00 20.00     0.090 C 
HETATM   11  N11 UNL     1     -33.869  18.375   0.010  1.00 20.00    -0.349 N 
ENDROOT
TORSDOF 0
ENDMDL
