MODEL 1
REMARK VINA RESULT:      -5.9      0.000      0.000
REMARK  4 active torsions:
REMARK  status: ('A' for Active; 'I' for Inactive)
REMARK    1  A    between atoms: C1_1  and  C2_2 
REMARK    2  A    between atoms: C1_1  and  C3_3 
REMARK    3  A    between atoms: C2_2  and  C8_8 
REMARK    4  A    between atoms: C3_3  and  C6_6 
ROOT
HETATM    1  C1  UNL     1     -33.056   6.720   3.305  1.00 20.00     0.125 C 
HETATM    2 CL11 UNL     1     -32.867   5.276   2.365  1.00 20.00    -0.076 Cl
ENDROOT
BRANCH   1   3
HETATM    3  C2  UNL     1     -33.798   6.793   4.440  1.00 20.00     0.174 C 
HETATM    4  O9  UNL     1     -33.723   7.589   5.420  1.00 20.00    -0.291 OA
BRANCH   3   5
HETATM    5  C8  UNL     1     -34.970   5.821   4.648  1.00 20.00     0.080 C 
HETATM    6  C7  UNL     1     -34.588   4.603   5.487  1.00 20.00     0.013 C 
ENDBRANCH   3   5
ENDBRANCH   1   3
BRANCH   1   7
HETATM    7  C3  UNL     1     -32.281   7.909   2.826  1.00 20.00     0.178 C 
HETATM    8  O10 UNL     1     -31.318   8.367   3.428  1.00 20.00    -0.291 OA
BRANCH   7   9
HETATM    9  C6  UNL     1     -32.709   8.527   1.536  1.00 20.00     0.061 A 
HETATM   10  C4  UNL     1     -32.517   9.994   1.351  1.00 20.00     0.013 A 
HETATM   11  C5  UNL     1     -31.658   9.022   0.601  1.00 20.00     0.013 A 
ENDBRANCH   7   9
ENDBRANCH   1   7
TORSDOF 4
ENDMDL
MODEL 2
REMARK VINA RESULT:      -5.8      1.722      1.746
REMARK  4 active torsions:
REMARK  status: ('A' for Active; 'I' for Inactive)
REMARK    1  A    between atoms: C1_1  and  C2_2 
REMARK    2  A    between atoms: C1_1  and  C3_3 
REMARK    3  A    between atoms: C2_2  and  C8_8 
REMARK    4  A    between atoms: C3_3  and  C6_6 
ROOT
HETATM    1  C1  UNL     1     -33.023   7.198   3.906  1.00 20.00     0.125 C 
HETATM    2 CL11 UNL     1     -33.293   7.804   5.507  1.00 20.00    -0.076 Cl
ENDROOT
BRANCH   1   3
HETATM    3  C2  UNL     1     -33.613   6.080   3.411  1.00 20.00     0.174 C 
HETATM    4  O9  UNL     1     -33.242   5.294   2.492  1.00 20.00    -0.291 OA
BRANCH   3   5
HETATM    5  C8  UNL     1     -34.931   5.578   4.023  1.00 20.00     0.080 C 
HETATM    6  C7  UNL     1     -34.714   4.608   5.184  1.00 20.00     0.013 C 
ENDBRANCH   3   5
ENDBRANCH   1   3
BRANCH   1   7
HETATM    7  C3  UNL     1     -32.127   8.031   3.042  1.00 20.00     0.178 C 
HETATM    8  O10 UNL     1     -30.981   8.326   3.356  1.00 20.00    -0.291 OA
BRANCH   7   9
HETATM    9  C6  UNL     1     -32.677   8.487   1.731  1.00 20.00     0.061 A 
HETATM   10  C4  UNL     1     -32.568   9.932   1.377  1.00 20.00     0.013 A 
HETATM   11  C5  UNL     1     -31.721   8.917   0.670  1.00 20.00     0.013 A 
ENDBRANCH   7   9
ENDBRANCH   1   7
TORSDOF 4
ENDMDL
MODEL 3
REMARK VINA RESULT:      -5.7      0.660      4.571
REMARK  4 active torsions:
REMARK  status: ('A' for Active; 'I' for Inactive)
REMARK    1  A    between atoms: C1_1  and  C2_2 
REMARK    2  A    between atoms: C1_1  and  C3_3 
REMARK    3  A    between atoms: C2_2  and  C8_8 
REMARK    4  A    between atoms: C3_3  and  C6_6 
ROOT
HETATM    1  C1  UNL     1     -33.169   7.072   3.100  1.00 20.00     0.125 C 
HETATM    2 CL11 UNL     1     -33.980   6.193   1.846  1.00 20.00    -0.076 Cl
ENDROOT
BRANCH   1   3
HETATM    3  C2  UNL     1     -32.161   7.953   2.877  1.00 20.00     0.174 C 
HETATM    4  O9  UNL     1     -31.274   8.402   3.659  1.00 20.00    -0.291 OA
BRANCH   3   5
HETATM    5  C8  UNL     1     -31.951   8.531   1.468  1.00 20.00     0.080 C 
HETATM    6  C7  UNL     1     -32.587   9.908   1.290  1.00 20.00     0.013 C 
ENDBRANCH   3   5
ENDBRANCH   1   3
BRANCH   1   7
HETATM    7  C3  UNL     1     -33.696   6.855   4.485  1.00 20.00     0.178 C 
HETATM    8  O10 UNL     1     -33.326   7.508   5.452  1.00 20.00    -0.291 OA
BRANCH   7   9
HETATM    9  C6  UNL     1     -34.741   5.803   4.659  1.00 20.00     0.061 A 
HETATM   10  C4  UNL     1     -34.339   4.371   4.535  1.00 20.00     0.013 A 
HETATM   11  C5  UNL     1     -34.688   4.942   5.876  1.00 20.00     0.013 A 
ENDBRANCH   7   9
ENDBRANCH   1   7
TORSDOF 4
ENDMDL
MODEL 4
REMARK VINA RESULT:      -5.5      1.975      4.728
REMARK  4 active torsions:
REMARK  status: ('A' for Active; 'I' for Inactive)
REMARK    1  A    between atoms: C1_1  and  C2_2 
REMARK    2  A    between atoms: C1_1  and  C3_3 
REMARK    3  A    between atoms: C2_2  and  C8_8 
REMARK    4  A    between atoms: C3_3  and  C6_6 
ROOT
HETATM    1  C1  UNL     1     -32.109   8.086   2.850  1.00 20.00     0.125 C 
HETATM    2 CL11 UNL     1     -31.315   8.682   4.270  1.00 20.00    -0.076 Cl
ENDROOT
BRANCH   1   3
HETATM    3  C2  UNL     1     -31.937   8.612   1.610  1.00 20.00     0.174 C 
HETATM    4  O9  UNL     1     -31.123   8.301   0.692  1.00 20.00    -0.291 OA
BRANCH   3   5
HETATM    5  C8  UNL     1     -32.853   9.748   1.129  1.00 20.00     0.080 C 
HETATM    6  C7  UNL     1     -33.234   9.620  -0.345  1.00 20.00     0.013 C 
ENDBRANCH   3   5
ENDBRANCH   1   3
BRANCH   1   7
HETATM    7  C3  UNL     1     -32.973   6.880   3.051  1.00 20.00     0.178 C 
HETATM    8  O10 UNL     1     -32.734   5.792   2.541  1.00 20.00    -0.291 OA
BRANCH   7   9
HETATM    9  C6  UNL     1     -34.161   7.034   3.942  1.00 20.00     0.061 A 
HETATM   10  C4  UNL     1     -34.810   5.804   4.483  1.00 20.00     0.013 A 
HETATM   11  C5  UNL     1     -34.014   6.695   5.387  1.00 20.00     0.013 A 
ENDBRANCH   7   9
ENDBRANCH   1   7
TORSDOF 4
ENDMDL
MODEL 5
REMARK VINA RESULT:      -5.4      1.123      1.123
REMARK  4 active torsions:
REMARK  status: ('A' for Active; 'I' for Inactive)
REMARK    1  A    between atoms: C1_1  and  C2_2 
REMARK    2  A    between atoms: C1_1  and  C3_3 
REMARK    3  A    between atoms: C2_2  and  C8_8 
REMARK    4  A    between atoms: C3_3  and  C6_6 
ROOT
HETATM    1  C1  UNL     1     -33.358   6.257   3.047  1.00 20.00     0.125 C 
HETATM    2 CL11 UNL     1     -32.709   4.838   2.294  1.00 20.00    -0.076 Cl
ENDROOT
BRANCH   1   3
HETATM    3  C2  UNL     1     -34.473   6.260   3.822  1.00 20.00     0.174 C 
HETATM    4  O9  UNL     1     -35.695   6.194   3.502  1.00 20.00    -0.291 OA
BRANCH   3   5
HETATM    5  C8  UNL     1     -34.338   6.310   5.352  1.00 20.00     0.080 C 
HETATM    6  C7  UNL     1     -34.578   4.954   6.013  1.00 20.00     0.013 C 
ENDBRANCH   3   5
ENDBRANCH   1   3
BRANCH   1   7
HETATM    7  C3  UNL     1     -32.566   7.513   2.848  1.00 20.00     0.178 C 
HETATM    8  O10 UNL     1     -31.802   7.962   3.693  1.00 20.00    -0.291 OA
BRANCH   7   9
HETATM    9  C6  UNL     1     -32.716   8.213   1.539  1.00 20.00     0.061 A 
HETATM   10  C4  UNL     1     -32.445   9.679   1.479  1.00 20.00     0.013 A 
HETATM   11  C5  UNL     1     -31.488   8.710   0.853  1.00 20.00     0.013 A 
ENDBRANCH   7   9
ENDBRANCH   1   7
TORSDOF 4
ENDMDL
MODEL 6
REMARK VINA RESULT:      -5.1      1.778      4.726
REMARK  4 active torsions:
REMARK  status: ('A' for Active; 'I' for Inactive)
REMARK    1  A    between atoms: C1_1  and  C2_2 
REMARK    2  A    between atoms: C1_1  and  C3_3 
REMARK    3  A    between atoms: C2_2  and  C8_8 
REMARK    4  A    between atoms: C3_3  and  C6_6 
ROOT
HETATM    1  C1  UNL     1     -32.995   7.338   3.853  1.00 20.00     0.125 C 
HETATM    2 CL11 UNL     1     -33.512   7.829   5.432  1.00 20.00    -0.076 Cl
ENDROOT
BRANCH   1   3
HETATM    3  C2  UNL     1     -32.180   8.079   3.059  1.00 20.00     0.174 C 
HETATM    4  O9  UNL     1     -30.951   8.357   3.176  1.00 20.00    -0.291 OA
BRANCH   3   5
HETATM    5  C8  UNL     1     -32.730   8.693   1.762  1.00 20.00     0.080 C 
HETATM    6  C7  UNL     1     -31.634   9.013   0.746  1.00 20.00     0.013 C 
ENDBRANCH   3   5
ENDBRANCH   1   3
BRANCH   1   7
HETATM    7  C3  UNL     1     -33.453   5.980   3.416  1.00 20.00     0.178 C 
HETATM    8  O10 UNL     1     -32.885   5.330   2.547  1.00 20.00    -0.291 OA
BRANCH   7   9
HETATM    9  C6  UNL     1     -34.644   5.408   4.110  1.00 20.00     0.061 A 
HETATM   10  C4  UNL     1     -34.571   4.003   4.608  1.00 20.00     0.013 A 
HETATM   11  C5  UNL     1     -34.555   5.146   5.576  1.00 20.00     0.013 A 
ENDBRANCH   7   9
ENDBRANCH   1   7
TORSDOF 4
ENDMDL
MODEL 7
REMARK VINA RESULT:      -4.9      1.914      2.145
REMARK  4 active torsions:
REMARK  status: ('A' for Active; 'I' for Inactive)
REMARK    1  A    between atoms: C1_1  and  C2_2 
REMARK    2  A    between atoms: C1_1  and  C3_3 
REMARK    3  A    between atoms: C2_2  and  C8_8 
REMARK    4  A    between atoms: C3_3  and  C6_6 
ROOT
HETATM    1  C1  UNL     1     -33.621   6.861   4.204  1.00 20.00     0.125 C 
HETATM    2 CL11 UNL     1     -33.135   7.883   5.516  1.00 20.00    -0.076 Cl
ENDROOT
BRANCH   1   3
HETATM    3  C2  UNL     1     -34.708   6.048   4.240  1.00 20.00     0.174 C 
HETATM    4  O9  UNL     1     -35.819   6.135   3.642  1.00 20.00    -0.291 OA
BRANCH   3   5
HETATM    5  C8  UNL     1     -34.672   4.764   5.084  1.00 20.00     0.080 C 
HETATM    6  C7  UNL     1     -33.922   3.623   4.397  1.00 20.00     0.013 C 
ENDBRANCH   3   5
ENDBRANCH   1   3
BRANCH   1   7
HETATM    7  C3  UNL     1     -32.795   6.970   2.959  1.00 20.00     0.178 C 
HETATM    8  O10 UNL     1     -32.678   6.058   2.151  1.00 20.00    -0.291 OA
BRANCH   7   9
HETATM    9  C6  UNL     1     -32.116   8.275   2.705  1.00 20.00     0.061 A 
HETATM   10  C4  UNL     1     -31.494   8.507   1.369  1.00 20.00     0.013 A 
HETATM   11  C5  UNL     1     -32.748   9.233   1.753  1.00 20.00     0.013 A 
ENDBRANCH   7   9
ENDBRANCH   1   7
TORSDOF 4
ENDMDL
MODEL 8
REMARK VINA RESULT:      -4.7      2.135      2.539
REMARK  4 active torsions:
REMARK  status: ('A' for Active; 'I' for Inactive)
REMARK    1  A    between atoms: C1_1  and  C2_2 
REMARK    2  A    between atoms: C1_1  and  C3_3 
REMARK    3  A    between atoms: C2_2  and  C8_8 
REMARK    4  A    between atoms: C3_3  and  C6_6 
ROOT
HETATM    1  C1  UNL     1     -34.532   5.817   3.550  1.00 20.00     0.125 C 
HETATM    2 CL11 UNL     1     -36.005   6.504   2.948  1.00 20.00    -0.076 Cl
ENDROOT
BRANCH   1   3
HETATM    3  C2  UNL     1     -34.479   4.895   4.545  1.00 20.00     0.174 C 
HETATM    4  O9  UNL     1     -34.372   3.636   4.492  1.00 20.00    -0.291 OA
BRANCH   3   5
HETATM    5  C8  UNL     1     -34.505   5.353   6.012  1.00 20.00     0.080 C 
HETATM    6  C7  UNL     1     -34.133   6.826   6.180  1.00 20.00     0.013 C 
ENDBRANCH   3   5
ENDBRANCH   1   3
BRANCH   1   7
HETATM    7  C3  UNL     1     -33.282   6.255   2.851  1.00 20.00     0.178 C 
HETATM    8  O10 UNL     1     -32.525   5.477   2.284  1.00 20.00    -0.291 OA
BRANCH   7   9
HETATM    9  C6  UNL     1     -32.986   7.718   2.838  1.00 20.00     0.061 A 
HETATM   10  C4  UNL     1     -31.631   8.175   3.263  1.00 20.00     0.013 A 
HETATM   11  C5  UNL     1     -32.030   8.242   1.820  1.00 20.00     0.013 A 
ENDBRANCH   7   9
ENDBRANCH   1   7
TORSDOF 4
ENDMDL
MODEL 9
REMARK VINA RESULT:      -4.6      1.390      4.484
REMARK  4 active torsions:
REMARK  status: ('A' for Active; 'I' for Inactive)
REMARK    1  A    between atoms: C1_1  and  C2_2 
REMARK    2  A    between atoms: C1_1  and  C3_3 
REMARK    3  A    between atoms: C2_2  and  C8_8 
REMARK    4  A    between atoms: C3_3  and  C6_6 
ROOT
HETATM    1  C1  UNL     1     -33.330   6.080   3.036  1.00 20.00     0.125 C 
HETATM    2 CL11 UNL     1     -32.712   4.578   2.432  1.00 20.00    -0.076 Cl
ENDROOT
BRANCH   1   3
HETATM    3  C2  UNL     1     -32.603   7.223   3.108  1.00 20.00     0.174 C 
HETATM    4  O9  UNL     1     -32.218   7.889   4.113  1.00 20.00    -0.291 OA
BRANCH   3   5
HETATM    5  C8  UNL     1     -32.078   7.876   1.820  1.00 20.00     0.080 C 
HETATM    6  C7  UNL     1     -32.497   9.339   1.683  1.00 20.00     0.013 C 
ENDBRANCH   3   5
ENDBRANCH   1   3
BRANCH   1   7
HETATM    7  C3  UNL     1     -34.777   6.073   3.427  1.00 20.00     0.178 C 
HETATM    8  O10 UNL     1     -35.674   6.436   2.677  1.00 20.00    -0.291 OA
BRANCH   7   9
HETATM    9  C6  UNL     1     -35.111   5.568   4.792  1.00 20.00     0.061 A 
HETATM   10  C4  UNL     1     -34.135   4.673   5.479  1.00 20.00     0.013 A 
HETATM   11  C5  UNL     1     -34.327   6.082   5.952  1.00 20.00     0.013 A 
ENDBRANCH   7   9
ENDBRANCH   1   7
TORSDOF 4
ENDMDL
