MODEL 1
REMARK VINA RESULT:      -5.6      0.000      0.000
REMARK  3 active torsions:
REMARK  status: ('A' for Active; 'I' for Inactive)
REMARK    1  A    between atoms: C1_1  and  C7_7 
REMARK    2  A    between atoms: C1_1  and  O10_10 
REMARK    3  A    between atoms: C6_6  and  C7_7 
ROOT
HETATM    1  C4  UNL     1     -32.971   5.313   2.942  1.00 20.00     0.021 A 
HETATM    2  C5  UNL     1     -34.013   6.001   2.114  1.00 20.00     0.021 A 
HETATM    3  C7  UNL     1     -33.405   6.720   3.300  1.00 20.00     0.051 A 
ENDROOT
BRANCH   3   4
HETATM    4  C1  UNL     1     -32.440   7.807   2.991  1.00 20.00     0.267 C 
HETATM    5  O9  UNL     1     -31.416   8.016   3.629  1.00 20.00    -0.264 OA
BRANCH   4   6
HETATM    6  O10 UNL     1     -32.875   8.510   1.907  1.00 20.00    -0.326 OA
HETATM    7  C8  UNL     1     -31.854   8.954   1.010  1.00 20.00     0.213 C 
ENDBRANCH   4   6
ENDBRANCH   3   4
BRANCH   3   8
HETATM    8  C6  UNL     1     -34.245   6.972   4.566  1.00 20.00     0.004 A 
HETATM    9  C2  UNL     1     -34.315   5.990   5.702  1.00 20.00     0.006 A 
HETATM   10  C3  UNL     1     -33.630   7.314   5.894  1.00 20.00     0.006 A 
ENDBRANCH   3   8
TORSDOF 3
ENDMDL
MODEL 2
REMARK VINA RESULT:      -4.6      0.795      2.304
REMARK  3 active torsions:
REMARK  status: ('A' for Active; 'I' for Inactive)
REMARK    1  A    between atoms: C1_1  and  C7_7 
REMARK    2  A    between atoms: C1_1  and  O10_10 
REMARK    3  A    between atoms: C6_6  and  C7_7 
ROOT
HETATM    1  C4  UNL     1     -34.340   7.901   4.727  1.00 20.00     0.021 A 
HETATM    2  C5  UNL     1     -33.279   7.076   5.389  1.00 20.00     0.021 A 
HETATM    3  C7  UNL     1     -33.396   7.074   3.879  1.00 20.00     0.051 A 
ENDROOT
BRANCH   3   4
HETATM    4  C1  UNL     1     -32.351   7.821   3.133  1.00 20.00     0.267 C 
HETATM    5  O9  UNL     1     -31.283   8.172   3.616  1.00 20.00    -0.264 OA
BRANCH   4   6
HETATM    6  O10 UNL     1     -32.773   8.044   1.856  1.00 20.00    -0.326 OA
HETATM    7  C8  UNL     1     -32.071   9.068   1.144  1.00 20.00     0.213 C 
ENDBRANCH   4   6
ENDBRANCH   3   4
BRANCH   3   8
HETATM    8  C6  UNL     1     -33.912   5.821   3.145  1.00 20.00     0.004 A 
HETATM    9  C2  UNL     1     -33.012   4.683   2.751  1.00 20.00     0.006 A 
HETATM   10  C3  UNL     1     -34.051   4.485   3.819  1.00 20.00     0.006 A 
ENDBRANCH   3   8
TORSDOF 3
ENDMDL
MODEL 3
REMARK VINA RESULT:      -4.4      1.813      3.700
REMARK  3 active torsions:
REMARK  status: ('A' for Active; 'I' for Inactive)
REMARK    1  A    between atoms: C1_1  and  C7_7 
REMARK    2  A    between atoms: C1_1  and  O10_10 
REMARK    3  A    between atoms: C6_6  and  C7_7 
ROOT
HETATM    1  C4  UNL     1     -34.281   5.983   2.334  1.00 20.00     0.021 A 
HETATM    2  C5  UNL     1     -32.950   5.469   2.790  1.00 20.00     0.021 A 
HETATM    3  C7  UNL     1     -33.482   6.771   3.352  1.00 20.00     0.051 A 
ENDROOT
BRANCH   3   4
HETATM    4  C1  UNL     1     -33.978   6.735   4.752  1.00 20.00     0.267 C 
HETATM    5  O9  UNL     1     -33.591   7.489   5.635  1.00 20.00    -0.264 OA
BRANCH   4   6
HETATM    6  O10 UNL     1     -34.910   5.749   4.880  1.00 20.00    -0.326 OA
HETATM    7  C8  UNL     1     -34.619   4.751   5.863  1.00 20.00     0.213 C 
ENDBRANCH   4   6
ENDBRANCH   3   4
BRANCH   3   8
HETATM    8  C6  UNL     1     -32.828   8.109   2.954  1.00 20.00     0.004 A 
HETATM    9  C2  UNL     1     -31.375   8.407   3.200  1.00 20.00     0.006 A 
HETATM   10  C3  UNL     1     -31.881   8.236   1.794  1.00 20.00     0.006 A 
ENDBRANCH   3   8
TORSDOF 3
ENDMDL
MODEL 4
REMARK VINA RESULT:      -4.3      1.423      2.462
REMARK  3 active torsions:
REMARK  status: ('A' for Active; 'I' for Inactive)
REMARK    1  A    between atoms: C1_1  and  C7_7 
REMARK    2  A    between atoms: C1_1  and  O10_10 
REMARK    3  A    between atoms: C6_6  and  C7_7 
ROOT
HETATM    1  C4  UNL     1     -34.305   8.049   4.766  1.00 20.00     0.021 A 
HETATM    2  C5  UNL     1     -33.120   7.338   5.345  1.00 20.00     0.021 A 
HETATM    3  C7  UNL     1     -33.898   6.698   4.214  1.00 20.00     0.051 A 
ENDROOT
BRANCH   3   4
HETATM    4  C1  UNL     1     -33.246   6.699   2.879  1.00 20.00     0.267 C 
HETATM    5  O9  UNL     1     -33.713   6.153   1.888  1.00 20.00    -0.264 OA
BRANCH   4   6
HETATM    6  O10 UNL     1     -32.074   7.393   2.944  1.00 20.00    -0.326 OA
HETATM    7  C8  UNL     1     -31.905   8.411   1.954  1.00 20.00     0.213 C 
ENDBRANCH   4   6
ENDBRANCH   3   4
BRANCH   3   8
HETATM    8  C6  UNL     1     -34.773   5.458   4.482  1.00 20.00     0.004 A 
HETATM    9  C2  UNL     1     -34.227   4.057   4.444  1.00 20.00     0.006 A 
HETATM   10  C3  UNL     1     -34.675   4.654   5.748  1.00 20.00     0.006 A 
ENDBRANCH   3   8
TORSDOF 3
ENDMDL
MODEL 5
REMARK VINA RESULT:      -4.2     10.876     12.360
REMARK  3 active torsions:
REMARK  status: ('A' for Active; 'I' for Inactive)
REMARK    1  A    between atoms: C1_1  and  C7_7 
REMARK    2  A    between atoms: C1_1  and  O10_10 
REMARK    3  A    between atoms: C6_6  and  C7_7 
ROOT
HETATM    1  C4  UNL     1     -33.344  14.322  -4.397  1.00 20.00     0.021 A 
HETATM    2  C5  UNL     1     -34.109  15.563  -4.054  1.00 20.00     0.021 A 
HETATM    3  C7  UNL     1     -34.560  14.703  -5.217  1.00 20.00     0.051 A 
ENDROOT
BRANCH   3   4
HETATM    4  C1  UNL     1     -35.782  13.887  -5.002  1.00 20.00     0.267 C 
HETATM    5  O9  UNL     1     -35.859  12.690  -5.244  1.00 20.00    -0.264 OA
BRANCH   4   6
HETATM    6  O10 UNL     1     -36.776  14.677  -4.502  1.00 20.00    -0.326 OA
HETATM    7  C8  UNL     1     -38.063  14.500  -5.101  1.00 20.00     0.213 C 
ENDBRANCH   4   6
ENDBRANCH   3   4
BRANCH   3   8
HETATM    8  C6  UNL     1     -34.391  15.207  -6.663  1.00 20.00     0.004 A 
HETATM    9  C2  UNL     1     -34.005  14.300  -7.798  1.00 20.00     0.006 A 
HETATM   10  C3  UNL     1     -35.382  14.900  -7.750  1.00 20.00     0.006 A 
ENDBRANCH   3   8
TORSDOF 3
ENDMDL
MODEL 6
REMARK VINA RESULT:      -4.2      2.158      3.931
REMARK  3 active torsions:
REMARK  status: ('A' for Active; 'I' for Inactive)
REMARK    1  A    between atoms: C1_1  and  C7_7 
REMARK    2  A    between atoms: C1_1  and  O10_10 
REMARK    3  A    between atoms: C6_6  and  C7_7 
ROOT
HETATM    1  C4  UNL     1     -33.391   7.041   5.671  1.00 20.00     0.021 A 
HETATM    2  C5  UNL     1     -34.172   8.097   4.950  1.00 20.00     0.021 A 
HETATM    3  C7  UNL     1     -33.594   6.932   4.174  1.00 20.00     0.051 A 
ENDROOT
BRANCH   3   4
HETATM    4  C1  UNL     1     -34.559   5.900   3.712  1.00 20.00     0.267 C 
HETATM    5  O9  UNL     1     -35.768   6.075   3.643  1.00 20.00    -0.264 OA
BRANCH   4   6
HETATM    6  O10 UNL     1     -33.886   4.759   3.388  1.00 20.00    -0.326 OA
HETATM    7  C8  UNL     1     -33.954   3.708   4.356  1.00 20.00     0.213 C 
ENDBRANCH   4   6
ENDBRANCH   3   4
BRANCH   3   8
HETATM    8  C6  UNL     1     -32.409   7.153   3.214  1.00 20.00     0.004 A 
HETATM    9  C2  UNL     1     -32.455   8.141   2.082  1.00 20.00     0.006 A 
HETATM   10  C3  UNL     1     -31.550   8.385   3.257  1.00 20.00     0.006 A 
ENDBRANCH   3   8
TORSDOF 3
ENDMDL
MODEL 7
REMARK VINA RESULT:      -4.2     10.931     11.904
REMARK  3 active torsions:
REMARK  status: ('A' for Active; 'I' for Inactive)
REMARK    1  A    between atoms: C1_1  and  C7_7 
REMARK    2  A    between atoms: C1_1  and  O10_10 
REMARK    3  A    between atoms: C6_6  and  C7_7 
ROOT
HETATM    1  C4  UNL     1     -37.075  15.414  -4.244  1.00 20.00     0.021 A 
HETATM    2  C5  UNL     1     -36.317  16.185  -5.279  1.00 20.00     0.021 A 
HETATM    3  C7  UNL     1     -35.736  14.898  -4.730  1.00 20.00     0.051 A 
ENDROOT
BRANCH   3   4
HETATM    4  C1  UNL     1     -35.771  13.719  -5.633  1.00 20.00     0.267 C 
HETATM    5  O9  UNL     1     -35.893  12.564  -5.247  1.00 20.00    -0.264 OA
BRANCH   4   6
HETATM    6  O10 UNL     1     -35.649  14.131  -6.927  1.00 20.00    -0.326 OA
HETATM    7  C8  UNL     1     -34.438  13.743  -7.585  1.00 20.00     0.213 C 
ENDBRANCH   4   6
ENDBRANCH   3   4
BRANCH   3   8
HETATM    8  C6  UNL     1     -34.508  14.938  -3.800  1.00 20.00     0.004 A 
HETATM    9  C2  UNL     1     -33.100  15.017  -4.320  1.00 20.00     0.006 A 
HETATM   10  C3  UNL     1     -33.696  16.183  -3.582  1.00 20.00     0.006 A 
ENDBRANCH   3   8
TORSDOF 3
ENDMDL
MODEL 8
REMARK VINA RESULT:      -4.0      1.495      1.776
REMARK  3 active torsions:
REMARK  status: ('A' for Active; 'I' for Inactive)
REMARK    1  A    between atoms: C1_1  and  C7_7 
REMARK    2  A    between atoms: C1_1  and  O10_10 
REMARK    3  A    between atoms: C6_6  and  C7_7 
ROOT
HETATM    1  C4  UNL     1     -34.696   4.884   4.478  1.00 20.00     0.021 A 
HETATM    2  C5  UNL     1     -35.634   5.696   3.639  1.00 20.00     0.021 A 
HETATM    3  C7  UNL     1     -34.270   6.253   3.988  1.00 20.00     0.051 A 
ENDROOT
BRANCH   3   4
HETATM    4  C1  UNL     1     -33.266   6.279   2.893  1.00 20.00     0.267 C 
HETATM    5  O9  UNL     1     -32.540   5.337   2.605  1.00 20.00    -0.264 OA
BRANCH   4   6
HETATM    6  O10 UNL     1     -33.291   7.497   2.280  1.00 20.00    -0.326 OA
HETATM    7  C8  UNL     1     -32.012   8.100   2.057  1.00 20.00     0.213 C 
ENDBRANCH   4   6
ENDBRANCH   3   4
BRANCH   3   8
HETATM    8  C6  UNL     1     -34.143   7.425   4.980  1.00 20.00     0.004 A 
HETATM    9  C2  UNL     1     -33.807   7.226   6.432  1.00 20.00     0.006 A 
HETATM   10  C3  UNL     1     -32.820   7.894   5.516  1.00 20.00     0.006 A 
ENDBRANCH   3   8
TORSDOF 3
ENDMDL
MODEL 9
REMARK VINA RESULT:      -4.0     10.868     11.635
REMARK  3 active torsions:
REMARK  status: ('A' for Active; 'I' for Inactive)
REMARK    1  A    between atoms: C1_1  and  C7_7 
REMARK    2  A    between atoms: C1_1  and  O10_10 
REMARK    3  A    between atoms: C6_6  and  C7_7 
ROOT
HETATM    1  C4  UNL     1     -33.121  15.537  -5.488  1.00 20.00     0.021 A 
HETATM    2  C5  UNL     1     -32.842  14.693  -4.282  1.00 20.00     0.021 A 
HETATM    3  C7  UNL     1     -34.173  15.405  -4.406  1.00 20.00     0.051 A 
ENDROOT
BRANCH   3   4
HETATM    4  C1  UNL     1     -35.350  14.557  -4.729  1.00 20.00     0.267 C 
HETATM    5  O9  UNL     1     -35.349  13.335  -4.675  1.00 20.00    -0.264 OA
BRANCH   4   6
HETATM    6  O10 UNL     1     -36.399  15.351  -5.085  1.00 20.00    -0.326 OA
HETATM    7  C8  UNL     1     -37.686  14.904  -4.646  1.00 20.00     0.213 C 
ENDBRANCH   4   6
ENDBRANCH   3   4
BRANCH   3   8
HETATM    8  C6  UNL     1     -34.498  16.602  -3.492  1.00 20.00     0.004 A 
HETATM    9  C2  UNL     1     -35.023  16.436  -2.093  1.00 20.00     0.006 A 
HETATM   10  C3  UNL     1     -33.640  16.982  -2.317  1.00 20.00     0.006 A 
ENDBRANCH   3   8
TORSDOF 3
ENDMDL
