MODEL 1
REMARK VINA RESULT:      -4.9      0.000      0.000
REMARK  3 active torsions:
REMARK  status: ('A' for Active; 'I' for Inactive)
REMARK    1  A    between atoms: C1_1  and  C2_2 
REMARK    2  A    between atoms: C1_1  and  O10_10 
REMARK    3  A    between atoms: C7_7  and  O10_10 
ROOT
HETATM    1  C1  UNL     1     -33.550   5.992   2.956  1.00 20.00     0.291 C 
HETATM    2  O8  UNL     1     -32.721   5.155   2.626  1.00 20.00    -0.262 OA
ENDROOT
BRANCH   1   3
HETATM    3  C2  UNL     1     -34.742   5.695   3.749  1.00 20.00     0.250 A 
HETATM    4  C3  UNL     1     -34.844   6.076   5.204  1.00 20.00     0.157 A 
HETATM    5  C4  UNL     1     -33.762   6.795   5.927  1.00 20.00     0.042 C 
HETATM    6  O9  UNL     1     -34.509   4.744   4.802  1.00 20.00    -0.365 OA
ENDBRANCH   1   3
BRANCH   1   7
HETATM    7  O10 UNL     1     -33.522   7.321   2.656  1.00 20.00    -0.315 OA
BRANCH   7   8
HETATM    8  C7  UNL     1     -32.243   7.838   2.273  1.00 20.00     0.123 C 
HETATM    9  C5  UNL     1     -32.438   8.967   1.273  1.00 20.00     0.040 C 
HETATM   10  C6  UNL     1     -31.499   8.303   3.516  1.00 20.00     0.040 C 
ENDBRANCH   7   8
ENDBRANCH   1   7
TORSDOF 3
ENDMDL
MODEL 2
REMARK VINA RESULT:      -4.6      1.701      4.428
REMARK  3 active torsions:
REMARK  status: ('A' for Active; 'I' for Inactive)
REMARK    1  A    between atoms: C1_1  and  C2_2 
REMARK    2  A    between atoms: C1_1  and  O10_10 
REMARK    3  A    between atoms: C7_7  and  O10_10 
ROOT
HETATM    1  C1  UNL     1     -32.154   8.012   2.616  1.00 20.00     0.291 C 
HETATM    2  O8  UNL     1     -31.501   8.210   3.632  1.00 20.00    -0.262 OA
ENDROOT
BRANCH   1   3
HETATM    3  C2  UNL     1     -31.761   8.478   1.286  1.00 20.00     0.250 A 
HETATM    4  C3  UNL     1     -32.126   9.852   0.785  1.00 20.00     0.157 A 
HETATM    5  C4  UNL     1     -32.883  10.834   1.605  1.00 20.00     0.042 C 
HETATM    6  O9  UNL     1     -32.873   8.694   0.402  1.00 20.00    -0.365 OA
ENDBRANCH   1   3
BRANCH   1   7
HETATM    7  O10 UNL     1     -33.337   7.340   2.531  1.00 20.00    -0.315 OA
BRANCH   7   8
HETATM    8  C7  UNL     1     -33.453   6.191   3.378  1.00 20.00     0.123 C 
HETATM    9  C5  UNL     1     -34.890   6.067   3.860  1.00 20.00     0.040 C 
HETATM   10  C6  UNL     1     -33.003   4.957   2.611  1.00 20.00     0.040 C 
ENDBRANCH   7   8
ENDBRANCH   1   7
TORSDOF 3
ENDMDL
MODEL 3
REMARK VINA RESULT:      -4.5      1.568      2.554
REMARK  3 active torsions:
REMARK  status: ('A' for Active; 'I' for Inactive)
REMARK    1  A    between atoms: C1_1  and  C2_2 
REMARK    2  A    between atoms: C1_1  and  O10_10 
REMARK    3  A    between atoms: C7_7  and  O10_10 
ROOT
HETATM    1  C1  UNL     1     -32.073   8.011   2.779  1.00 20.00     0.291 C 
HETATM    2  O8  UNL     1     -31.422   8.200   3.798  1.00 20.00    -0.262 OA
ENDROOT
BRANCH   1   3
HETATM    3  C2  UNL     1     -33.248   7.144   2.708  1.00 20.00     0.250 A 
HETATM    4  C3  UNL     1     -34.016   6.743   3.943  1.00 20.00     0.157 A 
HETATM    5  C4  UNL     1     -33.653   7.213   5.305  1.00 20.00     0.042 C 
HETATM    6  O9  UNL     1     -33.058   5.867   3.340  1.00 20.00    -0.365 OA
ENDBRANCH   1   3
BRANCH   1   7
HETATM    7  O10 UNL     1     -31.833   8.555   1.552  1.00 20.00    -0.315 OA
BRANCH   7   8
HETATM    8  C7  UNL     1     -32.868   9.404   1.044  1.00 20.00     0.123 C 
HETATM    9  C5  UNL     1     -32.593  10.838   1.469  1.00 20.00     0.040 C 
HETATM   10  C6  UNL     1     -32.932   9.264  -0.470  1.00 20.00     0.040 C 
ENDBRANCH   7   8
ENDBRANCH   1   7
TORSDOF 3
ENDMDL
MODEL 4
REMARK VINA RESULT:      -4.5      1.445      4.399
REMARK  3 active torsions:
REMARK  status: ('A' for Active; 'I' for Inactive)
REMARK    1  A    between atoms: C1_1  and  C2_2 
REMARK    2  A    between atoms: C1_1  and  O10_10 
REMARK    3  A    between atoms: C7_7  and  O10_10 
ROOT
HETATM    1  C1  UNL     1     -32.793   7.434   2.553  1.00 20.00     0.291 C 
HETATM    2  O8  UNL     1     -32.625   6.383   1.950  1.00 20.00    -0.262 OA
ENDROOT
BRANCH   1   3
HETATM    3  C2  UNL     1     -32.019   8.651   2.308  1.00 20.00     0.250 A 
HETATM    4  C3  UNL     1     -32.262   9.518   1.099  1.00 20.00     0.157 A 
HETATM    5  C4  UNL     1     -33.312   9.218   0.090  1.00 20.00     0.042 C 
HETATM    6  O9  UNL     1     -31.187   8.576   1.138  1.00 20.00    -0.365 OA
ENDBRANCH   1   3
BRANCH   1   7
HETATM    7  O10 UNL     1     -33.707   7.666   3.537  1.00 20.00    -0.315 OA
BRANCH   7   8
HETATM    8  C7  UNL     1     -33.825   6.632   4.521  1.00 20.00     0.123 C 
HETATM    9  C5  UNL     1     -33.822   7.258   5.907  1.00 20.00     0.040 C 
HETATM   10  C6  UNL     1     -35.096   5.837   4.261  1.00 20.00     0.040 C 
ENDBRANCH   7   8
ENDBRANCH   1   7
TORSDOF 3
ENDMDL
MODEL 5
REMARK VINA RESULT:      -4.4      1.258      2.078
REMARK  3 active torsions:
REMARK  status: ('A' for Active; 'I' for Inactive)
REMARK    1  A    between atoms: C1_1  and  C2_2 
REMARK    2  A    between atoms: C1_1  and  O10_10 
REMARK    3  A    between atoms: C7_7  and  O10_10 
ROOT
HETATM    1  C1  UNL     1     -32.734   7.660   2.631  1.00 20.00     0.291 C 
HETATM    2  O8  UNL     1     -31.637   7.676   3.173  1.00 20.00    -0.262 OA
ENDROOT
BRANCH   1   3
HETATM    3  C2  UNL     1     -33.613   6.492   2.596  1.00 20.00     0.250 A 
HETATM    4  C3  UNL     1     -34.296   5.974   3.837  1.00 20.00     0.157 A 
HETATM    5  C4  UNL     1     -34.147   6.619   5.168  1.00 20.00     0.042 C 
HETATM    6  O9  UNL     1     -33.102   5.367   3.332  1.00 20.00    -0.365 OA
ENDBRANCH   1   3
BRANCH   1   7
HETATM    7  O10 UNL     1     -33.328   8.697   1.975  1.00 20.00    -0.315 OA
BRANCH   7   8
HETATM    8  C7  UNL     1     -32.483   9.420   1.074  1.00 20.00     0.123 C 
HETATM    9  C5  UNL     1     -32.995   9.239  -0.347  1.00 20.00     0.040 C 
HETATM   10  C6  UNL     1     -32.451  10.884   1.483  1.00 20.00     0.040 C 
ENDBRANCH   7   8
ENDBRANCH   1   7
TORSDOF 3
ENDMDL
MODEL 6
REMARK VINA RESULT:      -4.4      1.640      2.564
REMARK  3 active torsions:
REMARK  status: ('A' for Active; 'I' for Inactive)
REMARK    1  A    between atoms: C1_1  and  C2_2 
REMARK    2  A    between atoms: C1_1  and  O10_10 
REMARK    3  A    between atoms: C7_7  and  O10_10 
ROOT
HETATM    1  C1  UNL     1     -32.440   7.912   2.919  1.00 20.00     0.291 C 
HETATM    2  O8  UNL     1     -31.250   8.083   3.144  1.00 20.00    -0.262 OA
ENDROOT
BRANCH   1   3
HETATM    3  C2  UNL     1     -33.352   7.212   3.823  1.00 20.00     0.250 A 
HETATM    4  C3  UNL     1     -33.645   5.740   3.675  1.00 20.00     0.157 A 
HETATM    5  C4  UNL     1     -33.017   4.896   2.625  1.00 20.00     0.042 C 
HETATM    6  O9  UNL     1     -34.546   6.735   3.179  1.00 20.00    -0.365 OA
ENDBRANCH   1   3
BRANCH   1   7
HETATM    7  O10 UNL     1     -33.124   8.328   1.815  1.00 20.00    -0.315 OA
BRANCH   7   8
HETATM    8  C7  UNL     1     -32.441   9.280   0.993  1.00 20.00     0.123 C 
HETATM    9  C5  UNL     1     -32.893   9.111  -0.450  1.00 20.00     0.040 C 
HETATM   10  C6  UNL     1     -32.721  10.682   1.513  1.00 20.00     0.040 C 
ENDBRANCH   7   8
ENDBRANCH   1   7
TORSDOF 3
ENDMDL
MODEL 7
REMARK VINA RESULT:      -4.3      1.588      4.410
REMARK  3 active torsions:
REMARK  status: ('A' for Active; 'I' for Inactive)
REMARK    1  A    between atoms: C1_1  and  C2_2 
REMARK    2  A    between atoms: C1_1  and  O10_10 
REMARK    3  A    between atoms: C7_7  and  O10_10 
ROOT
HETATM    1  C1  UNL     1     -32.212   7.923   3.087  1.00 20.00     0.291 C 
HETATM    2  O8  UNL     1     -31.126   8.247   3.550  1.00 20.00    -0.262 OA
ENDROOT
BRANCH   1   3
HETATM    3  C2  UNL     1     -32.976   8.737   2.143  1.00 20.00     0.250 A 
HETATM    4  C3  UNL     1     -32.459   9.046   0.761  1.00 20.00     0.157 A 
HETATM    5  C4  UNL     1     -31.161   8.532   0.252  1.00 20.00     0.042 C 
HETATM    6  O9  UNL     1     -32.348   9.992   1.829  1.00 20.00    -0.365 OA
ENDBRANCH   1   3
BRANCH   1   7
HETATM    7  O10 UNL     1     -32.895   6.774   3.356  1.00 20.00    -0.315 OA
BRANCH   7   8
HETATM    8  C7  UNL     1     -34.080   6.934   4.143  1.00 20.00     0.123 C 
HETATM    9  C5  UNL     1     -34.934   5.681   4.021  1.00 20.00     0.040 C 
HETATM   10  C6  UNL     1     -33.688   7.214   5.586  1.00 20.00     0.040 C 
ENDBRANCH   7   8
ENDBRANCH   1   7
TORSDOF 3
ENDMDL
MODEL 8
REMARK VINA RESULT:      -4.2      1.212      3.939
REMARK  3 active torsions:
REMARK  status: ('A' for Active; 'I' for Inactive)
REMARK    1  A    between atoms: C1_1  and  C2_2 
REMARK    2  A    between atoms: C1_1  and  O10_10 
REMARK    3  A    between atoms: C7_7  and  O10_10 
ROOT
HETATM    1  C1  UNL     1     -33.211   6.500   3.131  1.00 20.00     0.291 C 
HETATM    2  O8  UNL     1     -32.589   5.594   2.593  1.00 20.00    -0.262 OA
ENDROOT
BRANCH   1   3
HETATM    3  C2  UNL     1     -32.618   7.775   3.532  1.00 20.00     0.250 A 
HETATM    4  C3  UNL     1     -32.200   8.811   2.519  1.00 20.00     0.157 A 
HETATM    5  C4  UNL     1     -32.382   8.626   1.055  1.00 20.00     0.042 C 
HETATM    6  O9  UNL     1     -31.249   7.926   3.118  1.00 20.00    -0.365 OA
ENDBRANCH   1   3
BRANCH   1   7
HETATM    7  O10 UNL     1     -34.536   6.494   3.450  1.00 20.00    -0.315 OA
BRANCH   7   8
HETATM    8  C7  UNL     1     -34.880   5.771   4.636  1.00 20.00     0.123 C 
HETATM    9  C5  UNL     1     -34.449   4.320   4.480  1.00 20.00     0.040 C 
HETATM   10  C6  UNL     1     -34.219   6.433   5.835  1.00 20.00     0.040 C 
ENDBRANCH   7   8
ENDBRANCH   1   7
TORSDOF 3
ENDMDL
MODEL 9
REMARK VINA RESULT:      -4.0     11.291     12.043
REMARK  3 active torsions:
REMARK  status: ('A' for Active; 'I' for Inactive)
REMARK    1  A    between atoms: C1_1  and  C2_2 
REMARK    2  A    between atoms: C1_1  and  O10_10 
REMARK    3  A    between atoms: C7_7  and  O10_10 
ROOT
HETATM    1  C1  UNL     1     -33.506  14.745  -4.840  1.00 20.00     0.291 C 
HETATM    2  O8  UNL     1     -32.918  13.833  -4.274  1.00 20.00    -0.262 OA
ENDROOT
BRANCH   1   3
HETATM    3  C2  UNL     1     -34.087  14.638  -6.178  1.00 20.00     0.250 A 
HETATM    4  C3  UNL     1     -35.440  14.014  -6.410  1.00 20.00     0.157 A 
HETATM    5  C4  UNL     1     -36.285  13.489  -5.305  1.00 20.00     0.042 C 
HETATM    6  O9  UNL     1     -34.232  13.282  -6.634  1.00 20.00    -0.365 OA
ENDBRANCH   1   3
BRANCH   1   7
HETATM    7  O10 UNL     1     -33.725  15.996  -4.347  1.00 20.00    -0.315 OA
BRANCH   7   8
HETATM    8  C7  UNL     1     -34.310  16.049  -3.041  1.00 20.00     0.123 C 
HETATM    9  C5  UNL     1     -33.553  17.060  -2.194  1.00 20.00     0.040 C 
HETATM   10  C6  UNL     1     -35.784  16.404  -3.167  1.00 20.00     0.040 C 
ENDBRANCH   7   8
ENDBRANCH   1   7
TORSDOF 3
ENDMDL
