MODEL 1
REMARK VINA RESULT:      -4.4      0.000      0.000
REMARK  4 active torsions:
REMARK  status: ('A' for Active; 'I' for Inactive)
REMARK    1  A    between atoms: C5_5  and  N8_8 
REMARK    2  A    between atoms: C6_6  and  C7_7 
REMARK    3  A    between atoms: C6_6  and  N8_8 
REMARK    4  A    between atoms: C7_7  and  O9_9 
ROOT
HETATM    1  C1  UNL     1     -34.598   5.017   5.954  1.00 20.00     0.013 C 
HETATM    2  C2  UNL     1     -34.777   5.480   4.860  1.00 20.00    -0.087 C 
HETATM    3  C5  UNL     1     -35.000   6.045   3.528  1.00 20.00     0.364 C 
ENDROOT
BRANCH   3   4
HETATM    4  N8  UNL     1     -33.726   6.333   2.869  1.00 20.00     0.097 N 
HETATM    5  C3  UNL     1     -32.969   5.099   2.662  1.00 20.00     0.311 C 
BRANCH   4   6
HETATM    6  C6  UNL     1     -32.946   7.285   3.658  1.00 20.00     0.299 C 
BRANCH   6   7
HETATM    7  C7  UNL     1     -31.981   8.028   2.752  1.00 20.00     0.197 C 
BRANCH   7   8
HETATM    8  O9  UNL     1     -32.716   8.796   1.808  1.00 20.00    -0.394 OA
HETATM    9  C4  UNL     1     -31.915   9.152   0.689  1.00 20.00     0.201 C 
ENDBRANCH   7   8
ENDBRANCH   6   7
ENDBRANCH   4   6
ENDBRANCH   3   4
TORSDOF 4
ENDMDL
MODEL 2
REMARK VINA RESULT:      -4.3      1.123      1.275
REMARK  4 active torsions:
REMARK  status: ('A' for Active; 'I' for Inactive)
REMARK    1  A    between atoms: C5_5  and  N8_8 
REMARK    2  A    between atoms: C6_6  and  C7_7 
REMARK    3  A    between atoms: C6_6  and  N8_8 
REMARK    4  A    between atoms: C7_7  and  O9_9 
ROOT
HETATM    1  C1  UNL     1     -34.793   5.021   5.574  1.00 20.00     0.013 C 
HETATM    2  C2  UNL     1     -34.213   6.036   5.300  1.00 20.00    -0.087 C 
HETATM    3  C5  UNL     1     -33.504   7.275   4.971  1.00 20.00     0.364 C 
ENDROOT
BRANCH   3   4
HETATM    4  N8  UNL     1     -33.242   7.354   3.535  1.00 20.00     0.097 N 
HETATM    5  C3  UNL     1     -33.260   6.019   2.938  1.00 20.00     0.311 C 
BRANCH   4   6
HETATM    6  C6  UNL     1     -31.957   8.007   3.285  1.00 20.00     0.299 C 
BRANCH   6   7
HETATM    7  C7  UNL     1     -31.851   8.379   1.817  1.00 20.00     0.197 C 
BRANCH   7   8
HETATM    8  O9  UNL     1     -32.415   9.668   1.614  1.00 20.00    -0.394 OA
HETATM    9  C4  UNL     1     -32.853   9.840   0.274  1.00 20.00     0.201 C 
ENDBRANCH   7   8
ENDBRANCH   6   7
ENDBRANCH   4   6
ENDBRANCH   3   4
TORSDOF 4
ENDMDL
MODEL 3
REMARK VINA RESULT:      -4.2      1.947      4.785
REMARK  4 active torsions:
REMARK  status: ('A' for Active; 'I' for Inactive)
REMARK    1  A    between atoms: C5_5  and  N8_8 
REMARK    2  A    between atoms: C6_6  and  C7_7 
REMARK    3  A    between atoms: C6_6  and  N8_8 
REMARK    4  A    between atoms: C7_7  and  O9_9 
ROOT
HETATM    1  C1  UNL     1     -32.541   9.876   0.685  1.00 20.00     0.013 C 
HETATM    2  C2  UNL     1     -32.261   9.052   1.513  1.00 20.00    -0.087 C 
HETATM    3  C5  UNL     1     -31.914   8.048   2.521  1.00 20.00     0.364 C 
ENDROOT
BRANCH   3   4
HETATM    4  N8  UNL     1     -33.106   7.616   3.251  1.00 20.00     0.097 N 
HETATM    5  C3  UNL     1     -32.893   7.734   4.693  1.00 20.00     0.311 C 
BRANCH   4   6
HETATM    6  C6  UNL     1     -33.451   6.239   2.897  1.00 20.00     0.299 C 
BRANCH   6   7
HETATM    7  C7  UNL     1     -34.774   5.864   3.539  1.00 20.00     0.197 C 
BRANCH   7   8
HETATM    8  O9  UNL     1     -34.631   4.627   4.225  1.00 20.00    -0.394 OA
HETATM    9  C4  UNL     1     -34.599   4.813   5.633  1.00 20.00     0.201 C 
ENDBRANCH   7   8
ENDBRANCH   6   7
ENDBRANCH   4   6
ENDBRANCH   3   4
TORSDOF 4
ENDMDL
MODEL 4
REMARK VINA RESULT:      -3.7      1.369      1.811
REMARK  4 active torsions:
REMARK  status: ('A' for Active; 'I' for Inactive)
REMARK    1  A    between atoms: C5_5  and  N8_8 
REMARK    2  A    between atoms: C6_6  and  C7_7 
REMARK    3  A    between atoms: C6_6  and  N8_8 
REMARK    4  A    between atoms: C7_7  and  O9_9 
ROOT
HETATM    1  C1  UNL     1     -34.369   4.172   4.292  1.00 20.00     0.013 C 
HETATM    2  C2  UNL     1     -34.107   5.268   3.877  1.00 20.00    -0.087 C 
HETATM    3  C5  UNL     1     -33.792   6.605   3.367  1.00 20.00     0.364 C 
ENDROOT
BRANCH   3   4
HETATM    4  N8  UNL     1     -32.709   7.210   4.141  1.00 20.00     0.097 N 
HETATM    5  C3  UNL     1     -33.197   7.643   5.451  1.00 20.00     0.311 C 
BRANCH   4   6
HETATM    6  C6  UNL     1     -32.129   8.339   3.414  1.00 20.00     0.299 C 
BRANCH   6   7
HETATM    7  C7  UNL     1     -32.366   8.161   1.925  1.00 20.00     0.197 C 
BRANCH   7   8
HETATM    8  O9  UNL     1     -32.303   9.428   1.282  1.00 20.00    -0.394 OA
HETATM    9  C4  UNL     1     -32.864   9.379  -0.022  1.00 20.00     0.201 C 
ENDBRANCH   7   8
ENDBRANCH   6   7
ENDBRANCH   4   6
ENDBRANCH   3   4
TORSDOF 4
ENDMDL
MODEL 5
REMARK VINA RESULT:      -3.6     11.038     11.812
REMARK  4 active torsions:
REMARK  status: ('A' for Active; 'I' for Inactive)
REMARK    1  A    between atoms: C5_5  and  N8_8 
REMARK    2  A    between atoms: C6_6  and  C7_7 
REMARK    3  A    between atoms: C6_6  and  N8_8 
REMARK    4  A    between atoms: C7_7  and  O9_9 
ROOT
HETATM    1  C1  UNL     1     -33.123  17.740  -1.513  1.00 20.00     0.013 C 
HETATM    2  C2  UNL     1     -33.668  16.984  -2.271  1.00 20.00    -0.087 C 
HETATM    3  C5  UNL     1     -34.337  16.063  -3.193  1.00 20.00     0.364 C 
ENDROOT
BRANCH   3   4
HETATM    4  N8  UNL     1     -33.397  15.565  -4.197  1.00 20.00     0.097 N 
HETATM    5  C3  UNL     1     -33.414  16.422  -5.383  1.00 20.00     0.311 C 
BRANCH   4   6
HETATM    6  C6  UNL     1     -33.721  14.185  -4.559  1.00 20.00     0.299 C 
BRANCH   6   7
HETATM    7  C7  UNL     1     -35.227  13.999  -4.567  1.00 20.00     0.197 C 
BRANCH   7   8
HETATM    8  O9  UNL     1     -35.565  12.918  -5.427  1.00 20.00    -0.394 OA
HETATM    9  C4  UNL     1     -35.319  13.239  -6.789  1.00 20.00     0.201 C 
ENDBRANCH   7   8
ENDBRANCH   6   7
ENDBRANCH   4   6
ENDBRANCH   3   4
TORSDOF 4
ENDMDL
MODEL 6
REMARK VINA RESULT:      -3.6     11.073     11.804
REMARK  4 active torsions:
REMARK  status: ('A' for Active; 'I' for Inactive)
REMARK    1  A    between atoms: C5_5  and  N8_8 
REMARK    2  A    between atoms: C6_6  and  C7_7 
REMARK    3  A    between atoms: C6_6  and  N8_8 
REMARK    4  A    between atoms: C7_7  and  O9_9 
ROOT
HETATM    1  C1  UNL     1     -35.190  16.783  -1.461  1.00 20.00     0.013 C 
HETATM    2  C2  UNL     1     -34.484  16.590  -2.413  1.00 20.00    -0.087 C 
HETATM    3  C5  UNL     1     -33.618  16.356  -3.571  1.00 20.00     0.364 C 
ENDROOT
BRANCH   3   4
HETATM    4  N8  UNL     1     -34.349  15.659  -4.629  1.00 20.00     0.097 N 
HETATM    5  C3  UNL     1     -35.590  16.365  -4.943  1.00 20.00     0.311 C 
BRANCH   4   6
HETATM    6  C6  UNL     1     -34.632  14.280  -4.232  1.00 20.00     0.299 C 
BRANCH   6   7
HETATM    7  C7  UNL     1     -35.843  13.769  -4.990  1.00 20.00     0.197 C 
BRANCH   7   8
HETATM    8  O9  UNL     1     -35.457  12.679  -5.818  1.00 20.00    -0.394 OA
HETATM    9  C4  UNL     1     -35.149  13.109  -7.136  1.00 20.00     0.201 C 
ENDBRANCH   7   8
ENDBRANCH   6   7
ENDBRANCH   4   6
ENDBRANCH   3   4
TORSDOF 4
ENDMDL
MODEL 7
REMARK VINA RESULT:      -3.4     11.194     11.668
REMARK  4 active torsions:
REMARK  status: ('A' for Active; 'I' for Inactive)
REMARK    1  A    between atoms: C5_5  and  N8_8 
REMARK    2  A    between atoms: C6_6  and  C7_7 
REMARK    3  A    between atoms: C6_6  and  N8_8 
REMARK    4  A    between atoms: C7_7  and  O9_9 
ROOT
HETATM    1  C1  UNL     1     -35.329  17.013  -1.125  1.00 20.00     0.013 C 
HETATM    2  C2  UNL     1     -34.710  16.672  -2.097  1.00 20.00    -0.087 C 
HETATM    3  C5  UNL     1     -33.953  16.259  -3.280  1.00 20.00     0.364 C 
ENDROOT
BRANCH   3   4
HETATM    4  N8  UNL     1     -34.452  14.984  -3.794  1.00 20.00     0.097 N 
HETATM    5  C3  UNL     1     -33.456  14.359  -4.664  1.00 20.00     0.311 C 
BRANCH   4   6
HETATM    6  C6  UNL     1     -35.709  15.180  -4.514  1.00 20.00     0.299 C 
BRANCH   6   7
HETATM    7  C7  UNL     1     -36.129  13.877  -5.171  1.00 20.00     0.197 C 
BRANCH   7   8
HETATM    8  O9  UNL     1     -37.505  13.637  -4.906  1.00 20.00    -0.394 OA
HETATM    9  C4  UNL     1     -38.249  14.847  -4.877  1.00 20.00     0.201 C 
ENDBRANCH   7   8
ENDBRANCH   6   7
ENDBRANCH   4   6
ENDBRANCH   3   4
TORSDOF 4
ENDMDL
MODEL 8
REMARK VINA RESULT:      -3.4      2.136      4.027
REMARK  4 active torsions:
REMARK  status: ('A' for Active; 'I' for Inactive)
REMARK    1  A    between atoms: C5_5  and  N8_8 
REMARK    2  A    between atoms: C6_6  and  C7_7 
REMARK    3  A    between atoms: C6_6  and  N8_8 
REMARK    4  A    between atoms: C7_7  and  O9_9 
ROOT
HETATM    1  C1  UNL     1     -31.387   8.597   3.286  1.00 20.00     0.013 C 
HETATM    2  C2  UNL     1     -32.187   7.822   2.838  1.00 20.00    -0.087 C 
HETATM    3  C5  UNL     1     -33.163   6.879   2.286  1.00 20.00     0.364 C 
ENDROOT
BRANCH   3   4
HETATM    4  N8  UNL     1     -33.339   5.736   3.181  1.00 20.00     0.097 N 
HETATM    5  C3  UNL     1     -33.159   4.482   2.449  1.00 20.00     0.311 C 
BRANCH   4   6
HETATM    6  C6  UNL     1     -34.659   5.776   3.808  1.00 20.00     0.299 C 
BRANCH   6   7
HETATM    7  C7  UNL     1     -34.605   5.081   5.157  1.00 20.00     0.197 C 
BRANCH   7   8
HETATM    8  O9  UNL     1     -34.706   6.051   6.192  1.00 20.00    -0.394 OA
HETATM    9  C4  UNL     1     -33.855   7.162   5.951  1.00 20.00     0.201 C 
ENDBRANCH   7   8
ENDBRANCH   6   7
ENDBRANCH   4   6
ENDBRANCH   3   4
TORSDOF 4
ENDMDL
MODEL 9
REMARK VINA RESULT:      -3.4     10.996     12.645
REMARK  4 active torsions:
REMARK  status: ('A' for Active; 'I' for Inactive)
REMARK    1  A    between atoms: C5_5  and  N8_8 
REMARK    2  A    between atoms: C6_6  and  C7_7 
REMARK    3  A    between atoms: C6_6  and  N8_8 
REMARK    4  A    between atoms: C7_7  and  O9_9 
ROOT
HETATM    1  C1  UNL     1     -33.975  16.893  -7.569  1.00 20.00     0.013 C 
HETATM    2  C2  UNL     1     -33.636  16.446  -6.507  1.00 20.00    -0.087 C 
HETATM    3  C5  UNL     1     -33.219  15.902  -5.213  1.00 20.00     0.364 C 
ENDROOT
BRANCH   3   4
HETATM    4  N8  UNL     1     -34.381  15.615  -4.374  1.00 20.00     0.097 N 
HETATM    5  C3  UNL     1     -34.226  16.234  -3.057  1.00 20.00     0.311 C 
BRANCH   4   6
HETATM    6  C6  UNL     1     -34.572  14.171  -4.240  1.00 20.00     0.299 C 
BRANCH   6   7
HETATM    7  C7  UNL     1     -35.789  13.742  -5.040  1.00 20.00     0.197 C 
BRANCH   7   8
HETATM    8  O9  UNL     1     -35.437  12.655  -5.888  1.00 20.00    -0.394 OA
HETATM    9  C4  UNL     1     -35.115  13.100  -7.198  1.00 20.00     0.201 C 
ENDBRANCH   7   8
ENDBRANCH   6   7
ENDBRANCH   4   6
ENDBRANCH   3   4
TORSDOF 4
ENDMDL
