MODEL 1
REMARK VINA RESULT:      -4.5      0.000      0.000
REMARK  0 active torsions:
REMARK  status: ('A' for Active; 'I' for Inactive)
ROOT
HETATM    1  C1  UNL     1     -32.568  18.076  -1.161  1.00 20.00     0.017 C 
HETATM    2  C2  UNL     1     -33.320  17.461  -1.865  1.00 20.00    -0.082 C 
HETATM    3  C3  UNL     1     -34.214  16.729  -2.704  1.00 20.00     0.000 C 
HETATM    4  C4  UNL     1     -35.552  16.831  -2.566  1.00 20.00    -0.041 C 
HETATM    5  C5  UNL     1     -33.615  15.848  -3.772  1.00 20.00     0.083 C 
HETATM    6  C6  UNL     1     -36.484  16.033  -3.457  1.00 20.00     0.307 C 
HETATM    7  C7  UNL     1     -34.614  15.426  -4.872  1.00 20.00     0.223 C 
HETATM    8  C8  UNL     1     -36.255  17.716  -1.570  1.00 20.00     0.046 C 
HETATM    9  C9  UNL     1     -33.937  14.382  -5.769  1.00 20.00     0.043 C 
HETATM   10  C10 UNL     1     -36.814  14.371  -5.157  1.00 20.00     0.310 C 
HETATM   11  N11 UNL     1     -35.845  14.944  -4.221  1.00 20.00     0.092 N 
ENDROOT
TORSDOF 0
ENDMDL
MODEL 2
REMARK VINA RESULT:      -4.4      4.009      6.552
REMARK  0 active torsions:
REMARK  status: ('A' for Active; 'I' for Inactive)
ROOT
HETATM    1  C1  UNL     1     -33.294  18.021  -2.606  1.00 20.00     0.017 C 
HETATM    2  C2  UNL     1     -33.307  18.176  -1.416  1.00 20.00    -0.082 C 
HETATM    3  C3  UNL     1     -33.322  18.360  -0.001  1.00 20.00     0.000 C 
HETATM    4  C4  UNL     1     -34.433  18.128   0.728  1.00 20.00    -0.041 C 
HETATM    5  C5  UNL     1     -32.043  18.806   0.665  1.00 20.00     0.083 C 
HETATM    6  C6  UNL     1     -34.432  18.344   2.229  1.00 20.00     0.307 C 
HETATM    7  C7  UNL     1     -32.023  18.589   2.194  1.00 20.00     0.223 C 
HETATM    8  C8  UNL     1     -35.745  17.634   0.175  1.00 20.00     0.046 C 
HETATM    9  C9  UNL     1     -30.768  19.263   2.763  1.00 20.00     0.043 C 
HETATM   10  C10 UNL     1     -33.319  19.098   4.218  1.00 20.00     0.310 C 
HETATM   11  N11 UNL     1     -33.283  19.108   2.754  1.00 20.00     0.092 N 
ENDROOT
TORSDOF 0
ENDMDL
MODEL 3
REMARK VINA RESULT:      -4.4      1.356      2.492
REMARK  0 active torsions:
REMARK  status: ('A' for Active; 'I' for Inactive)
ROOT
HETATM    1  C1  UNL     1     -35.581  17.400   0.013  1.00 20.00     0.017 C 
HETATM    2  C2  UNL     1     -35.216  17.092  -1.088  1.00 20.00    -0.082 C 
HETATM    3  C3  UNL     1     -34.781  16.726  -2.397  1.00 20.00     0.000 C 
HETATM    4  C4  UNL     1     -33.807  17.409  -3.033  1.00 20.00    -0.041 C 
HETATM    5  C5  UNL     1     -35.433  15.530  -3.047  1.00 20.00     0.083 C 
HETATM    6  C6  UNL     1     -33.369  17.013  -4.430  1.00 20.00     0.307 C 
HETATM    7  C7  UNL     1     -34.647  14.962  -4.249  1.00 20.00     0.223 C 
HETATM    8  C8  UNL     1     -33.056  18.583  -2.460  1.00 20.00     0.046 C 
HETATM    9  C9  UNL     1     -35.509  13.894  -4.933  1.00 20.00     0.043 C 
HETATM   10  C10 UNL     1     -33.657  15.655  -6.388  1.00 20.00     0.310 C 
HETATM   11  N11 UNL     1     -34.275  16.083  -5.132  1.00 20.00     0.092 N 
ENDROOT
TORSDOF 0
ENDMDL
MODEL 4
REMARK VINA RESULT:      -4.3      1.811      2.803
REMARK  0 active torsions:
REMARK  status: ('A' for Active; 'I' for Inactive)
ROOT
HETATM    1  C1  UNL     1     -31.663  19.191   1.083  1.00 20.00     0.017 C 
HETATM    2  C2  UNL     1     -32.457  18.699   0.329  1.00 20.00    -0.082 C 
HETATM    3  C3  UNL     1     -33.401  18.114  -0.567  1.00 20.00     0.000 C 
HETATM    4  C4  UNL     1     -34.646  17.786  -0.164  1.00 20.00    -0.041 C 
HETATM    5  C5  UNL     1     -32.972  17.891  -1.997  1.00 20.00     0.083 C 
HETATM    6  C6  UNL     1     -35.630  17.151  -1.128  1.00 20.00     0.307 C 
HETATM    7  C7  UNL     1     -34.142  17.649  -2.974  1.00 20.00     0.223 C 
HETATM    8  C8  UNL     1     -35.195  18.009   1.221  1.00 20.00     0.046 C 
HETATM    9  C9  UNL     1     -33.563  17.240  -4.334  1.00 20.00     0.043 C 
HETATM   10  C10 UNL     1     -36.111  16.213  -3.285  1.00 20.00     0.310 C 
HETATM   11  N11 UNL     1     -35.041  16.642  -2.383  1.00 20.00     0.092 N 
ENDROOT
TORSDOF 0
ENDMDL
MODEL 5
REMARK VINA RESULT:      -4.3      1.985      3.545
REMARK  0 active torsions:
REMARK  status: ('A' for Active; 'I' for Inactive)
ROOT
HETATM    1  C1  UNL     1     -35.186  18.276   2.076  1.00 20.00     0.017 C 
HETATM    2  C2  UNL     1     -34.891  18.045   0.936  1.00 20.00    -0.082 C 
HETATM    3  C3  UNL     1     -34.541  17.769  -0.420  1.00 20.00     0.000 C 
HETATM    4  C4  UNL     1     -33.332  18.102  -0.917  1.00 20.00    -0.041 C 
HETATM    5  C5  UNL     1     -35.562  17.067  -1.283  1.00 20.00     0.083 C 
HETATM    6  C6  UNL     1     -32.985  17.814  -2.366  1.00 20.00     0.307 C 
HETATM    7  C7  UNL     1     -34.977  16.451  -2.572  1.00 20.00     0.223 C 
HETATM    8  C8  UNL     1     -32.224  18.757  -0.135  1.00 20.00     0.046 C 
HETATM    9  C9  UNL     1     -36.138  15.955  -3.443  1.00 20.00     0.043 C 
HETATM   10  C10 UNL     1     -33.639  17.049  -4.544  1.00 20.00     0.310 C 
HETATM   11  N11 UNL     1     -34.130  17.463  -3.229  1.00 20.00     0.092 N 
ENDROOT
TORSDOF 0
ENDMDL
MODEL 6
REMARK VINA RESULT:      -4.3      1.748      4.231
REMARK  0 active torsions:
REMARK  status: ('A' for Active; 'I' for Inactive)
ROOT
HETATM    1  C1  UNL     1     -33.124  14.814  -4.566  1.00 20.00     0.017 C 
HETATM    2  C2  UNL     1     -33.652  15.559  -3.788  1.00 20.00    -0.082 C 
HETATM    3  C3  UNL     1     -34.281  16.446  -2.863  1.00 20.00     0.000 C 
HETATM    4  C4  UNL     1     -35.620  16.607  -2.840  1.00 20.00    -0.041 C 
HETATM    5  C5  UNL     1     -33.399  17.187  -1.887  1.00 20.00     0.083 C 
HETATM    6  C6  UNL     1     -36.267  17.566  -1.859  1.00 20.00     0.307 C 
HETATM    7  C7  UNL     1     -34.160  17.788  -0.685  1.00 20.00     0.223 C 
HETATM    8  C8  UNL     1     -36.595  15.883  -3.731  1.00 20.00     0.046 C 
HETATM    9  C9  UNL     1     -33.192  18.675   0.108  1.00 20.00     0.043 C 
HETATM   10  C10 UNL     1     -36.063  19.250  -0.161  1.00 20.00     0.310 C 
HETATM   11  N11 UNL     1     -35.343  18.505  -1.195  1.00 20.00     0.092 N 
ENDROOT
TORSDOF 0
ENDMDL
MODEL 7
REMARK VINA RESULT:      -4.3      3.532      6.208
REMARK  0 active torsions:
REMARK  status: ('A' for Active; 'I' for Inactive)
ROOT
HETATM    1  C1  UNL     1     -34.009  16.817  -2.719  1.00 20.00     0.017 C 
HETATM    2  C2  UNL     1     -34.176  17.272  -1.621  1.00 20.00    -0.082 C 
HETATM    3  C3  UNL     1     -34.375  17.814  -0.316  1.00 20.00     0.000 C 
HETATM    4  C4  UNL     1     -33.376  18.421   0.356  1.00 20.00    -0.041 C 
HETATM    5  C5  UNL     1     -35.754  17.706   0.288  1.00 20.00     0.083 C 
HETATM    6  C6  UNL     1     -33.604  18.976   1.749  1.00 20.00     0.307 C 
HETATM    7  C7  UNL     1     -35.990  18.651   1.487  1.00 20.00     0.223 C 
HETATM    8  C8  UNL     1     -31.978  18.627  -0.171  1.00 20.00     0.046 C 
HETATM    9  C9  UNL     1     -37.340  18.298   2.125  1.00 20.00     0.043 C 
HETATM   10  C10 UNL     1     -35.025  19.262   3.662  1.00 20.00     0.310 C 
HETATM   11  N11 UNL     1     -34.846  18.528   2.408  1.00 20.00     0.092 N 
ENDROOT
TORSDOF 0
ENDMDL
MODEL 8
REMARK VINA RESULT:      -4.2      1.307      3.035
REMARK  0 active torsions:
REMARK  status: ('A' for Active; 'I' for Inactive)
ROOT
HETATM    1  C1  UNL     1     -34.543  17.004  -1.390  1.00 20.00     0.017 C 
HETATM    2  C2  UNL     1     -34.888  16.459  -2.402  1.00 20.00    -0.082 C 
HETATM    3  C3  UNL     1     -35.297  15.810  -3.605  1.00 20.00     0.000 C 
HETATM    4  C4  UNL     1     -34.400  15.272  -4.457  1.00 20.00    -0.041 C 
HETATM    5  C5  UNL     1     -36.777  15.723  -3.891  1.00 20.00     0.083 C 
HETATM    6  C6  UNL     1     -34.855  14.601  -5.739  1.00 20.00     0.307 C 
HETATM    7  C7  UNL     1     -37.149  14.678  -4.964  1.00 20.00     0.223 C 
HETATM    8  C8  UNL     1     -32.907  15.258  -4.248  1.00 20.00     0.046 C 
HETATM    9  C9  UNL     1     -38.638  14.835  -5.300  1.00 20.00     0.043 C 
HETATM   10  C10 UNL     1     -36.610  14.029  -7.272  1.00 20.00     0.310 C 
HETATM   11  N11 UNL     1     -36.256  14.863  -6.123  1.00 20.00     0.092 N 
ENDROOT
TORSDOF 0
ENDMDL
MODEL 9
REMARK VINA RESULT:      -4.1      2.669      4.195
REMARK  0 active torsions:
REMARK  status: ('A' for Active; 'I' for Inactive)
ROOT
HETATM    1  C1  UNL     1     -30.740  19.255   2.090  1.00 20.00     0.017 C 
HETATM    2  C2  UNL     1     -31.659  18.911   1.400  1.00 20.00    -0.082 C 
HETATM    3  C3  UNL     1     -32.753  18.503   0.579  1.00 20.00     0.000 C 
HETATM    4  C4  UNL     1     -33.981  18.292   1.094  1.00 20.00    -0.041 C 
HETATM    5  C5  UNL     1     -32.499  18.332  -0.899  1.00 20.00     0.083 C 
HETATM    6  C6  UNL     1     -35.127  17.843   0.207  1.00 20.00     0.307 C 
HETATM    7  C7  UNL     1     -33.783  18.295  -1.757  1.00 20.00     0.223 C 
HETATM    8  C8  UNL     1     -34.357  18.480   2.542  1.00 20.00     0.046 C 
HETATM    9  C9  UNL     1     -33.397  17.918  -3.193  1.00 20.00     0.043 C 
HETATM   10  C10 UNL     1     -35.933  17.120  -1.935  1.00 20.00     0.310 C 
HETATM   11  N11 UNL     1     -34.733  17.359  -1.130  1.00 20.00     0.092 N 
ENDROOT
TORSDOF 0
ENDMDL
