MODEL 1
REMARK VINA RESULT:      -5.1      0.000      0.000
REMARK  1 active torsions:
REMARK  status: ('A' for Active; 'I' for Inactive)
REMARK    1  A    between atoms: C1_1  and  C7_7 
ROOT
HETATM    1  C2  UNL     1     -32.857   7.600   5.411  1.00 20.00     0.004 C 
HETATM    2  C3  UNL     1     -32.194   8.117   4.135  1.00 20.00     0.037 C 
HETATM    3  C4  UNL     1     -34.303   7.166   5.176  1.00 20.00     0.016 C 
HETATM    4  C5  UNL     1     -33.322   6.145   3.032  1.00 20.00     0.053 C 
HETATM    5  C6  UNL     1     -32.830   7.575   2.859  1.00 20.00     0.171 C 
HETATM    6  C7  UNL     1     -34.409   6.037   4.123  1.00 20.00     0.012 C 
HETATM    7  C8  UNL     1     -35.809   6.058   3.494  1.00 20.00     0.023 C 
HETATM    8  F10 UNL     1     -31.901   7.608   1.865  1.00 20.00    -0.249 F 
ENDROOT
BRANCH   6   9
HETATM    9  C1  UNL     1     -34.248   4.717   4.839  1.00 20.00     0.240 C 
HETATM   10  O9  UNL     1     -34.293   3.630   4.272  1.00 20.00    -0.306 OA
ENDBRANCH   6   9
TORSDOF 1
ENDMDL
MODEL 2
REMARK VINA RESULT:      -4.7      1.174      1.484
REMARK  1 active torsions:
REMARK  status: ('A' for Active; 'I' for Inactive)
REMARK    1  A    between atoms: C1_1  and  C7_7 
ROOT
HETATM    1  C2  UNL     1     -34.111   6.586   5.733  1.00 20.00     0.004 C 
HETATM    2  C3  UNL     1     -33.122   7.728   5.502  1.00 20.00     0.037 C 
HETATM    3  C4  UNL     1     -34.895   6.236   4.470  1.00 20.00     0.016 C 
HETATM    4  C5  UNL     1     -32.606   6.529   3.340  1.00 20.00     0.053 C 
HETATM    5  C6  UNL     1     -32.696   7.875   4.045  1.00 20.00     0.171 C 
HETATM    6  C7  UNL     1     -33.969   5.803   3.309  1.00 20.00     0.012 C 
HETATM    7  C8  UNL     1     -34.680   6.047   1.971  1.00 20.00     0.023 C 
HETATM    8  F10 UNL     1     -31.476   8.476   4.010  1.00 20.00    -0.249 F 
ENDROOT
BRANCH   6   9
HETATM    9  C1  UNL     1     -33.729   4.317   3.436  1.00 20.00     0.240 C 
HETATM   10  O9  UNL     1     -34.311   3.606   4.249  1.00 20.00    -0.306 OA
ENDBRANCH   6   9
TORSDOF 1
ENDMDL
MODEL 3
REMARK VINA RESULT:      -4.6      2.773      3.895
REMARK  1 active torsions:
REMARK  status: ('A' for Active; 'I' for Inactive)
REMARK    1  A    between atoms: C1_1  and  C7_7 
ROOT
HETATM    1  C2  UNL     1     -33.319   4.696   3.079  1.00 20.00     0.004 C 
HETATM    2  C3  UNL     1     -34.222   4.389   4.272  1.00 20.00     0.037 C 
HETATM    3  C4  UNL     1     -33.605   6.069   2.474  1.00 20.00     0.016 C 
HETATM    4  C5  UNL     1     -33.755   6.779   4.939  1.00 20.00     0.053 C 
HETATM    5  C6  UNL     1     -34.762   5.638   4.960  1.00 20.00     0.171 C 
HETATM    6  C7  UNL     1     -33.402   7.210   3.498  1.00 20.00     0.012 C 
HETATM    7  C8  UNL     1     -34.241   8.426   3.079  1.00 20.00     0.023 C 
HETATM    8  F10 UNL     1     -35.055   5.329   6.252  1.00 20.00    -0.249 F 
ENDROOT
BRANCH   6   9
HETATM    9  C1  UNL     1     -31.949   7.620   3.457  1.00 20.00     0.240 C 
HETATM   10  O9  UNL     1     -31.497   8.425   2.648  1.00 20.00    -0.306 OA
ENDBRANCH   6   9
TORSDOF 1
ENDMDL
MODEL 4
REMARK VINA RESULT:      -4.3      1.985      3.047
REMARK  1 active torsions:
REMARK  status: ('A' for Active; 'I' for Inactive)
REMARK    1  A    between atoms: C1_1  and  C7_7 
ROOT
HETATM    1  C2  UNL     1     -34.899   5.178   4.846  1.00 20.00     0.004 C 
HETATM    2  C3  UNL     1     -34.650   6.104   6.036  1.00 20.00     0.037 C 
HETATM    3  C4  UNL     1     -34.880   5.928   3.516  1.00 20.00     0.016 C 
HETATM    4  C5  UNL     1     -32.861   7.117   4.569  1.00 20.00     0.053 C 
HETATM    5  C6  UNL     1     -33.884   7.370   5.667  1.00 20.00     0.171 C 
HETATM    6  C7  UNL     1     -33.526   6.632   3.262  1.00 20.00     0.012 C 
HETATM    7  C8  UNL     1     -33.735   7.806   2.296  1.00 20.00     0.023 C 
HETATM    8  F10 UNL     1     -33.241   7.825   6.777  1.00 20.00    -0.249 F 
ENDROOT
BRANCH   6   9
HETATM    9  C1  UNL     1     -32.606   5.642   2.589  1.00 20.00     0.240 C 
HETATM   10  O9  UNL     1     -32.924   4.484   2.341  1.00 20.00    -0.306 OA
ENDBRANCH   6   9
TORSDOF 1
ENDMDL
MODEL 5
REMARK VINA RESULT:      -4.3      2.550      3.725
REMARK  1 active torsions:
REMARK  status: ('A' for Active; 'I' for Inactive)
REMARK    1  A    between atoms: C1_1  and  C7_7 
ROOT
HETATM    1  C2  UNL     1     -34.724   6.391   4.207  1.00 20.00     0.004 C 
HETATM    2  C3  UNL     1     -34.258   5.029   3.696  1.00 20.00     0.037 C 
HETATM    3  C4  UNL     1     -33.559   7.348   4.449  1.00 20.00     0.016 C 
HETATM    4  C5  UNL     1     -32.703   6.374   2.231  1.00 20.00     0.053 C 
HETATM    5  C6  UNL     1     -32.904   5.075   2.997  1.00 20.00     0.171 C 
HETATM    6  C7  UNL     1     -32.739   7.606   3.162  1.00 20.00     0.012 C 
HETATM    7  C8  UNL     1     -31.315   8.035   3.543  1.00 20.00     0.023 C 
HETATM    8  F10 UNL     1     -32.829   4.031   2.128  1.00 20.00    -0.249 F 
ENDROOT
BRANCH   6   9
HETATM    9  C1  UNL     1     -33.382   8.755   2.423  1.00 20.00     0.240 C 
HETATM   10  O9  UNL     1     -32.805   9.413   1.564  1.00 20.00    -0.306 OA
ENDBRANCH   6   9
TORSDOF 1
ENDMDL
MODEL 6
REMARK VINA RESULT:      -4.2      2.689      3.630
REMARK  1 active torsions:
REMARK  status: ('A' for Active; 'I' for Inactive)
REMARK    1  A    between atoms: C1_1  and  C7_7 
ROOT
HETATM    1  C2  UNL     1     -34.013   7.304   5.785  1.00 20.00     0.004 C 
HETATM    2  C3  UNL     1     -34.495   5.854   5.761  1.00 20.00     0.037 C 
HETATM    3  C4  UNL     1     -32.819   7.532   4.860  1.00 20.00     0.016 C 
HETATM    4  C5  UNL     1     -34.164   6.035   3.264  1.00 20.00     0.053 C 
HETATM    5  C6  UNL     1     -34.131   5.117   4.476  1.00 20.00     0.171 C 
HETATM    6  C7  UNL     1     -33.149   7.192   3.387  1.00 20.00     0.012 C 
HETATM    7  C8  UNL     1     -31.852   6.853   2.640  1.00 20.00     0.023 C 
HETATM    8  F10 UNL     1     -35.021   4.104   4.292  1.00 20.00    -0.249 F 
ENDROOT
BRANCH   6   9
HETATM    9  C1  UNL     1     -33.738   8.425   2.746  1.00 20.00     0.240 C 
HETATM   10  O9  UNL     1     -33.147   9.100   1.908  1.00 20.00    -0.306 OA
ENDBRANCH   6   9
TORSDOF 1
ENDMDL
MODEL 7
REMARK VINA RESULT:      -4.1     11.827     12.919
REMARK  1 active torsions:
REMARK  status: ('A' for Active; 'I' for Inactive)
REMARK    1  A    between atoms: C1_1  and  C7_7 
ROOT
HETATM    1  C2  UNL     1     -34.354  14.113  -4.037  1.00 20.00     0.004 C 
HETATM    2  C3  UNL     1     -33.783  15.527  -3.941  1.00 20.00     0.037 C 
HETATM    3  C4  UNL     1     -35.593  14.049  -4.928  1.00 20.00     0.016 C 
HETATM    4  C5  UNL     1     -34.216  15.616  -6.427  1.00 20.00     0.053 C 
HETATM    5  C6  UNL     1     -34.147  16.409  -5.131  1.00 20.00     0.171 C 
HETATM    6  C7  UNL     1     -35.297  14.515  -6.373  1.00 20.00     0.012 C 
HETATM    7  C8  UNL     1     -36.597  15.003  -7.027  1.00 20.00     0.023 C 
HETATM    8  F10 UNL     1     -33.202  17.381  -5.254  1.00 20.00    -0.249 F 
ENDROOT
BRANCH   6   9
HETATM    9  C1  UNL     1     -34.811  13.319  -7.157  1.00 20.00     0.240 C 
HETATM   10  O9  UNL     1     -35.089  12.160  -6.864  1.00 20.00    -0.306 OA
ENDBRANCH   6   9
TORSDOF 1
ENDMDL
MODEL 8
REMARK VINA RESULT:      -4.1     11.916     12.736
REMARK  1 active torsions:
REMARK  status: ('A' for Active; 'I' for Inactive)
REMARK    1  A    between atoms: C1_1  and  C7_7 
ROOT
HETATM    1  C2  UNL     1     -33.193  14.601  -4.465  1.00 20.00     0.004 C 
HETATM    2  C3  UNL     1     -32.867  15.757  -5.409  1.00 20.00     0.037 C 
HETATM    3  C4  UNL     1     -34.583  14.732  -3.847  1.00 20.00     0.016 C 
HETATM    4  C5  UNL     1     -35.236  15.444  -6.227  1.00 20.00     0.053 C 
HETATM    5  C6  UNL     1     -34.106  16.435  -5.986  1.00 20.00     0.171 C 
HETATM    6  C7  UNL     1     -35.697  14.766  -4.919  1.00 20.00     0.012 C 
HETATM    7  C8  UNL     1     -36.932  15.478  -4.348  1.00 20.00     0.023 C 
HETATM    8  F10 UNL     1     -33.769  17.020  -7.167  1.00 20.00    -0.249 F 
ENDROOT
BRANCH   6   9
HETATM    9  C1  UNL     1     -36.092  13.340  -5.224  1.00 20.00     0.240 C 
HETATM   10  O9  UNL     1     -35.499  12.634  -6.033  1.00 20.00    -0.306 OA
ENDBRANCH   6   9
TORSDOF 1
ENDMDL
MODEL 9
REMARK VINA RESULT:      -4.0     11.834     12.711
REMARK  1 active torsions:
REMARK  status: ('A' for Active; 'I' for Inactive)
REMARK    1  A    between atoms: C1_1  and  C7_7 
ROOT
HETATM    1  C2  UNL     1     -37.170  15.888  -4.613  1.00 20.00     0.004 C 
HETATM    2  C3  UNL     1     -36.387  16.398  -3.404  1.00 20.00     0.037 C 
HETATM    3  C4  UNL     1     -36.309  15.819  -5.872  1.00 20.00     0.016 C 
HETATM    4  C5  UNL     1     -34.554  14.880  -4.249  1.00 20.00     0.053 C 
HETATM    5  C6  UNL     1     -34.882  16.174  -3.519  1.00 20.00     0.171 C 
HETATM    6  C7  UNL     1     -35.091  14.882  -5.697  1.00 20.00     0.012 C 
HETATM    7  C8  UNL     1     -33.987  15.293  -6.681  1.00 20.00     0.023 C 
HETATM    8  F10 UNL     1     -34.356  16.123  -2.265  1.00 20.00    -0.249 F 
ENDROOT
BRANCH   6   9
HETATM    9  C1  UNL     1     -35.526  13.482  -6.055  1.00 20.00     0.240 C 
HETATM   10  O9  UNL     1     -35.901  12.658  -5.226  1.00 20.00    -0.306 OA
ENDBRANCH   6   9
TORSDOF 1
ENDMDL
