MODEL 1
REMARK VINA RESULT:      -5.6      0.000      0.000
REMARK  1 active torsions:
REMARK  status: ('A' for Active; 'I' for Inactive)
REMARK    1  A    between atoms: C3_3  and  C7_7 
ROOT
HETATM    1  C1  UNL     1     -32.598   7.619   4.277  1.00 20.00    -0.020 C 
HETATM    2  C2  UNL     1     -33.631   7.256   5.056  1.00 20.00    -0.086 C 
HETATM    3  C4  UNL     1     -34.762   6.393   4.548  1.00 20.00     0.049 C 
HETATM    4  C5  UNL     1     -33.775   6.695   2.230  1.00 20.00     0.023 C 
HETATM    5  C6  UNL     1     -32.465   7.242   2.824  1.00 20.00     0.005 C 
HETATM    6  C7  UNL     1     -34.502   5.746   3.182  1.00 20.00     0.091 C 
HETATM    7  C8  UNL     1     -33.726   7.681   6.492  1.00 20.00     0.043 C 
HETATM    8  C9  UNL     1     -31.976   8.433   1.998  1.00 20.00     0.014 C 
ENDROOT
BRANCH   6   9
HETATM    9  C3  UNL     1     -33.731   4.465   3.329  1.00 20.00     0.177 C 
HETATM   10  O10 UNL     1     -32.805   4.294   2.489  1.00 20.00    -0.648 OA
HETATM   11  O11 UNL     1     -34.111   3.725   4.280  1.00 20.00    -0.648 OA
ENDBRANCH   6   9
TORSDOF 1
ENDMDL
MODEL 2
REMARK VINA RESULT:      -4.7      1.739      3.104
REMARK  1 active torsions:
REMARK  status: ('A' for Active; 'I' for Inactive)
REMARK    1  A    between atoms: C3_3  and  C7_7 
ROOT
HETATM    1  C1  UNL     1     -32.320   6.281   2.678  1.00 20.00    -0.020 C 
HETATM    2  C2  UNL     1     -32.700   7.552   2.885  1.00 20.00    -0.086 C 
HETATM    3  C4  UNL     1     -33.994   7.906   3.578  1.00 20.00     0.049 C 
HETATM    4  C5  UNL     1     -34.591   5.444   3.433  1.00 20.00     0.023 C 
HETATM    5  C6  UNL     1     -33.138   5.080   3.078  1.00 20.00     0.005 C 
HETATM    6  C7  UNL     1     -34.692   6.724   4.263  1.00 20.00     0.091 C 
HETATM    7  C8  UNL     1     -31.856   8.712   2.443  1.00 20.00     0.043 C 
HETATM    8  C9  UNL     1     -33.122   4.021   1.974  1.00 20.00     0.014 C 
ENDROOT
BRANCH   6   9
HETATM    9  C3  UNL     1     -34.138   6.495   5.641  1.00 20.00     0.177 C 
HETATM   10  O10 UNL     1     -33.425   7.431   6.098  1.00 20.00    -0.648 OA
HETATM   11  O11 UNL     1     -34.462   5.392   6.165  1.00 20.00    -0.648 OA
ENDBRANCH   6   9
TORSDOF 1
ENDMDL
MODEL 3
REMARK VINA RESULT:      -4.7     11.368     12.562
REMARK  1 active torsions:
REMARK  status: ('A' for Active; 'I' for Inactive)
REMARK    1  A    between atoms: C3_3  and  C7_7 
ROOT
HETATM    1  C1  UNL     1     -33.517  16.732  -4.732  1.00 20.00    -0.020 C 
HETATM    2  C2  UNL     1     -34.101  16.553  -3.536  1.00 20.00    -0.086 C 
HETATM    3  C4  UNL     1     -35.405  15.809  -3.377  1.00 20.00     0.049 C 
HETATM    4  C5  UNL     1     -35.575  15.831  -5.908  1.00 20.00     0.023 C 
HETATM    5  C6  UNL     1     -34.098  16.246  -6.035  1.00 20.00     0.005 C 
HETATM    6  C7  UNL     1     -35.857  15.045  -4.628  1.00 20.00     0.091 C 
HETATM    7  C8  UNL     1     -33.489  17.081  -2.271  1.00 20.00     0.043 C 
HETATM    8  C9  UNL     1     -33.948  17.309  -7.125  1.00 20.00     0.014 C 
ENDROOT
BRANCH   6   9
HETATM    9  C3  UNL     1     -35.213  13.690  -4.696  1.00 20.00     0.177 C 
HETATM   10  O10 UNL     1     -34.241  13.515  -3.909  1.00 20.00    -0.648 OA
HETATM   11  O11 UNL     1     -35.731  12.899  -5.533  1.00 20.00    -0.648 OA
ENDBRANCH   6   9
TORSDOF 1
ENDMDL
MODEL 4
REMARK VINA RESULT:      -4.7     11.492     13.117
REMARK  1 active torsions:
REMARK  status: ('A' for Active; 'I' for Inactive)
REMARK    1  A    between atoms: C3_3  and  C7_7 
ROOT
HETATM    1  C1  UNL     1     -34.890  16.893  -4.900  1.00 20.00    -0.020 C 
HETATM    2  C2  UNL     1     -34.283  16.696  -6.082  1.00 20.00    -0.086 C 
HETATM    3  C4  UNL     1     -33.722  15.354  -6.487  1.00 20.00     0.049 C 
HETATM    4  C5  UNL     1     -34.165  14.596  -4.107  1.00 20.00     0.023 C 
HETATM    5  C6  UNL     1     -35.052  15.828  -3.847  1.00 20.00     0.005 C 
HETATM    6  C7  UNL     1     -34.140  14.190  -5.580  1.00 20.00     0.091 C 
HETATM    7  C8  UNL     1     -34.128  17.802  -7.085  1.00 20.00     0.043 C 
HETATM    8  C9  UNL     1     -34.762  16.392  -2.455  1.00 20.00     0.014 C 
ENDROOT
BRANCH   6   9
HETATM    9  C3  UNL     1     -35.476  13.638  -5.991  1.00 20.00     0.177 C 
HETATM   10  O10 UNL     1     -35.953  14.117  -7.056  1.00 20.00    -0.648 OA
HETATM   11  O11 UNL     1     -35.948  12.761  -5.213  1.00 20.00    -0.648 OA
ENDBRANCH   6   9
TORSDOF 1
ENDMDL
MODEL 5
REMARK VINA RESULT:      -4.7     11.532     12.219
REMARK  1 active torsions:
REMARK  status: ('A' for Active; 'I' for Inactive)
REMARK    1  A    between atoms: C3_3  and  C7_7 
ROOT
HETATM    1  C1  UNL     1     -34.401  15.488  -3.335  1.00 20.00    -0.020 C 
HETATM    2  C2  UNL     1     -35.483  16.252  -3.557  1.00 20.00    -0.086 C 
HETATM    3  C4  UNL     1     -36.285  16.164  -4.833  1.00 20.00     0.049 C 
HETATM    4  C5  UNL     1     -34.439  14.679  -5.738  1.00 20.00     0.023 C 
HETATM    5  C6  UNL     1     -33.852  14.494  -4.326  1.00 20.00     0.005 C 
HETATM    6  C7  UNL     1     -35.940  14.961  -5.720  1.00 20.00     0.091 C 
HETATM    7  C8  UNL     1     -35.971  17.245  -2.542  1.00 20.00     0.043 C 
HETATM    8  C9  UNL     1     -32.326  14.571  -4.382  1.00 20.00     0.014 C 
ENDROOT
BRANCH   6   9
HETATM    9  C3  UNL     1     -36.694  13.737  -5.285  1.00 20.00     0.177 C 
HETATM   10  O10 UNL     1     -37.887  13.938  -4.924  1.00 20.00    -0.648 OA
HETATM   11  O11 UNL     1     -36.034  12.661  -5.340  1.00 20.00    -0.648 OA
ENDBRANCH   6   9
TORSDOF 1
ENDMDL
MODEL 6
REMARK VINA RESULT:      -4.6     11.825     12.763
REMARK  1 active torsions:
REMARK  status: ('A' for Active; 'I' for Inactive)
REMARK    1  A    between atoms: C3_3  and  C7_7 
ROOT
HETATM    1  C1  UNL     1     -36.195  16.562  -3.222  1.00 20.00    -0.020 C 
HETATM    2  C2  UNL     1     -37.164  16.827  -4.114  1.00 20.00    -0.086 C 
HETATM    3  C4  UNL     1     -37.171  16.230  -5.501  1.00 20.00     0.049 C 
HETATM    4  C5  UNL     1     -34.830  15.387  -5.007  1.00 20.00     0.023 C 
HETATM    5  C6  UNL     1     -35.007  15.679  -3.506  1.00 20.00     0.005 C 
HETATM    6  C7  UNL     1     -36.156  15.100  -5.712  1.00 20.00     0.091 C 
HETATM    7  C8  UNL     1     -38.313  17.735  -3.785  1.00 20.00     0.043 C 
HETATM    8  C9  UNL     1     -33.726  16.296  -2.942  1.00 20.00     0.014 C 
ENDROOT
BRANCH   6   9
HETATM    9  C3  UNL     1     -36.713  13.782  -5.255  1.00 20.00     0.177 C 
HETATM   10  O10 UNL     1     -37.942  13.787  -4.965  1.00 20.00    -0.648 OA
HETATM   11  O11 UNL     1     -35.876  12.836  -5.222  1.00 20.00    -0.648 OA
ENDBRANCH   6   9
TORSDOF 1
ENDMDL
MODEL 7
REMARK VINA RESULT:      -4.5     11.419     12.337
REMARK  1 active torsions:
REMARK  status: ('A' for Active; 'I' for Inactive)
REMARK    1  A    between atoms: C3_3  and  C7_7 
ROOT
HETATM    1  C1  UNL     1     -35.867  16.520  -2.683  1.00 20.00    -0.020 C 
HETATM    2  C2  UNL     1     -36.397  16.364  -3.907  1.00 20.00    -0.086 C 
HETATM    3  C4  UNL     1     -35.555  16.041  -5.117  1.00 20.00     0.049 C 
HETATM    4  C5  UNL     1     -33.526  16.468  -3.656  1.00 20.00     0.023 C 
HETATM    5  C6  UNL     1     -34.393  16.423  -2.385  1.00 20.00     0.005 C 
HETATM    6  C7  UNL     1     -34.111  15.636  -4.797  1.00 20.00     0.091 C 
HETATM    7  C8  UNL     1     -37.873  16.496  -4.151  1.00 20.00     0.043 C 
HETATM    8  C9  UNL     1     -33.961  17.530  -1.421  1.00 20.00     0.014 C 
ENDROOT
BRANCH   6   9
HETATM    9  C3  UNL     1     -34.020  14.172  -4.473  1.00 20.00     0.177 C 
HETATM   10  O10 UNL     1     -32.867  13.758  -4.168  1.00 20.00    -0.648 OA
HETATM   11  O11 UNL     1     -35.114  13.545  -4.546  1.00 20.00    -0.648 OA
ENDBRANCH   6   9
TORSDOF 1
ENDMDL
MODEL 8
REMARK VINA RESULT:      -4.5     11.279     12.768
REMARK  1 active torsions:
REMARK  status: ('A' for Active; 'I' for Inactive)
REMARK    1  A    between atoms: C3_3  and  C7_7 
ROOT
HETATM    1  C1  UNL     1     -33.349  15.432  -5.854  1.00 20.00    -0.020 C 
HETATM    2  C2  UNL     1     -33.363  14.736  -4.705  1.00 20.00    -0.086 C 
HETATM    3  C4  UNL     1     -34.618  14.558  -3.885  1.00 20.00     0.049 C 
HETATM    4  C5  UNL     1     -35.707  16.256  -5.422  1.00 20.00     0.023 C 
HETATM    5  C6  UNL     1     -34.553  16.129  -6.433  1.00 20.00     0.005 C 
HETATM    6  C7  UNL     1     -35.908  14.987  -4.595  1.00 20.00     0.091 C 
HETATM    7  C8  UNL     1     -32.126  14.082  -4.162  1.00 20.00     0.043 C 
HETATM    8  C9  UNL     1     -34.174  17.512  -6.967  1.00 20.00     0.014 C 
ENDROOT
BRANCH   6   9
HETATM    9  C3  UNL     1     -36.442  13.881  -5.460  1.00 20.00     0.177 C 
HETATM   10  O10 UNL     1     -37.327  14.225  -6.291  1.00 20.00    -0.648 OA
HETATM   11  O11 UNL     1     -35.931  12.746  -5.243  1.00 20.00    -0.648 OA
ENDBRANCH   6   9
TORSDOF 1
ENDMDL
MODEL 9
REMARK VINA RESULT:      -4.4     12.074     12.771
REMARK  1 active torsions:
REMARK  status: ('A' for Active; 'I' for Inactive)
REMARK    1  A    between atoms: C3_3  and  C7_7 
ROOT
HETATM    1  C1  UNL     1     -36.332  15.898  -3.945  1.00 20.00    -0.020 C 
HETATM    2  C2  UNL     1     -35.133  15.803  -3.346  1.00 20.00    -0.086 C 
HETATM    3  C4  UNL     1     -34.063  14.852  -3.826  1.00 20.00     0.049 C 
HETATM    4  C5  UNL     1     -35.820  13.860  -5.364  1.00 20.00     0.023 C 
HETATM    5  C6  UNL     1     -36.753  15.061  -5.124  1.00 20.00     0.005 C 
HETATM    6  C7  UNL     1     -34.344  14.218  -5.194  1.00 20.00     0.091 C 
HETATM    7  C8  UNL     1     -34.775  16.645  -2.156  1.00 20.00     0.043 C 
HETATM    8  C9  UNL     1     -38.194  14.575  -4.958  1.00 20.00     0.014 C 
ENDROOT
BRANCH   6   9
HETATM    9  C3  UNL     1     -33.896  15.119  -6.309  1.00 20.00     0.177 C 
HETATM   10  O10 UNL     1     -33.176  16.095  -5.958  1.00 20.00    -0.648 OA
HETATM   11  O11 UNL     1     -34.299  14.781  -7.457  1.00 20.00    -0.648 OA
ENDBRANCH   6   9
TORSDOF 1
ENDMDL
