MODEL 1
REMARK VINA RESULT:      -5.0      0.000      0.000
REMARK  1 active torsions:
REMARK  status: ('A' for Active; 'I' for Inactive)
REMARK    1  A    between atoms: C1_1  and  C8_8 
ROOT
HETATM    1  C2  UNL     1     -35.491  15.755  -5.206  1.00 20.00     0.013 A 
HETATM    2  C3  UNL     1     -33.433  15.226  -5.632  1.00 20.00     0.013 A 
HETATM    3  C4  UNL     1     -34.572  14.073  -4.195  1.00 20.00     0.013 A 
HETATM    4  C5  UNL     1     -34.152  16.504  -5.183  1.00 20.00     0.006 A 
HETATM    5  C6  UNL     1     -35.295  15.347  -3.741  1.00 20.00     0.006 A 
HETATM    6  C7  UNL     1     -33.231  14.817  -4.167  1.00 20.00     0.006 A 
HETATM    7  C8  UNL     1     -34.771  14.479  -5.660  1.00 20.00     0.033 A 
HETATM    8  C9  UNL     1     -33.949  16.103  -3.706  1.00 20.00    -0.031 A 
HETATM    9  C11 UNL     1     -33.492  17.008  -2.619  1.00 20.00     0.016 C 
ENDROOT
BRANCH   7  10
HETATM   10  C1  UNL     1     -35.228  13.570  -6.757  1.00 20.00     0.133 C 
HETATM   11  C10 UNL     1     -35.941  14.213  -7.916  1.00 20.00     0.091 C 
HETATM   12  O12 UNL     1     -35.030  12.356  -6.715  1.00 20.00    -0.297 OA
ENDBRANCH   7  10
TORSDOF 1
ENDMDL
MODEL 2
REMARK VINA RESULT:      -4.9     10.269     11.607
REMARK  1 active torsions:
REMARK  status: ('A' for Active; 'I' for Inactive)
REMARK    1  A    between atoms: C1_1  and  C8_8 
ROOT
HETATM    1  C2  UNL     1     -34.081   7.939   3.415  1.00 20.00     0.013 A 
HETATM    2  C3  UNL     1     -32.178   6.908   3.510  1.00 20.00     0.013 A 
HETATM    3  C4  UNL     1     -33.623   6.376   1.986  1.00 20.00     0.013 A 
HETATM    4  C5  UNL     1     -33.316   7.173   4.503  1.00 20.00     0.006 A 
HETATM    5  C6  UNL     1     -34.766   6.640   2.975  1.00 20.00     0.006 A 
HETATM    6  C7  UNL     1     -32.858   5.605   3.069  1.00 20.00     0.006 A 
HETATM    7  C8  UNL     1     -32.940   7.677   2.425  1.00 20.00     0.033 A 
HETATM    8  C9  UNL     1     -34.005   5.862   4.070  1.00 20.00    -0.031 A 
HETATM    9  C11 UNL     1     -34.597   4.853   4.985  1.00 20.00     0.016 C 
ENDROOT
BRANCH   7  10
HETATM   10  C1  UNL     1     -32.340   8.693   1.505  1.00 20.00     0.133 C 
HETATM   11  C10 UNL     1     -33.102   9.979   1.329  1.00 20.00     0.091 C 
HETATM   12  O12 UNL     1     -31.276   8.490   0.923  1.00 20.00    -0.297 OA
ENDBRANCH   7  10
TORSDOF 1
ENDMDL
MODEL 3
REMARK VINA RESULT:      -4.8      2.115      4.087
REMARK  1 active torsions:
REMARK  status: ('A' for Active; 'I' for Inactive)
REMARK    1  A    between atoms: C1_1  and  C8_8 
ROOT
HETATM    1  C2  UNL     1     -34.062  16.692  -4.873  1.00 20.00     0.013 A 
HETATM    2  C3  UNL     1     -35.530  15.278  -4.138  1.00 20.00     0.013 A 
HETATM    3  C4  UNL     1     -33.417  14.873  -3.889  1.00 20.00     0.013 A 
HETATM    4  C5  UNL     1     -35.248  15.941  -5.492  1.00 20.00     0.006 A 
HETATM    5  C6  UNL     1     -33.127  15.534  -5.242  1.00 20.00     0.006 A 
HETATM    6  C7  UNL     1     -34.599  14.116  -4.506  1.00 20.00     0.006 A 
HETATM    7  C8  UNL     1     -34.349  16.033  -3.518  1.00 20.00     0.033 A 
HETATM    8  C9  UNL     1     -34.313  14.773  -5.873  1.00 20.00    -0.031 A 
HETATM    9  C11 UNL     1     -34.294  14.072  -7.183  1.00 20.00     0.016 C 
ENDROOT
BRANCH   7  10
HETATM   10  C1  UNL     1     -34.372  16.738  -2.199  1.00 20.00     0.133 C 
HETATM   11  C10 UNL     1     -33.154  17.547  -1.842  1.00 20.00     0.091 C 
HETATM   12  O12 UNL     1     -35.340  16.663  -1.443  1.00 20.00    -0.297 OA
ENDBRANCH   7  10
TORSDOF 1
ENDMDL
MODEL 4
REMARK VINA RESULT:      -4.8      2.075      4.059
REMARK  1 active torsions:
REMARK  status: ('A' for Active; 'I' for Inactive)
REMARK    1  A    between atoms: C1_1  and  C8_8 
ROOT
HETATM    1  C2  UNL     1     -35.705  15.224  -4.243  1.00 20.00     0.013 A 
HETATM    2  C3  UNL     1     -33.630  14.704  -3.900  1.00 20.00     0.013 A 
HETATM    3  C4  UNL     1     -34.128  16.536  -4.942  1.00 20.00     0.013 A 
HETATM    4  C5  UNL     1     -34.828  14.002  -4.550  1.00 20.00     0.006 A 
HETATM    5  C6  UNL     1     -35.329  15.841  -5.596  1.00 20.00     0.006 A 
HETATM    6  C7  UNL     1     -33.248  15.319  -5.251  1.00 20.00     0.006 A 
HETATM    7  C8  UNL     1     -34.506  15.922  -3.589  1.00 20.00     0.033 A 
HETATM    8  C9  UNL     1     -34.449  14.613  -5.916  1.00 20.00    -0.031 A 
HETATM    9  C11 UNL     1     -34.417  13.884  -7.211  1.00 20.00     0.016 C 
ENDROOT
BRANCH   7  10
HETATM   10  C1  UNL     1     -34.536  16.653  -2.283  1.00 20.00     0.133 C 
HETATM   11  C10 UNL     1     -33.292  17.410  -1.902  1.00 20.00     0.091 C 
HETATM   12  O12 UNL     1     -35.530  16.638  -1.558  1.00 20.00    -0.297 OA
ENDBRANCH   7  10
TORSDOF 1
ENDMDL
MODEL 5
REMARK VINA RESULT:      -4.8      2.095      4.070
REMARK  1 active torsions:
REMARK  status: ('A' for Active; 'I' for Inactive)
REMARK    1  A    between atoms: C1_1  and  C8_8 
ROOT
HETATM    1  C2  UNL     1     -33.716  14.640  -3.838  1.00 20.00     0.013 A 
HETATM    2  C3  UNL     1     -33.965  16.522  -4.883  1.00 20.00     0.013 A 
HETATM    3  C4  UNL     1     -35.704  15.371  -4.294  1.00 20.00     0.013 A 
HETATM    4  C5  UNL     1     -33.195  15.225  -5.158  1.00 20.00     0.006 A 
HETATM    5  C6  UNL     1     -34.939  14.070  -4.567  1.00 20.00     0.006 A 
HETATM    6  C7  UNL     1     -35.189  15.957  -5.614  1.00 20.00     0.006 A 
HETATM    7  C8  UNL     1     -34.482  15.940  -3.562  1.00 20.00     0.033 A 
HETATM    8  C9  UNL     1     -34.420  14.650  -5.900  1.00 20.00    -0.031 A 
HETATM    9  C11 UNL     1     -34.385  13.933  -7.201  1.00 20.00     0.016 C 
ENDROOT
BRANCH   7  10
HETATM   10  C1  UNL     1     -34.515  16.664  -2.254  1.00 20.00     0.133 C 
HETATM   11  C10 UNL     1     -33.281  17.441  -1.879  1.00 20.00     0.091 C 
HETATM   12  O12 UNL     1     -35.502  16.630  -1.520  1.00 20.00    -0.297 OA
ENDBRANCH   7  10
TORSDOF 1
ENDMDL
MODEL 6
REMARK VINA RESULT:      -4.7      1.483      1.925
REMARK  1 active torsions:
REMARK  status: ('A' for Active; 'I' for Inactive)
REMARK    1  A    between atoms: C1_1  and  C8_8 
ROOT
HETATM    1  C2  UNL     1     -34.841  16.229  -5.415  1.00 20.00     0.013 A 
HETATM    2  C3  UNL     1     -34.219  15.010  -3.735  1.00 20.00     0.013 A 
HETATM    3  C4  UNL     1     -36.016  16.211  -3.594  1.00 20.00     0.013 A 
HETATM    4  C5  UNL     1     -33.554  16.097  -4.589  1.00 20.00     0.006 A 
HETATM    5  C6  UNL     1     -35.358  17.302  -4.448  1.00 20.00     0.006 A 
HETATM    6  C7  UNL     1     -34.733  16.079  -2.764  1.00 20.00     0.006 A 
HETATM    7  C8  UNL     1     -35.502  15.139  -4.563  1.00 20.00     0.033 A 
HETATM    8  C9  UNL     1     -34.064  17.179  -3.614  1.00 20.00    -0.031 A 
HETATM    9  C11 UNL     1     -33.263  18.315  -3.087  1.00 20.00     0.016 C 
ENDROOT
BRANCH   7  10
HETATM   10  C1  UNL     1     -36.306  13.993  -5.093  1.00 20.00     0.133 C 
HETATM   11  C10 UNL     1     -37.703  14.304  -5.558  1.00 20.00     0.091 C 
HETATM   12  O12 UNL     1     -35.846  12.853  -5.150  1.00 20.00    -0.297 OA
ENDBRANCH   7  10
TORSDOF 1
ENDMDL
MODEL 7
REMARK VINA RESULT:      -4.7     11.085     12.427
REMARK  1 active torsions:
REMARK  status: ('A' for Active; 'I' for Inactive)
REMARK    1  A    between atoms: C1_1  and  C8_8 
ROOT
HETATM    1  C2  UNL     1     -33.292   7.244   4.407  1.00 20.00     0.013 A 
HETATM    2  C3  UNL     1     -34.634   6.668   2.806  1.00 20.00     0.013 A 
HETATM    3  C4  UNL     1     -32.634   5.840   2.895  1.00 20.00     0.013 A 
HETATM    4  C5  UNL     1     -34.110   8.002   3.352  1.00 20.00     0.006 A 
HETATM    5  C6  UNL     1     -32.104   7.171   3.441  1.00 20.00     0.006 A 
HETATM    6  C7  UNL     1     -33.448   6.593   1.836  1.00 20.00     0.006 A 
HETATM    7  C8  UNL     1     -33.821   5.912   3.863  1.00 20.00     0.033 A 
HETATM    8  C9  UNL     1     -32.917   7.937   2.376  1.00 20.00    -0.031 A 
HETATM    9  C11 UNL     1     -32.414   9.065   1.549  1.00 20.00     0.016 C 
ENDROOT
BRANCH   7  10
HETATM   10  C1  UNL     1     -34.331   4.777   4.695  1.00 20.00     0.133 C 
HETATM   11  C10 UNL     1     -34.738   5.103   6.107  1.00 20.00     0.091 C 
HETATM   12  O12 UNL     1     -34.416   3.635   4.247  1.00 20.00    -0.297 OA
ENDBRANCH   7  10
TORSDOF 1
ENDMDL
MODEL 8
REMARK VINA RESULT:      -4.7     11.108     12.471
REMARK  1 active torsions:
REMARK  status: ('A' for Active; 'I' for Inactive)
REMARK    1  A    between atoms: C1_1  and  C8_8 
ROOT
HETATM    1  C2  UNL     1     -32.607   5.842   2.961  1.00 20.00     0.013 A 
HETATM    2  C3  UNL     1     -33.386   7.248   4.414  1.00 20.00     0.013 A 
HETATM    3  C4  UNL     1     -34.630   6.595   2.765  1.00 20.00     0.013 A 
HETATM    4  C5  UNL     1     -32.151   7.201   3.507  1.00 20.00     0.006 A 
HETATM    5  C6  UNL     1     -33.398   6.546   1.852  1.00 20.00     0.006 A 
HETATM    6  C7  UNL     1     -34.179   7.956   3.309  1.00 20.00     0.006 A 
HETATM    7  C8  UNL     1     -33.840   5.888   3.873  1.00 20.00     0.033 A 
HETATM    8  C9  UNL     1     -32.939   7.918   2.391  1.00 20.00    -0.031 A 
HETATM    9  C11 UNL     1     -32.438   9.048   1.566  1.00 20.00     0.016 C 
ENDROOT
BRANCH   7  10
HETATM   10  C1  UNL     1     -34.344   4.751   4.706  1.00 20.00     0.133 C 
HETATM   11  C10 UNL     1     -34.743   5.074   6.121  1.00 20.00     0.091 C 
HETATM   12  O12 UNL     1     -34.430   3.609   4.257  1.00 20.00    -0.297 OA
ENDBRANCH   7  10
TORSDOF 1
ENDMDL
MODEL 9
REMARK VINA RESULT:      -4.7     11.110     12.413
REMARK  1 active torsions:
REMARK  status: ('A' for Active; 'I' for Inactive)
REMARK    1  A    between atoms: C1_1  and  C8_8 
ROOT
HETATM    1  C2  UNL     1     -34.622   6.571   2.748  1.00 20.00     0.013 A 
HETATM    2  C3  UNL     1     -32.597   5.826   2.955  1.00 20.00     0.013 A 
HETATM    3  C4  UNL     1     -33.385   7.237   4.398  1.00 20.00     0.013 A 
HETATM    4  C5  UNL     1     -33.386   6.521   1.839  1.00 20.00     0.006 A 
HETATM    5  C6  UNL     1     -34.177   7.936   3.286  1.00 20.00     0.006 A 
HETATM    6  C7  UNL     1     -32.147   7.189   3.494  1.00 20.00     0.006 A 
HETATM    7  C8  UNL     1     -33.833   5.872   3.862  1.00 20.00     0.033 A 
HETATM    8  C9  UNL     1     -32.934   7.897   2.371  1.00 20.00    -0.031 A 
HETATM    9  C11 UNL     1     -32.434   9.024   1.541  1.00 20.00     0.016 C 
ENDROOT
BRANCH   7  10
HETATM   10  C1  UNL     1     -34.334   4.735   4.695  1.00 20.00     0.133 C 
HETATM   11  C10 UNL     1     -34.716   5.054   6.116  1.00 20.00     0.091 C 
HETATM   12  O12 UNL     1     -34.432   3.595   4.242  1.00 20.00    -0.297 OA
ENDBRANCH   7  10
TORSDOF 1
ENDMDL
