MODEL 1
REMARK VINA RESULT:      -5.4      0.000      0.000
REMARK  0 active torsions:
REMARK  status: ('A' for Active; 'I' for Inactive)
ROOT
HETATM    1  C1  UNL     1     -32.233   7.991   2.614  1.00 20.00     0.100 C 
HETATM    2  C2  UNL     1     -33.014   8.163   4.925  1.00 20.00     0.042 A 
HETATM    3  C3  UNL     1     -33.676   7.585   6.010  1.00 20.00     0.118 A 
HETATM    4  C4  UNL     1     -32.889   7.428   3.749  1.00 20.00     0.054 A 
HETATM    5  C5  UNL     1     -33.422   6.154   3.723  1.00 20.00    -0.013 A 
HETATM    6  C6  UNL     1     -34.066   5.667   4.855  1.00 20.00     0.042 A 
HETATM    7  C7  UNL     1     -33.465   5.168   2.606  1.00 20.00     0.042 C 
HETATM    8  C8  UNL     1     -34.618   4.294   4.602  1.00 20.00     0.060 C 
HETATM    9  C9  UNL     1     -33.807   3.877   3.367  1.00 20.00     0.011 C 
HETATM   10  N10 UNL     1     -31.699   8.450   1.692  1.00 20.00    -0.191 NA
HETATM   11  N11 UNL     1     -34.217   6.343   6.006  1.00 20.00    -0.265 NA
ENDROOT
TORSDOF 0
ENDMDL
MODEL 2
REMARK VINA RESULT:      -4.8     12.140     12.735
REMARK  0 active torsions:
REMARK  status: ('A' for Active; 'I' for Inactive)
ROOT
HETATM    1  C1  UNL     1     -37.202  14.555  -4.720  1.00 20.00     0.100 C 
HETATM    2  C2  UNL     1     -34.892  14.197  -5.439  1.00 20.00     0.042 A 
HETATM    3  C3  UNL     1     -33.536  14.491  -5.292  1.00 20.00     0.118 A 
HETATM    4  C4  UNL     1     -35.806  14.819  -4.590  1.00 20.00     0.054 A 
HETATM    5  C5  UNL     1     -35.315  15.690  -3.639  1.00 20.00    -0.013 A 
HETATM    6  C6  UNL     1     -33.945  15.920  -3.574  1.00 20.00     0.042 A 
HETATM    7  C7  UNL     1     -36.053  16.511  -2.635  1.00 20.00     0.042 C 
HETATM    8  C8  UNL     1     -33.627  16.935  -2.514  1.00 20.00     0.060 C 
HETATM    9  C9  UNL     1     -34.914  16.896  -1.677  1.00 20.00     0.011 C 
HETATM   10  N10 UNL     1     -38.338  14.340  -4.825  1.00 20.00    -0.191 NA
HETATM   11  N11 UNL     1     -33.030  15.350  -4.375  1.00 20.00    -0.265 NA
ENDROOT
TORSDOF 0
ENDMDL
MODEL 3
REMARK VINA RESULT:      -4.8      1.186      2.730
REMARK  0 active torsions:
REMARK  status: ('A' for Active; 'I' for Inactive)
ROOT
HETATM    1  C1  UNL     1     -32.301   8.077   2.544  1.00 20.00     0.100 C 
HETATM    2  C2  UNL     1     -33.012   5.782   2.084  1.00 20.00     0.042 A 
HETATM    3  C3  UNL     1     -33.597   4.599   2.537  1.00 20.00     0.118 A 
HETATM    4  C4  UNL     1     -32.907   6.856   2.966  1.00 20.00     0.054 A 
HETATM    5  C5  UNL     1     -33.399   6.692   4.245  1.00 20.00    -0.013 A 
HETATM    6  C6  UNL     1     -33.963   5.472   4.603  1.00 20.00     0.042 A 
HETATM    7  C7  UNL     1     -33.391   7.645   5.393  1.00 20.00     0.042 C 
HETATM    8  C8  UNL     1     -34.385   5.484   6.044  1.00 20.00     0.060 C 
HETATM    9  C9  UNL     1     -34.427   6.994   6.323  1.00 20.00     0.011 C 
HETATM   10  N10 UNL     1     -31.808   9.070   2.201  1.00 20.00    -0.191 NA
HETATM   11  N11 UNL     1     -34.078   4.409   3.790  1.00 20.00    -0.265 NA
ENDROOT
TORSDOF 0
ENDMDL
MODEL 4
REMARK VINA RESULT:      -4.7     12.109     12.692
REMARK  0 active torsions:
REMARK  status: ('A' for Active; 'I' for Inactive)
ROOT
HETATM    1  C1  UNL     1     -35.713  18.207   1.215  1.00 20.00     0.100 C 
HETATM    2  C2  UNL     1     -33.381  18.861   0.869  1.00 20.00     0.042 A 
HETATM    3  C3  UNL     1     -32.238  18.833   0.069  1.00 20.00     0.118 A 
HETATM    4  C4  UNL     1     -34.529  18.213   0.417  1.00 20.00     0.054 A 
HETATM    5  C5  UNL     1     -34.475  17.582  -0.809  1.00 20.00    -0.013 A 
HETATM    6  C6  UNL     1     -33.287  17.607  -1.532  1.00 20.00     0.042 A 
HETATM    7  C7  UNL     1     -35.525  16.793  -1.516  1.00 20.00     0.042 C 
HETATM    8  C8  UNL     1     -33.422  16.822  -2.804  1.00 20.00     0.060 C 
HETATM    9  C9  UNL     1     -34.950  16.750  -2.941  1.00 20.00     0.011 C 
HETATM   10  N10 UNL     1     -36.675  18.202   1.863  1.00 20.00    -0.191 NA
HETATM   11  N11 UNL     1     -32.155  18.212  -1.133  1.00 20.00    -0.265 NA
ENDROOT
TORSDOF 0
ENDMDL
MODEL 5
REMARK VINA RESULT:      -4.7     12.191     12.440
REMARK  0 active torsions:
REMARK  status: ('A' for Active; 'I' for Inactive)
ROOT
HETATM    1  C1  UNL     1     -32.200  18.342  -0.134  1.00 20.00     0.100 C 
HETATM    2  C2  UNL     1     -34.462  18.643   0.749  1.00 20.00     0.042 A 
HETATM    3  C3  UNL     1     -35.836  18.453   0.604  1.00 20.00     0.118 A 
HETATM    4  C4  UNL     1     -33.611  18.153  -0.240  1.00 20.00     0.054 A 
HETATM    5  C5  UNL     1     -34.178  17.493  -1.312  1.00 20.00    -0.013 A 
HETATM    6  C6  UNL     1     -35.560  17.356  -1.368  1.00 20.00     0.042 A 
HETATM    7  C7  UNL     1     -33.524  16.903  -2.515  1.00 20.00     0.042 C 
HETATM    8  C8  UNL     1     -35.974  16.661  -2.632  1.00 20.00     0.060 C 
HETATM    9  C9  UNL     1     -34.650  16.006  -3.052  1.00 20.00     0.011 C 
HETATM   10  N10 UNL     1     -31.054  18.496  -0.047  1.00 20.00    -0.191 NA
HETATM   11  N11 UNL     1     -36.419  17.819  -0.443  1.00 20.00    -0.265 NA
ENDROOT
TORSDOF 0
ENDMDL
MODEL 6
REMARK VINA RESULT:      -4.6     12.021     12.706
REMARK  0 active torsions:
REMARK  status: ('A' for Active; 'I' for Inactive)
ROOT
HETATM    1  C1  UNL     1     -35.608  13.239  -6.102  1.00 20.00     0.100 C 
HETATM    2  C2  UNL     1     -37.579  14.493  -5.376  1.00 20.00     0.042 A 
HETATM    3  C3  UNL     1     -38.139  15.460  -4.541  1.00 20.00     0.118 A 
HETATM    4  C4  UNL     1     -36.214  14.233  -5.275  1.00 20.00     0.054 A 
HETATM    5  C5  UNL     1     -35.484  14.958  -4.356  1.00 20.00    -0.013 A 
HETATM    6  C6  UNL     1     -36.134  15.900  -3.567  1.00 20.00     0.042 A 
HETATM    7  C7  UNL     1     -34.035  14.869  -4.014  1.00 20.00     0.042 C 
HETATM    8  C8  UNL     1     -35.176  16.536  -2.601  1.00 20.00     0.060 C 
HETATM    9  C9  UNL     1     -33.830  16.189  -3.254  1.00 20.00     0.011 C 
HETATM   10  N10 UNL     1     -35.116  12.431  -6.774  1.00 20.00    -0.191 NA
HETATM   11  N11 UNL     1     -37.447  16.178  -3.623  1.00 20.00    -0.265 NA
ENDROOT
TORSDOF 0
ENDMDL
MODEL 7
REMARK VINA RESULT:      -4.5     11.960     12.898
REMARK  0 active torsions:
REMARK  status: ('A' for Active; 'I' for Inactive)
ROOT
HETATM    1  C1  UNL     1     -38.604  15.422  -4.345  1.00 20.00     0.100 C 
HETATM    2  C2  UNL     1     -37.020  13.870  -5.377  1.00 20.00     0.042 A 
HETATM    3  C3  UNL     1     -35.703  13.441  -5.542  1.00 20.00     0.118 A 
HETATM    4  C4  UNL     1     -37.271  14.946  -4.527  1.00 20.00     0.054 A 
HETATM    5  C5  UNL     1     -36.197  15.526  -3.884  1.00 20.00    -0.013 A 
HETATM    6  C6  UNL     1     -34.920  15.028  -4.116  1.00 20.00     0.042 A 
HETATM    7  C7  UNL     1     -36.165  16.695  -2.958  1.00 20.00     0.042 C 
HETATM    8  C8  UNL     1     -33.893  15.828  -3.368  1.00 20.00     0.060 C 
HETATM    9  C9  UNL     1     -34.775  16.530  -2.324  1.00 20.00     0.011 C 
HETATM   10  N10 UNL     1     -39.688  15.809  -4.197  1.00 20.00    -0.191 NA
HETATM   11  N11 UNL     1     -34.630  14.000  -4.931  1.00 20.00    -0.265 NA
ENDROOT
TORSDOF 0
ENDMDL
MODEL 8
REMARK VINA RESULT:      -4.5     12.452     13.071
REMARK  0 active torsions:
REMARK  status: ('A' for Active; 'I' for Inactive)
ROOT
HETATM    1  C1  UNL     1     -35.718  18.154   0.930  1.00 20.00     0.100 C 
HETATM    2  C2  UNL     1     -34.209  17.907  -0.979  1.00 20.00     0.042 A 
HETATM    3  C3  UNL     1     -32.918  17.998  -1.502  1.00 20.00     0.118 A 
HETATM    4  C4  UNL     1     -34.410  18.221   0.363  1.00 20.00     0.054 A 
HETATM    5  C5  UNL     1     -33.312  18.597   1.111  1.00 20.00    -0.013 A 
HETATM    6  C6  UNL     1     -32.065  18.660   0.498  1.00 20.00     0.042 A 
HETATM    7  C7  UNL     1     -33.236  19.015   2.540  1.00 20.00     0.042 C 
HETATM    8  C8  UNL     1     -31.021  19.139   1.465  1.00 20.00     0.060 C 
HETATM    9  C9  UNL     1     -31.728  18.887   2.805  1.00 20.00     0.011 C 
HETATM   10  N10 UNL     1     -36.782  18.100   1.390  1.00 20.00    -0.191 NA
HETATM   11  N11 UNL     1     -31.826  18.375  -0.793  1.00 20.00    -0.265 NA
ENDROOT
TORSDOF 0
ENDMDL
MODEL 9
REMARK VINA RESULT:      -4.4     12.073     12.487
REMARK  0 active torsions:
REMARK  status: ('A' for Active; 'I' for Inactive)
ROOT
HETATM    1  C1  UNL     1     -35.559  16.702  -2.431  1.00 20.00     0.100 C 
HETATM    2  C2  UNL     1     -33.609  15.687  -3.505  1.00 20.00     0.042 A 
HETATM    3  C3  UNL     1     -33.092  14.808  -4.457  1.00 20.00     0.118 A 
HETATM    4  C4  UNL     1     -34.992  15.824  -3.403  1.00 20.00     0.054 A 
HETATM    5  C5  UNL     1     -35.780  15.085  -4.262  1.00 20.00    -0.013 A 
HETATM    6  C6  UNL     1     -35.170  14.233  -5.176  1.00 20.00     0.042 A 
HETATM    7  C7  UNL     1     -37.266  15.007  -4.355  1.00 20.00     0.042 C 
HETATM    8  C8  UNL     1     -36.198  13.486  -5.975  1.00 20.00     0.060 C 
HETATM    9  C9  UNL     1     -37.441  14.356  -5.736  1.00 20.00     0.011 C 
HETATM   10  N10 UNL     1     -36.019  17.416  -1.641  1.00 20.00    -0.191 NA
HETATM   11  N11 UNL     1     -33.843  14.063  -5.304  1.00 20.00    -0.265 NA
ENDROOT
TORSDOF 0
ENDMDL
