MODEL 1
REMARK VINA RESULT:      -4.4      0.000      0.000
REMARK  1 active torsions:
REMARK  status: ('A' for Active; 'I' for Inactive)
REMARK    1  A    between atoms: C1_1  and  C3_3 
ROOT
HETATM    1  C2  UNL     1     -34.441   7.316   4.069  1.00 20.00     0.080 C 
HETATM    2  C3  UNL     1     -33.407   7.094   2.941  1.00 20.00     0.310 C 
HETATM    3  C4  UNL     1     -34.512   5.773   4.127  1.00 20.00     0.222 C 
HETATM    4  C5  UNL     1     -34.552   5.153   5.510  1.00 20.00     0.043 C 
HETATM    5  C6  UNL     1     -33.042   4.736   2.501  1.00 20.00     0.311 C 
HETATM    6  N7  UNL     1     -33.144   5.755   3.540  1.00 20.00     0.101 N 
ENDROOT
BRANCH   2   7
HETATM    7  C1  UNL     1     -32.133   7.942   2.933  1.00 20.00     0.252 C 
HETATM    8  O8  UNL     1     -31.499   8.165   3.960  1.00 20.00    -0.277 OA
HETATM    9 CL9  UNL     1     -31.736   8.511   1.339  1.00 20.00    -0.042 Cl
ENDBRANCH   2   7
TORSDOF 1
ENDMDL
MODEL 2
REMARK VINA RESULT:      -4.2      2.617      3.685
REMARK  1 active torsions:
REMARK  status: ('A' for Active; 'I' for Inactive)
REMARK    1  A    between atoms: C1_1  and  C3_3 
ROOT
HETATM    1  C2  UNL     1     -33.415   6.968   2.491  1.00 20.00     0.080 C 
HETATM    2  C3  UNL     1     -34.115   6.234   3.658  1.00 20.00     0.310 C 
HETATM    3  C4  UNL     1     -32.930   7.955   3.578  1.00 20.00     0.222 C 
HETATM    4  C5  UNL     1     -31.487   8.412   3.478  1.00 20.00     0.043 C 
HETATM    5  C6  UNL     1     -33.737   7.345   5.782  1.00 20.00     0.311 C 
HETATM    6  N7  UNL     1     -33.105   6.852   4.563  1.00 20.00     0.101 N 
ENDROOT
BRANCH   2   7
HETATM    7  C1  UNL     1     -34.035   4.707   3.722  1.00 20.00     0.252 C 
HETATM    8  O8  UNL     1     -34.685   4.060   4.539  1.00 20.00    -0.277 OA
HETATM    9 CL9  UNL     1     -32.949   4.059   2.531  1.00 20.00    -0.042 Cl
ENDBRANCH   2   7
TORSDOF 1
ENDMDL
MODEL 3
REMARK VINA RESULT:      -3.9     11.599     12.405
REMARK  1 active torsions:
REMARK  status: ('A' for Active; 'I' for Inactive)
REMARK    1  A    between atoms: C1_1  and  C3_3 
ROOT
HETATM    1  C2  UNL     1     -33.692  14.368  -4.250  1.00 20.00     0.080 C 
HETATM    2  C3  UNL     1     -34.385  14.535  -5.623  1.00 20.00     0.310 C 
HETATM    3  C4  UNL     1     -33.936  15.886  -4.090  1.00 20.00     0.222 C 
HETATM    4  C5  UNL     1     -34.411  16.352  -2.727  1.00 20.00     0.043 C 
HETATM    5  C6  UNL     1     -35.051  16.834  -6.023  1.00 20.00     0.311 C 
HETATM    6  N7  UNL     1     -35.058  15.740  -5.058  1.00 20.00     0.101 N 
ENDROOT
BRANCH   2   7
HETATM    7  C1  UNL     1     -35.418  13.494  -6.058  1.00 20.00     0.252 C 
HETATM    8  O8  UNL     1     -35.957  12.743  -5.250  1.00 20.00    -0.277 OA
HETATM    9 CL9  UNL     1     -35.699  13.529  -7.772  1.00 20.00    -0.042 Cl
ENDBRANCH   2   7
TORSDOF 1
ENDMDL
MODEL 4
REMARK VINA RESULT:      -3.9     11.746     12.714
REMARK  1 active torsions:
REMARK  status: ('A' for Active; 'I' for Inactive)
REMARK    1  A    between atoms: C1_1  and  C3_3 
ROOT
HETATM    1  C2  UNL     1     -33.713  15.296  -4.017  1.00 20.00     0.080 C 
HETATM    2  C3  UNL     1     -34.300  14.458  -5.177  1.00 20.00     0.310 C 
HETATM    3  C4  UNL     1     -33.308  16.299  -5.122  1.00 20.00     0.222 C 
HETATM    4  C5  UNL     1     -33.525  17.767  -4.812  1.00 20.00     0.043 C 
HETATM    5  C6  UNL     1     -33.968  15.534  -7.327  1.00 20.00     0.311 C 
HETATM    6  N7  UNL     1     -34.407  15.729  -5.949  1.00 20.00     0.101 N 
ENDROOT
BRANCH   2   7
HETATM    7  C1  UNL     1     -35.677  13.816  -4.999  1.00 20.00     0.252 C 
HETATM    8  O8  UNL     1     -35.874  12.630  -5.250  1.00 20.00    -0.277 OA
HETATM    9 CL9  UNL     1     -36.857  14.951  -4.418  1.00 20.00    -0.042 Cl
ENDBRANCH   2   7
TORSDOF 1
ENDMDL
MODEL 5
REMARK VINA RESULT:      -3.8      2.640      3.590
REMARK  1 active torsions:
REMARK  status: ('A' for Active; 'I' for Inactive)
REMARK    1  A    between atoms: C1_1  and  C3_3 
ROOT
HETATM    1  C2  UNL     1     -31.938   8.088   3.930  1.00 20.00     0.080 C 
HETATM    2  C3  UNL     1     -32.824   6.852   4.214  1.00 20.00     0.310 C 
HETATM    3  C4  UNL     1     -32.309   7.848   2.448  1.00 20.00     0.222 C 
HETATM    4  C5  UNL     1     -32.640   9.081   1.629  1.00 20.00     0.043 C 
HETATM    5  C6  UNL     1     -33.765   5.928   2.177  1.00 20.00     0.311 C 
HETATM    6  N7  UNL     1     -33.531   7.152   2.937  1.00 20.00     0.101 N 
ENDROOT
BRANCH   2   7
HETATM    7  C1  UNL     1     -33.796   6.898   5.394  1.00 20.00     0.252 C 
HETATM    8  O8  UNL     1     -33.894   7.889   6.111  1.00 20.00    -0.277 OA
HETATM    9 CL9  UNL     1     -34.695   5.420   5.559  1.00 20.00    -0.042 Cl
ENDBRANCH   2   7
TORSDOF 1
ENDMDL
MODEL 6
REMARK VINA RESULT:      -3.8      1.282      1.964
REMARK  1 active torsions:
REMARK  status: ('A' for Active; 'I' for Inactive)
REMARK    1  A    between atoms: C1_1  and  C3_3 
ROOT
HETATM    1  C2  UNL     1     -33.290   6.018   2.619  1.00 20.00     0.080 C 
HETATM    2  C3  UNL     1     -32.483   7.097   3.380  1.00 20.00     0.310 C 
HETATM    3  C4  UNL     1     -34.128   5.920   3.915  1.00 20.00     0.222 C 
HETATM    4  C5  UNL     1     -35.630   5.812   3.739  1.00 20.00     0.043 C 
HETATM    5  C6  UNL     1     -33.331   7.442   5.627  1.00 20.00     0.311 C 
HETATM    6  N7  UNL     1     -33.695   7.312   4.220  1.00 20.00     0.101 N 
ENDROOT
BRANCH   2   7
HETATM    7  C1  UNL     1     -32.099   8.383   2.645  1.00 20.00     0.252 C 
HETATM    8  O8  UNL     1     -31.391   9.238   3.169  1.00 20.00    -0.277 OA
HETATM    9 CL9  UNL     1     -32.775   8.450   1.046  1.00 20.00    -0.042 Cl
ENDBRANCH   2   7
TORSDOF 1
ENDMDL
MODEL 7
REMARK VINA RESULT:      -3.7      2.585      3.352
REMARK  1 active torsions:
REMARK  status: ('A' for Active; 'I' for Inactive)
REMARK    1  A    between atoms: C1_1  and  C3_3 
ROOT
HETATM    1  C2  UNL     1     -34.765   5.804   3.392  1.00 20.00     0.080 C 
HETATM    2  C3  UNL     1     -34.115   6.971   4.171  1.00 20.00     0.310 C 
HETATM    3  C4  UNL     1     -33.573   5.963   2.420  1.00 20.00     0.222 C 
HETATM    4  C5  UNL     1     -32.931   4.682   1.926  1.00 20.00     0.043 C 
HETATM    5  C6  UNL     1     -32.078   7.746   3.104  1.00 20.00     0.311 C 
HETATM    6  N7  UNL     1     -32.820   6.572   3.552  1.00 20.00     0.101 N 
ENDROOT
BRANCH   2   7
HETATM    7  C1  UNL     1     -34.034   6.882   5.697  1.00 20.00     0.252 C 
HETATM    8  O8  UNL     1     -33.572   7.797   6.373  1.00 20.00    -0.277 OA
HETATM    9 CL9  UNL     1     -34.660   5.377   6.299  1.00 20.00    -0.042 Cl
ENDBRANCH   2   7
TORSDOF 1
ENDMDL
MODEL 8
REMARK VINA RESULT:      -3.6     11.093     11.671
REMARK  1 active torsions:
REMARK  status: ('A' for Active; 'I' for Inactive)
REMARK    1  A    between atoms: C1_1  and  C3_3 
ROOT
HETATM    1  C2  UNL     1     -33.746  16.529  -2.852  1.00 20.00     0.080 C 
HETATM    2  C3  UNL     1     -34.525  15.784  -3.961  1.00 20.00     0.310 C 
HETATM    3  C4  UNL     1     -35.129  17.078  -2.432  1.00 20.00     0.222 C 
HETATM    4  C5  UNL     1     -35.412  17.122  -0.943  1.00 20.00     0.043 C 
HETATM    5  C6  UNL     1     -36.905  16.252  -3.862  1.00 20.00     0.311 C 
HETATM    6  N7  UNL     1     -35.727  15.880  -3.084  1.00 20.00     0.101 N 
ENDROOT
BRANCH   2   7
HETATM    7  C1  UNL     1     -34.181  14.320  -4.247  1.00 20.00     0.252 C 
HETATM    8  O8  UNL     1     -35.052  13.487  -4.481  1.00 20.00    -0.277 OA
HETATM    9 CL9  UNL     1     -32.469  14.029  -4.195  1.00 20.00    -0.042 Cl
ENDBRANCH   2   7
TORSDOF 1
ENDMDL
MODEL 9
REMARK VINA RESULT:      -3.5     11.284     11.933
REMARK  1 active torsions:
REMARK  status: ('A' for Active; 'I' for Inactive)
REMARK    1  A    between atoms: C1_1  and  C3_3 
ROOT
HETATM    1  C2  UNL     1     -35.787  13.426  -5.212  1.00 20.00     0.080 C 
HETATM    2  C3  UNL     1     -34.887  14.225  -4.240  1.00 20.00     0.310 C 
HETATM    3  C4  UNL     1     -36.828  14.539  -4.952  1.00 20.00     0.222 C 
HETATM    4  C5  UNL     1     -37.593  15.041  -6.161  1.00 20.00     0.043 C 
HETATM    5  C6  UNL     1     -35.999  16.213  -3.406  1.00 20.00     0.311 C 
HETATM    6  N7  UNL     1     -35.688  15.429  -4.597  1.00 20.00     0.101 N 
ENDROOT
BRANCH   2   7
HETATM    7  C1  UNL     1     -33.414  14.429  -4.600  1.00 20.00     0.252 C 
HETATM    8  O8  UNL     1     -32.535  13.687  -4.171  1.00 20.00    -0.277 OA
HETATM    9 CL9  UNL     1     -33.181  15.793  -5.652  1.00 20.00    -0.042 Cl
ENDBRANCH   2   7
TORSDOF 1
ENDMDL
