MODEL 1
REMARK VINA RESULT:      -4.7      0.000      0.000
REMARK  2 active torsions:
REMARK  status: ('A' for Active; 'I' for Inactive)
REMARK    1  A    between atoms: C1_1  and  C5_5 
REMARK    2  A    between atoms: C5_5  and  C6_6 
ROOT
HETATM    1  C2  UNL     1     -32.167   8.245   2.069  1.00 20.00     0.003 C 
HETATM    2  C3  UNL     1     -33.634   8.316   2.528  1.00 20.00     0.026 C 
HETATM    3  C4  UNL     1     -31.840   7.526   3.389  1.00 20.00     0.026 C 
HETATM    4  C5  UNL     1     -33.346   7.134   3.508  1.00 20.00     0.110 C 
ENDROOT
BRANCH   4   5
HETATM    5  C1  UNL     1     -33.959   7.285   4.928  1.00 20.00     0.249 C 
HETATM    6  O7  UNL     1     -33.293   7.263   5.958  1.00 20.00    -0.306 OA
ENDBRANCH   4   5
BRANCH   4   7
HETATM    7  C6  UNL     1     -33.668   5.759   2.917  1.00 20.00     0.401 C 
HETATM    8  F8  UNL     1     -32.533   5.130   2.582  1.00 20.00    -0.170 F 
HETATM    9  F9  UNL     1     -34.328   5.020   3.819  1.00 20.00    -0.170 F 
HETATM   10  F10 UNL     1     -34.430   5.900   1.823  1.00 20.00    -0.170 F 
ENDBRANCH   4   7
TORSDOF 2
ENDMDL
MODEL 2
REMARK VINA RESULT:      -4.7      2.530      3.551
REMARK  2 active torsions:
REMARK  status: ('A' for Active; 'I' for Inactive)
REMARK    1  A    between atoms: C1_1  and  C5_5 
REMARK    2  A    between atoms: C5_5  and  C6_6 
ROOT
HETATM    1  C2  UNL     1     -35.127   4.706   4.708  1.00 20.00     0.003 C 
HETATM    2  C3  UNL     1     -35.251   5.859   3.697  1.00 20.00     0.026 C 
HETATM    3  C4  UNL     1     -33.600   4.790   4.544  1.00 20.00     0.026 C 
HETATM    4  C5  UNL     1     -33.773   6.250   4.018  1.00 20.00     0.110 C 
ENDROOT
BRANCH   4   5
HETATM    5  C1  UNL     1     -32.901   6.617   2.785  1.00 20.00     0.249 C 
HETATM    6  O7  UNL     1     -32.872   7.739   2.287  1.00 20.00    -0.306 OA
ENDBRANCH   4   5
BRANCH   4   7
HETATM    7  C6  UNL     1     -33.648   7.313   5.112  1.00 20.00     0.401 C 
HETATM    8  F8  UNL     1     -34.471   8.337   4.850  1.00 20.00    -0.170 F 
HETATM    9  F9  UNL     1     -33.974   6.784   6.300  1.00 20.00    -0.170 F 
HETATM   10  F10 UNL     1     -32.388   7.766   5.166  1.00 20.00    -0.170 F 
ENDBRANCH   4   7
TORSDOF 2
ENDMDL
MODEL 3
REMARK VINA RESULT:      -4.7      1.514      2.920
REMARK  2 active torsions:
REMARK  status: ('A' for Active; 'I' for Inactive)
REMARK    1  A    between atoms: C1_1  and  C5_5 
REMARK    2  A    between atoms: C5_5  and  C6_6 
ROOT
HETATM    1  C2  UNL     1     -34.956   4.288   4.450  1.00 20.00     0.003 C 
HETATM    2  C3  UNL     1     -33.670   4.849   5.082  1.00 20.00     0.026 C 
HETATM    3  C4  UNL     1     -35.360   5.732   4.107  1.00 20.00     0.026 C 
HETATM    4  C5  UNL     1     -33.858   6.142   4.226  1.00 20.00     0.110 C 
ENDROOT
BRANCH   4   5
HETATM    5  C1  UNL     1     -33.594   7.478   4.976  1.00 20.00     0.249 C 
HETATM    6  O7  UNL     1     -33.561   7.570   6.200  1.00 20.00    -0.306 OA
ENDBRANCH   4   5
BRANCH   4   7
HETATM    7  C6  UNL     1     -33.107   6.106   2.893  1.00 20.00     0.401 C 
HETATM    8  F8  UNL     1     -33.943   6.407   1.890  1.00 20.00    -0.170 F 
HETATM    9  F9  UNL     1     -32.107   6.997   2.910  1.00 20.00    -0.170 F 
HETATM   10  F10 UNL     1     -32.600   4.883   2.688  1.00 20.00    -0.170 F 
ENDBRANCH   4   7
TORSDOF 2
ENDMDL
MODEL 4
REMARK VINA RESULT:      -4.6      1.938      2.413
REMARK  2 active torsions:
REMARK  status: ('A' for Active; 'I' for Inactive)
REMARK    1  A    between atoms: C1_1  and  C5_5 
REMARK    2  A    between atoms: C5_5  and  C6_6 
ROOT
HETATM    1  C2  UNL     1     -34.107   5.936   2.191  1.00 20.00     0.003 C 
HETATM    2  C3  UNL     1     -35.166   6.387   3.211  1.00 20.00     0.026 C 
HETATM    3  C4  UNL     1     -33.040   6.136   3.281  1.00 20.00     0.026 C 
HETATM    4  C5  UNL     1     -34.168   6.017   4.355  1.00 20.00     0.110 C 
ENDROOT
BRANCH   4   5
HETATM    5  C1  UNL     1     -34.084   7.044   5.519  1.00 20.00     0.249 C 
HETATM    6  O7  UNL     1     -33.041   7.587   5.867  1.00 20.00    -0.306 OA
ENDBRANCH   4   5
BRANCH   4   7
HETATM    7  C6  UNL     1     -34.354   4.596   4.891  1.00 20.00     0.401 C 
HETATM    8  F8  UNL     1     -34.084   4.565   6.203  1.00 20.00    -0.170 F 
HETATM    9  F9  UNL     1     -35.618   4.198   4.695  1.00 20.00    -0.170 F 
HETATM   10  F10 UNL     1     -33.527   3.756   4.253  1.00 20.00    -0.170 F 
ENDBRANCH   4   7
TORSDOF 2
ENDMDL
MODEL 5
REMARK VINA RESULT:      -4.3      2.607      3.199
REMARK  2 active torsions:
REMARK  status: ('A' for Active; 'I' for Inactive)
REMARK    1  A    between atoms: C1_1  and  C5_5 
REMARK    2  A    between atoms: C5_5  and  C6_6 
ROOT
HETATM    1  C2  UNL     1     -33.751   6.625   2.153  1.00 20.00     0.003 C 
HETATM    2  C3  UNL     1     -32.924   5.779   3.136  1.00 20.00     0.026 C 
HETATM    3  C4  UNL     1     -35.003   6.268   2.973  1.00 20.00     0.026 C 
HETATM    4  C5  UNL     1     -34.072   5.941   4.183  1.00 20.00     0.110 C 
ENDROOT
BRANCH   4   5
HETATM    5  C1  UNL     1     -34.438   4.651   4.970  1.00 20.00     0.249 C 
HETATM    6  O7  UNL     1     -34.372   3.524   4.489  1.00 20.00    -0.306 OA
ENDBRANCH   4   5
BRANCH   4   7
HETATM    7  C6  UNL     1     -33.869   7.123   5.134  1.00 20.00     0.401 C 
HETATM    8  F8  UNL     1     -32.581   7.494   5.132  1.00 20.00    -0.170 F 
HETATM    9  F9  UNL     1     -34.622   8.159   4.740  1.00 20.00    -0.170 F 
HETATM   10  F10 UNL     1     -34.222   6.773   6.379  1.00 20.00    -0.170 F 
ENDBRANCH   4   7
TORSDOF 2
ENDMDL
MODEL 6
REMARK VINA RESULT:      -4.2     11.184     12.166
REMARK  2 active torsions:
REMARK  status: ('A' for Active; 'I' for Inactive)
REMARK    1  A    between atoms: C1_1  and  C5_5 
REMARK    2  A    between atoms: C5_5  and  C6_6 
ROOT
HETATM    1  C2  UNL     1     -33.947  15.789  -7.429  1.00 20.00     0.003 C 
HETATM    2  C3  UNL     1     -34.031  14.304  -7.033  1.00 20.00     0.026 C 
HETATM    3  C4  UNL     1     -35.063  16.073  -6.409  1.00 20.00     0.026 C 
HETATM    4  C5  UNL     1     -34.696  14.738  -5.688  1.00 20.00     0.110 C 
ENDROOT
BRANCH   4   5
HETATM    5  C1  UNL     1     -35.907  13.874  -5.238  1.00 20.00     0.249 C 
HETATM    6  O7  UNL     1     -35.866  12.652  -5.139  1.00 20.00    -0.306 OA
ENDBRANCH   4   5
BRANCH   4   7
HETATM    7  C6  UNL     1     -33.696  14.916  -4.543  1.00 20.00     0.401 C 
HETATM    8  F8  UNL     1     -32.905  15.969  -4.788  1.00 20.00    -0.170 F 
HETATM    9  F9  UNL     1     -34.353  15.121  -3.393  1.00 20.00    -0.170 F 
HETATM   10  F10 UNL     1     -32.938  13.817  -4.425  1.00 20.00    -0.170 F 
ENDBRANCH   4   7
TORSDOF 2
ENDMDL
MODEL 7
REMARK VINA RESULT:      -4.2      1.709      3.019
REMARK  2 active torsions:
REMARK  status: ('A' for Active; 'I' for Inactive)
REMARK    1  A    between atoms: C1_1  and  C5_5 
REMARK    2  A    between atoms: C5_5  and  C6_6 
ROOT
HETATM    1  C2  UNL     1     -34.897   5.709   5.493  1.00 20.00     0.003 C 
HETATM    2  C3  UNL     1     -33.510   6.294   5.174  1.00 20.00     0.026 C 
HETATM    3  C4  UNL     1     -35.337   6.105   4.074  1.00 20.00     0.026 C 
HETATM    4  C5  UNL     1     -33.833   6.135   3.655  1.00 20.00     0.110 C 
ENDROOT
BRANCH   4   5
HETATM    5  C1  UNL     1     -33.420   7.336   2.760  1.00 20.00     0.249 C 
HETATM    6  O7  UNL     1     -32.256   7.587   2.460  1.00 20.00    -0.306 OA
ENDBRANCH   4   5
BRANCH   4   7
HETATM    7  C6  UNL     1     -33.338   4.814   3.060  1.00 20.00     0.401 C 
HETATM    8  F8  UNL     1     -33.935   3.785   3.676  1.00 20.00    -0.170 F 
HETATM    9  F9  UNL     1     -33.626   4.768   1.752  1.00 20.00    -0.170 F 
HETATM   10  F10 UNL     1     -32.012   4.711   3.221  1.00 20.00    -0.170 F 
ENDBRANCH   4   7
TORSDOF 2
ENDMDL
MODEL 8
REMARK VINA RESULT:      -4.2      2.473      3.487
REMARK  2 active torsions:
REMARK  status: ('A' for Active; 'I' for Inactive)
REMARK    1  A    between atoms: C1_1  and  C5_5 
REMARK    2  A    between atoms: C5_5  and  C6_6 
ROOT
HETATM    1  C2  UNL     1     -35.007   5.502   5.534  1.00 20.00     0.003 C 
HETATM    2  C3  UNL     1     -35.337   5.916   4.090  1.00 20.00     0.026 C 
HETATM    3  C4  UNL     1     -33.671   4.941   5.017  1.00 20.00     0.026 C 
HETATM    4  C5  UNL     1     -33.811   5.863   3.764  1.00 20.00     0.110 C 
ENDROOT
BRANCH   4   5
HETATM    5  C1  UNL     1     -33.444   5.197   2.408  1.00 20.00     0.249 C 
HETATM    6  O7  UNL     1     -32.607   4.307   2.297  1.00 20.00    -0.306 OA
ENDBRANCH   4   5
BRANCH   4   7
HETATM    7  C6  UNL     1     -33.107   7.214   3.918  1.00 20.00     0.401 C 
HETATM    8  F8  UNL     1     -32.921   7.485   5.217  1.00 20.00    -0.170 F 
HETATM    9  F9  UNL     1     -31.917   7.179   3.304  1.00 20.00    -0.170 F 
HETATM   10  F10 UNL     1     -33.854   8.182   3.371  1.00 20.00    -0.170 F 
ENDBRANCH   4   7
TORSDOF 2
ENDMDL
MODEL 9
REMARK VINA RESULT:      -4.2      2.039      2.686
REMARK  2 active torsions:
REMARK  status: ('A' for Active; 'I' for Inactive)
REMARK    1  A    between atoms: C1_1  and  C5_5 
REMARK    2  A    between atoms: C5_5  and  C6_6 
ROOT
HETATM    1  C2  UNL     1     -33.435   4.663   2.060  1.00 20.00     0.003 C 
HETATM    2  C3  UNL     1     -34.023   6.079   2.185  1.00 20.00     0.026 C 
HETATM    3  C4  UNL     1     -32.638   4.933   3.347  1.00 20.00     0.026 C 
HETATM    4  C5  UNL     1     -33.663   6.055   3.704  1.00 20.00     0.110 C 
ENDROOT
BRANCH   4   5
HETATM    5  C1  UNL     1     -33.041   7.368   4.258  1.00 20.00     0.249 C 
HETATM    6  O7  UNL     1     -32.064   7.917   3.758  1.00 20.00    -0.306 OA
ENDBRANCH   4   5
BRANCH   4   7
HETATM    7  C6  UNL     1     -34.810   5.574   4.596  1.00 20.00     0.401 C 
HETATM    8  F8  UNL     1     -34.780   6.223   5.767  1.00 20.00    -0.170 F 
HETATM    9  F9  UNL     1     -35.984   5.810   3.994  1.00 20.00    -0.170 F 
HETATM   10  F10 UNL     1     -34.691   4.258   4.821  1.00 20.00    -0.170 F 
ENDBRANCH   4   7
TORSDOF 2
ENDMDL
