MODEL 1
REMARK VINA RESULT:      -5.4      0.000      0.000
REMARK  3 active torsions:
REMARK  status: ('A' for Active; 'I' for Inactive)
REMARK    1  A    between atoms: C3_3  and  C7_7 
REMARK    2  A    between atoms: C4_4  and  C6_6 
REMARK    3  A    between atoms: C4_4  and  O11_11 
ROOT
HETATM    1  C1  UNL     1     -34.090   4.756   4.158  1.00 20.00     0.074 C 
HETATM    2  C5  UNL     1     -34.429   6.478   2.359  1.00 20.00     0.046 A 
HETATM    3  C6  UNL     1     -32.971   6.485   2.713  1.00 20.00     0.114 A 
HETATM    4  C7  UNL     1     -34.010   6.151   3.783  1.00 20.00     0.079 A 
HETATM    5  N9  UNL     1     -34.155   3.637   4.457  1.00 20.00    -0.196 NA
ENDROOT
BRANCH   4   6
HETATM    6  C3  UNL     1     -34.310   7.188   4.785  1.00 20.00    -0.012 C 
HETATM    7  C2  UNL     1     -33.848   7.171   6.041  1.00 20.00     0.008 C 
ENDBRANCH   4   6
BRANCH   3   8
HETATM    8  C4  UNL     1     -32.239   7.760   2.729  1.00 20.00     0.264 C 
HETATM    9  O10 UNL     1     -31.301   8.002   3.479  1.00 20.00    -0.265 OA
BRANCH   8  10
HETATM   10  O11 UNL     1     -32.766   8.600   1.795  1.00 20.00    -0.326 OA
HETATM   11  C8  UNL     1     -31.842   9.090   0.818  1.00 20.00     0.213 C 
ENDBRANCH   8  10
ENDBRANCH   3   8
TORSDOF 3
ENDMDL
MODEL 2
REMARK VINA RESULT:      -4.6      1.868      2.838
REMARK  3 active torsions:
REMARK  status: ('A' for Active; 'I' for Inactive)
REMARK    1  A    between atoms: C3_3  and  C7_7 
REMARK    2  A    between atoms: C4_4  and  C6_6 
REMARK    3  A    between atoms: C4_4  and  O11_11 
ROOT
HETATM    1  C1  UNL     1     -33.331   7.434   4.670  1.00 20.00     0.074 C 
HETATM    2  C5  UNL     1     -31.139   7.948   3.554  1.00 20.00     0.046 A 
HETATM    3  C6  UNL     1     -32.197   8.742   2.846  1.00 20.00     0.114 A 
HETATM    4  C7  UNL     1     -32.548   7.385   3.455  1.00 20.00     0.079 A 
HETATM    5  N9  UNL     1     -33.959   7.473   5.646  1.00 20.00    -0.196 NA
ENDROOT
BRANCH   4   6
HETATM    6  C3  UNL     1     -32.711   6.249   2.534  1.00 20.00    -0.012 C 
HETATM    7  C2  UNL     1     -33.388   5.134   2.833  1.00 20.00     0.008 C 
ENDBRANCH   4   6
BRANCH   3   8
HETATM    8  C4  UNL     1     -32.106   8.926   1.390  1.00 20.00     0.264 C 
HETATM    9  O10 UNL     1     -31.172   8.528   0.707  1.00 20.00    -0.265 OA
BRANCH   8  10
HETATM   10  O11 UNL     1     -33.207   9.594   0.945  1.00 20.00    -0.326 OA
HETATM   11  C8  UNL     1     -33.357   9.653  -0.478  1.00 20.00     0.213 C 
ENDBRANCH   8  10
ENDBRANCH   3   8
TORSDOF 3
ENDMDL
MODEL 3
REMARK VINA RESULT:      -4.2     11.867     12.764
REMARK  3 active torsions:
REMARK  status: ('A' for Active; 'I' for Inactive)
REMARK    1  A    between atoms: C3_3  and  C7_7 
REMARK    2  A    between atoms: C4_4  and  C6_6 
REMARK    3  A    between atoms: C4_4  and  O11_11 
ROOT
HETATM    1  C1  UNL     1     -34.968  17.209  -5.507  1.00 20.00     0.074 C 
HETATM    2  C5  UNL     1     -34.316  14.886  -6.210  1.00 20.00     0.046 A 
HETATM    3  C6  UNL     1     -35.789  14.867  -5.920  1.00 20.00     0.114 A 
HETATM    4  C7  UNL     1     -34.873  15.812  -5.141  1.00 20.00     0.079 A 
HETATM    5  N9  UNL     1     -35.043  18.329  -5.801  1.00 20.00    -0.196 NA
ENDROOT
BRANCH   4   6
HETATM    6  C3  UNL     1     -34.543  15.448  -3.754  1.00 20.00    -0.012 C 
HETATM    7  C2  UNL     1     -34.284  16.337  -2.788  1.00 20.00     0.008 C 
ENDBRANCH   4   6
BRANCH   3   8
HETATM    8  C4  UNL     1     -36.383  13.682  -5.283  1.00 20.00     0.264 C 
HETATM    9  O10 UNL     1     -35.842  12.585  -5.241  1.00 20.00    -0.265 OA
BRANCH   8  10
HETATM   10  O11 UNL     1     -37.600  14.005  -4.765  1.00 20.00    -0.326 OA
HETATM   11  C8  UNL     1     -38.420  14.837  -5.592  1.00 20.00     0.213 C 
ENDBRANCH   8  10
ENDBRANCH   3   8
TORSDOF 3
ENDMDL
MODEL 4
REMARK VINA RESULT:      -4.1      2.926      4.233
REMARK  3 active torsions:
REMARK  status: ('A' for Active; 'I' for Inactive)
REMARK    1  A    between atoms: C3_3  and  C7_7 
REMARK    2  A    between atoms: C4_4  and  C6_6 
REMARK    3  A    between atoms: C4_4  and  O11_11 
ROOT
HETATM    1  C1  UNL     1     -32.687   7.563   2.403  1.00 20.00     0.074 C 
HETATM    2  C5  UNL     1     -34.829   6.249   2.474  1.00 20.00     0.046 A 
HETATM    3  C6  UNL     1     -34.443   6.551   3.893  1.00 20.00     0.114 A 
HETATM    4  C7  UNL     1     -33.356   6.355   2.836  1.00 20.00     0.079 A 
HETATM    5  N9  UNL     1     -32.151   8.531   2.054  1.00 20.00    -0.196 NA
ENDROOT
BRANCH   4   6
HETATM    6  C3  UNL     1     -32.615   5.083   2.851  1.00 20.00    -0.012 C 
HETATM    7  C2  UNL     1     -32.858   4.066   2.016  1.00 20.00     0.008 C 
ENDBRANCH   4   6
BRANCH   3   8
HETATM    8  C4  UNL     1     -34.686   5.543   4.935  1.00 20.00     0.264 C 
HETATM    9  O10 UNL     1     -35.114   4.418   4.713  1.00 20.00    -0.265 OA
BRANCH   8  10
HETATM   10  O11 UNL     1     -34.361   6.059   6.154  1.00 20.00    -0.326 OA
HETATM   11  C8  UNL     1     -33.712   7.334   6.127  1.00 20.00     0.213 C 
ENDBRANCH   8  10
ENDBRANCH   3   8
TORSDOF 3
ENDMDL
MODEL 5
REMARK VINA RESULT:      -4.1     11.411     12.169
REMARK  3 active torsions:
REMARK  status: ('A' for Active; 'I' for Inactive)
REMARK    1  A    between atoms: C3_3  and  C7_7 
REMARK    2  A    between atoms: C4_4  and  C6_6 
REMARK    3  A    between atoms: C4_4  and  O11_11 
ROOT
HETATM    1  C1  UNL     1     -35.195  16.218  -2.667  1.00 20.00     0.074 C 
HETATM    2  C5  UNL     1     -35.795  16.302  -5.106  1.00 20.00     0.046 A 
HETATM    3  C6  UNL     1     -36.217  14.958  -4.589  1.00 20.00     0.114 A 
HETATM    4  C7  UNL     1     -34.998  15.655  -3.985  1.00 20.00     0.079 A 
HETATM    5  N9  UNL     1     -35.353  16.671  -1.610  1.00 20.00    -0.196 NA
ENDROOT
BRANCH   4   6
HETATM    6  C3  UNL     1     -33.669  15.148  -4.364  1.00 20.00    -0.012 C 
HETATM    7  C2  UNL     1     -32.909  15.686  -5.325  1.00 20.00     0.008 C 
ENDBRANCH   4   6
BRANCH   3   8
HETATM    8  C4  UNL     1     -36.073  13.776  -5.452  1.00 20.00     0.264 C 
HETATM    9  O10 UNL     1     -35.939  12.634  -5.032  1.00 20.00    -0.265 OA
BRANCH   8  10
HETATM   10  O11 UNL     1     -36.112  14.159  -6.759  1.00 20.00    -0.326 OA
HETATM   11  C8  UNL     1     -35.115  13.571  -7.602  1.00 20.00     0.213 C 
ENDBRANCH   8  10
ENDBRANCH   3   8
TORSDOF 3
ENDMDL
MODEL 6
REMARK VINA RESULT:      -4.1     11.422     12.267
REMARK  3 active torsions:
REMARK  status: ('A' for Active; 'I' for Inactive)
REMARK    1  A    between atoms: C3_3  and  C7_7 
REMARK    2  A    between atoms: C4_4  and  C6_6 
REMARK    3  A    between atoms: C4_4  and  O11_11 
ROOT
HETATM    1  C1  UNL     1     -35.718  17.548  -4.442  1.00 20.00     0.074 C 
HETATM    2  C5  UNL     1     -33.413  16.674  -4.927  1.00 20.00     0.046 A 
HETATM    3  C6  UNL     1     -34.355  15.509  -4.999  1.00 20.00     0.114 A 
HETATM    4  C7  UNL     1     -34.647  16.663  -4.040  1.00 20.00     0.079 A 
HETATM    5  N9  UNL     1     -36.576  18.260  -4.765  1.00 20.00    -0.196 NA
ENDROOT
BRANCH   4   6
HETATM    6  C3  UNL     1     -34.394  16.436  -2.608  1.00 20.00    -0.012 C 
HETATM    7  C2  UNL     1     -33.619  17.220  -1.851  1.00 20.00     0.008 C 
ENDBRANCH   4   6
BRANCH   3   8
HETATM    8  C4  UNL     1     -33.917  14.196  -4.504  1.00 20.00     0.264 C 
HETATM    9  O10 UNL     1     -32.750  13.904  -4.279  1.00 20.00    -0.265 OA
BRANCH   8  10
HETATM   10  O11 UNL     1     -35.000  13.384  -4.344  1.00 20.00    -0.326 OA
HETATM   11  C8  UNL     1     -35.980  13.455  -5.384  1.00 20.00     0.213 C 
ENDBRANCH   8  10
ENDBRANCH   3   8
TORSDOF 3
ENDMDL
MODEL 7
REMARK VINA RESULT:      -4.1     11.664     12.376
REMARK  3 active torsions:
REMARK  status: ('A' for Active; 'I' for Inactive)
REMARK    1  A    between atoms: C3_3  and  C7_7 
REMARK    2  A    between atoms: C4_4  and  C6_6 
REMARK    3  A    between atoms: C4_4  and  O11_11 
ROOT
HETATM    1  C1  UNL     1     -33.684  17.303  -4.517  1.00 20.00     0.074 C 
HETATM    2  C5  UNL     1     -33.276  14.825  -4.424  1.00 20.00     0.046 A 
HETATM    3  C6  UNL     1     -34.442  15.050  -5.340  1.00 20.00     0.114 A 
HETATM    4  C7  UNL     1     -34.205  16.000  -4.166  1.00 20.00     0.079 A 
HETATM    5  N9  UNL     1     -33.264  18.348  -4.798  1.00 20.00    -0.196 NA
ENDROOT
BRANCH   4   6
HETATM    6  C3  UNL     1     -35.086  15.864  -2.994  1.00 20.00    -0.012 C 
HETATM    7  C2  UNL     1     -35.047  16.675  -1.931  1.00 20.00     0.008 C 
ENDBRANCH   4   6
BRANCH   3   8
HETATM    8  C4  UNL     1     -35.558  14.092  -5.336  1.00 20.00     0.264 C 
HETATM    9  O10 UNL     1     -35.471  12.943  -4.923  1.00 20.00    -0.265 OA
BRANCH   8  10
HETATM   10  O11 UNL     1     -36.670  14.685  -5.853  1.00 20.00    -0.326 OA
HETATM   11  C8  UNL     1     -37.875  14.489  -5.105  1.00 20.00     0.213 C 
ENDBRANCH   8  10
ENDBRANCH   3   8
TORSDOF 3
ENDMDL
MODEL 8
REMARK VINA RESULT:      -3.9     11.140     12.047
REMARK  3 active torsions:
REMARK  status: ('A' for Active; 'I' for Inactive)
REMARK    1  A    between atoms: C3_3  and  C7_7 
REMARK    2  A    between atoms: C4_4  and  C6_6 
REMARK    3  A    between atoms: C4_4  and  O11_11 
ROOT
HETATM    1  C1  UNL     1     -35.447  13.882  -5.083  1.00 20.00     0.074 C 
HETATM    2  C5  UNL     1     -33.390  15.283  -4.735  1.00 20.00     0.046 A 
HETATM    3  C6  UNL     1     -34.185  15.334  -3.463  1.00 20.00     0.114 A 
HETATM    4  C7  UNL     1     -34.906  15.195  -4.804  1.00 20.00     0.079 A 
HETATM    5  N9  UNL     1     -35.881  12.830  -5.309  1.00 20.00    -0.196 NA
ENDROOT
BRANCH   4   6
HETATM    6  C3  UNL     1     -35.585  16.387  -5.338  1.00 20.00    -0.012 C 
HETATM    7  C2  UNL     1     -36.628  16.342  -6.175  1.00 20.00     0.008 C 
ENDBRANCH   4   6
BRANCH   3   8
HETATM    8  C4  UNL     1     -34.236  16.588  -2.695  1.00 20.00     0.264 C 
HETATM    9  O10 UNL     1     -33.435  17.504  -2.828  1.00 20.00    -0.265 OA
BRANCH   8  10
HETATM   10  O11 UNL     1     -35.294  16.555  -1.839  1.00 20.00    -0.326 OA
HETATM   11  C8  UNL     1     -35.152  17.348  -0.655  1.00 20.00     0.213 C 
ENDBRANCH   8  10
ENDBRANCH   3   8
TORSDOF 3
ENDMDL
MODEL 9
REMARK VINA RESULT:      -3.9     11.358     12.266
REMARK  3 active torsions:
REMARK  status: ('A' for Active; 'I' for Inactive)
REMARK    1  A    between atoms: C3_3  and  C7_7 
REMARK    2  A    between atoms: C4_4  and  C6_6 
REMARK    3  A    between atoms: C4_4  and  O11_11 
ROOT
HETATM    1  C1  UNL     1     -35.362  13.856  -5.095  1.00 20.00     0.074 C 
HETATM    2  C5  UNL     1     -33.358  15.012  -4.115  1.00 20.00     0.046 A 
HETATM    3  C6  UNL     1     -34.572  15.567  -3.429  1.00 20.00     0.114 A 
HETATM    4  C7  UNL     1     -34.666  15.107  -4.884  1.00 20.00     0.079 A 
HETATM    5  N9  UNL     1     -35.920  12.853  -5.265  1.00 20.00    -0.196 NA
ENDROOT
BRANCH   4   6
HETATM    6  C3  UNL     1     -34.714  16.147  -5.924  1.00 20.00    -0.012 C 
HETATM    7  C2  UNL     1     -33.746  16.351  -6.824  1.00 20.00     0.008 C 
ENDBRANCH   4   6
BRANCH   3   8
HETATM    8  C4  UNL     1     -34.610  16.994  -3.075  1.00 20.00     0.264 C 
HETATM    9  O10 UNL     1     -35.642  17.643  -2.959  1.00 20.00    -0.265 OA
BRANCH   8  10
HETATM   10  O11 UNL     1     -33.340  17.456  -2.904  1.00 20.00    -0.326 OA
HETATM   11  C8  UNL     1     -33.014  17.880  -1.577  1.00 20.00     0.213 C 
ENDBRANCH   8  10
ENDBRANCH   3   8
TORSDOF 3
ENDMDL
