MODEL 1
REMARK VINA RESULT:      -5.0      0.000      0.000
REMARK  2 active torsions:
REMARK  status: ('A' for Active; 'I' for Inactive)
REMARK    1  A    between atoms: C1_1  and  N9_9 
REMARK    2  A    between atoms: C4_4  and  C8_8 
ROOT
HETATM    1  C2  UNL     1     -33.137   8.168   3.994  1.00 20.00     0.031 C 
HETATM    2  C3  UNL     1     -33.011   6.124   2.769  1.00 20.00     0.130 C 
HETATM    3  C4  UNL     1     -32.983   7.635   2.566  1.00 20.00     0.005 C 
HETATM    4  C5  UNL     1     -34.108   7.175   4.647  1.00 20.00     0.083 C 
HETATM    5  C6  UNL     1     -33.830   7.017   6.137  1.00 20.00     0.032 C 
HETATM    6  N9  UNL     1     -33.924   5.941   3.885  1.00 20.00    -0.355 N 
ENDROOT
BRANCH   3   7
HETATM    7  C8  UNL     1     -31.722   8.125   1.876  1.00 20.00     0.002 C 
HETATM    8  C7  UNL     1     -32.019   9.154   0.830  1.00 20.00     0.005 C 
ENDBRANCH   3   7
BRANCH   6   9
HETATM    9  C1  UNL     1     -34.628   4.777   4.094  1.00 20.00     0.351 C 
HETATM   10  O10 UNL     1     -34.179   3.700   4.470  1.00 20.00    -0.284 OA
ENDBRANCH   6   9
TORSDOF 2
ENDMDL
MODEL 2
REMARK VINA RESULT:      -4.5      1.500      2.281
REMARK  2 active torsions:
REMARK  status: ('A' for Active; 'I' for Inactive)
REMARK    1  A    between atoms: C1_1  and  N9_9 
REMARK    2  A    between atoms: C4_4  and  C8_8 
ROOT
HETATM    1  C2  UNL     1     -33.205   6.610   2.168  1.00 20.00     0.031 C 
HETATM    2  C3  UNL     1     -32.542   8.306   3.710  1.00 20.00     0.130 C 
HETATM    3  C4  UNL     1     -32.048   7.569   2.470  1.00 20.00     0.005 C 
HETATM    4  C5  UNL     1     -33.699   6.191   3.560  1.00 20.00     0.083 C 
HETATM    5  C6  UNL     1     -35.196   5.909   3.561  1.00 20.00     0.032 C 
HETATM    6  N9  UNL     1     -33.314   7.303   4.426  1.00 20.00    -0.355 N 
ENDROOT
BRANCH   3   7
HETATM    7  C8  UNL     1     -31.719   8.494   1.312  1.00 20.00     0.002 C 
HETATM    8  C7  UNL     1     -32.514   9.761   1.362  1.00 20.00     0.005 C 
ENDBRANCH   3   7
BRANCH   6   9
HETATM    9  C1  UNL     1     -33.521   7.347   5.786  1.00 20.00     0.351 C 
HETATM   10  O10 UNL     1     -34.346   6.707   6.428  1.00 20.00    -0.284 OA
ENDBRANCH   6   9
TORSDOF 2
ENDMDL
MODEL 3
REMARK VINA RESULT:      -4.4     11.451     12.203
REMARK  2 active torsions:
REMARK  status: ('A' for Active; 'I' for Inactive)
REMARK    1  A    between atoms: C1_1  and  N9_9 
REMARK    2  A    between atoms: C4_4  and  C8_8 
ROOT
HETATM    1  C2  UNL     1     -33.227  16.200  -4.859  1.00 20.00     0.031 C 
HETATM    2  C3  UNL     1     -35.174  15.451  -3.702  1.00 20.00     0.130 C 
HETATM    3  C4  UNL     1     -33.737  15.890  -3.448  1.00 20.00     0.005 C 
HETATM    4  C5  UNL     1     -33.901  15.130  -5.729  1.00 20.00     0.083 C 
HETATM    5  C6  UNL     1     -34.182  15.648  -7.135  1.00 20.00     0.032 C 
HETATM    6  N9  UNL     1     -35.109  14.774  -4.987  1.00 20.00    -0.355 N 
ENDROOT
BRANCH   3   7
HETATM    7  C8  UNL     1     -33.627  17.069  -2.498  1.00 20.00     0.002 C 
HETATM    8  C7  UNL     1     -34.696  17.049  -1.451  1.00 20.00     0.005 C 
ENDBRANCH   3   7
BRANCH   6   9
HETATM    9  C1  UNL     1     -36.013  13.811  -5.374  1.00 20.00     0.351 C 
HETATM   10  O10 UNL     1     -35.877  12.596  -5.289  1.00 20.00    -0.284 OA
ENDBRANCH   6   9
TORSDOF 2
ENDMDL
MODEL 4
REMARK VINA RESULT:      -4.3     11.357     11.925
REMARK  2 active torsions:
REMARK  status: ('A' for Active; 'I' for Inactive)
REMARK    1  A    between atoms: C1_1  and  N9_9 
REMARK    2  A    between atoms: C4_4  and  C8_8 
ROOT
HETATM    1  C2  UNL     1     -33.819  16.292  -3.263  1.00 20.00     0.031 C 
HETATM    2  C3  UNL     1     -36.132  15.814  -3.602  1.00 20.00     0.130 C 
HETATM    3  C4  UNL     1     -35.149  16.210  -2.506  1.00 20.00     0.005 C 
HETATM    4  C5  UNL     1     -33.912  15.147  -4.282  1.00 20.00     0.083 C 
HETATM    5  C6  UNL     1     -33.157  15.476  -5.564  1.00 20.00     0.032 C 
HETATM    6  N9  UNL     1     -35.348  14.962  -4.481  1.00 20.00    -0.355 N 
ENDROOT
BRANCH   3   7
HETATM    7  C8  UNL     1     -35.520  17.503  -1.804  1.00 20.00     0.002 C 
HETATM    8  C7  UNL     1     -35.443  17.376  -0.315  1.00 20.00     0.005 C 
ENDBRANCH   3   7
BRANCH   6   9
HETATM    9  C1  UNL     1     -35.910  14.002  -5.292  1.00 20.00     0.351 C 
HETATM   10  O10 UNL     1     -35.856  12.786  -5.142  1.00 20.00    -0.284 OA
ENDBRANCH   6   9
TORSDOF 2
ENDMDL
MODEL 5
REMARK VINA RESULT:      -4.1     11.507     12.098
REMARK  2 active torsions:
REMARK  status: ('A' for Active; 'I' for Inactive)
REMARK    1  A    between atoms: C1_1  and  N9_9 
REMARK    2  A    between atoms: C4_4  and  C8_8 
ROOT
HETATM    1  C2  UNL     1     -33.960  14.715  -4.369  1.00 20.00     0.031 C 
HETATM    2  C3  UNL     1     -35.885  16.080  -4.024  1.00 20.00     0.130 C 
HETATM    3  C4  UNL     1     -34.638  15.583  -3.303  1.00 20.00     0.005 C 
HETATM    4  C5  UNL     1     -35.137  14.049  -5.095  1.00 20.00     0.083 C 
HETATM    5  C6  UNL     1     -34.818  13.796  -6.563  1.00 20.00     0.032 C 
HETATM    6  N9  UNL     1     -36.251  14.973  -4.891  1.00 20.00    -0.355 N 
ENDROOT
BRANCH   3   7
HETATM    7  C8  UNL     1     -33.752  16.704  -2.791  1.00 20.00     0.002 C 
HETATM    8  C7  UNL     1     -34.180  17.184  -1.440  1.00 20.00     0.005 C 
ENDBRANCH   3   7
BRANCH   6   9
HETATM    9  C1  UNL     1     -37.536  14.763  -5.338  1.00 20.00     0.351 C 
HETATM   10  O10 UNL     1     -38.311  13.887  -4.970  1.00 20.00    -0.284 OA
ENDBRANCH   6   9
TORSDOF 2
ENDMDL
MODEL 6
REMARK VINA RESULT:      -4.0     11.319     11.980
REMARK  2 active torsions:
REMARK  status: ('A' for Active; 'I' for Inactive)
REMARK    1  A    between atoms: C1_1  and  N9_9 
REMARK    2  A    between atoms: C4_4  and  C8_8 
ROOT
HETATM    1  C2  UNL     1     -36.595  16.381  -3.466  1.00 20.00     0.031 C 
HETATM    2  C3  UNL     1     -34.683  14.990  -3.788  1.00 20.00     0.130 C 
HETATM    3  C4  UNL     1     -35.071  16.384  -3.308  1.00 20.00     0.005 C 
HETATM    4  C5  UNL     1     -36.823  15.568  -4.748  1.00 20.00     0.083 C 
HETATM    5  C6  UNL     1     -38.139  14.802  -4.699  1.00 20.00     0.032 C 
HETATM    6  N9  UNL     1     -35.648  14.703  -4.838  1.00 20.00    -0.355 N 
ENDROOT
BRANCH   3   7
HETATM    7  C8  UNL     1     -34.616  16.679  -1.890  1.00 20.00     0.002 C 
HETATM    8  C7  UNL     1     -33.344  17.466  -1.860  1.00 20.00     0.005 C 
ENDBRANCH   3   7
BRANCH   6   9
HETATM    9  C1  UNL     1     -35.399  13.820  -5.863  1.00 20.00     0.351 C 
HETATM   10  O10 UNL     1     -35.452  12.597  -5.812  1.00 20.00    -0.284 OA
ENDBRANCH   6   9
TORSDOF 2
ENDMDL
MODEL 7
REMARK VINA RESULT:      -3.9     11.800     12.306
REMARK  2 active torsions:
REMARK  status: ('A' for Active; 'I' for Inactive)
REMARK    1  A    between atoms: C1_1  and  N9_9 
REMARK    2  A    between atoms: C4_4  and  C8_8 
ROOT
HETATM    1  C2  UNL     1     -35.389  17.049  -1.209  1.00 20.00     0.031 C 
HETATM    2  C3  UNL     1     -33.323  17.600  -2.268  1.00 20.00     0.130 C 
HETATM    3  C4  UNL     1     -34.381  16.503  -2.226  1.00 20.00     0.005 C 
HETATM    4  C5  UNL     1     -34.507  17.752  -0.168  1.00 20.00     0.083 C 
HETATM    5  C6  UNL     1     -35.218  18.949   0.452  1.00 20.00     0.032 C 
HETATM    6  N9  UNL     1     -33.298  18.111  -0.907  1.00 20.00    -0.355 N 
ENDROOT
BRANCH   3   7
HETATM    7  C8  UNL     1     -34.996  16.209  -3.582  1.00 20.00     0.002 C 
HETATM    8  C7  UNL     1     -36.492  16.235  -3.537  1.00 20.00     0.005 C 
ENDBRANCH   3   7
BRANCH   6   9
HETATM    9  C1  UNL     1     -32.198  18.731  -0.359  1.00 20.00     0.351 C 
HETATM   10  O10 UNL     1     -31.073  18.261  -0.232  1.00 20.00    -0.284 OA
ENDBRANCH   6   9
TORSDOF 2
ENDMDL
MODEL 8
REMARK VINA RESULT:      -3.8      2.335      4.451
REMARK  2 active torsions:
REMARK  status: ('A' for Active; 'I' for Inactive)
REMARK    1  A    between atoms: C1_1  and  N9_9 
REMARK    2  A    between atoms: C4_4  and  C8_8 
ROOT
HETATM    1  C2  UNL     1     -34.306   5.569   3.725  1.00 20.00     0.031 C 
HETATM    2  C3  UNL     1     -32.973   7.447   4.346  1.00 20.00     0.130 C 
HETATM    3  C4  UNL     1     -34.317   6.795   4.644  1.00 20.00     0.005 C 
HETATM    4  C5  UNL     1     -33.597   6.072   2.461  1.00 20.00     0.083 C 
HETATM    5  C6  UNL     1     -32.811   4.959   1.779  1.00 20.00     0.032 C 
HETATM    6  N9  UNL     1     -32.758   7.171   2.935  1.00 20.00    -0.355 N 
ENDROOT
BRANCH   3   7
HETATM    7  C8  UNL     1     -34.504   6.444   6.109  1.00 20.00     0.002 C 
HETATM    8  C7  UNL     1     -34.688   4.973   6.316  1.00 20.00     0.005 C 
ENDBRANCH   3   7
BRANCH   6   9
HETATM    9  C1  UNL     1     -31.963   7.956   2.130  1.00 20.00     0.351 C 
HETATM   10  O10 UNL     1     -32.234   9.065   1.683  1.00 20.00    -0.284 OA
ENDBRANCH   6   9
TORSDOF 2
ENDMDL
MODEL 9
REMARK VINA RESULT:      -3.7     11.696     12.186
REMARK  2 active torsions:
REMARK  status: ('A' for Active; 'I' for Inactive)
REMARK    1  A    between atoms: C1_1  and  N9_9 
REMARK    2  A    between atoms: C4_4  and  C8_8 
ROOT
HETATM    1  C2  UNL     1     -32.698  18.526  -0.013  1.00 20.00     0.031 C 
HETATM    2  C3  UNL     1     -34.430  18.065   1.561  1.00 20.00     0.130 C 
HETATM    3  C4  UNL     1     -34.223  18.420   0.094  1.00 20.00     0.005 C 
HETATM    4  C5  UNL     1     -32.285  19.150   1.327  1.00 20.00     0.083 C 
HETATM    5  C6  UNL     1     -30.909  18.669   1.768  1.00 20.00     0.032 C 
HETATM    6  N9  UNL     1     -33.358  18.770   2.244  1.00 20.00    -0.355 N 
ENDROOT
BRANCH   3   7
HETATM    7  C8  UNL     1     -34.821  17.402  -0.861  1.00 20.00     0.002 C 
HETATM    8  C7  UNL     1     -33.863  17.016  -1.943  1.00 20.00     0.005 C 
ENDBRANCH   3   7
BRANCH   6   9
HETATM    9  C1  UNL     1     -33.432  19.149   3.565  1.00 20.00     0.351 C 
HETATM   10  O10 UNL     1     -33.226  18.445   4.547  1.00 20.00    -0.284 OA
ENDBRANCH   6   9
TORSDOF 2
ENDMDL
