MODEL 1
REMARK VINA RESULT:      -4.4      0.000      0.000
REMARK  1 active torsions:
REMARK  status: ('A' for Active; 'I' for Inactive)
REMARK    1  A    between atoms: C3_3  and  C6_6 
ROOT
HETATM    1  C1  UNL     1     -35.097  15.382  -3.503  1.00 20.00    -0.023 C 
HETATM    2  C2  UNL     1     -34.310  14.952  -4.501  1.00 20.00    -0.071 C 
HETATM    3  C4  UNL     1     -36.462  15.751  -3.986  1.00 20.00     0.033 C 
HETATM    4  C5  UNL     1     -36.239  15.887  -5.499  1.00 20.00     0.005 C 
HETATM    5  C6  UNL     1     -35.044  14.953  -5.822  1.00 20.00     0.043 C 
HETATM    6  C7  UNL     1     -32.904  14.482  -4.355  1.00 20.00     0.044 C 
HETATM    7  C9  UNL     1     -37.509  15.663  -6.311  1.00 20.00     0.011 C 
HETATM    8  C10 UNL     1     -34.227  15.475  -7.003  1.00 20.00     0.029 C 
ENDROOT
BRANCH   5   9
HETATM    9  C3  UNL     1     -35.455  13.524  -6.073  1.00 20.00     0.136 C 
HETATM   10  C8  UNL     1     -35.253  12.996  -7.468  1.00 20.00     0.092 C 
HETATM   11  O11 UNL     1     -35.930  12.823  -5.180  1.00 20.00    -0.297 OA
ENDBRANCH   5   9
TORSDOF 1
ENDMDL
MODEL 2
REMARK VINA RESULT:      -4.1      1.363      2.536
REMARK  1 active torsions:
REMARK  status: ('A' for Active; 'I' for Inactive)
REMARK    1  A    between atoms: C3_3  and  C6_6 
ROOT
HETATM    1  C1  UNL     1     -32.976  15.495  -5.240  1.00 20.00    -0.023 C 
HETATM    2  C2  UNL     1     -34.012  15.403  -6.088  1.00 20.00    -0.071 C 
HETATM    3  C4  UNL     1     -33.415  15.849  -3.856  1.00 20.00     0.033 C 
HETATM    4  C5  UNL     1     -34.835  16.382  -4.099  1.00 20.00     0.005 C 
HETATM    5  C6  UNL     1     -35.324  15.671  -5.387  1.00 20.00     0.043 C 
HETATM    6  C7  UNL     1     -33.923  15.041  -7.530  1.00 20.00     0.044 C 
HETATM    7  C9  UNL     1     -35.735  16.255  -2.875  1.00 20.00     0.011 C 
HETATM    8  C10 UNL     1     -36.299  16.546  -6.175  1.00 20.00     0.029 C 
ENDROOT
BRANCH   5   9
HETATM    9  C3  UNL     1     -35.942  14.321  -5.126  1.00 20.00     0.136 C 
HETATM   10  C8  UNL     1     -37.422  14.194  -5.368  1.00 20.00     0.092 C 
HETATM   11  O11 UNL     1     -35.268  13.368  -4.736  1.00 20.00    -0.297 OA
ENDBRANCH   5   9
TORSDOF 1
ENDMDL
MODEL 3
REMARK VINA RESULT:      -4.1      1.663      3.146
REMARK  1 active torsions:
REMARK  status: ('A' for Active; 'I' for Inactive)
REMARK    1  A    between atoms: C3_3  and  C6_6 
ROOT
HETATM    1  C1  UNL     1     -36.047  16.292  -3.105  1.00 20.00    -0.023 C 
HETATM    2  C2  UNL     1     -36.607  15.589  -4.101  1.00 20.00    -0.071 C 
HETATM    3  C4  UNL     1     -34.568  16.089  -3.039  1.00 20.00     0.033 C 
HETATM    4  C5  UNL     1     -34.384  14.815  -3.877  1.00 20.00     0.005 C 
HETATM    5  C6  UNL     1     -35.572  14.807  -4.875  1.00 20.00     0.043 C 
HETATM    6  C7  UNL     1     -38.054  15.590  -4.456  1.00 20.00     0.044 C 
HETATM    7  C9  UNL     1     -32.991  14.700  -4.485  1.00 20.00     0.011 C 
HETATM    8  C10 UNL     1     -35.989  13.383  -5.238  1.00 20.00     0.029 C 
ENDROOT
BRANCH   5   9
HETATM    9  C3  UNL     1     -35.302  15.598  -6.130  1.00 20.00     0.136 C 
HETATM   10  C8  UNL     1     -35.163  14.816  -7.408  1.00 20.00     0.092 C 
HETATM   11  O11 UNL     1     -35.203  16.825  -6.110  1.00 20.00    -0.297 OA
ENDBRANCH   5   9
TORSDOF 1
ENDMDL
MODEL 4
REMARK VINA RESULT:      -4.0      2.078      3.440
REMARK  1 active torsions:
REMARK  status: ('A' for Active; 'I' for Inactive)
REMARK    1  A    between atoms: C3_3  and  C6_6 
ROOT
HETATM    1  C1  UNL     1     -37.056  16.241  -3.548  1.00 20.00    -0.023 C 
HETATM    2  C2  UNL     1     -36.412  15.359  -4.327  1.00 20.00    -0.071 C 
HETATM    3  C4  UNL     1     -36.115  17.023  -2.691  1.00 20.00     0.033 C 
HETATM    4  C5  UNL     1     -34.838  16.172  -2.760  1.00 20.00     0.005 C 
HETATM    5  C6  UNL     1     -34.917  15.427  -4.118  1.00 20.00     0.043 C 
HETATM    6  C7  UNL     1     -37.051  14.445  -5.315  1.00 20.00     0.044 C 
HETATM    7  C9  UNL     1     -33.571  16.979  -2.505  1.00 20.00     0.011 C 
HETATM    8  C10 UNL     1     -34.220  14.069  -4.054  1.00 20.00     0.029 C 
ENDROOT
BRANCH   5   9
HETATM    9  C3  UNL     1     -34.370  16.231  -5.271  1.00 20.00     0.136 C 
HETATM   10  C8  UNL     1     -33.117  15.712  -5.925  1.00 20.00     0.092 C 
HETATM   11  O11 UNL     1     -34.923  17.258  -5.661  1.00 20.00    -0.297 OA
ENDBRANCH   5   9
TORSDOF 1
ENDMDL
MODEL 5
REMARK VINA RESULT:      -3.9      1.881      2.929
REMARK  1 active torsions:
REMARK  status: ('A' for Active; 'I' for Inactive)
REMARK    1  A    between atoms: C3_3  and  C6_6 
ROOT
HETATM    1  C1  UNL     1     -33.845  17.939  -4.544  1.00 20.00    -0.023 C 
HETATM    2  C2  UNL     1     -33.881  16.796  -3.842  1.00 20.00    -0.071 C 
HETATM    3  C4  UNL     1     -33.848  17.690  -6.018  1.00 20.00     0.033 C 
HETATM    4  C5  UNL     1     -33.454  16.208  -6.091  1.00 20.00     0.005 C 
HETATM    5  C6  UNL     1     -33.930  15.590  -4.751  1.00 20.00     0.043 C 
HETATM    6  C7  UNL     1     -33.916  16.692  -2.356  1.00 20.00     0.044 C 
HETATM    7  C9  UNL     1     -33.945  15.524  -7.362  1.00 20.00     0.011 C 
HETATM    8  C10 UNL     1     -33.035  14.430  -4.318  1.00 20.00     0.029 C 
ENDROOT
BRANCH   5   9
HETATM    9  C3  UNL     1     -35.370  15.145  -4.778  1.00 20.00     0.136 C 
HETATM   10  C8  UNL     1     -35.620  13.662  -4.834  1.00 20.00     0.092 C 
HETATM   11  O11 UNL     1     -36.297  15.955  -4.752  1.00 20.00    -0.297 OA
ENDBRANCH   5   9
TORSDOF 1
ENDMDL
MODEL 6
REMARK VINA RESULT:      -3.9      2.073      3.271
REMARK  1 active torsions:
REMARK  status: ('A' for Active; 'I' for Inactive)
REMARK    1  A    between atoms: C3_3  and  C6_6 
ROOT
HETATM    1  C1  UNL     1     -35.245  14.043  -4.625  1.00 20.00    -0.023 C 
HETATM    2  C2  UNL     1     -34.170  14.735  -4.220  1.00 20.00    -0.071 C 
HETATM    3  C4  UNL     1     -36.499  14.850  -4.532  1.00 20.00     0.033 C 
HETATM    4  C5  UNL     1     -36.074  15.992  -3.598  1.00 20.00     0.005 C 
HETATM    5  C6  UNL     1     -34.543  16.138  -3.801  1.00 20.00     0.043 C 
HETATM    6  C7  UNL     1     -32.767  14.234  -4.213  1.00 20.00     0.044 C 
HETATM    7  C9  UNL     1     -36.904  17.257  -3.789  1.00 20.00     0.011 C 
HETATM    8  C10 UNL     1     -33.853  16.628  -2.529  1.00 20.00     0.029 C 
ENDROOT
BRANCH   5   9
HETATM    9  C3  UNL     1     -34.178  17.032  -4.960  1.00 20.00     0.136 C 
HETATM   10  C8  UNL     1     -33.490  18.328  -4.626  1.00 20.00     0.092 C 
HETATM   11  O11 UNL     1     -34.428  16.715  -6.123  1.00 20.00    -0.297 OA
ENDBRANCH   5   9
TORSDOF 1
ENDMDL
MODEL 7
REMARK VINA RESULT:      -3.9      1.285      3.503
REMARK  1 active torsions:
REMARK  status: ('A' for Active; 'I' for Inactive)
REMARK    1  A    between atoms: C3_3  and  C6_6 
ROOT
HETATM    1  C1  UNL     1     -36.270  13.745  -6.903  1.00 20.00    -0.023 C 
HETATM    2  C2  UNL     1     -36.678  14.506  -5.877  1.00 20.00    -0.071 C 
HETATM    3  C4  UNL     1     -34.887  14.097  -7.345  1.00 20.00     0.033 C 
HETATM    4  C5  UNL     1     -34.691  15.481  -6.708  1.00 20.00     0.005 C 
HETATM    5  C6  UNL     1     -35.610  15.490  -5.459  1.00 20.00     0.043 C 
HETATM    6  C7  UNL     1     -37.992  14.394  -5.183  1.00 20.00     0.044 C 
HETATM    7  C9  UNL     1     -33.225  15.824  -6.471  1.00 20.00     0.011 C 
HETATM    8  C10 UNL     1     -36.124  16.895  -5.150  1.00 20.00     0.029 C 
ENDROOT
BRANCH   5   9
HETATM    9  C3  UNL     1     -34.956  14.901  -4.234  1.00 20.00     0.136 C 
HETATM   10  C8  UNL     1     -34.641  15.852  -3.110  1.00 20.00     0.092 C 
HETATM   11  O11 UNL     1     -34.696  13.701  -4.155  1.00 20.00    -0.297 OA
ENDBRANCH   5   9
TORSDOF 1
ENDMDL
MODEL 8
REMARK VINA RESULT:      -3.9      0.839      3.134
REMARK  1 active torsions:
REMARK  status: ('A' for Active; 'I' for Inactive)
REMARK    1  A    between atoms: C3_3  and  C6_6 
ROOT
HETATM    1  C1  UNL     1     -34.492  16.375  -7.152  1.00 20.00    -0.023 C 
HETATM    2  C2  UNL     1     -35.644  15.886  -6.669  1.00 20.00    -0.071 C 
HETATM    3  C4  UNL     1     -33.315  15.937  -6.343  1.00 20.00     0.033 C 
HETATM    4  C5  UNL     1     -33.981  15.462  -5.043  1.00 20.00     0.005 C 
HETATM    5  C6  UNL     1     -35.410  15.021  -5.453  1.00 20.00     0.043 C 
HETATM    6  C7  UNL     1     -36.995  16.109  -7.256  1.00 20.00     0.044 C 
HETATM    7  C9  UNL     1     -33.146  14.434  -4.289  1.00 20.00     0.011 C 
HETATM    8  C10 UNL     1     -36.410  15.234  -4.318  1.00 20.00     0.029 C 
ENDROOT
BRANCH   5   9
HETATM    9  C3  UNL     1     -35.477  13.593  -5.936  1.00 20.00     0.136 C 
HETATM   10  C8  UNL     1     -34.961  13.322  -7.323  1.00 20.00     0.092 C 
HETATM   11  O11 UNL     1     -35.929  12.694  -5.228  1.00 20.00    -0.297 OA
ENDBRANCH   5   9
TORSDOF 1
ENDMDL
MODEL 9
REMARK VINA RESULT:      -3.9      1.116      2.886
REMARK  1 active torsions:
REMARK  status: ('A' for Active; 'I' for Inactive)
REMARK    1  A    between atoms: C3_3  and  C6_6 
ROOT
HETATM    1  C1  UNL     1     -37.183  15.100  -5.997  1.00 20.00    -0.023 C 
HETATM    2  C2  UNL     1     -36.267  15.677  -5.206  1.00 20.00    -0.071 C 
HETATM    3  C4  UNL     1     -36.558  14.386  -7.151  1.00 20.00     0.033 C 
HETATM    4  C5  UNL     1     -35.146  14.990  -7.171  1.00 20.00     0.005 C 
HETATM    5  C6  UNL     1     -34.865  15.422  -5.708  1.00 20.00     0.043 C 
HETATM    6  C7  UNL     1     -36.554  16.441  -3.959  1.00 20.00     0.044 C 
HETATM    7  C9  UNL     1     -34.114  14.069  -7.813  1.00 20.00     0.011 C 
HETATM    8  C10 UNL     1     -33.937  16.634  -5.650  1.00 20.00     0.029 C 
ENDROOT
BRANCH   5   9
HETATM    9  C3  UNL     1     -34.310  14.310  -4.854  1.00 20.00     0.136 C 
HETATM   10  C8  UNL     1     -32.893  14.467  -4.372  1.00 20.00     0.092 C 
HETATM   11  O11 UNL     1     -34.985  13.323  -4.561  1.00 20.00    -0.297 OA
ENDBRANCH   5   9
TORSDOF 1
ENDMDL
