MODEL 1
REMARK VINA RESULT:      -5.4      0.000      0.000
REMARK  3 active torsions:
REMARK  status: ('A' for Active; 'I' for Inactive)
REMARK    1  A    between atoms: C3_3  and  C8_8 
REMARK    2  A    between atoms: C7_7  and  C8_8 
REMARK    3  A    between atoms: C8_8  and  C9_9 
ROOT
HETATM    1  C1  UNL     1     -32.208   9.126   1.058  1.00 20.00     0.012 C 
HETATM    2  C2  UNL     1     -32.175   8.498   2.081  1.00 20.00    -0.117 C 
HETATM    3  C7  UNL     1     -32.132   7.726   3.335  1.00 20.00     0.105 C 
ENDROOT
BRANCH   3   4
HETATM    4  C8  UNL     1     -33.491   7.073   3.645  1.00 20.00     0.069 C 
BRANCH   4   5
HETATM    5  C3  UNL     1     -33.808   5.957   2.640  1.00 20.00     0.128 C 
HETATM    6  C4  UNL     1     -32.887   4.762   2.640  1.00 20.00     0.091 C 
HETATM    7  O10 UNL     1     -34.755   6.023   1.856  1.00 20.00    -0.298 OA
ENDBRANCH   4   5
BRANCH   4   8
HETATM    8  C9  UNL     1     -33.617   6.517   5.087  1.00 20.00    -0.011 C 
HETATM    9  C5  UNL     1     -33.654   7.605   6.164  1.00 20.00     0.010 C 
HETATM   10  C6  UNL     1     -34.841   5.606   5.231  1.00 20.00     0.010 C 
ENDBRANCH   4   8
ENDBRANCH   3   4
TORSDOF 3
ENDMDL
MODEL 2
REMARK VINA RESULT:      -5.1      0.386      1.185
REMARK  3 active torsions:
REMARK  status: ('A' for Active; 'I' for Inactive)
REMARK    1  A    between atoms: C3_3  and  C8_8 
REMARK    2  A    between atoms: C7_7  and  C8_8 
REMARK    3  A    between atoms: C8_8  and  C9_9 
ROOT
HETATM    1  C1  UNL     1     -31.751   8.918   1.173  1.00 20.00     0.012 C 
HETATM    2  C2  UNL     1     -32.010   8.373   2.211  1.00 20.00    -0.117 C 
HETATM    3  C7  UNL     1     -32.326   7.704   3.486  1.00 20.00     0.105 C 
ENDROOT
BRANCH   3   4
HETATM    4  C8  UNL     1     -33.775   7.185   3.509  1.00 20.00     0.069 C 
BRANCH   4   5
HETATM    5  C3  UNL     1     -33.929   5.940   2.624  1.00 20.00     0.128 C 
HETATM    6  C4  UNL     1     -32.881   4.866   2.776  1.00 20.00     0.091 C 
HETATM    7  O10 UNL     1     -34.847   5.814   1.815  1.00 20.00    -0.298 OA
ENDBRANCH   4   5
BRANCH   4   8
HETATM    8  C9  UNL     1     -34.319   6.877   4.928  1.00 20.00    -0.011 C 
HETATM    9  C5  UNL     1     -34.584   5.389   5.175  1.00 20.00     0.010 C 
HETATM   10  C6  UNL     1     -33.388   7.424   6.015  1.00 20.00     0.010 C 
ENDBRANCH   4   8
ENDBRANCH   3   4
TORSDOF 3
ENDMDL
MODEL 3
REMARK VINA RESULT:      -4.6     10.682     11.667
REMARK  3 active torsions:
REMARK  status: ('A' for Active; 'I' for Inactive)
REMARK    1  A    between atoms: C3_3  and  C8_8 
REMARK    2  A    between atoms: C7_7  and  C8_8 
REMARK    3  A    between atoms: C8_8  and  C9_9 
ROOT
HETATM    1  C1  UNL     1     -34.503  16.923  -1.555  1.00 20.00     0.012 C 
HETATM    2  C2  UNL     1     -34.915  16.534  -2.614  1.00 20.00    -0.117 C 
HETATM    3  C7  UNL     1     -35.422  16.058  -3.913  1.00 20.00     0.105 C 
ENDROOT
BRANCH   3   4
HETATM    4  C8  UNL     1     -34.950  14.624  -4.213  1.00 20.00     0.069 C 
BRANCH   4   5
HETATM    5  C3  UNL     1     -36.054  13.814  -4.907  1.00 20.00     0.128 C 
HETATM    6  C4  UNL     1     -37.396  14.487  -5.057  1.00 20.00     0.091 C 
HETATM    7  O10 UNL     1     -35.875  12.666  -5.313  1.00 20.00    -0.298 OA
ENDBRANCH   4   5
BRANCH   4   8
HETATM    8  C9  UNL     1     -33.649  14.544  -5.054  1.00 20.00    -0.011 C 
HETATM    9  C5  UNL     1     -33.326  15.835  -5.811  1.00 20.00     0.010 C 
HETATM   10  C6  UNL     1     -32.450  14.137  -4.191  1.00 20.00     0.010 C 
ENDBRANCH   4   8
ENDBRANCH   3   4
TORSDOF 3
ENDMDL
MODEL 4
REMARK VINA RESULT:      -4.5      1.655      2.908
REMARK  3 active torsions:
REMARK  status: ('A' for Active; 'I' for Inactive)
REMARK    1  A    between atoms: C3_3  and  C8_8 
REMARK    2  A    between atoms: C7_7  and  C8_8 
REMARK    3  A    between atoms: C8_8  and  C9_9 
ROOT
HETATM    1  C1  UNL     1     -31.543   8.537   1.419  1.00 20.00     0.012 C 
HETATM    2  C2  UNL     1     -32.369   8.354   2.270  1.00 20.00    -0.117 C 
HETATM    3  C7  UNL     1     -33.383   8.132   3.316  1.00 20.00     0.105 C 
ENDROOT
BRANCH   3   4
HETATM    4  C8  UNL     1     -33.260   6.728   3.936  1.00 20.00     0.069 C 
BRANCH   4   5
HETATM    5  C3  UNL     1     -33.835   6.701   5.358  1.00 20.00     0.128 C 
HETATM    6  C4  UNL     1     -34.627   5.478   5.747  1.00 20.00     0.091 C 
HETATM    7  O10 UNL     1     -33.679   7.630   6.151  1.00 20.00    -0.298 OA
ENDBRANCH   4   5
BRANCH   4   8
HETATM    8  C9  UNL     1     -33.915   5.601   3.095  1.00 20.00    -0.011 C 
HETATM    9  C5  UNL     1     -34.805   6.118   1.961  1.00 20.00     0.010 C 
HETATM   10  C6  UNL     1     -32.862   4.642   2.530  1.00 20.00     0.010 C 
ENDBRANCH   4   8
ENDBRANCH   3   4
TORSDOF 3
ENDMDL
MODEL 5
REMARK VINA RESULT:      -4.3      1.547      3.977
REMARK  3 active torsions:
REMARK  status: ('A' for Active; 'I' for Inactive)
REMARK    1  A    between atoms: C3_3  and  C8_8 
REMARK    2  A    between atoms: C7_7  and  C8_8 
REMARK    3  A    between atoms: C8_8  and  C9_9 
ROOT
HETATM    1  C1  UNL     1     -34.755   5.008   6.063  1.00 20.00     0.012 C 
HETATM    2  C2  UNL     1     -34.264   6.028   5.663  1.00 20.00    -0.117 C 
HETATM    3  C7  UNL     1     -33.662   7.281   5.174  1.00 20.00     0.105 C 
ENDROOT
BRANCH   3   4
HETATM    4  C8  UNL     1     -33.693   7.362   3.637  1.00 20.00     0.069 C 
BRANCH   4   5
HETATM    5  C3  UNL     1     -32.380   7.936   3.089  1.00 20.00     0.128 C 
HETATM    6  C4  UNL     1     -32.426   8.537   1.706  1.00 20.00     0.091 C 
HETATM    7  O10 UNL     1     -31.327   7.903   3.726  1.00 20.00    -0.298 OA
ENDBRANCH   4   5
BRANCH   4   8
HETATM    8  C9  UNL     1     -33.997   6.013   2.934  1.00 20.00    -0.011 C 
HETATM    9  C5  UNL     1     -34.728   6.168   1.597  1.00 20.00     0.010 C 
HETATM   10  C6  UNL     1     -32.722   5.187   2.733  1.00 20.00     0.010 C 
ENDBRANCH   4   8
ENDBRANCH   3   4
TORSDOF 3
ENDMDL
MODEL 6
REMARK VINA RESULT:      -4.2      1.603      3.651
REMARK  3 active torsions:
REMARK  status: ('A' for Active; 'I' for Inactive)
REMARK    1  A    between atoms: C3_3  and  C8_8 
REMARK    2  A    between atoms: C7_7  and  C8_8 
REMARK    3  A    between atoms: C8_8  and  C9_9 
ROOT
HETATM    1  C1  UNL     1     -34.021   7.104   6.344  1.00 20.00     0.012 C 
HETATM    2  C2  UNL     1     -33.321   7.412   5.420  1.00 20.00    -0.117 C 
HETATM    3  C7  UNL     1     -32.460   7.793   4.286  1.00 20.00     0.105 C 
ENDROOT
BRANCH   3   4
HETATM    4  C8  UNL     1     -33.254   7.858   2.968  1.00 20.00     0.069 C 
BRANCH   4   5
HETATM    5  C3  UNL     1     -32.436   8.541   1.865  1.00 20.00     0.128 C 
HETATM    6  C4  UNL     1     -33.044   9.768   1.231  1.00 20.00     0.091 C 
HETATM    7  O10 UNL     1     -31.343   8.115   1.493  1.00 20.00    -0.298 OA
ENDBRANCH   4   5
BRANCH   4   8
HETATM    8  C9  UNL     1     -33.756   6.481   2.459  1.00 20.00    -0.011 C 
HETATM    9  C5  UNL     1     -32.788   5.329   2.748  1.00 20.00     0.010 C 
HETATM   10  C6  UNL     1     -35.141   6.147   3.022  1.00 20.00     0.010 C 
ENDBRANCH   4   8
ENDBRANCH   3   4
TORSDOF 3
ENDMDL
MODEL 7
REMARK VINA RESULT:      -4.1     10.796     12.315
REMARK  3 active torsions:
REMARK  status: ('A' for Active; 'I' for Inactive)
REMARK    1  A    between atoms: C3_3  and  C8_8 
REMARK    2  A    between atoms: C7_7  and  C8_8 
REMARK    3  A    between atoms: C8_8  and  C9_9 
ROOT
HETATM    1  C1  UNL     1     -34.109  17.794  -7.468  1.00 20.00     0.012 C 
HETATM    2  C2  UNL     1     -33.930  16.659  -7.118  1.00 20.00    -0.117 C 
HETATM    3  C7  UNL     1     -33.708  15.266  -6.691  1.00 20.00     0.105 C 
ENDROOT
BRANCH   3   4
HETATM    4  C8  UNL     1     -34.760  14.816  -5.660  1.00 20.00     0.069 C 
BRANCH   4   5
HETATM    5  C3  UNL     1     -35.459  13.527  -6.113  1.00 20.00     0.128 C 
HETATM    6  C4  UNL     1     -35.534  13.283  -7.599  1.00 20.00     0.091 C 
HETATM    7  O10 UNL     1     -35.952  12.729  -5.317  1.00 20.00    -0.298 OA
ENDBRANCH   4   5
BRANCH   4   8
HETATM    8  C9  UNL     1     -34.204  14.623  -4.225  1.00 20.00    -0.011 C 
HETATM    9  C5  UNL     1     -32.705  14.314  -4.184  1.00 20.00     0.010 C 
HETATM   10  C6  UNL     1     -34.506  15.836  -3.340  1.00 20.00     0.010 C 
ENDBRANCH   4   8
ENDBRANCH   3   4
TORSDOF 3
ENDMDL
MODEL 8
REMARK VINA RESULT:      -4.1      1.697      3.705
REMARK  3 active torsions:
REMARK  status: ('A' for Active; 'I' for Inactive)
REMARK    1  A    between atoms: C3_3  and  C8_8 
REMARK    2  A    between atoms: C7_7  and  C8_8 
REMARK    3  A    between atoms: C8_8  and  C9_9 
ROOT
HETATM    1  C1  UNL     1     -32.766   4.198   2.381  1.00 20.00     0.012 C 
HETATM    2  C2  UNL     1     -33.566   5.039   2.686  1.00 20.00    -0.117 C 
HETATM    3  C7  UNL     1     -34.550   6.072   3.058  1.00 20.00     0.105 C 
ENDROOT
BRANCH   3   4
HETATM    4  C8  UNL     1     -33.898   7.212   3.862  1.00 20.00     0.069 C 
BRANCH   4   5
HETATM    5  C3  UNL     1     -33.892   6.894   5.363  1.00 20.00     0.128 C 
HETATM    6  C4  UNL     1     -34.473   5.565   5.778  1.00 20.00     0.091 C 
HETATM    7  O10 UNL     1     -33.453   7.679   6.203  1.00 20.00    -0.298 OA
ENDBRANCH   4   5
BRANCH   4   8
HETATM    8  C9  UNL     1     -32.459   7.570   3.407  1.00 20.00    -0.011 C 
HETATM    9  C5  UNL     1     -32.390   8.158   1.994  1.00 20.00     0.010 C 
HETATM   10  C6  UNL     1     -31.780   8.522   4.397  1.00 20.00     0.010 C 
ENDBRANCH   4   8
ENDBRANCH   3   4
TORSDOF 3
ENDMDL
MODEL 9
REMARK VINA RESULT:      -4.1     11.064     11.871
REMARK  3 active torsions:
REMARK  status: ('A' for Active; 'I' for Inactive)
REMARK    1  A    between atoms: C3_3  and  C8_8 
REMARK    2  A    between atoms: C7_7  and  C8_8 
REMARK    3  A    between atoms: C8_8  and  C9_9 
ROOT
HETATM    1  C1  UNL     1     -33.664  15.613  -7.587  1.00 20.00     0.012 C 
HETATM    2  C2  UNL     1     -33.571  15.902  -6.426  1.00 20.00    -0.117 C 
HETATM    3  C7  UNL     1     -33.454  16.257  -5.001  1.00 20.00     0.105 C 
ENDROOT
BRANCH   3   4
HETATM    4  C8  UNL     1     -34.732  15.897  -4.221  1.00 20.00     0.069 C 
BRANCH   4   5
HETATM    5  C3  UNL     1     -35.080  14.412  -4.388  1.00 20.00     0.128 C 
HETATM    6  C4  UNL     1     -36.395  14.094  -5.055  1.00 20.00     0.091 C 
HETATM    7  O10 UNL     1     -34.341  13.512  -3.991  1.00 20.00    -0.298 OA
ENDBRANCH   4   5
BRANCH   4   8
HETATM    8  C9  UNL     1     -34.676  16.245  -2.710  1.00 20.00    -0.011 C 
HETATM    9  C5  UNL     1     -33.443  17.063  -2.313  1.00 20.00     0.010 C 
HETATM   10  C6  UNL     1     -35.946  16.972  -2.256  1.00 20.00     0.010 C 
ENDBRANCH   4   8
ENDBRANCH   3   4
TORSDOF 3
ENDMDL
