MODEL 1
REMARK VINA RESULT:      -4.4      0.000      0.000
REMARK  2 active torsions:
REMARK  status: ('A' for Active; 'I' for Inactive)
REMARK    1  A    between atoms: C3_3  and  C4_4 
REMARK    2  A    between atoms: C5_5  and  C7_7 
ROOT
HETATM    1  C1  UNL     1     -33.199   7.714   5.083  1.00 20.00    -0.007 C 
HETATM    2  C2  UNL     1     -33.750   6.907   5.993  1.00 20.00     0.042 C 
HETATM    3  C4  UNL     1     -33.629   7.470   3.669  1.00 20.00     0.084 C 
HETATM    4  C5  UNL     1     -34.333   6.099   3.602  1.00 20.00     0.065 C 
HETATM    5  S9  UNL     1     -34.846   5.744   5.334  1.00 20.00    -0.136 SA
ENDROOT
BRANCH   3   6
HETATM    6  C3  UNL     1     -32.422   7.596   2.789  1.00 20.00     0.240 C 
HETATM    7  O8  UNL     1     -31.417   8.223   3.107  1.00 20.00    -0.306 OA
ENDBRANCH   3   6
BRANCH   4   8
HETATM    8  C7  UNL     1     -33.490   4.928   3.103  1.00 20.00     0.012 C 
HETATM    9  C6  UNL     1     -33.742   3.682   3.893  1.00 20.00     0.006 C 
ENDBRANCH   4   8
TORSDOF 2
ENDMDL
MODEL 2
REMARK VINA RESULT:      -4.1      1.904      3.149
REMARK  2 active torsions:
REMARK  status: ('A' for Active; 'I' for Inactive)
REMARK    1  A    between atoms: C3_3  and  C4_4 
REMARK    2  A    between atoms: C5_5  and  C7_7 
ROOT
HETATM    1  C1  UNL     1     -34.450   5.124   4.961  1.00 20.00    -0.007 C 
HETATM    2  C2  UNL     1     -33.960   4.150   4.191  1.00 20.00     0.042 C 
HETATM    3  C4  UNL     1     -34.541   6.470   4.309  1.00 20.00     0.084 C 
HETATM    4  C5  UNL     1     -33.700   6.444   3.017  1.00 20.00     0.065 C 
HETATM    5  S9  UNL     1     -33.529   4.660   2.597  1.00 20.00    -0.136 SA
ENDROOT
BRANCH   3   6
HETATM    6  C3  UNL     1     -34.117   7.500   5.311  1.00 20.00     0.240 C 
HETATM    7  O8  UNL     1     -33.446   7.241   6.306  1.00 20.00    -0.306 OA
ENDBRANCH   3   6
BRANCH   4   8
HETATM    8  C7  UNL     1     -32.301   7.051   3.107  1.00 20.00     0.012 C 
HETATM    9  C6  UNL     1     -32.140   8.222   2.190  1.00 20.00     0.006 C 
ENDBRANCH   4   8
TORSDOF 2
ENDMDL
MODEL 3
REMARK VINA RESULT:      -4.0      2.340      3.731
REMARK  2 active torsions:
REMARK  status: ('A' for Active; 'I' for Inactive)
REMARK    1  A    between atoms: C3_3  and  C4_4 
REMARK    2  A    between atoms: C5_5  and  C7_7 
ROOT
HETATM    1  C1  UNL     1     -33.281   5.380   2.803  1.00 20.00    -0.007 C 
HETATM    2  C2  UNL     1     -32.525   6.467   2.640  1.00 20.00     0.042 C 
HETATM    3  C4  UNL     1     -34.542   5.590   3.585  1.00 20.00     0.084 C 
HETATM    4  C5  UNL     1     -34.449   6.951   4.304  1.00 20.00     0.065 C 
HETATM    5  S9  UNL     1     -33.168   7.893   3.376  1.00 20.00    -0.136 SA
ENDROOT
BRANCH   3   6
HETATM    6  C3  UNL     1     -34.725   4.414   4.495  1.00 20.00     0.240 C 
HETATM    7  O8  UNL     1     -34.006   3.420   4.469  1.00 20.00    -0.306 OA
ENDBRANCH   3   6
BRANCH   4   8
HETATM    8  C7  UNL     1     -34.042   6.914   5.776  1.00 20.00     0.012 C 
HETATM    9  C6  UNL     1     -32.988   7.928   6.090  1.00 20.00     0.006 C 
ENDBRANCH   4   8
TORSDOF 2
ENDMDL
MODEL 4
REMARK VINA RESULT:      -3.8     12.288     13.132
REMARK  2 active torsions:
REMARK  status: ('A' for Active; 'I' for Inactive)
REMARK    1  A    between atoms: C3_3  and  C4_4 
REMARK    2  A    between atoms: C5_5  and  C7_7 
ROOT
HETATM    1  C1  UNL     1     -34.286  14.713  -6.249  1.00 20.00    -0.007 C 
HETATM    2  C2  UNL     1     -33.271  15.569  -6.115  1.00 20.00     0.042 C 
HETATM    3  C4  UNL     1     -35.559  15.122  -5.573  1.00 20.00     0.084 C 
HETATM    4  C5  UNL     1     -35.245  16.269  -4.592  1.00 20.00     0.065 C 
HETATM    5  S9  UNL     1     -33.648  16.973  -5.179  1.00 20.00    -0.136 SA
ENDROOT
BRANCH   3   6
HETATM    6  C3  UNL     1     -36.159  13.904  -4.939  1.00 20.00     0.240 C 
HETATM    7  O8  UNL     1     -35.860  12.758  -5.259  1.00 20.00    -0.306 OA
ENDBRANCH   3   6
BRANCH   4   8
HETATM    8  C7  UNL     1     -35.085  15.881  -3.124  1.00 20.00     0.012 C 
HETATM    9  C6  UNL     1     -34.025  16.690  -2.444  1.00 20.00     0.006 C 
ENDBRANCH   4   8
TORSDOF 2
ENDMDL
MODEL 5
REMARK VINA RESULT:      -3.5     12.227     13.215
REMARK  2 active torsions:
REMARK  status: ('A' for Active; 'I' for Inactive)
REMARK    1  A    between atoms: C3_3  and  C4_4 
REMARK    2  A    between atoms: C5_5  and  C7_7 
ROOT
HETATM    1  C1  UNL     1     -35.684  15.772  -3.758  1.00 20.00    -0.007 C 
HETATM    2  C2  UNL     1     -35.057  16.951  -3.784  1.00 20.00     0.042 C 
HETATM    3  C4  UNL     1     -34.934  14.636  -4.385  1.00 20.00     0.084 C 
HETATM    4  C5  UNL     1     -33.775  15.217  -5.219  1.00 20.00     0.065 C 
HETATM    5  S9  UNL     1     -33.506  16.910  -4.545  1.00 20.00    -0.136 SA
ENDROOT
BRANCH   3   6
HETATM    6  C3  UNL     1     -35.912  13.809  -5.163  1.00 20.00     0.240 C 
HETATM    7  O8  UNL     1     -35.870  12.584  -5.215  1.00 20.00    -0.306 OA
ENDBRANCH   3   6
BRANCH   4   8
HETATM    8  C7  UNL     1     -34.015  15.334  -6.723  1.00 20.00     0.012 C 
HETATM    9  C6  UNL     1     -33.860  16.741  -7.206  1.00 20.00     0.006 C 
ENDBRANCH   4   8
TORSDOF 2
ENDMDL
MODEL 6
REMARK VINA RESULT:      -3.5     11.955     12.720
REMARK  2 active torsions:
REMARK  status: ('A' for Active; 'I' for Inactive)
REMARK    1  A    between atoms: C3_3  and  C4_4 
REMARK    2  A    between atoms: C5_5  and  C7_7 
ROOT
HETATM    1  C1  UNL     1     -36.653  14.754  -4.652  1.00 20.00    -0.007 C 
HETATM    2  C2  UNL     1     -36.552  15.815  -3.849  1.00 20.00     0.042 C 
HETATM    3  C4  UNL     1     -35.408  13.929  -4.781  1.00 20.00     0.084 C 
HETATM    4  C5  UNL     1     -34.224  14.741  -4.218  1.00 20.00     0.065 C 
HETATM    5  S9  UNL     1     -34.993  16.010  -3.128  1.00 20.00    -0.136 SA
ENDROOT
BRANCH   3   6
HETATM    6  C3  UNL     1     -35.264  13.526  -6.217  1.00 20.00     0.240 C 
HETATM    7  O8  UNL     1     -35.159  12.360  -6.585  1.00 20.00    -0.306 OA
ENDBRANCH   3   6
BRANCH   4   8
HETATM    8  C7  UNL     1     -33.347  15.458  -5.242  1.00 20.00     0.012 C 
HETATM    9  C6  UNL     1     -33.416  16.946  -5.093  1.00 20.00     0.006 C 
ENDBRANCH   4   8
TORSDOF 2
ENDMDL
MODEL 7
REMARK VINA RESULT:      -3.4     12.037     13.090
REMARK  2 active torsions:
REMARK  status: ('A' for Active; 'I' for Inactive)
REMARK    1  A    between atoms: C3_3  and  C4_4 
REMARK    2  A    between atoms: C5_5  and  C7_7 
ROOT
HETATM    1  C1  UNL     1     -36.145  15.818  -5.739  1.00 20.00    -0.007 C 
HETATM    2  C2  UNL     1     -36.092  17.151  -5.715  1.00 20.00     0.042 C 
HETATM    3  C4  UNL     1     -36.041  15.150  -4.401  1.00 20.00     0.084 C 
HETATM    4  C5  UNL     1     -35.537  16.186  -3.376  1.00 20.00     0.065 C 
HETATM    5  S9  UNL     1     -35.910  17.823  -4.132  1.00 20.00    -0.136 SA
ENDROOT
BRANCH   3   6
HETATM    6  C3  UNL     1     -35.166  13.943  -4.552  1.00 20.00     0.240 C 
HETATM    7  O8  UNL     1     -35.545  12.891  -5.058  1.00 20.00    -0.306 OA
ENDBRANCH   3   6
BRANCH   4   8
HETATM    8  C7  UNL     1     -34.048  16.141  -3.043  1.00 20.00     0.012 C 
HETATM    9  C6  UNL     1     -33.694  17.088  -1.940  1.00 20.00     0.006 C 
ENDBRANCH   4   8
TORSDOF 2
ENDMDL
MODEL 8
REMARK VINA RESULT:      -3.3     11.816     12.934
REMARK  2 active torsions:
REMARK  status: ('A' for Active; 'I' for Inactive)
REMARK    1  A    between atoms: C3_3  and  C4_4 
REMARK    2  A    between atoms: C5_5  and  C7_7 
ROOT
HETATM    1  C1  UNL     1     -35.305  13.859  -4.451  1.00 20.00    -0.007 C 
HETATM    2  C2  UNL     1     -36.252  13.621  -5.360  1.00 20.00     0.042 C 
HETATM    3  C4  UNL     1     -34.537  15.131  -4.646  1.00 20.00     0.084 C 
HETATM    4  C5  UNL     1     -34.816  15.656  -6.069  1.00 20.00     0.065 C 
HETATM    5  S9  UNL     1     -36.387  14.841  -6.577  1.00 20.00    -0.136 SA
ENDROOT
BRANCH   3   6
HETATM    6  C3  UNL     1     -33.094  14.852  -4.354  1.00 20.00     0.240 C 
HETATM    7  O8  UNL     1     -32.637  13.721  -4.223  1.00 20.00    -0.306 OA
ENDBRANCH   3   6
BRANCH   4   8
HETATM    8  C7  UNL     1     -33.755  15.350  -7.124  1.00 20.00     0.012 C 
HETATM    9  C6  UNL     1     -34.093  14.128  -7.918  1.00 20.00     0.006 C 
ENDBRANCH   4   8
TORSDOF 2
ENDMDL
MODEL 9
REMARK VINA RESULT:      -3.3     12.206     13.537
REMARK  2 active torsions:
REMARK  status: ('A' for Active; 'I' for Inactive)
REMARK    1  A    between atoms: C3_3  and  C4_4 
REMARK    2  A    between atoms: C5_5  and  C7_7 
ROOT
HETATM    1  C1  UNL     1     -34.095  14.458  -4.265  1.00 20.00    -0.007 C 
HETATM    2  C2  UNL     1     -33.729  15.650  -3.791  1.00 20.00     0.042 C 
HETATM    3  C4  UNL     1     -34.314  14.399  -5.746  1.00 20.00     0.084 C 
HETATM    4  C5  UNL     1     -34.401  15.841  -6.284  1.00 20.00     0.065 C 
HETATM    5  S9  UNL     1     -33.588  16.879  -4.999  1.00 20.00    -0.136 SA
ENDROOT
BRANCH   3   6
HETATM    6  C3  UNL     1     -35.529  13.561  -6.003  1.00 20.00     0.240 C 
HETATM    7  O8  UNL     1     -35.935  12.702  -5.226  1.00 20.00    -0.306 OA
ENDBRANCH   3   6
BRANCH   4   8
HETATM    8  C7  UNL     1     -35.805  16.391  -6.525  1.00 20.00     0.012 C 
HETATM    9  C6  UNL     1     -35.970  16.912  -7.918  1.00 20.00     0.006 C 
ENDBRANCH   4   8
TORSDOF 2
ENDMDL
