MODEL 1
REMARK VINA RESULT:      -5.8      0.000      0.000
REMARK  2 active torsions:
REMARK  status: ('A' for Active; 'I' for Inactive)
REMARK    1  A    between atoms: C3_3  and  C5_5 
REMARK    2  A    between atoms: C3_3  and  O11_11 
ROOT
HETATM    1  C1  UNL     1     -32.876   4.159   2.211  1.00 20.00     0.013 C 
HETATM    2  C2  UNL     1     -33.171   5.163   2.800  1.00 20.00    -0.096 C 
HETATM    3  C4  UNL     1     -35.005   6.642   3.695  1.00 20.00     0.044 A 
HETATM    4  C5  UNL     1     -33.525   6.368   3.507  1.00 20.00     0.118 A 
HETATM    5  C6  UNL     1     -34.175   6.254   4.893  1.00 20.00    -0.018 A 
HETATM    6  C7  UNL     1     -33.901   7.320   5.927  1.00 20.00     0.017 C 
HETATM    7  C8  UNL     1     -34.416   4.892   5.500  1.00 20.00     0.017 C 
ENDROOT
BRANCH   4   8
HETATM    8  C3  UNL     1     -32.650   7.524   3.220  1.00 20.00     0.280 C 
HETATM    9  O10 UNL     1     -31.602   7.753   3.809  1.00 20.00    -0.263 OA
BRANCH   8  10
HETATM   10  O11 UNL     1     -33.194   8.270   2.216  1.00 20.00    -0.325 OA
HETATM   11  C9  UNL     1     -32.262   9.032   1.443  1.00 20.00     0.213 C 
ENDBRANCH   8  10
ENDBRANCH   4   8
TORSDOF 2
ENDMDL
MODEL 2
REMARK VINA RESULT:      -4.4     11.300     12.587
REMARK  2 active torsions:
REMARK  status: ('A' for Active; 'I' for Inactive)
REMARK    1  A    between atoms: C3_3  and  C5_5 
REMARK    2  A    between atoms: C3_3  and  O11_11 
ROOT
HETATM    1  C1  UNL     1     -33.672  15.210  -7.918  1.00 20.00     0.013 C 
HETATM    2  C2  UNL     1     -34.058  14.950  -6.811  1.00 20.00    -0.096 C 
HETATM    3  C4  UNL     1     -33.464  14.318  -4.446  1.00 20.00     0.044 A 
HETATM    4  C5  UNL     1     -34.522  14.637  -5.483  1.00 20.00     0.118 A 
HETATM    5  C6  UNL     1     -34.221  15.617  -4.340  1.00 20.00    -0.018 A 
HETATM    6  C7  UNL     1     -35.212  15.757  -3.208  1.00 20.00     0.017 C 
HETATM    7  C8  UNL     1     -33.466  16.894  -4.623  1.00 20.00     0.017 C 
ENDROOT
BRANCH   4   8
HETATM    8  C3  UNL     1     -35.774  13.853  -5.443  1.00 20.00     0.280 C 
HETATM    9  O10 UNL     1     -35.859  12.720  -4.989  1.00 20.00    -0.263 OA
BRANCH   8  10
HETATM   10  O11 UNL     1     -36.790  14.587  -5.983  1.00 20.00    -0.325 OA
HETATM   11  C9  UNL     1     -38.056  14.458  -5.329  1.00 20.00     0.213 C 
ENDBRANCH   8  10
ENDBRANCH   4   8
TORSDOF 2
ENDMDL
MODEL 3
REMARK VINA RESULT:      -4.4     11.628     12.777
REMARK  2 active torsions:
REMARK  status: ('A' for Active; 'I' for Inactive)
REMARK    1  A    between atoms: C3_3  and  C5_5 
REMARK    2  A    between atoms: C3_3  and  O11_11 
ROOT
HETATM    1  C1  UNL     1     -33.784  16.145  -3.305  1.00 20.00     0.013 C 
HETATM    2  C2  UNL     1     -34.662  15.640  -3.950  1.00 20.00    -0.096 C 
HETATM    3  C4  UNL     1     -37.131  15.206  -4.209  1.00 20.00     0.044 A 
HETATM    4  C5  UNL     1     -35.715  15.034  -4.725  1.00 20.00     0.118 A 
HETATM    5  C6  UNL     1     -36.714  15.939  -5.460  1.00 20.00    -0.018 A 
HETATM    6  C7  UNL     1     -37.305  15.475  -6.770  1.00 20.00     0.017 C 
HETATM    7  C8  UNL     1     -36.569  17.440  -5.377  1.00 20.00     0.017 C 
ENDROOT
BRANCH   4   8
HETATM    8  C3  UNL     1     -35.361  13.728  -5.319  1.00 20.00     0.280 C 
HETATM    9  O10 UNL     1     -36.025  12.710  -5.182  1.00 20.00    -0.263 OA
BRANCH   8  10
HETATM   10  O11 UNL     1     -34.201  13.848  -6.027  1.00 20.00    -0.325 OA
HETATM   11  C9  UNL     1     -34.320  13.650  -7.439  1.00 20.00     0.213 C 
ENDBRANCH   8  10
ENDBRANCH   4   8
TORSDOF 2
ENDMDL
MODEL 4
REMARK VINA RESULT:      -4.3     11.098     12.561
REMARK  2 active torsions:
REMARK  status: ('A' for Active; 'I' for Inactive)
REMARK    1  A    between atoms: C3_3  and  C5_5 
REMARK    2  A    between atoms: C3_3  and  O11_11 
ROOT
HETATM    1  C1  UNL     1     -32.819  14.112  -4.071  1.00 20.00     0.013 C 
HETATM    2  C2  UNL     1     -33.940  14.414  -4.380  1.00 20.00    -0.096 C 
HETATM    3  C4  UNL     1     -35.959  15.849  -3.918  1.00 20.00     0.044 A 
HETATM    4  C5  UNL     1     -35.285  14.775  -4.750  1.00 20.00     0.118 A 
HETATM    5  C6  UNL     1     -35.547  16.172  -5.332  1.00 20.00    -0.018 A 
HETATM    6  C7  UNL     1     -36.643  16.351  -6.356  1.00 20.00     0.017 C 
HETATM    7  C8  UNL     1     -34.398  17.133  -5.524  1.00 20.00     0.017 C 
ENDROOT
BRANCH   4   8
HETATM    8  C3  UNL     1     -36.118  13.643  -5.205  1.00 20.00     0.280 C 
HETATM    9  O10 UNL     1     -37.305  13.514  -4.938  1.00 20.00    -0.263 OA
BRANCH   8  10
HETATM   10  O11 UNL     1     -35.359  12.789  -5.953  1.00 20.00    -0.325 OA
HETATM   11  C9  UNL     1     -35.326  13.066  -7.356  1.00 20.00     0.213 C 
ENDBRANCH   8  10
ENDBRANCH   4   8
TORSDOF 2
ENDMDL
MODEL 5
REMARK VINA RESULT:      -4.3     11.627     13.039
REMARK  2 active torsions:
REMARK  status: ('A' for Active; 'I' for Inactive)
REMARK    1  A    between atoms: C3_3  and  C5_5 
REMARK    2  A    between atoms: C3_3  and  O11_11 
ROOT
HETATM    1  C1  UNL     1     -34.858  15.912  -3.072  1.00 20.00     0.013 C 
HETATM    2  C2  UNL     1     -35.109  15.496  -4.170  1.00 20.00    -0.096 C 
HETATM    3  C4  UNL     1     -35.588  16.025  -6.586  1.00 20.00     0.044 A 
HETATM    4  C5  UNL     1     -35.413  14.996  -5.487  1.00 20.00     0.118 A 
HETATM    5  C6  UNL     1     -34.364  15.144  -6.599  1.00 20.00    -0.018 A 
HETATM    6  C7  UNL     1     -34.275  14.088  -7.675  1.00 20.00     0.017 C 
HETATM    7  C8  UNL     1     -33.032  15.790  -6.294  1.00 20.00     0.017 C 
ENDROOT
BRANCH   4   8
HETATM    8  C3  UNL     1     -36.311  13.823  -5.503  1.00 20.00     0.280 C 
HETATM    9  O10 UNL     1     -35.996  12.711  -5.102  1.00 20.00    -0.263 OA
BRANCH   8  10
HETATM   10  O11 UNL     1     -37.519  14.181  -6.028  1.00 20.00    -0.325 OA
HETATM   11  C9  UNL     1     -38.512  14.569  -5.074  1.00 20.00     0.213 C 
ENDBRANCH   8  10
ENDBRANCH   4   8
TORSDOF 2
ENDMDL
MODEL 6
REMARK VINA RESULT:      -4.3     11.332     12.461
REMARK  2 active torsions:
REMARK  status: ('A' for Active; 'I' for Inactive)
REMARK    1  A    between atoms: C3_3  and  C5_5 
REMARK    2  A    between atoms: C3_3  and  O11_11 
ROOT
HETATM    1  C1  UNL     1     -38.545  15.518  -4.170  1.00 20.00     0.013 C 
HETATM    2  C2  UNL     1     -37.409  15.322  -4.505  1.00 20.00    -0.096 C 
HETATM    3  C4  UNL     1     -35.222  16.301  -5.286  1.00 20.00     0.044 A 
HETATM    4  C5  UNL     1     -36.046  15.084  -4.908  1.00 20.00     0.118 A 
HETATM    5  C6  UNL     1     -34.906  15.574  -4.003  1.00 20.00    -0.018 A 
HETATM    6  C7  UNL     1     -33.618  14.786  -3.946  1.00 20.00     0.017 C 
HETATM    7  C8  UNL     1     -35.227  16.275  -2.704  1.00 20.00     0.017 C 
ENDROOT
BRANCH   4   8
HETATM    8  C3  UNL     1     -35.849  13.855  -5.705  1.00 20.00     0.280 C 
HETATM    9  O10 UNL     1     -35.929  12.723  -5.249  1.00 20.00    -0.263 OA
BRANCH   8  10
HETATM   10  O11 UNL     1     -35.570  14.189  -6.998  1.00 20.00    -0.325 OA
HETATM   11  C9  UNL     1     -34.390  13.593  -7.545  1.00 20.00     0.213 C 
ENDBRANCH   8  10
ENDBRANCH   4   8
TORSDOF 2
ENDMDL
MODEL 7
REMARK VINA RESULT:      -4.3     11.185     12.696
REMARK  2 active torsions:
REMARK  status: ('A' for Active; 'I' for Inactive)
REMARK    1  A    between atoms: C3_3  and  C5_5 
REMARK    2  A    between atoms: C3_3  and  O11_11 
ROOT
HETATM    1  C1  UNL     1     -34.960  16.735  -1.570  1.00 20.00     0.013 C 
HETATM    2  C2  UNL     1     -34.927  16.371  -2.714  1.00 20.00    -0.096 C 
HETATM    3  C4  UNL     1     -35.651  16.769  -5.095  1.00 20.00     0.044 A 
HETATM    4  C5  UNL     1     -34.887  15.933  -4.086  1.00 20.00     0.118 A 
HETATM    5  C6  UNL     1     -34.143  16.791  -5.120  1.00 20.00    -0.018 A 
HETATM    6  C7  UNL     1     -33.455  16.115  -6.282  1.00 20.00     0.017 C 
HETATM    7  C8  UNL     1     -33.453  18.062  -4.684  1.00 20.00     0.017 C 
ENDROOT
BRANCH   4   8
HETATM    8  C3  UNL     1     -34.912  14.465  -4.261  1.00 20.00     0.280 C 
HETATM    9  O10 UNL     1     -34.008  13.718  -3.916  1.00 20.00    -0.263 OA
BRANCH   8  10
HETATM   10  O11 UNL     1     -36.084  14.097  -4.855  1.00 20.00    -0.325 OA
HETATM   11  C9  UNL     1     -35.951  13.276  -6.019  1.00 20.00     0.213 C 
ENDBRANCH   8  10
ENDBRANCH   4   8
TORSDOF 2
ENDMDL
MODEL 8
REMARK VINA RESULT:      -4.2     11.292     12.628
REMARK  2 active torsions:
REMARK  status: ('A' for Active; 'I' for Inactive)
REMARK    1  A    between atoms: C3_3  and  C5_5 
REMARK    2  A    between atoms: C3_3  and  O11_11 
ROOT
HETATM    1  C1  UNL     1     -35.178  16.734  -1.747  1.00 20.00     0.013 C 
HETATM    2  C2  UNL     1     -34.904  16.224  -2.799  1.00 20.00    -0.096 C 
HETATM    3  C4  UNL     1     -34.713  14.105  -4.149  1.00 20.00     0.044 A 
HETATM    4  C5  UNL     1     -34.574  15.613  -4.061  1.00 20.00     0.118 A 
HETATM    5  C6  UNL     1     -35.695  14.974  -4.894  1.00 20.00    -0.018 A 
HETATM    6  C7  UNL     1     -35.600  14.999  -6.401  1.00 20.00     0.017 C 
HETATM    7  C8  UNL     1     -37.119  15.011  -4.391  1.00 20.00     0.017 C 
ENDROOT
BRANCH   4   8
HETATM    8  C3  UNL     1     -33.429  16.233  -4.760  1.00 20.00     0.280 C 
HETATM    9  O10 UNL     1     -32.553  15.601  -5.335  1.00 20.00    -0.263 OA
BRANCH   8  10
HETATM   10  O11 UNL     1     -33.512  17.591  -4.656  1.00 20.00    -0.325 OA
HETATM   11  C9  UNL     1     -33.896  18.276  -5.851  1.00 20.00     0.213 C 
ENDBRANCH   8  10
ENDBRANCH   4   8
TORSDOF 2
ENDMDL
MODEL 9
REMARK VINA RESULT:      -4.0     11.187     12.700
REMARK  2 active torsions:
REMARK  status: ('A' for Active; 'I' for Inactive)
REMARK    1  A    between atoms: C3_3  and  C5_5 
REMARK    2  A    between atoms: C3_3  and  O11_11 
ROOT
HETATM    1  C1  UNL     1     -38.242  14.605  -4.987  1.00 20.00     0.013 C 
HETATM    2  C2  UNL     1     -37.069  14.505  -5.222  1.00 20.00    -0.096 C 
HETATM    3  C4  UNL     1     -35.266  13.470  -6.647  1.00 20.00     0.044 A 
HETATM    4  C5  UNL     1     -35.660  14.385  -5.503  1.00 20.00     0.118 A 
HETATM    5  C6  UNL     1     -35.112  14.961  -6.816  1.00 20.00    -0.018 A 
HETATM    6  C7  UNL     1     -33.708  15.517  -6.848  1.00 20.00     0.017 C 
HETATM    7  C8  UNL     1     -36.045  15.657  -7.779  1.00 20.00     0.017 C 
ENDROOT
BRANCH   4   8
HETATM    8  C3  UNL     1     -34.796  14.387  -4.304  1.00 20.00     0.280 C 
HETATM    9  O10 UNL     1     -33.997  13.501  -4.033  1.00 20.00    -0.263 OA
BRANCH   8  10
HETATM   10  O11 UNL     1     -35.034  15.514  -3.573  1.00 20.00    -0.325 OA
HETATM   11  C9  UNL     1     -33.875  16.280  -3.231  1.00 20.00     0.213 C 
ENDBRANCH   8  10
ENDBRANCH   4   8
TORSDOF 2
ENDMDL
