MODEL 1
REMARK VINA RESULT:      -5.3      0.000      0.000
REMARK  1 active torsions:
REMARK  status: ('A' for Active; 'I' for Inactive)
REMARK    1  A    between atoms: C1_1  and  C5_5 
ROOT
HETATM    1  C2  UNL     1     -34.038   7.278   4.566  1.00 20.00     0.015 C 
HETATM    2  C3  UNL     1     -32.581   7.688   4.367  1.00 20.00     0.021 C 
HETATM    3  C4  UNL     1     -32.981   5.938   2.800  1.00 20.00     0.033 C 
HETATM    4  C5  UNL     1     -34.242   6.054   3.666  1.00 20.00     0.073 C 
HETATM    5  C6  UNL     1     -32.267   7.280   2.935  1.00 20.00     0.083 C 
HETATM    6 CL9  UNL     1     -32.929   8.467   1.774  1.00 20.00    -0.125 Cl
ENDROOT
BRANCH   4   7
HETATM    7  C1  UNL     1     -34.427   4.814   4.484  1.00 20.00     0.223 C 
HETATM    8  O7  UNL     1     -34.342   3.695   3.989  1.00 20.00    -0.279 OA
HETATM    9 CL8  UNL     1     -34.761   5.175   6.151  1.00 20.00    -0.043 Cl
ENDBRANCH   4   7
TORSDOF 1
ENDMDL
MODEL 2
REMARK VINA RESULT:      -4.9      1.334      1.334
REMARK  1 active torsions:
REMARK  status: ('A' for Active; 'I' for Inactive)
REMARK    1  A    between atoms: C1_1  and  C5_5 
ROOT
HETATM    1  C2  UNL     1     -33.581   7.767   4.661  1.00 20.00     0.015 C 
HETATM    2  C3  UNL     1     -32.151   7.852   4.135  1.00 20.00     0.021 C 
HETATM    3  C4  UNL     1     -33.213   6.152   2.847  1.00 20.00     0.033 C 
HETATM    4  C5  UNL     1     -34.210   6.571   3.935  1.00 20.00     0.073 C 
HETATM    5  C6  UNL     1     -32.240   7.319   2.712  1.00 20.00     0.083 C 
HETATM    6 CL9  UNL     1     -32.893   8.562   1.606  1.00 20.00    -0.125 Cl
ENDROOT
BRANCH   4   7
HETATM    7  C1  UNL     1     -34.452   5.438   4.884  1.00 20.00     0.223 C 
HETATM    8  O7  UNL     1     -34.805   5.630   6.043  1.00 20.00    -0.279 OA
HETATM    9 CL8  UNL     1     -34.173   3.893   4.140  1.00 20.00    -0.043 Cl
ENDBRANCH   4   7
TORSDOF 1
ENDMDL
MODEL 3
REMARK VINA RESULT:      -4.8      1.025      1.202
REMARK  1 active torsions:
REMARK  status: ('A' for Active; 'I' for Inactive)
REMARK    1  A    between atoms: C1_1  and  C5_5 
ROOT
HETATM    1  C2  UNL     1     -32.789   7.990   4.464  1.00 20.00     0.015 C 
HETATM    2  C3  UNL     1     -31.512   8.071   3.632  1.00 20.00     0.021 C 
HETATM    3  C4  UNL     1     -33.122   6.999   2.241  1.00 20.00     0.033 C 
HETATM    4  C5  UNL     1     -33.770   7.166   3.622  1.00 20.00     0.073 C 
HETATM    5  C6  UNL     1     -31.997   8.028   2.190  1.00 20.00     0.083 C 
HETATM    6 CL9  UNL     1     -32.622   9.624   1.681  1.00 20.00    -0.125 Cl
ENDROOT
BRANCH   4   7
HETATM    7  C1  UNL     1     -34.015   5.827   4.247  1.00 20.00     0.223 C 
HETATM    8  O7  UNL     1     -33.913   4.787   3.604  1.00 20.00    -0.279 OA
HETATM    9 CL8  UNL     1     -34.443   5.959   5.925  1.00 20.00    -0.043 Cl
ENDBRANCH   4   7
TORSDOF 1
ENDMDL
MODEL 4
REMARK VINA RESULT:      -4.6      2.256      4.152
REMARK  1 active torsions:
REMARK  status: ('A' for Active; 'I' for Inactive)
REMARK    1  A    between atoms: C1_1  and  C5_5 
ROOT
HETATM    1  C2  UNL     1     -33.215   6.233   2.006  1.00 20.00     0.015 C 
HETATM    2  C3  UNL     1     -33.248   5.125   3.055  1.00 20.00     0.021 C 
HETATM    3  C4  UNL     1     -33.462   7.166   4.265  1.00 20.00     0.033 C 
HETATM    4  C5  UNL     1     -33.199   7.543   2.801  1.00 20.00     0.073 C 
HETATM    5  C6  UNL     1     -33.998   5.738   4.229  1.00 20.00     0.083 C 
HETATM    6 CL9  UNL     1     -35.761   5.731   3.932  1.00 20.00    -0.125 Cl
ENDROOT
BRANCH   4   7
HETATM    7  C1  UNL     1     -31.875   8.231   2.671  1.00 20.00     0.223 C 
HETATM    8  O7  UNL     1     -31.122   8.368   3.630  1.00 20.00    -0.279 OA
HETATM    9 CL8  UNL     1     -31.579   8.776   1.049  1.00 20.00    -0.043 Cl
ENDBRANCH   4   7
TORSDOF 1
ENDMDL
MODEL 5
REMARK VINA RESULT:      -4.6      2.246      3.924
REMARK  1 active torsions:
REMARK  status: ('A' for Active; 'I' for Inactive)
REMARK    1  A    between atoms: C1_1  and  C5_5 
ROOT
HETATM    1  C2  UNL     1     -33.183   7.144   4.841  1.00 20.00     0.015 C 
HETATM    2  C3  UNL     1     -34.676   6.860   4.695  1.00 20.00     0.021 C 
HETATM    3  C4  UNL     1     -33.682   6.161   2.646  1.00 20.00     0.033 C 
HETATM    4  C5  UNL     1     -32.576   6.835   3.467  1.00 20.00     0.073 C 
HETATM    5  C6  UNL     1     -34.750   5.751   3.656  1.00 20.00     0.083 C 
HETATM    6 CL9  UNL     1     -34.355   4.168   4.386  1.00 20.00    -0.125 Cl
ENDROOT
BRANCH   4   7
HETATM    7  C1  UNL     1     -32.118   8.090   2.791  1.00 20.00     0.223 C 
HETATM    8  O7  UNL     1     -31.255   8.810   3.284  1.00 20.00    -0.279 OA
HETATM    9 CL8  UNL     1     -32.944   8.361   1.287  1.00 20.00    -0.043 Cl
ENDBRANCH   4   7
TORSDOF 1
ENDMDL
MODEL 6
REMARK VINA RESULT:      -4.2     11.811     12.490
REMARK  1 active torsions:
REMARK  status: ('A' for Active; 'I' for Inactive)
REMARK    1  A    between atoms: C1_1  and  C5_5 
ROOT
HETATM    1  C2  UNL     1     -33.483  14.579  -4.556  1.00 20.00     0.015 C 
HETATM    2  C3  UNL     1     -33.209  16.050  -4.859  1.00 20.00     0.021 C 
HETATM    3  C4  UNL     1     -35.433  15.969  -4.010  1.00 20.00     0.033 C 
HETATM    4  C5  UNL     1     -34.962  14.517  -4.157  1.00 20.00     0.073 C 
HETATM    5  C6  UNL     1     -34.160  16.808  -3.944  1.00 20.00     0.083 C 
HETATM    6 CL9  UNL     1     -33.526  16.866  -2.274  1.00 20.00    -0.125 Cl
ENDROOT
BRANCH   4   7
HETATM    7  C1  UNL     1     -35.768  13.812  -5.203  1.00 20.00     0.223 C 
HETATM    8  O7  UNL     1     -35.860  12.588  -5.232  1.00 20.00    -0.279 OA
HETATM    9 CL8  UNL     1     -36.515  14.923  -6.311  1.00 20.00    -0.043 Cl
ENDBRANCH   4   7
TORSDOF 1
ENDMDL
MODEL 7
REMARK VINA RESULT:      -4.0      3.124      4.621
REMARK  1 active torsions:
REMARK  status: ('A' for Active; 'I' for Inactive)
REMARK    1  A    between atoms: C1_1  and  C5_5 
ROOT
HETATM    1  C2  UNL     1     -31.763   8.020   3.152  1.00 20.00     0.015 C 
HETATM    2  C3  UNL     1     -32.904   7.476   4.006  1.00 20.00     0.021 C 
HETATM    3  C4  UNL     1     -33.637   7.278   1.748  1.00 20.00     0.033 C 
HETATM    4  C5  UNL     1     -32.300   8.030   1.716  1.00 20.00     0.073 C 
HETATM    5  C6  UNL     1     -33.654   6.531   3.078  1.00 20.00     0.083 C 
HETATM    6 CL9  UNL     1     -32.800   4.967   2.937  1.00 20.00    -0.125 Cl
ENDROOT
BRANCH   4   7
HETATM    7  C1  UNL     1     -32.505   9.433   1.233  1.00 20.00     0.223 C 
HETATM    8  O7  UNL     1     -32.263  10.403   1.945  1.00 20.00    -0.279 OA
HETATM    9 CL8  UNL     1     -33.104   9.481  -0.398  1.00 20.00    -0.043 Cl
ENDBRANCH   4   7
TORSDOF 1
ENDMDL
MODEL 8
REMARK VINA RESULT:      -3.9      1.411      1.953
REMARK  1 active torsions:
REMARK  status: ('A' for Active; 'I' for Inactive)
REMARK    1  A    between atoms: C1_1  and  C5_5 
ROOT
HETATM    1  C2  UNL     1     -32.964   5.715   2.782  1.00 20.00     0.015 C 
HETATM    2  C3  UNL     1     -33.010   6.907   1.831  1.00 20.00     0.021 C 
HETATM    3  C4  UNL     1     -33.619   7.763   3.969  1.00 20.00     0.033 C 
HETATM    4  C5  UNL     1     -33.503   6.241   4.118  1.00 20.00     0.073 C 
HETATM    5  C6  UNL     1     -32.802   8.117   2.731  1.00 20.00     0.083 C 
HETATM    6 CL9  UNL     1     -31.074   8.309   3.148  1.00 20.00    -0.125 Cl
ENDROOT
BRANCH   4   7
HETATM    7  C1  UNL     1     -34.842   5.644   4.425  1.00 20.00     0.223 C 
HETATM    8  O7  UNL     1     -35.817   5.843   3.707  1.00 20.00    -0.279 OA
HETATM    9 CL8  UNL     1     -34.813   4.682   5.871  1.00 20.00    -0.043 Cl
ENDBRANCH   4   7
TORSDOF 1
ENDMDL
MODEL 9
REMARK VINA RESULT:      -3.8     12.338     12.966
REMARK  1 active torsions:
REMARK  status: ('A' for Active; 'I' for Inactive)
REMARK    1  A    between atoms: C1_1  and  C5_5 
ROOT
HETATM    1  C2  UNL     1     -35.038  16.604  -1.762  1.00 20.00     0.015 C 
HETATM    2  C3  UNL     1     -35.870  16.650  -3.040  1.00 20.00     0.021 C 
HETATM    3  C4  UNL     1     -33.601  16.843  -3.740  1.00 20.00     0.033 C 
HETATM    4  C5  UNL     1     -33.597  16.881  -2.207  1.00 20.00     0.073 C 
HETATM    5  C6  UNL     1     -34.918  16.178  -4.129  1.00 20.00     0.083 C 
HETATM    6 CL9  UNL     1     -34.758  14.398  -4.106  1.00 20.00    -0.125 Cl
ENDROOT
BRANCH   4   7
HETATM    7  C1  UNL     1     -33.137  18.221  -1.721  1.00 20.00     0.223 C 
HETATM    8  O7  UNL     1     -32.636  19.045  -2.479  1.00 20.00    -0.279 OA
HETATM    9 CL8  UNL     1     -33.402  18.424  -0.016  1.00 20.00    -0.043 Cl
ENDBRANCH   4   7
TORSDOF 1
ENDMDL
