MODEL 1
REMARK VINA RESULT:      -5.2      0.000      0.000
REMARK  1 active torsions:
REMARK  status: ('A' for Active; 'I' for Inactive)
REMARK    1  A    between atoms: C3_3  and  C4_4 
ROOT
HETATM    1  C1  UNL     1     -33.683   5.397   3.012  1.00 20.00     0.012 A 
HETATM    2  C2  UNL     1     -32.600   5.990   2.515  1.00 20.00     0.003 A 
HETATM    3  C4  UNL     1     -34.457   6.368   3.818  1.00 20.00     0.231 A 
HETATM    4  C5  UNL     1     -32.554   7.409   2.958  1.00 20.00     0.141 A 
HETATM    5  C6  UNL     1     -32.546   8.393   1.800  1.00 20.00     0.044 C 
HETATM    6  O8  UNL     1     -33.755   7.613   3.735  1.00 20.00    -0.364 OA
ENDROOT
BRANCH   3   7
HETATM    7  C3  UNL     1     -34.458   5.936   5.248  1.00 20.00     0.251 C 
HETATM    8  O7  UNL     1     -34.774   4.796   5.578  1.00 20.00    -0.277 OA
HETATM    9 CL9  UNL     1     -33.972   7.216   6.318  1.00 20.00    -0.041 Cl
ENDBRANCH   3   7
TORSDOF 1
ENDMDL
MODEL 2
REMARK VINA RESULT:      -4.6      1.392      2.201
REMARK  1 active torsions:
REMARK  status: ('A' for Active; 'I' for Inactive)
REMARK    1  A    between atoms: C3_3  and  C4_4 
ROOT
HETATM    1  C1  UNL     1     -31.750   7.907   3.754  1.00 20.00     0.012 A 
HETATM    2  C2  UNL     1     -31.679   9.001   3.000  1.00 20.00     0.003 A 
HETATM    3  C4  UNL     1     -32.667   6.928   3.126  1.00 20.00     0.231 A 
HETATM    4  C5  UNL     1     -32.553   8.850   1.806  1.00 20.00     0.141 A 
HETATM    5  C6  UNL     1     -31.793   8.963   0.495  1.00 20.00     0.044 C 
HETATM    6  O8  UNL     1     -33.117   7.523   1.904  1.00 20.00    -0.364 OA
ENDROOT
BRANCH   3   7
HETATM    7  C3  UNL     1     -33.858   6.729   4.006  1.00 20.00     0.251 C 
HETATM    8  O7  UNL     1     -34.881   6.190   3.594  1.00 20.00    -0.277 OA
HETATM    9 CL9  UNL     1     -33.595   7.341   5.611  1.00 20.00    -0.041 Cl
ENDBRANCH   3   7
TORSDOF 1
ENDMDL
MODEL 3
REMARK VINA RESULT:      -4.4      2.164      3.693
REMARK  1 active torsions:
REMARK  status: ('A' for Active; 'I' for Inactive)
REMARK    1  A    between atoms: C3_3  and  C4_4 
ROOT
HETATM    1  C1  UNL     1     -33.846   6.231   2.499  1.00 20.00     0.012 A 
HETATM    2  C2  UNL     1     -34.875   6.109   3.334  1.00 20.00     0.003 A 
HETATM    3  C4  UNL     1     -32.629   6.598   3.258  1.00 20.00     0.231 A 
HETATM    4  C5  UNL     1     -34.433   6.396   4.725  1.00 20.00     0.141 A 
HETATM    5  C6  UNL     1     -34.659   5.230   5.673  1.00 20.00     0.044 C 
HETATM    6  O8  UNL     1     -33.014   6.655   4.636  1.00 20.00    -0.364 OA
ENDROOT
BRANCH   3   7
HETATM    7  C3  UNL     1     -32.183   7.964   2.849  1.00 20.00     0.251 C 
HETATM    8  O7  UNL     1     -31.423   8.630   3.547  1.00 20.00    -0.277 OA
HETATM    9 CL9  UNL     1     -32.864   8.446   1.325  1.00 20.00    -0.041 Cl
ENDBRANCH   3   7
TORSDOF 1
ENDMDL
MODEL 4
REMARK VINA RESULT:      -4.3      2.423      3.819
REMARK  1 active torsions:
REMARK  status: ('A' for Active; 'I' for Inactive)
REMARK    1  A    between atoms: C3_3  and  C4_4 
ROOT
HETATM    1  C1  UNL     1     -32.894   6.091   2.533  1.00 20.00     0.012 A 
HETATM    2  C2  UNL     1     -33.978   5.724   3.212  1.00 20.00     0.003 A 
HETATM    3  C4  UNL     1     -32.354   7.348   3.098  1.00 20.00     0.231 A 
HETATM    4  C5  UNL     1     -34.261   6.714   4.285  1.00 20.00     0.141 A 
HETATM    5  C6  UNL     1     -34.259   6.101   5.675  1.00 20.00     0.044 C 
HETATM    6  O8  UNL     1     -33.197   7.689   4.204  1.00 20.00    -0.364 OA
ENDROOT
BRANCH   3   7
HETATM    7  C3  UNL     1     -32.468   8.437   2.082  1.00 20.00     0.251 C 
HETATM    8  O7  UNL     1     -33.359   9.280   2.136  1.00 20.00    -0.277 OA
HETATM    9 CL9  UNL     1     -31.221   8.339   0.876  1.00 20.00    -0.041 Cl
ENDBRANCH   3   7
TORSDOF 1
ENDMDL
MODEL 5
REMARK VINA RESULT:      -4.2      2.449      3.813
REMARK  1 active torsions:
REMARK  status: ('A' for Active; 'I' for Inactive)
REMARK    1  A    between atoms: C3_3  and  C4_4 
ROOT
HETATM    1  C1  UNL     1     -33.876   7.759   4.615  1.00 20.00     0.012 A 
HETATM    2  C2  UNL     1     -33.943   6.653   5.353  1.00 20.00     0.003 A 
HETATM    3  C4  UNL     1     -33.455   7.416   3.238  1.00 20.00     0.231 A 
HETATM    4  C5  UNL     1     -33.561   5.475   4.530  1.00 20.00     0.141 A 
HETATM    5  C6  UNL     1     -34.660   4.428   4.443  1.00 20.00     0.044 C 
HETATM    6  O8  UNL     1     -33.305   5.992   3.205  1.00 20.00    -0.364 OA
ENDROOT
BRANCH   3   7
HETATM    7  C3  UNL     1     -32.119   8.025   2.962  1.00 20.00     0.251 C 
HETATM    8  O7  UNL     1     -31.267   8.135   3.839  1.00 20.00    -0.277 OA
HETATM    9 CL9  UNL     1     -31.959   8.527   1.307  1.00 20.00    -0.041 Cl
ENDBRANCH   3   7
TORSDOF 1
ENDMDL
MODEL 6
REMARK VINA RESULT:      -4.1     12.101     12.558
REMARK  1 active torsions:
REMARK  status: ('A' for Active; 'I' for Inactive)
REMARK    1  A    between atoms: C3_3  and  C4_4 
ROOT
HETATM    1  C1  UNL     1     -34.218  15.757  -6.024  1.00 20.00     0.012 A 
HETATM    2  C2  UNL     1     -33.265  16.081  -5.153  1.00 20.00     0.003 A 
HETATM    3  C4  UNL     1     -35.298  15.021  -5.329  1.00 20.00     0.231 A 
HETATM    4  C5  UNL     1     -33.626  15.579  -3.800  1.00 20.00     0.141 A 
HETATM    5  C6  UNL     1     -33.727  16.684  -2.762  1.00 20.00     0.044 C 
HETATM    6  O8  UNL     1     -34.923  14.960  -3.949  1.00 20.00    -0.364 OA
ENDROOT
BRANCH   3   7
HETATM    7  C3  UNL     1     -35.360  13.622  -5.850  1.00 20.00     0.251 C 
HETATM    8  O7  UNL     1     -35.934  12.729  -5.234  1.00 20.00    -0.277 OA
HETATM    9 CL9  UNL     1     -34.541  13.454  -7.374  1.00 20.00    -0.041 Cl
ENDBRANCH   3   7
TORSDOF 1
ENDMDL
MODEL 7
REMARK VINA RESULT:      -4.0     11.785     12.153
REMARK  1 active torsions:
REMARK  status: ('A' for Active; 'I' for Inactive)
REMARK    1  A    between atoms: C3_3  and  C4_4 
ROOT
HETATM    1  C1  UNL     1     -33.985  14.484  -5.386  1.00 20.00     0.012 A 
HETATM    2  C2  UNL     1     -33.319  14.841  -4.290  1.00 20.00     0.003 A 
HETATM    3  C4  UNL     1     -35.377  14.982  -5.307  1.00 20.00     0.231 A 
HETATM    4  C5  UNL     1     -34.217  15.601  -3.379  1.00 20.00     0.141 A 
HETATM    5  C6  UNL     1     -33.711  17.001  -3.077  1.00 20.00     0.044 C 
HETATM    6  O8  UNL     1     -35.480  15.701  -4.073  1.00 20.00    -0.364 OA
ENDROOT
BRANCH   3   7
HETATM    7  C3  UNL     1     -36.315  13.821  -5.241  1.00 20.00     0.251 C 
HETATM    8  O7  UNL     1     -35.910  12.662  -5.265  1.00 20.00    -0.277 OA
HETATM    9 CL9  UNL     1     -37.974  14.326  -5.132  1.00 20.00    -0.041 Cl
ENDBRANCH   3   7
TORSDOF 1
ENDMDL
MODEL 8
REMARK VINA RESULT:      -3.9      3.129      4.683
REMARK  1 active torsions:
REMARK  status: ('A' for Active; 'I' for Inactive)
REMARK    1  A    between atoms: C3_3  and  C4_4 
ROOT
HETATM    1  C1  UNL     1     -31.615   8.931   2.931  1.00 20.00     0.012 A 
HETATM    2  C2  UNL     1     -31.710   7.791   3.612  1.00 20.00     0.003 A 
HETATM    3  C4  UNL     1     -32.693   8.997   1.919  1.00 20.00     0.231 A 
HETATM    4  C5  UNL     1     -32.858   6.993   3.103  1.00 20.00     0.141 A 
HETATM    5  C6  UNL     1     -33.895   6.695   4.173  1.00 20.00     0.044 C 
HETATM    6  O8  UNL     1     -33.469   7.804   2.075  1.00 20.00    -0.364 OA
ENDROOT
BRANCH   3   7
HETATM    7  C3  UNL     1     -32.091   8.978   0.552  1.00 20.00     0.251 C 
HETATM    8  O7  UNL     1     -30.922   8.652   0.366  1.00 20.00    -0.277 OA
HETATM    9 CL9  UNL     1     -33.228   9.461  -0.671  1.00 20.00    -0.041 Cl
ENDBRANCH   3   7
TORSDOF 1
ENDMDL
MODEL 9
REMARK VINA RESULT:      -3.8     11.726     13.271
REMARK  1 active torsions:
REMARK  status: ('A' for Active; 'I' for Inactive)
REMARK    1  A    between atoms: C3_3  and  C4_4 
ROOT
HETATM    1  C1  UNL     1     -34.808  13.996  -7.575  1.00 20.00     0.012 A 
HETATM    2  C2  UNL     1     -33.797  14.791  -7.918  1.00 20.00     0.003 A 
HETATM    3  C4  UNL     1     -35.590  14.625  -6.486  1.00 20.00     0.231 A 
HETATM    4  C5  UNL     1     -33.813  16.018  -7.078  1.00 20.00     0.141 A 
HETATM    5  C6  UNL     1     -33.939  17.294  -7.893  1.00 20.00     0.044 C 
HETATM    6  O8  UNL     1     -34.974  15.892  -6.227  1.00 20.00    -0.364 OA
ENDROOT
BRANCH   3   7
HETATM    7  C3  UNL     1     -35.473  13.797  -5.249  1.00 20.00     0.251 C 
HETATM    8  O7  UNL     1     -35.914  12.652  -5.196  1.00 20.00    -0.277 OA
HETATM    9 CL9  UNL     1     -34.668  14.647  -3.965  1.00 20.00    -0.041 Cl
ENDBRANCH   3   7
TORSDOF 1
ENDMDL
