MODEL 1
REMARK VINA RESULT:      -6.1      0.000      0.000
REMARK  1 active torsions:
REMARK  status: ('A' for Active; 'I' for Inactive)
REMARK    1  A    between atoms: C5_5  and  C7_7 
ROOT
HETATM    1  C1  UNL     1     -34.637   6.278   5.930  1.00 20.00    -0.026 A 
HETATM    2  C2  UNL     1     -34.939   5.690   4.765  1.00 20.00    -0.013 A 
HETATM    3  C3  UNL     1     -32.941   7.723   4.759  1.00 20.00    -0.019 A 
HETATM    4  C4  UNL     1     -33.233   7.144   3.580  1.00 20.00    -0.071 A 
HETATM    5  C6  UNL     1     -33.578   7.331   6.061  1.00 20.00     0.054 A 
HETATM    6  C7  UNL     1     -34.239   6.020   3.477  1.00 20.00     0.123 A 
HETATM    7  C8  UNL     1     -32.605   7.617   2.298  1.00 20.00     0.044 C 
ENDROOT
BRANCH   6   8
HETATM    8  C5  UNL     1     -33.509   4.773   3.078  1.00 20.00     0.230 C 
HETATM    9  O9  UNL     1     -32.797   4.734   2.079  1.00 20.00    -0.279 OA
HETATM   10 CL10 UNL     1     -33.804   3.462   4.179  1.00 20.00    -0.043 Cl
ENDBRANCH   6   8
TORSDOF 1
ENDMDL
MODEL 2
REMARK VINA RESULT:      -5.5      2.042      2.660
REMARK  1 active torsions:
REMARK  status: ('A' for Active; 'I' for Inactive)
REMARK    1  A    between atoms: C5_5  and  C7_7 
ROOT
HETATM    1  C1  UNL     1     -35.272   5.059   4.340  1.00 20.00    -0.026 A 
HETATM    2  C2  UNL     1     -34.971   5.998   3.433  1.00 20.00    -0.013 A 
HETATM    3  C3  UNL     1     -33.867   6.261   6.048  1.00 20.00    -0.019 A 
HETATM    4  C4  UNL     1     -33.555   7.213   5.150  1.00 20.00    -0.071 A 
HETATM    5  C6  UNL     1     -34.723   5.067   5.734  1.00 20.00     0.054 A 
HETATM    6  C7  UNL     1     -34.043   7.145   3.721  1.00 20.00     0.123 A 
HETATM    7  C8  UNL     1     -32.740   8.416   5.537  1.00 20.00     0.044 C 
ENDROOT
BRANCH   6   8
HETATM    8  C5  UNL     1     -32.855   6.943   2.829  1.00 20.00     0.230 C 
HETATM    9  O9  UNL     1     -32.320   5.845   2.706  1.00 20.00    -0.279 OA
HETATM   10 CL10 UNL     1     -32.375   8.413   2.038  1.00 20.00    -0.043 Cl
ENDBRANCH   6   8
TORSDOF 1
ENDMDL
MODEL 3
REMARK VINA RESULT:      -5.3      2.312      3.074
REMARK  1 active torsions:
REMARK  status: ('A' for Active; 'I' for Inactive)
REMARK    1  A    between atoms: C5_5  and  C7_7 
ROOT
HETATM    1  C1  UNL     1     -33.894   7.138   5.893  1.00 20.00    -0.026 A 
HETATM    2  C2  UNL     1     -32.939   7.572   5.059  1.00 20.00    -0.013 A 
HETATM    3  C3  UNL     1     -34.388   5.228   4.330  1.00 20.00    -0.019 A 
HETATM    4  C4  UNL     1     -33.433   5.650   3.482  1.00 20.00    -0.071 A 
HETATM    5  C6  UNL     1     -34.749   5.942   5.602  1.00 20.00     0.054 A 
HETATM    6  C7  UNL     1     -32.640   6.909   3.744  1.00 20.00     0.123 A 
HETATM    7  C8  UNL     1     -33.076   4.862   2.251  1.00 20.00     0.044 C 
ENDROOT
BRANCH   6   8
HETATM    8  C5  UNL     1     -32.994   7.914   2.690  1.00 20.00     0.230 C 
HETATM    9  O9  UNL     1     -34.129   8.369   2.587  1.00 20.00    -0.279 OA
HETATM   10 CL10 UNL     1     -31.632   8.318   1.689  1.00 20.00    -0.043 Cl
ENDBRANCH   6   8
TORSDOF 1
ENDMDL
MODEL 4
REMARK VINA RESULT:      -5.2      1.251      1.251
REMARK  1 active torsions:
REMARK  status: ('A' for Active; 'I' for Inactive)
REMARK    1  A    between atoms: C5_5  and  C7_7 
ROOT
HETATM    1  C1  UNL     1     -34.448   6.568   6.208  1.00 20.00    -0.026 A 
HETATM    2  C2  UNL     1     -34.954   5.815   5.221  1.00 20.00    -0.013 A 
HETATM    3  C3  UNL     1     -32.886   7.666   4.568  1.00 20.00    -0.019 A 
HETATM    4  C4  UNL     1     -33.383   6.918   3.565  1.00 20.00    -0.071 A 
HETATM    5  C6  UNL     1     -33.334   7.547   5.997  1.00 20.00     0.054 A 
HETATM    6  C7  UNL     1     -34.444   5.870   3.809  1.00 20.00     0.123 A 
HETATM    7  C8  UNL     1     -32.936   7.120   2.143  1.00 20.00     0.044 C 
ENDROOT
BRANCH   6   8
HETATM    8  C5  UNL     1     -33.844   4.523   3.538  1.00 20.00     0.230 C 
HETATM    9  O9  UNL     1     -34.111   3.547   4.232  1.00 20.00    -0.279 OA
HETATM   10 CL10 UNL     1     -32.773   4.548   2.171  1.00 20.00    -0.043 Cl
ENDBRANCH   6   8
TORSDOF 1
ENDMDL
MODEL 5
REMARK VINA RESULT:      -5.0      2.438      3.913
REMARK  1 active torsions:
REMARK  status: ('A' for Active; 'I' for Inactive)
REMARK    1  A    between atoms: C5_5  and  C7_7 
ROOT
HETATM    1  C1  UNL     1     -33.230   5.813   2.061  1.00 20.00    -0.026 A 
HETATM    2  C2  UNL     1     -33.708   6.841   2.776  1.00 20.00    -0.013 A 
HETATM    3  C3  UNL     1     -33.766   4.248   3.957  1.00 20.00    -0.019 A 
HETATM    4  C4  UNL     1     -34.250   5.268   4.689  1.00 20.00    -0.071 A 
HETATM    5  C6  UNL     1     -33.171   4.412   2.587  1.00 20.00     0.054 A 
HETATM    6  C7  UNL     1     -34.220   6.691   4.181  1.00 20.00     0.123 A 
HETATM    7  C8  UNL     1     -34.885   5.035   6.032  1.00 20.00     0.044 C 
ENDROOT
BRANCH   6   8
HETATM    8  C5  UNL     1     -33.281   7.478   5.044  1.00 20.00     0.230 C 
HETATM    9  O9  UNL     1     -33.491   7.643   6.242  1.00 20.00    -0.279 OA
HETATM   10 CL10 UNL     1     -31.923   8.087   4.147  1.00 20.00    -0.043 Cl
ENDBRANCH   6   8
TORSDOF 1
ENDMDL
MODEL 6
REMARK VINA RESULT:      -4.8      1.468      2.113
REMARK  1 active torsions:
REMARK  status: ('A' for Active; 'I' for Inactive)
REMARK    1  A    between atoms: C5_5  and  C7_7 
ROOT
HETATM    1  C1  UNL     1     -32.915   7.927   5.235  1.00 20.00    -0.026 A 
HETATM    2  C2  UNL     1     -34.031   7.188   5.279  1.00 20.00    -0.013 A 
HETATM    3  C3  UNL     1     -32.524   7.190   2.860  1.00 20.00    -0.019 A 
HETATM    4  C4  UNL     1     -33.643   6.442   2.888  1.00 20.00    -0.071 A 
HETATM    5  C6  UNL     1     -32.019   7.979   4.034  1.00 20.00     0.054 A 
HETATM    6  C7  UNL     1     -34.488   6.328   4.135  1.00 20.00     0.123 A 
HETATM    7  C8  UNL     1     -34.130   5.719   1.663  1.00 20.00     0.044 C 
ENDROOT
BRANCH   6   8
HETATM    8  C5  UNL     1     -34.408   4.915   4.628  1.00 20.00     0.230 C 
HETATM    9  O9  UNL     1     -34.107   3.988   3.882  1.00 20.00    -0.279 OA
HETATM   10 CL10 UNL     1     -34.785   4.790   6.319  1.00 20.00    -0.043 Cl
ENDBRANCH   6   8
TORSDOF 1
ENDMDL
MODEL 7
REMARK VINA RESULT:      -4.7     12.111     12.821
REMARK  1 active torsions:
REMARK  status: ('A' for Active; 'I' for Inactive)
REMARK    1  A    between atoms: C5_5  and  C7_7 
ROOT
HETATM    1  C1  UNL     1     -34.133  15.472  -3.621  1.00 20.00    -0.026 A 
HETATM    2  C2  UNL     1     -34.294  14.248  -4.141  1.00 20.00    -0.013 A 
HETATM    3  C3  UNL     1     -36.525  16.022  -4.178  1.00 20.00    -0.019 A 
HETATM    4  C4  UNL     1     -36.704  14.796  -4.705  1.00 20.00    -0.071 A 
HETATM    5  C6  UNL     1     -35.218  16.505  -3.617  1.00 20.00     0.054 A 
HETATM    6  C7  UNL     1     -35.575  13.795  -4.783  1.00 20.00     0.123 A 
HETATM    7  C8  UNL     1     -38.051  14.347  -5.200  1.00 20.00     0.044 C 
ENDROOT
BRANCH   6   8
HETATM    8  C5  UNL     1     -35.249  13.568  -6.229  1.00 20.00     0.230 C 
HETATM    9  O9  UNL     1     -35.200  12.440  -6.710  1.00 20.00    -0.279 OA
HETATM   10 CL10 UNL     1     -34.968  15.058  -7.077  1.00 20.00    -0.043 Cl
ENDBRANCH   6   8
TORSDOF 1
ENDMDL
MODEL 8
REMARK VINA RESULT:      -4.7     11.943     13.208
REMARK  1 active torsions:
REMARK  status: ('A' for Active; 'I' for Inactive)
REMARK    1  A    between atoms: C5_5  and  C7_7 
ROOT
HETATM    1  C1  UNL     1     -33.268  14.645  -4.475  1.00 20.00    -0.026 A 
HETATM    2  C2  UNL     1     -34.495  14.317  -4.047  1.00 20.00    -0.013 A 
HETATM    3  C3  UNL     1     -34.255  16.463  -5.908  1.00 20.00    -0.019 A 
HETATM    4  C4  UNL     1     -35.494  16.148  -5.489  1.00 20.00    -0.071 A 
HETATM    5  C6  UNL     1     -33.017  15.727  -5.481  1.00 20.00     0.054 A 
HETATM    6  C7  UNL     1     -35.741  14.995  -4.543  1.00 20.00     0.123 A 
HETATM    7  C8  UNL     1     -36.691  16.957  -5.907  1.00 20.00     0.044 C 
ENDROOT
BRANCH   6   8
HETATM    8  C5  UNL     1     -36.514  13.942  -5.280  1.00 20.00     0.230 C 
HETATM    9  O9  UNL     1     -37.677  13.678  -4.993  1.00 20.00    -0.279 OA
HETATM   10 CL10 UNL     1     -35.569  13.194  -6.531  1.00 20.00    -0.043 Cl
ENDBRANCH   6   8
TORSDOF 1
ENDMDL
MODEL 9
REMARK VINA RESULT:      -4.6     12.336     13.166
REMARK  1 active torsions:
REMARK  status: ('A' for Active; 'I' for Inactive)
REMARK    1  A    between atoms: C5_5  and  C7_7 
ROOT
HETATM    1  C1  UNL     1     -33.869  15.431  -3.774  1.00 20.00    -0.026 A 
HETATM    2  C2  UNL     1     -35.201  15.425  -3.924  1.00 20.00    -0.013 A 
HETATM    3  C3  UNL     1     -33.589  15.266  -6.270  1.00 20.00    -0.019 A 
HETATM    4  C4  UNL     1     -34.924  15.259  -6.439  1.00 20.00    -0.071 A 
HETATM    5  C6  UNL     1     -32.919  15.314  -4.927  1.00 20.00     0.054 A 
HETATM    6  C7  UNL     1     -35.872  15.287  -5.262  1.00 20.00     0.123 A 
HETATM    7  C8  UNL     1     -35.540  15.268  -7.811  1.00 20.00     0.044 C 
ENDROOT
BRANCH   6   8
HETATM    8  C5  UNL     1     -36.605  13.980  -5.219  1.00 20.00     0.230 C 
HETATM    9  O9  UNL     1     -36.009  12.908  -5.180  1.00 20.00    -0.279 OA
HETATM   10 CL10 UNL     1     -38.328  14.197  -5.230  1.00 20.00    -0.043 Cl
ENDBRANCH   6   8
TORSDOF 1
ENDMDL
