MODEL 1
REMARK VINA RESULT:      -4.6      0.000      0.000
REMARK  1 active torsions:
REMARK  status: ('A' for Active; 'I' for Inactive)
REMARK    1  A    between atoms: C1_1  and  C3_3 
ROOT
HETATM    1  C1  UNL     1     -33.969   6.371   3.850  1.00 20.00    -0.007 C 
HETATM    2  C2  UNL     1     -33.498   7.160   4.828  1.00 20.00    -0.016 C 
HETATM    3  C4  UNL     1     -33.426   6.630   2.476  1.00 20.00     0.058 C 
HETATM    4  C5  UNL     1     -32.131   7.432   2.646  1.00 20.00     0.052 C 
HETATM    5  C6  UNL     1     -33.846   7.174   6.280  1.00 20.00     0.056 C 
HETATM    6  C7  UNL     1     -31.872   8.394   1.498  1.00 20.00     0.022 C 
HETATM    7  S9  UNL     1     -32.325   8.316   4.236  1.00 20.00    -0.129 SA
ENDROOT
BRANCH   1   8
HETATM    8  C3  UNL     1     -34.961   5.314   4.035  1.00 20.00     0.266 C 
HETATM    9  O8  UNL     1     -34.669   4.197   4.450  1.00 20.00    -0.302 OA
ENDBRANCH   1   8
TORSDOF 1
ENDMDL
MODEL 2
REMARK VINA RESULT:      -3.9     11.696     12.452
REMARK  1 active torsions:
REMARK  status: ('A' for Active; 'I' for Inactive)
REMARK    1  A    between atoms: C1_1  and  C3_3 
ROOT
HETATM    1  C1  UNL     1     -35.229  14.854  -4.893  1.00 20.00    -0.007 C 
HETATM    2  C2  UNL     1     -34.378  15.403  -5.773  1.00 20.00    -0.016 C 
HETATM    3  C4  UNL     1     -35.156  15.380  -3.491  1.00 20.00     0.058 C 
HETATM    4  C5  UNL     1     -34.436  16.731  -3.551  1.00 20.00     0.052 C 
HETATM    5  C6  UNL     1     -34.185  15.094  -7.222  1.00 20.00     0.056 C 
HETATM    6  C7  UNL     1     -33.622  17.027  -2.302  1.00 20.00     0.022 C 
HETATM    7  S9  UNL     1     -33.378  16.639  -5.040  1.00 20.00    -0.129 SA
ENDROOT
BRANCH   1   8
HETATM    8  C3  UNL     1     -36.186  13.796  -5.208  1.00 20.00     0.266 C 
HETATM    9  O8  UNL     1     -35.871  12.612  -5.264  1.00 20.00    -0.302 OA
ENDBRANCH   1   8
TORSDOF 1
ENDMDL
MODEL 3
REMARK VINA RESULT:      -3.8     11.624     12.024
REMARK  1 active torsions:
REMARK  status: ('A' for Active; 'I' for Inactive)
REMARK    1  A    between atoms: C1_1  and  C3_3 
ROOT
HETATM    1  C1  UNL     1     -35.509  14.938  -4.471  1.00 20.00    -0.007 C 
HETATM    2  C2  UNL     1     -36.600  15.624  -4.095  1.00 20.00    -0.016 C 
HETATM    3  C4  UNL     1     -34.212  15.376  -3.859  1.00 20.00     0.058 C 
HETATM    4  C5  UNL     1     -34.555  16.202  -2.615  1.00 20.00     0.052 C 
HETATM    5  C6  UNL     1     -38.019  15.455  -4.528  1.00 20.00     0.056 C 
HETATM    6  C7  UNL     1     -33.544  17.301  -2.332  1.00 20.00     0.022 C 
HETATM    7  S9  UNL     1     -36.220  16.886  -2.942  1.00 20.00    -0.129 SA
ENDROOT
BRANCH   1   8
HETATM    8  C3  UNL     1     -35.509  13.829  -5.422  1.00 20.00     0.266 C 
HETATM    9  O8  UNL     1     -35.899  12.704  -5.128  1.00 20.00    -0.302 OA
ENDBRANCH   1   8
TORSDOF 1
ENDMDL
MODEL 4
REMARK VINA RESULT:      -3.8     11.950     12.321
REMARK  1 active torsions:
REMARK  status: ('A' for Active; 'I' for Inactive)
REMARK    1  A    between atoms: C1_1  and  C3_3 
ROOT
HETATM    1  C1  UNL     1     -33.251  18.094  -0.667  1.00 20.00    -0.007 C 
HETATM    2  C2  UNL     1     -34.424  18.052  -0.016  1.00 20.00    -0.016 C 
HETATM    3  C4  UNL     1     -33.209  17.397  -1.994  1.00 20.00     0.058 C 
HETATM    4  C5  UNL     1     -34.659  17.214  -2.455  1.00 20.00     0.052 C 
HETATM    5  C6  UNL     1     -34.787  18.622   1.316  1.00 20.00     0.056 C 
HETATM    6  C7  UNL     1     -34.867  15.956  -3.282  1.00 20.00     0.022 C 
HETATM    7  S9  UNL     1     -35.646  17.179  -0.915  1.00 20.00    -0.129 SA
ENDROOT
BRANCH   1   8
HETATM    8  C3  UNL     1     -32.044  18.748  -0.168  1.00 20.00     0.266 C 
HETATM    9  O8  UNL     1     -30.935  18.227  -0.227  1.00 20.00    -0.302 OA
ENDBRANCH   1   8
TORSDOF 1
ENDMDL
MODEL 5
REMARK VINA RESULT:      -3.7     11.856     12.526
REMARK  1 active torsions:
REMARK  status: ('A' for Active; 'I' for Inactive)
REMARK    1  A    between atoms: C1_1  and  C3_3 
ROOT
HETATM    1  C1  UNL     1     -33.540  18.274  -0.039  1.00 20.00    -0.007 C 
HETATM    2  C2  UNL     1     -34.682  17.645  -0.359  1.00 20.00    -0.016 C 
HETATM    3  C4  UNL     1     -33.503  18.923   1.313  1.00 20.00     0.058 C 
HETATM    4  C5  UNL     1     -34.625  18.296   2.147  1.00 20.00     0.052 C 
HETATM    5  C6  UNL     1     -35.045  16.927  -1.616  1.00 20.00     0.056 C 
HETATM    6  C7  UNL     1     -35.226  19.261   3.155  1.00 20.00     0.022 C 
HETATM    7  S9  UNL     1     -35.867  17.735   0.927  1.00 20.00    -0.129 SA
ENDROOT
BRANCH   1   8
HETATM    8  C3  UNL     1     -32.370  18.371  -0.908  1.00 20.00     0.266 C 
HETATM    9  O8  UNL     1     -31.221  18.295  -0.485  1.00 20.00    -0.302 OA
ENDBRANCH   1   8
TORSDOF 1
ENDMDL
MODEL 6
REMARK VINA RESULT:      -3.6      2.405      3.615
REMARK  1 active torsions:
REMARK  status: ('A' for Active; 'I' for Inactive)
REMARK    1  A    between atoms: C1_1  and  C3_3 
ROOT
HETATM    1  C1  UNL     1     -32.805   7.342   3.134  1.00 20.00    -0.007 C 
HETATM    2  C2  UNL     1     -32.694   7.801   4.390  1.00 20.00    -0.016 C 
HETATM    3  C4  UNL     1     -33.660   6.123   2.952  1.00 20.00     0.058 C 
HETATM    4  C5  UNL     1     -34.547   6.003   4.196  1.00 20.00     0.052 C 
HETATM    5  C6  UNL     1     -31.913   8.965   4.905  1.00 20.00     0.056 C 
HETATM    6  C7  UNL     1     -34.871   4.563   4.557  1.00 20.00     0.022 C 
HETATM    7  S9  UNL     1     -33.612   6.838   5.527  1.00 20.00    -0.129 SA
ENDROOT
BRANCH   1   8
HETATM    8  C3  UNL     1     -32.152   7.934   1.969  1.00 20.00     0.266 C 
HETATM    9  O8  UNL     1     -32.543   8.973   1.446  1.00 20.00    -0.302 OA
ENDBRANCH   1   8
TORSDOF 1
ENDMDL
MODEL 7
REMARK VINA RESULT:      -3.5     11.541     12.015
REMARK  1 active torsions:
REMARK  status: ('A' for Active; 'I' for Inactive)
REMARK    1  A    between atoms: C1_1  and  C3_3 
ROOT
HETATM    1  C1  UNL     1     -34.312  15.170  -4.093  1.00 20.00    -0.007 C 
HETATM    2  C2  UNL     1     -34.562  16.168  -3.231  1.00 20.00    -0.016 C 
HETATM    3  C4  UNL     1     -35.507  14.581  -4.782  1.00 20.00     0.058 C 
HETATM    4  C5  UNL     1     -36.650  15.593  -4.651  1.00 20.00     0.052 C 
HETATM    5  C6  UNL     1     -33.609  16.943  -2.382  1.00 20.00     0.056 C 
HETATM    6  C7  UNL     1     -38.019  14.939  -4.571  1.00 20.00     0.022 C 
HETATM    7  S9  UNL     1     -36.268  16.547  -3.137  1.00 20.00    -0.129 SA
ENDROOT
BRANCH   1   8
HETATM    8  C3  UNL     1     -32.986  14.630  -4.383  1.00 20.00     0.266 C 
HETATM    9  O8  UNL     1     -32.673  13.471  -4.133  1.00 20.00    -0.302 OA
ENDBRANCH   1   8
TORSDOF 1
ENDMDL
MODEL 8
REMARK VINA RESULT:      -3.5     11.515     12.008
REMARK  1 active torsions:
REMARK  status: ('A' for Active; 'I' for Inactive)
REMARK    1  A    between atoms: C1_1  and  C3_3 
ROOT
HETATM    1  C1  UNL     1     -34.611  15.830  -3.368  1.00 20.00    -0.007 C 
HETATM    2  C2  UNL     1     -35.894  16.213  -3.276  1.00 20.00    -0.016 C 
HETATM    3  C4  UNL     1     -33.640  16.562  -2.490  1.00 20.00     0.058 C 
HETATM    4  C5  UNL     1     -34.455  17.246  -1.387  1.00 20.00     0.052 C 
HETATM    5  C6  UNL     1     -37.087  15.706  -4.017  1.00 20.00     0.056 C 
HETATM    6  C7  UNL     1     -33.841  18.554  -0.918  1.00 20.00     0.022 C 
HETATM    7  S9  UNL     1     -36.115  17.501  -2.111  1.00 20.00    -0.129 SA
ENDROOT
BRANCH   1   8
HETATM    8  C3  UNL     1     -34.116  14.780  -4.255  1.00 20.00     0.266 C 
HETATM    9  O8  UNL     1     -34.330  13.588  -4.056  1.00 20.00    -0.302 OA
ENDBRANCH   1   8
TORSDOF 1
ENDMDL
MODEL 9
REMARK VINA RESULT:      -3.5     11.917     12.348
REMARK  1 active torsions:
REMARK  status: ('A' for Active; 'I' for Inactive)
REMARK    1  A    between atoms: C1_1  and  C3_3 
ROOT
HETATM    1  C1  UNL     1     -33.253  18.543   0.396  1.00 20.00    -0.007 C 
HETATM    2  C2  UNL     1     -34.275  18.437   1.259  1.00 20.00    -0.016 C 
HETATM    3  C4  UNL     1     -33.483  17.970  -0.970  1.00 20.00     0.058 C 
HETATM    4  C5  UNL     1     -34.998  17.824  -1.150  1.00 20.00     0.052 C 
HETATM    5  C6  UNL     1     -34.360  18.882   2.682  1.00 20.00     0.056 C 
HETATM    6  C7  UNL     1     -35.381  16.646  -2.030  1.00 20.00     0.022 C 
HETATM    7  S9  UNL     1     -35.662  17.644   0.544  1.00 20.00    -0.129 SA
ENDROOT
BRANCH   1   8
HETATM    8  C3  UNL     1     -31.962  19.155   0.703  1.00 20.00     0.266 C 
HETATM    9  O8  UNL     1     -30.910  18.523   0.697  1.00 20.00    -0.302 OA
ENDBRANCH   1   8
TORSDOF 1
ENDMDL
