MODEL 1
REMARK VINA RESULT:      -4.9      0.000      0.000
REMARK  1 active torsions:
REMARK  status: ('A' for Active; 'I' for Inactive)
REMARK    1  A    between atoms: C3_3  and  C8_8 
ROOT
HETATM    1  C1  UNL     1     -34.926  16.182  -4.457  1.00 20.00    -0.079 C 
HETATM    2  C2  UNL     1     -35.557  16.476  -3.317  1.00 20.00    -0.028 C 
HETATM    3  C4  UNL     1     -33.462  15.849  -4.601  1.00 20.00     0.039 C 
HETATM    4  C5  UNL     1     -34.338  16.731  -6.638  1.00 20.00     0.014 C 
HETATM    5  C6  UNL     1     -34.113  14.356  -6.530  1.00 20.00     0.019 C 
HETATM    6  C7  UNL     1     -35.529  16.181  -5.847  1.00 20.00     0.027 C 
HETATM    7  C8  UNL     1     -35.598  14.738  -6.381  1.00 20.00     0.081 C 
HETATM    8  C9  UNL     1     -33.375  15.654  -6.128  1.00 20.00    -0.009 C 
HETATM    9  C10 UNL     1     -34.892  16.521  -1.981  1.00 20.00     0.036 C 
ENDROOT
BRANCH   7  10
HETATM   10  C3  UNL     1     -36.361  13.803  -5.495  1.00 20.00     0.223 C 
HETATM   11  O11 UNL     1     -35.881  12.741  -5.113  1.00 20.00    -0.279 OA
HETATM   12 CL12 UNL     1     -37.942  14.412  -5.108  1.00 20.00    -0.043 Cl
ENDBRANCH   7  10
TORSDOF 1
ENDMDL
MODEL 2
REMARK VINA RESULT:      -4.7      1.463      2.036
REMARK  1 active torsions:
REMARK  status: ('A' for Active; 'I' for Inactive)
REMARK    1  A    between atoms: C3_3  and  C8_8 
ROOT
HETATM    1  C1  UNL     1     -35.688  16.281  -4.809  1.00 20.00    -0.079 C 
HETATM    2  C2  UNL     1     -36.929  16.695  -5.077  1.00 20.00    -0.028 C 
HETATM    3  C4  UNL     1     -35.081  16.124  -3.437  1.00 20.00     0.039 C 
HETATM    4  C5  UNL     1     -33.388  16.489  -5.079  1.00 20.00     0.014 C 
HETATM    5  C6  UNL     1     -33.713  14.227  -4.388  1.00 20.00     0.019 C 
HETATM    6  C7  UNL     1     -34.611  15.943  -5.820  1.00 20.00     0.027 C 
HETATM    7  C8  UNL     1     -34.325  14.430  -5.787  1.00 20.00     0.081 C 
HETATM    8  C9  UNL     1     -33.660  15.663  -3.818  1.00 20.00    -0.009 C 
HETATM    9  C10 UNL     1     -37.927  17.074  -4.033  1.00 20.00     0.036 C 
ENDROOT
BRANCH   7  10
HETATM   10  C3  UNL     1     -35.536  13.582  -6.029  1.00 20.00     0.223 C 
HETATM   11  O11 UNL     1     -35.892  12.723  -5.228  1.00 20.00    -0.279 OA
HETATM   12 CL12 UNL     1     -36.320  13.973  -7.529  1.00 20.00    -0.043 Cl
ENDBRANCH   7  10
TORSDOF 1
ENDMDL
MODEL 3
REMARK VINA RESULT:      -4.5      2.959      3.828
REMARK  1 active torsions:
REMARK  status: ('A' for Active; 'I' for Inactive)
REMARK    1  A    between atoms: C3_3  and  C8_8 
ROOT
HETATM    1  C1  UNL     1     -34.595  16.460  -2.648  1.00 20.00    -0.079 C 
HETATM    2  C2  UNL     1     -34.450  17.045  -1.456  1.00 20.00    -0.028 C 
HETATM    3  C4  UNL     1     -35.889  15.957  -3.238  1.00 20.00     0.039 C 
HETATM    4  C5  UNL     1     -34.022  14.790  -4.160  1.00 20.00     0.014 C 
HETATM    5  C6  UNL     1     -34.941  16.535  -5.506  1.00 20.00     0.019 C 
HETATM    6  C7  UNL     1     -33.490  16.124  -3.628  1.00 20.00     0.027 C 
HETATM    7  C8  UNL     1     -33.618  17.013  -4.879  1.00 20.00     0.081 C 
HETATM    8  C9  UNL     1     -35.374  15.381  -4.573  1.00 20.00    -0.009 C 
HETATM    9  C10 UNL     1     -35.574  17.295  -0.505  1.00 20.00     0.036 C 
ENDROOT
BRANCH   7  10
HETATM   10  C3  UNL     1     -33.604  18.480  -4.580  1.00 20.00     0.223 C 
HETATM   11  O11 UNL     1     -32.626  19.027  -4.082  1.00 20.00    -0.279 OA
HETATM   12 CL12 UNL     1     -35.098  19.252  -5.019  1.00 20.00    -0.043 Cl
ENDBRANCH   7  10
TORSDOF 1
ENDMDL
MODEL 4
REMARK VINA RESULT:      -4.5      1.965      2.171
REMARK  1 active torsions:
REMARK  status: ('A' for Active; 'I' for Inactive)
REMARK    1  A    between atoms: C3_3  and  C8_8 
ROOT
HETATM    1  C1  UNL     1     -34.910  16.868  -3.606  1.00 20.00    -0.079 C 
HETATM    2  C2  UNL     1     -35.326  16.598  -2.365  1.00 20.00    -0.028 C 
HETATM    3  C4  UNL     1     -33.729  17.729  -3.978  1.00 20.00     0.039 C 
HETATM    4  C5  UNL     1     -35.330  17.671  -5.746  1.00 20.00     0.014 C 
HETATM    5  C6  UNL     1     -33.432  16.244  -5.997  1.00 20.00     0.019 C 
HETATM    6  C7  UNL     1     -35.566  16.420  -4.896  1.00 20.00     0.027 C 
HETATM    7  C8  UNL     1     -34.661  15.400  -5.612  1.00 20.00     0.081 C 
HETATM    8  C9  UNL     1     -33.815  17.662  -5.516  1.00 20.00    -0.009 C 
HETATM    9  C10 UNL     1     -34.670  17.121  -1.131  1.00 20.00     0.036 C 
ENDROOT
BRANCH   7  10
HETATM   10  C3  UNL     1     -34.317  14.207  -4.774  1.00 20.00     0.223 C 
HETATM   11  O11 UNL     1     -35.148  13.344  -4.510  1.00 20.00    -0.279 OA
HETATM   12 CL12 UNL     1     -32.658  14.225  -4.260  1.00 20.00    -0.043 Cl
ENDBRANCH   7  10
TORSDOF 1
ENDMDL
MODEL 5
REMARK VINA RESULT:      -4.4      1.534      3.207
REMARK  1 active torsions:
REMARK  status: ('A' for Active; 'I' for Inactive)
REMARK    1  A    between atoms: C3_3  and  C8_8 
ROOT
HETATM    1  C1  UNL     1     -34.411  14.894  -5.575  1.00 20.00    -0.079 C 
HETATM    2  C2  UNL     1     -34.466  13.931  -6.499  1.00 20.00    -0.028 C 
HETATM    3  C4  UNL     1     -33.920  16.304  -5.790  1.00 20.00     0.039 C 
HETATM    4  C5  UNL     1     -33.693  15.664  -3.502  1.00 20.00     0.014 C 
HETATM    5  C6  UNL     1     -35.582  17.025  -4.031  1.00 20.00     0.019 C 
HETATM    6  C7  UNL     1     -34.769  14.759  -4.109  1.00 20.00     0.027 C 
HETATM    7  C8  UNL     1     -36.042  15.573  -3.809  1.00 20.00     0.081 C 
HETATM    8  C9  UNL     1     -34.080  16.870  -4.364  1.00 20.00    -0.009 C 
HETATM    9  C10 UNL     1     -34.039  14.110  -7.918  1.00 20.00     0.036 C 
ENDROOT
BRANCH   7  10
HETATM   10  C3  UNL     1     -37.215  15.190  -4.657  1.00 20.00     0.223 C 
HETATM   11  O11 UNL     1     -37.754  14.092  -4.556  1.00 20.00    -0.279 OA
HETATM   12 CL12 UNL     1     -37.676  16.461  -5.748  1.00 20.00    -0.043 Cl
ENDBRANCH   7  10
TORSDOF 1
ENDMDL
MODEL 6
REMARK VINA RESULT:      -4.4      2.251      3.197
REMARK  1 active torsions:
REMARK  status: ('A' for Active; 'I' for Inactive)
REMARK    1  A    between atoms: C3_3  and  C8_8 
ROOT
HETATM    1  C1  UNL     1     -35.605  15.108  -6.192  1.00 20.00    -0.079 C 
HETATM    2  C2  UNL     1     -36.393  14.102  -5.801  1.00 20.00    -0.028 C 
HETATM    3  C4  UNL     1     -35.974  16.570  -6.208  1.00 20.00     0.039 C 
HETATM    4  C5  UNL     1     -34.259  16.109  -7.801  1.00 20.00     0.014 C 
HETATM    5  C6  UNL     1     -33.544  17.066  -5.735  1.00 20.00     0.019 C 
HETATM    6  C7  UNL     1     -34.204  14.989  -6.758  1.00 20.00     0.027 C 
HETATM    7  C8  UNL     1     -33.189  15.568  -5.756  1.00 20.00     0.081 C 
HETATM    8  C9  UNL     1     -34.676  17.173  -6.782  1.00 20.00    -0.009 C 
HETATM    9  C10 UNL     1     -37.791  14.279  -5.308  1.00 20.00     0.036 C 
ENDROOT
BRANCH   7  10
HETATM   10  C3  UNL     1     -33.247  14.930  -4.402  1.00 20.00     0.223 C 
HETATM   11  O11 UNL     1     -32.940  13.754  -4.230  1.00 20.00    -0.279 OA
HETATM   12 CL12 UNL     1     -33.783  16.040  -3.178  1.00 20.00    -0.043 Cl
ENDBRANCH   7  10
TORSDOF 1
ENDMDL
MODEL 7
REMARK VINA RESULT:      -4.3      2.049      2.810
REMARK  1 active torsions:
REMARK  status: ('A' for Active; 'I' for Inactive)
REMARK    1  A    between atoms: C3_3  and  C8_8 
ROOT
HETATM    1  C1  UNL     1     -35.443  16.831  -2.959  1.00 20.00    -0.079 C 
HETATM    2  C2  UNL     1     -34.937  16.625  -1.740  1.00 20.00    -0.028 C 
HETATM    3  C4  UNL     1     -35.260  18.070  -3.799  1.00 20.00     0.039 C 
HETATM    4  C5  UNL     1     -37.265  16.924  -4.399  1.00 20.00     0.014 C 
HETATM    5  C6  UNL     1     -35.384  16.572  -5.827  1.00 20.00     0.019 C 
HETATM    6  C7  UNL     1     -36.352  15.894  -3.728  1.00 20.00     0.027 C 
HETATM    7  C8  UNL     1     -35.601  15.327  -4.947  1.00 20.00     0.081 C 
HETATM    8  C9  UNL     1     -36.100  17.690  -5.035  1.00 20.00    -0.009 C 
HETATM    9  C10 UNL     1     -34.095  17.616  -1.007  1.00 20.00     0.036 C 
ENDROOT
BRANCH   7  10
HETATM   10  C3  UNL     1     -34.326  14.624  -4.596  1.00 20.00     0.223 C 
HETATM   11  O11 UNL     1     -34.324  13.550  -4.003  1.00 20.00    -0.279 OA
HETATM   12 CL12 UNL     1     -32.926  15.507  -5.124  1.00 20.00    -0.043 Cl
ENDBRANCH   7  10
TORSDOF 1
ENDMDL
MODEL 8
REMARK VINA RESULT:      -4.3      2.121      2.936
REMARK  1 active torsions:
REMARK  status: ('A' for Active; 'I' for Inactive)
REMARK    1  A    between atoms: C3_3  and  C8_8 
ROOT
HETATM    1  C1  UNL     1     -35.779  15.211  -4.510  1.00 20.00    -0.079 C 
HETATM    2  C2  UNL     1     -34.689  15.120  -3.743  1.00 20.00    -0.028 C 
HETATM    3  C4  UNL     1     -36.474  16.487  -4.915  1.00 20.00     0.039 C 
HETATM    4  C5  UNL     1     -37.988  14.642  -4.954  1.00 20.00     0.014 C 
HETATM    5  C6  UNL     1     -37.103  15.321  -7.065  1.00 20.00     0.019 C 
HETATM    6  C7  UNL     1     -36.578  14.059  -5.082  1.00 20.00     0.027 C 
HETATM    7  C8  UNL     1     -36.412  14.022  -6.613  1.00 20.00     0.081 C 
HETATM    8  C9  UNL     1     -37.642  15.910  -5.741  1.00 20.00    -0.009 C 
HETATM    9  C10 UNL     1     -33.979  16.294  -3.156  1.00 20.00     0.036 C 
ENDROOT
BRANCH   7  10
HETATM   10  C3  UNL     1     -34.987  13.925  -7.062  1.00 20.00     0.223 C 
HETATM   11  O11 UNL     1     -34.303  12.934  -6.828  1.00 20.00    -0.279 OA
HETATM   12 CL12 UNL     1     -34.472  15.347  -7.918  1.00 20.00    -0.043 Cl
ENDBRANCH   7  10
TORSDOF 1
ENDMDL
MODEL 9
REMARK VINA RESULT:      -4.3      3.010      4.579
REMARK  1 active torsions:
REMARK  status: ('A' for Active; 'I' for Inactive)
REMARK    1  A    between atoms: C3_3  and  C8_8 
ROOT
HETATM    1  C1  UNL     1     -34.611  16.256  -2.875  1.00 20.00    -0.079 C 
HETATM    2  C2  UNL     1     -34.544  15.267  -3.771  1.00 20.00    -0.028 C 
HETATM    3  C4  UNL     1     -33.439  16.984  -2.268  1.00 20.00     0.039 C 
HETATM    4  C5  UNL     1     -35.336  17.075  -0.824  1.00 20.00     0.014 C 
HETATM    5  C6  UNL     1     -34.923  19.023  -2.141  1.00 20.00     0.019 C 
HETATM    6  C7  UNL     1     -35.868  16.810  -2.235  1.00 20.00     0.027 C 
HETATM    7  C8  UNL     1     -36.113  18.246  -2.733  1.00 20.00     0.081 C 
HETATM    8  C9  UNL     1     -34.178  17.948  -1.317  1.00 20.00    -0.009 C 
HETATM    9  C10 UNL     1     -33.268  14.722  -4.319  1.00 20.00     0.036 C 
ENDROOT
BRANCH   7  10
HETATM   10  C3  UNL     1     -36.208  18.360  -4.223  1.00 20.00     0.223 C 
HETATM   11  O11 UNL     1     -37.143  17.871  -4.849  1.00 20.00    -0.279 OA
HETATM   12 CL12 UNL     1     -34.870  19.239  -4.899  1.00 20.00    -0.043 Cl
ENDBRANCH   7  10
TORSDOF 1
ENDMDL
