MODEL 1
REMARK VINA RESULT:      -5.0      0.000      0.000
REMARK  1 active torsions:
REMARK  status: ('A' for Active; 'I' for Inactive)
REMARK    1  A    between atoms: C3_3  and  C6_6 
ROOT
HETATM    1  C1  UNL     1     -32.993   8.015   4.997  1.00 20.00     0.005 C 
HETATM    2  C2  UNL     1     -32.672   7.491   3.801  1.00 20.00     0.040 C 
HETATM    3  C4  UNL     1     -33.872   7.308   5.978  1.00 20.00     0.033 C 
HETATM    4  C5  UNL     1     -34.050   5.844   5.590  1.00 20.00     0.049 C 
HETATM    5  C6  UNL     1     -34.226   5.689   4.074  1.00 20.00     0.116 C 
HETATM    6  C7  UNL     1     -31.759   8.184   2.840  1.00 20.00     0.076 C 
HETATM    7  C8  UNL     1     -35.566   6.218   3.560  1.00 20.00     0.054 C 
HETATM    8  O10 UNL     1     -33.148   6.280   3.335  1.00 20.00    -0.338 OA
ENDROOT
BRANCH   5   9
HETATM    9  C3  UNL     1     -34.103   4.239   3.704  1.00 20.00     0.269 C 
HETATM   10  O9  UNL     1     -34.070   3.331   4.528  1.00 20.00    -0.304 OA
ENDBRANCH   5   9
TORSDOF 1
ENDMDL
MODEL 2
REMARK VINA RESULT:      -4.2     11.846     13.209
REMARK  1 active torsions:
REMARK  status: ('A' for Active; 'I' for Inactive)
REMARK    1  A    between atoms: C3_3  and  C6_6 
ROOT
HETATM    1  C1  UNL     1     -33.311  16.495  -5.111  1.00 20.00     0.005 C 
HETATM    2  C2  UNL     1     -34.116  16.317  -6.172  1.00 20.00     0.040 C 
HETATM    3  C4  UNL     1     -33.493  15.755  -3.825  1.00 20.00     0.033 C 
HETATM    4  C5  UNL     1     -34.452  14.583  -4.006  1.00 20.00     0.049 C 
HETATM    5  C6  UNL     1     -35.635  14.967  -4.903  1.00 20.00     0.116 C 
HETATM    6  C7  UNL     1     -33.905  17.030  -7.469  1.00 20.00     0.076 C 
HETATM    7  C8  UNL     1     -36.606  15.947  -4.243  1.00 20.00     0.054 C 
HETATM    8  O10 UNL     1     -35.213  15.476  -6.177  1.00 20.00    -0.338 OA
ENDROOT
BRANCH   5   9
HETATM    9  C3  UNL     1     -36.387  13.727  -5.294  1.00 20.00     0.269 C 
HETATM   10  O9  UNL     1     -35.900  12.602  -5.261  1.00 20.00    -0.304 OA
ENDBRANCH   5   9
TORSDOF 1
ENDMDL
MODEL 3
REMARK VINA RESULT:      -4.1     11.780     12.771
REMARK  1 active torsions:
REMARK  status: ('A' for Active; 'I' for Inactive)
REMARK    1  A    between atoms: C3_3  and  C6_6 
ROOT
HETATM    1  C1  UNL     1     -33.776  17.367  -3.828  1.00 20.00     0.005 C 
HETATM    2  C2  UNL     1     -34.466  16.601  -2.966  1.00 20.00     0.040 C 
HETATM    3  C4  UNL     1     -33.633  17.027  -5.276  1.00 20.00     0.033 C 
HETATM    4  C5  UNL     1     -34.620  15.936  -5.676  1.00 20.00     0.049 C 
HETATM    5  C6  UNL     1     -34.728  14.859  -4.590  1.00 20.00     0.116 C 
HETATM    6  C7  UNL     1     -34.640  16.967  -1.527  1.00 20.00     0.076 C 
HETATM    7  C8  UNL     1     -33.475  13.990  -4.468  1.00 20.00     0.054 C 
HETATM    8  O10 UNL     1     -35.072  15.407  -3.308  1.00 20.00    -0.338 OA
ENDROOT
BRANCH   5   9
HETATM    9  C3  UNL     1     -35.907  13.974  -4.879  1.00 20.00     0.269 C 
HETATM   10  O9  UNL     1     -35.805  12.792  -5.189  1.00 20.00    -0.304 OA
ENDBRANCH   5   9
TORSDOF 1
ENDMDL
MODEL 4
REMARK VINA RESULT:      -4.0      1.736      3.139
REMARK  1 active torsions:
REMARK  status: ('A' for Active; 'I' for Inactive)
REMARK    1  A    between atoms: C3_3  and  C6_6 
ROOT
HETATM    1  C1  UNL     1     -34.452   5.232   5.582  1.00 20.00     0.005 C 
HETATM    2  C2  UNL     1     -34.008   6.492   5.436  1.00 20.00     0.040 C 
HETATM    3  C4  UNL     1     -34.382   4.219   4.485  1.00 20.00     0.033 C 
HETATM    4  C5  UNL     1     -33.468   4.697   3.363  1.00 20.00     0.049 C 
HETATM    5  C6  UNL     1     -33.667   6.192   3.084  1.00 20.00     0.116 C 
HETATM    6  C7  UNL     1     -34.043   7.490   6.549  1.00 20.00     0.076 C 
HETATM    7  C8  UNL     1     -35.010   6.515   2.427  1.00 20.00     0.054 C 
HETATM    8  O10 UNL     1     -33.488   6.996   4.258  1.00 20.00    -0.338 OA
ENDROOT
BRANCH   5   9
HETATM    9  C3  UNL     1     -32.561   6.684   2.195  1.00 20.00     0.269 C 
HETATM   10  O9  UNL     1     -32.148   7.839   2.206  1.00 20.00    -0.304 OA
ENDBRANCH   5   9
TORSDOF 1
ENDMDL
MODEL 5
REMARK VINA RESULT:      -4.0     12.058     13.741
REMARK  1 active torsions:
REMARK  status: ('A' for Active; 'I' for Inactive)
REMARK    1  A    between atoms: C3_3  and  C6_6 
ROOT
HETATM    1  C1  UNL     1     -33.957  14.950  -7.561  1.00 20.00     0.005 C 
HETATM    2  C2  UNL     1     -34.454  15.982  -6.858  1.00 20.00     0.040 C 
HETATM    3  C4  UNL     1     -34.394  13.538  -7.341  1.00 20.00     0.033 C 
HETATM    4  C5  UNL     1     -35.664  13.489  -6.499  1.00 20.00     0.049 C 
HETATM    5  C6  UNL     1     -35.617  14.516  -5.362  1.00 20.00     0.116 C 
HETATM    6  C7  UNL     1     -34.044  17.398  -7.110  1.00 20.00     0.076 C 
HETATM    7  C8  UNL     1     -34.611  14.165  -4.265  1.00 20.00     0.054 C 
HETATM    8  O10 UNL     1     -35.378  15.849  -5.838  1.00 20.00    -0.338 OA
ENDROOT
BRANCH   5   9
HETATM    9  C3  UNL     1     -36.982  14.643  -4.747  1.00 20.00     0.269 C 
HETATM   10  O9  UNL     1     -37.911  13.885  -5.003  1.00 20.00    -0.304 OA
ENDBRANCH   5   9
TORSDOF 1
ENDMDL
MODEL 6
REMARK VINA RESULT:      -3.9     12.100     12.664
REMARK  1 active torsions:
REMARK  status: ('A' for Active; 'I' for Inactive)
REMARK    1  A    between atoms: C3_3  and  C6_6 
ROOT
HETATM    1  C1  UNL     1     -35.681  16.904  -2.292  1.00 20.00     0.005 C 
HETATM    2  C2  UNL     1     -34.355  16.947  -2.081  1.00 20.00     0.040 C 
HETATM    3  C4  UNL     1     -36.293  16.153  -3.430  1.00 20.00     0.033 C 
HETATM    4  C5  UNL     1     -35.277  15.212  -4.068  1.00 20.00     0.049 C 
HETATM    5  C6  UNL     1     -33.897  15.874  -4.173  1.00 20.00     0.116 C 
HETATM    6  C7  UNL     1     -33.750  17.666  -0.917  1.00 20.00     0.076 C 
HETATM    7  C8  UNL     1     -33.838  16.997  -5.209  1.00 20.00     0.054 C 
HETATM    8  O10 UNL     1     -33.420  16.349  -2.905  1.00 20.00    -0.338 OA
ENDROOT
BRANCH   5   9
HETATM    9  C3  UNL     1     -32.872  14.834  -4.524  1.00 20.00     0.269 C 
HETATM   10  O9  UNL     1     -32.998  13.643  -4.261  1.00 20.00    -0.304 OA
ENDBRANCH   5   9
TORSDOF 1
ENDMDL
MODEL 7
REMARK VINA RESULT:      -3.8      9.026     10.753
REMARK  1 active torsions:
REMARK  status: ('A' for Active; 'I' for Inactive)
REMARK    1  A    between atoms: C3_3  and  C6_6 
ROOT
HETATM    1  C1  UNL     1     -43.417   4.492   0.353  1.00 20.00     0.005 C 
HETATM    2  C2  UNL     1     -43.125   4.887  -0.898  1.00 20.00     0.040 C 
HETATM    3  C4  UNL     1     -43.407   5.427   1.519  1.00 20.00     0.033 C 
HETATM    4  C5  UNL     1     -43.363   6.877   1.050  1.00 20.00     0.049 C 
HETATM    5  C6  UNL     1     -42.414   7.046  -0.142  1.00 20.00     0.116 C 
HETATM    6  C7  UNL     1     -43.177   3.956  -2.067  1.00 20.00     0.076 C 
HETATM    7  C8  UNL     1     -40.938   6.889   0.227  1.00 20.00     0.054 C 
HETATM    8  O10 UNL     1     -42.744   6.173  -1.232  1.00 20.00    -0.338 OA
ENDROOT
BRANCH   5   9
HETATM    9  C3  UNL     1     -42.620   8.403  -0.754  1.00 20.00     0.269 C 
HETATM   10  O9  UNL     1     -41.933   8.842  -1.670  1.00 20.00    -0.304 OA
ENDBRANCH   5   9
TORSDOF 1
ENDMDL
MODEL 8
REMARK VINA RESULT:      -3.8     12.177     13.204
REMARK  1 active torsions:
REMARK  status: ('A' for Active; 'I' for Inactive)
REMARK    1  A    between atoms: C3_3  and  C6_6 
ROOT
HETATM    1  C1  UNL     1     -33.394  16.252  -5.021  1.00 20.00     0.005 C 
HETATM    2  C2  UNL     1     -34.175  16.213  -3.928  1.00 20.00     0.040 C 
HETATM    3  C4  UNL     1     -33.857  15.786  -6.363  1.00 20.00     0.033 C 
HETATM    4  C5  UNL     1     -35.370  15.599  -6.379  1.00 20.00     0.049 C 
HETATM    5  C6  UNL     1     -35.865  14.961  -5.076  1.00 20.00     0.116 C 
HETATM    6  C7  UNL     1     -33.721  16.719  -2.597  1.00 20.00     0.076 C 
HETATM    7  C8  UNL     1     -35.463  13.492  -4.926  1.00 20.00     0.054 C 
HETATM    8  O10 UNL     1     -35.460  15.701  -3.915  1.00 20.00    -0.338 OA
ENDROOT
BRANCH   5   9
HETATM    9  C3  UNL     1     -37.362  15.064  -5.007  1.00 20.00     0.269 C 
HETATM   10  O9  UNL     1     -38.095  14.110  -4.771  1.00 20.00    -0.304 OA
ENDBRANCH   5   9
TORSDOF 1
ENDMDL
MODEL 9
REMARK VINA RESULT:      -3.8     12.061     12.700
REMARK  1 active torsions:
REMARK  status: ('A' for Active; 'I' for Inactive)
REMARK    1  A    between atoms: C3_3  and  C6_6 
ROOT
HETATM    1  C1  UNL     1     -33.962  16.003  -3.347  1.00 20.00     0.005 C 
HETATM    2  C2  UNL     1     -33.779  14.943  -4.152  1.00 20.00     0.040 C 
HETATM    3  C4  UNL     1     -35.297  16.646  -3.149  1.00 20.00     0.033 C 
HETATM    4  C5  UNL     1     -36.412  15.757  -3.687  1.00 20.00     0.049 C 
HETATM    5  C6  UNL     1     -36.009  15.102  -5.014  1.00 20.00     0.116 C 
HETATM    6  C7  UNL     1     -32.450  14.278  -4.315  1.00 20.00     0.076 C 
HETATM    7  C8  UNL     1     -35.931  16.089  -6.180  1.00 20.00     0.054 C 
HETATM    8  O10 UNL     1     -34.781  14.366  -4.910  1.00 20.00    -0.338 OA
ENDROOT
BRANCH   5   9
HETATM    9  C3  UNL     1     -36.994  14.022  -5.357  1.00 20.00     0.269 C 
HETATM   10  O9  UNL     1     -38.128  13.969  -4.892  1.00 20.00    -0.304 OA
ENDBRANCH   5   9
TORSDOF 1
ENDMDL
