MODEL 1
REMARK VINA RESULT:      -4.0      0.000      0.000
REMARK  5 active torsions:
REMARK  status: ('A' for Active; 'I' for Inactive)
REMARK    1  A    between atoms: C1_1  and  C5_5 
REMARK    2  A    between atoms: C5_5  and  C8_8 
REMARK    3  A    between atoms: C6_6  and  N9_9 
REMARK    4  A    between atoms: C7_7  and  N9_9 
REMARK    5  A    between atoms: C8_8  and  N9_9 
ROOT
HETATM    1  C1  UNL     1     -32.113   8.824   2.002  1.00 20.00    -0.092 C 
HETATM    2  C2  UNL     1     -32.512   9.134   0.913  1.00 20.00    -0.022 C 
HETATM    3  S10 UNL     1     -33.108   9.594  -0.710  1.00 20.00     0.008 SA
ENDROOT
BRANCH   1   4
HETATM    4  C5  UNL     1     -31.623   8.447   3.336  1.00 20.00     0.122 C 
BRANCH   4   5
HETATM    5  C8  UNL     1     -32.107   7.067   3.759  1.00 20.00     0.246 C 
BRANCH   5   6
HETATM    6  N9  UNL     1     -33.590   7.086   3.993  1.00 20.00    -0.071 N 
HETATM    7  H25 UNL     1     -33.948   7.951   3.566  1.00 20.00     0.279 HD
BRANCH   6   8
HETATM    8  C6  UNL     1     -34.283   5.943   3.309  1.00 20.00     0.230 C 
HETATM    9  C3  UNL     1     -33.250   5.062   2.640  1.00 20.00     0.034 C 
ENDBRANCH   6   8
BRANCH   6  10
HETATM   10  C7  UNL     1     -33.927   7.153   5.455  1.00 20.00     0.230 C 
HETATM   11  C4  UNL     1     -34.522   5.832   5.891  1.00 20.00     0.034 C 
ENDBRANCH   6  10
ENDBRANCH   5   6
ENDBRANCH   4   5
ENDBRANCH   1   4
TORSDOF 5
ENDMDL
MODEL 2
REMARK VINA RESULT:      -3.9      0.671      1.994
REMARK  5 active torsions:
REMARK  status: ('A' for Active; 'I' for Inactive)
REMARK    1  A    between atoms: C1_1  and  C5_5 
REMARK    2  A    between atoms: C5_5  and  C8_8 
REMARK    3  A    between atoms: C6_6  and  N9_9 
REMARK    4  A    between atoms: C7_7  and  N9_9 
REMARK    5  A    between atoms: C8_8  and  N9_9 
ROOT
HETATM    1  C1  UNL     1     -32.071   8.560   2.219  1.00 20.00    -0.092 C 
HETATM    2  C2  UNL     1     -32.402   8.979   1.144  1.00 20.00    -0.022 C 
HETATM    3  S10 UNL     1     -32.898   9.603  -0.458  1.00 20.00     0.008 SA
ENDROOT
BRANCH   1   4
HETATM    4  C5  UNL     1     -31.663   8.048   3.536  1.00 20.00     0.122 C 
BRANCH   4   5
HETATM    5  C8  UNL     1     -32.834   7.947   4.503  1.00 20.00     0.246 C 
BRANCH   5   6
HETATM    6  N9  UNL     1     -33.347   6.536   4.550  1.00 20.00    -0.071 N 
HETATM    7  H25 UNL     1     -32.529   5.926   4.683  1.00 20.00     0.279 HD
BRANCH   6   8
HETATM    8  C6  UNL     1     -34.256   6.306   5.723  1.00 20.00     0.230 C 
HETATM    9  C3  UNL     1     -34.677   4.853   5.750  1.00 20.00     0.034 C 
ENDBRANCH   6   8
BRANCH   6  10
HETATM   10  C7  UNL     1     -33.987   6.127   3.255  1.00 20.00     0.230 C 
HETATM   11  C4  UNL     1     -33.182   5.006   2.633  1.00 20.00     0.034 C 
ENDBRANCH   6  10
ENDBRANCH   5   6
ENDBRANCH   4   5
ENDBRANCH   1   4
TORSDOF 5
ENDMDL
MODEL 3
REMARK VINA RESULT:      -3.9      1.270      1.693
REMARK  5 active torsions:
REMARK  status: ('A' for Active; 'I' for Inactive)
REMARK    1  A    between atoms: C1_1  and  C5_5 
REMARK    2  A    between atoms: C5_5  and  C8_8 
REMARK    3  A    between atoms: C6_6  and  N9_9 
REMARK    4  A    between atoms: C7_7  and  N9_9 
REMARK    5  A    between atoms: C8_8  and  N9_9 
ROOT
HETATM    1  C1  UNL     1     -32.454   7.803   2.135  1.00 20.00    -0.092 C 
HETATM    2  C2  UNL     1     -32.457   8.864   1.572  1.00 20.00    -0.022 C 
HETATM    3  S10 UNL     1     -32.462  10.446   0.735  1.00 20.00     0.008 SA
ENDROOT
BRANCH   1   4
HETATM    4  C5  UNL     1     -32.449   6.504   2.822  1.00 20.00     0.122 C 
BRANCH   4   5
HETATM    5  C8  UNL     1     -33.825   5.854   2.837  1.00 20.00     0.246 C 
BRANCH   5   6
HETATM    6  N9  UNL     1     -34.575   6.255   4.075  1.00 20.00    -0.071 N 
HETATM    7  H25 UNL     1     -35.507   6.567   3.771  1.00 20.00     0.279 HD
BRANCH   6   8
HETATM    8  C6  UNL     1     -34.786   5.094   5.005  1.00 20.00     0.230 C 
HETATM    9  C3  UNL     1     -34.163   3.854   4.403  1.00 20.00     0.034 C 
ENDBRANCH   6   8
BRANCH   6  10
HETATM   10  C7  UNL     1     -33.931   7.421   4.769  1.00 20.00     0.230 C 
HETATM   11  C4  UNL     1     -33.850   7.134   6.254  1.00 20.00     0.034 C 
ENDBRANCH   6  10
ENDBRANCH   5   6
ENDBRANCH   4   5
ENDBRANCH   1   4
TORSDOF 5
ENDMDL
MODEL 4
REMARK VINA RESULT:      -3.4     10.525     11.636
REMARK  5 active torsions:
REMARK  status: ('A' for Active; 'I' for Inactive)
REMARK    1  A    between atoms: C1_1  and  C5_5 
REMARK    2  A    between atoms: C5_5  and  C8_8 
REMARK    3  A    between atoms: C6_6  and  N9_9 
REMARK    4  A    between atoms: C7_7  and  N9_9 
REMARK    5  A    between atoms: C8_8  and  N9_9 
ROOT
HETATM    1  C1  UNL     1     -34.283  16.293  -2.876  1.00 20.00    -0.092 C 
HETATM    2  C2  UNL     1     -34.776  16.789  -1.900  1.00 20.00    -0.022 C 
HETATM    3  S10 UNL     1     -35.509  17.527  -0.444  1.00 20.00     0.008 SA
ENDROOT
BRANCH   1   4
HETATM    4  C5  UNL     1     -33.680  15.687  -4.073  1.00 20.00     0.122 C 
BRANCH   4   5
HETATM    5  C8  UNL     1     -33.952  14.192  -4.160  1.00 20.00     0.246 C 
BRANCH   5   6
HETATM    6  N9  UNL     1     -34.562  13.852  -5.489  1.00 20.00    -0.071 N 
HETATM    7  H25 UNL     1     -34.009  13.078  -5.882  1.00 20.00     0.279 HD
BRANCH   6   8
HETATM    8  C6  UNL     1     -35.972  13.353  -5.351  1.00 20.00     0.230 C 
HETATM    9  C3  UNL     1     -36.911  14.535  -5.246  1.00 20.00     0.034 C 
ENDBRANCH   6   8
BRANCH   6  10
HETATM   10  C7  UNL     1     -34.463  14.993  -6.462  1.00 20.00     0.230 C 
HETATM   11  C4  UNL     1     -34.040  14.459  -7.814  1.00 20.00     0.034 C 
ENDBRANCH   6  10
ENDBRANCH   5   6
ENDBRANCH   4   5
ENDBRANCH   1   4
TORSDOF 5
ENDMDL
MODEL 5
REMARK VINA RESULT:      -3.4      1.424      2.522
REMARK  5 active torsions:
REMARK  status: ('A' for Active; 'I' for Inactive)
REMARK    1  A    between atoms: C1_1  and  C5_5 
REMARK    2  A    between atoms: C5_5  and  C8_8 
REMARK    3  A    between atoms: C6_6  and  N9_9 
REMARK    4  A    between atoms: C7_7  and  N9_9 
REMARK    5  A    between atoms: C8_8  and  N9_9 
ROOT
HETATM    1  C1  UNL     1     -32.646   7.899   2.206  1.00 20.00    -0.092 C 
HETATM    2  C2  UNL     1     -32.537   8.987   1.708  1.00 20.00    -0.022 C 
HETATM    3  S10 UNL     1     -32.373  10.606   0.966  1.00 20.00     0.008 SA
ENDROOT
BRANCH   1   4
HETATM    4  C5  UNL     1     -32.781   6.568   2.816  1.00 20.00     0.122 C 
BRANCH   4   5
HETATM    5  C8  UNL     1     -34.128   6.381   3.498  1.00 20.00     0.246 C 
BRANCH   5   6
HETATM    6  N9  UNL     1     -33.947   5.718   4.834  1.00 20.00    -0.071 N 
HETATM    7  H25 UNL     1     -32.939   5.545   4.945  1.00 20.00     0.279 HD
BRANCH   6   8
HETATM    8  C6  UNL     1     -34.363   6.611   5.967  1.00 20.00     0.230 C 
HETATM    9  C3  UNL     1     -33.397   7.771   6.068  1.00 20.00     0.034 C 
ENDBRANCH   6   8
BRANCH   6  10
HETATM   10  C7  UNL     1     -34.626   4.380   4.894  1.00 20.00     0.230 C 
HETATM   11  C4  UNL     1     -33.868   3.397   4.028  1.00 20.00     0.034 C 
ENDBRANCH   6  10
ENDBRANCH   5   6
ENDBRANCH   4   5
ENDBRANCH   1   4
TORSDOF 5
ENDMDL
MODEL 6
REMARK VINA RESULT:      -3.3     10.760     11.482
REMARK  5 active torsions:
REMARK  status: ('A' for Active; 'I' for Inactive)
REMARK    1  A    between atoms: C1_1  and  C5_5 
REMARK    2  A    between atoms: C5_5  and  C8_8 
REMARK    3  A    between atoms: C6_6  and  N9_9 
REMARK    4  A    between atoms: C7_7  and  N9_9 
REMARK    5  A    between atoms: C8_8  and  N9_9 
ROOT
HETATM    1  C1  UNL     1     -34.398  16.512  -2.421  1.00 20.00    -0.092 C 
HETATM    2  C2  UNL     1     -34.900  16.962  -1.428  1.00 20.00    -0.022 C 
HETATM    3  S10 UNL     1     -35.646  17.635   0.053  1.00 20.00     0.008 SA
ENDROOT
BRANCH   1   4
HETATM    4  C5  UNL     1     -33.786  15.958  -3.638  1.00 20.00     0.122 C 
BRANCH   4   5
HETATM    5  C8  UNL     1     -34.372  14.606  -4.015  1.00 20.00     0.246 C 
BRANCH   5   6
HETATM    6  N9  UNL     1     -35.179  14.722  -5.276  1.00 20.00    -0.071 N 
HETATM    7  H25 UNL     1     -35.628  15.648  -5.257  1.00 20.00     0.279 HD
BRANCH   6   8
HETATM    8  C6  UNL     1     -34.315  14.682  -6.503  1.00 20.00     0.230 C 
HETATM    9  C3  UNL     1     -34.632  13.432  -7.295  1.00 20.00     0.034 C 
ENDBRANCH   6   8
BRANCH   6  10
HETATM   10  C7  UNL     1     -36.283  13.705  -5.332  1.00 20.00     0.230 C 
HETATM   11  C4  UNL     1     -37.608  14.393  -5.080  1.00 20.00     0.034 C 
ENDBRANCH   6  10
ENDBRANCH   5   6
ENDBRANCH   4   5
ENDBRANCH   1   4
TORSDOF 5
ENDMDL
MODEL 7
REMARK VINA RESULT:      -3.3     10.685     11.796
REMARK  5 active torsions:
REMARK  status: ('A' for Active; 'I' for Inactive)
REMARK    1  A    between atoms: C1_1  and  C5_5 
REMARK    2  A    between atoms: C5_5  and  C8_8 
REMARK    3  A    between atoms: C6_6  and  N9_9 
REMARK    4  A    between atoms: C7_7  and  N9_9 
REMARK    5  A    between atoms: C8_8  and  N9_9 
ROOT
HETATM    1  C1  UNL     1     -33.733  17.060  -2.066  1.00 20.00    -0.092 C 
HETATM    2  C2  UNL     1     -33.185  17.766  -1.263  1.00 20.00    -0.022 C 
HETATM    3  S10 UNL     1     -32.370  18.818  -0.067  1.00 20.00     0.008 SA
ENDROOT
BRANCH   1   4
HETATM    4  C5  UNL     1     -34.402  16.195  -3.048  1.00 20.00     0.122 C 
BRANCH   4   5
HETATM    5  C8  UNL     1     -33.644  16.126  -4.366  1.00 20.00     0.246 C 
BRANCH   5   6
HETATM    6  N9  UNL     1     -33.802  14.767  -4.985  1.00 20.00    -0.071 N 
HETATM    7  H25 UNL     1     -32.916  14.267  -4.835  1.00 20.00     0.279 HD
BRANCH   6   8
HETATM    8  C6  UNL     1     -34.876  13.963  -4.312  1.00 20.00     0.230 C 
HETATM    9  C3  UNL     1     -35.879  13.503  -5.348  1.00 20.00     0.034 C 
ENDBRANCH   6   8
BRANCH   6  10
HETATM   10  C7  UNL     1     -34.008  14.847  -6.471  1.00 20.00     0.230 C 
HETATM   11  C4  UNL     1     -33.696  16.251  -6.943  1.00 20.00     0.034 C 
ENDBRANCH   6  10
ENDBRANCH   5   6
ENDBRANCH   4   5
ENDBRANCH   1   4
TORSDOF 5
ENDMDL
MODEL 8
REMARK VINA RESULT:      -3.1     10.767     11.863
REMARK  5 active torsions:
REMARK  status: ('A' for Active; 'I' for Inactive)
REMARK    1  A    between atoms: C1_1  and  C5_5 
REMARK    2  A    between atoms: C5_5  and  C8_8 
REMARK    3  A    between atoms: C6_6  and  N9_9 
REMARK    4  A    between atoms: C7_7  and  N9_9 
REMARK    5  A    between atoms: C8_8  and  N9_9 
ROOT
HETATM    1  C1  UNL     1     -34.370  17.334  -1.154  1.00 20.00    -0.092 C 
HETATM    2  C2  UNL     1     -35.102  17.589  -0.237  1.00 20.00    -0.022 C 
HETATM    3  S10 UNL     1     -36.195  17.970   1.128  1.00 20.00     0.008 SA
ENDROOT
BRANCH   1   4
HETATM    4  C5  UNL     1     -33.472  17.020  -2.275  1.00 20.00     0.122 C 
BRANCH   4   5
HETATM    5  C8  UNL     1     -34.233  16.591  -3.521  1.00 20.00     0.246 C 
BRANCH   5   6
HETATM    6  N9  UNL     1     -33.334  15.813  -4.437  1.00 20.00    -0.071 N 
HETATM    7  H25 UNL     1     -32.370  15.970  -4.112  1.00 20.00     0.279 HD
BRANCH   6   8
HETATM    8  C6  UNL     1     -33.586  14.335  -4.354  1.00 20.00     0.230 C 
HETATM    9  C3  UNL     1     -35.069  14.074  -4.500  1.00 20.00     0.034 C 
ENDBRANCH   6   8
BRANCH   6  10
HETATM   10  C7  UNL     1     -33.401  16.316  -5.851  1.00 20.00     0.230 C 
HETATM   11  C4  UNL     1     -34.304  17.529  -5.906  1.00 20.00     0.034 C 
ENDBRANCH   6  10
ENDBRANCH   5   6
ENDBRANCH   4   5
ENDBRANCH   1   4
TORSDOF 5
ENDMDL
MODEL 9
REMARK VINA RESULT:      -3.1     10.998     11.944
REMARK  5 active torsions:
REMARK  status: ('A' for Active; 'I' for Inactive)
REMARK    1  A    between atoms: C1_1  and  C5_5 
REMARK    2  A    between atoms: C5_5  and  C8_8 
REMARK    3  A    between atoms: C6_6  and  N9_9 
REMARK    4  A    between atoms: C7_7  and  N9_9 
REMARK    5  A    between atoms: C8_8  and  N9_9 
ROOT
HETATM    1  C1  UNL     1     -34.592  16.977  -1.560  1.00 20.00    -0.092 C 
HETATM    2  C2  UNL     1     -35.166  17.336  -0.568  1.00 20.00    -0.022 C 
HETATM    3  S10 UNL     1     -36.023  17.870   0.909  1.00 20.00     0.008 SA
ENDROOT
BRANCH   1   4
HETATM    4  C5  UNL     1     -33.888  16.538  -2.774  1.00 20.00     0.122 C 
BRANCH   4   5
HETATM    5  C8  UNL     1     -34.677  15.497  -3.554  1.00 20.00     0.246 C 
BRANCH   5   6
HETATM    6  N9  UNL     1     -34.848  15.936  -4.980  1.00 20.00    -0.071 N 
HETATM    7  H25 UNL     1     -35.374  16.820  -4.958  1.00 20.00     0.279 HD
BRANCH   6   8
HETATM    8  C6  UNL     1     -33.531  16.230  -5.640  1.00 20.00     0.230 C 
HETATM    9  C3  UNL     1     -33.767  16.558  -7.098  1.00 20.00     0.034 C 
ENDBRANCH   6   8
BRANCH   6  10
HETATM   10  C7  UNL     1     -35.669  14.961  -5.774  1.00 20.00     0.230 C 
HETATM   11  C4  UNL     1     -35.744  13.647  -5.026  1.00 20.00     0.034 C 
ENDBRANCH   6  10
ENDBRANCH   5   6
ENDBRANCH   4   5
ENDBRANCH   1   4
TORSDOF 5
ENDMDL
