MODEL 1
REMARK VINA RESULT:      -4.6      0.000      0.000
REMARK  3 active torsions:
REMARK  status: ('A' for Active; 'I' for Inactive)
REMARK    1  A    between atoms: C1_1  and  C7_7 
REMARK    2  A    between atoms: C1_1  and  N8_8 
REMARK    3  A    between atoms: C6_6  and  N8_8 
ROOT
HETATM    1  C1  UNL     1     -33.426   7.022   4.053  1.00 20.00     0.078 C 
HETATM    2  S9  UNL     1     -33.686   7.338   5.701  1.00 20.00    -0.065 SA
ENDROOT
BRANCH   1   3
HETATM    3  C7  UNL     1     -34.064   5.760   3.413  1.00 20.00     0.039 C 
HETATM    4  C3  UNL     1     -33.009   4.937   2.669  1.00 20.00     0.017 C 
HETATM    5  C4  UNL     1     -34.838   4.874   4.396  1.00 20.00     0.017 C 
ENDBRANCH   1   3
BRANCH   1   6
HETATM    6  N8  UNL     1     -32.617   7.817   3.220  1.00 20.00    -0.380 N 
HETATM    7  C5  UNL     1     -31.259   8.228   3.575  1.00 20.00     0.150 C 
BRANCH   6   8
HETATM    8  C6  UNL     1     -33.065   8.324   1.921  1.00 20.00     0.118 C 
HETATM    9  C2  UNL     1     -31.925   8.876   1.136  1.00 20.00     0.026 C 
ENDBRANCH   6   8
ENDBRANCH   1   6
TORSDOF 3
ENDMDL
MODEL 2
REMARK VINA RESULT:      -4.5      1.528      2.014
REMARK  3 active torsions:
REMARK  status: ('A' for Active; 'I' for Inactive)
REMARK    1  A    between atoms: C1_1  and  C7_7 
REMARK    2  A    between atoms: C1_1  and  N8_8 
REMARK    3  A    between atoms: C6_6  and  N8_8 
ROOT
HETATM    1  C1  UNL     1     -33.237   6.551   3.371  1.00 20.00     0.078 C 
HETATM    2  S9  UNL     1     -33.059   5.032   2.632  1.00 20.00    -0.065 SA
ENDROOT
BRANCH   1   3
HETATM    3  C7  UNL     1     -34.229   6.707   4.553  1.00 20.00     0.039 C 
HETATM    4  C3  UNL     1     -34.872   5.362   4.903  1.00 20.00     0.017 C 
HETATM    5  C4  UNL     1     -33.626   7.353   5.806  1.00 20.00     0.017 C 
ENDBRANCH   1   3
BRANCH   1   6
HETATM    6  N8  UNL     1     -32.565   7.712   2.946  1.00 20.00    -0.380 N 
HETATM    7  C5  UNL     1     -31.358   8.225   3.595  1.00 20.00     0.150 C 
BRANCH   6   8
HETATM    8  C6  UNL     1     -33.022   8.531   1.821  1.00 20.00     0.118 C 
HETATM    9  C2  UNL     1     -31.876   8.964   0.970  1.00 20.00     0.026 C 
ENDBRANCH   6   8
ENDBRANCH   1   6
TORSDOF 3
ENDMDL
MODEL 3
REMARK VINA RESULT:      -3.6      1.792      4.032
REMARK  3 active torsions:
REMARK  status: ('A' for Active; 'I' for Inactive)
REMARK    1  A    between atoms: C1_1  and  C7_7 
REMARK    2  A    between atoms: C1_1  and  N8_8 
REMARK    3  A    between atoms: C6_6  and  N8_8 
ROOT
HETATM    1  C1  UNL     1     -33.233   6.741   3.307  1.00 20.00     0.078 C 
HETATM    2  S9  UNL     1     -32.976   5.445   2.239  1.00 20.00    -0.065 SA
ENDROOT
BRANCH   1   3
HETATM    3  C7  UNL     1     -32.610   8.125   2.984  1.00 20.00     0.039 C 
HETATM    4  C3  UNL     1     -31.194   8.229   3.556  1.00 20.00     0.017 C 
HETATM    5  C4  UNL     1     -32.612   8.488   1.495  1.00 20.00     0.017 C 
ENDBRANCH   1   3
BRANCH   1   6
HETATM    6  N8  UNL     1     -33.949   6.632   4.514  1.00 20.00    -0.380 N 
HETATM    7  C5  UNL     1     -33.672   7.458   5.689  1.00 20.00     0.150 C 
BRANCH   6   8
HETATM    8  C6  UNL     1     -35.033   5.668   4.713  1.00 20.00     0.118 C 
HETATM    9  C2  UNL     1     -34.603   4.551   5.603  1.00 20.00     0.026 C 
ENDBRANCH   6   8
ENDBRANCH   1   6
TORSDOF 3
ENDMDL
MODEL 4
REMARK VINA RESULT:      -3.6     11.368     12.214
REMARK  3 active torsions:
REMARK  status: ('A' for Active; 'I' for Inactive)
REMARK    1  A    between atoms: C1_1  and  C7_7 
REMARK    2  A    between atoms: C1_1  and  N8_8 
REMARK    3  A    between atoms: C6_6  and  N8_8 
ROOT
HETATM    1  C1  UNL     1     -33.702  17.037  -3.854  1.00 20.00     0.078 C 
HETATM    2  S9  UNL     1     -33.650  18.633  -4.434  1.00 20.00    -0.065 SA
ENDROOT
BRANCH   1   3
HETATM    3  C7  UNL     1     -33.829  16.790  -2.327  1.00 20.00     0.039 C 
HETATM    4  C3  UNL     1     -32.974  17.789  -1.543  1.00 20.00     0.017 C 
HETATM    5  C4  UNL     1     -35.269  16.792  -1.803  1.00 20.00     0.017 C 
ENDBRANCH   1   3
BRANCH   1   6
HETATM    6  N8  UNL     1     -33.589  15.900  -4.675  1.00 20.00    -0.380 N 
HETATM    7  C5  UNL     1     -33.301  15.969  -6.107  1.00 20.00     0.150 C 
BRANCH   6   8
HETATM    8  C6  UNL     1     -33.767  14.535  -4.175  1.00 20.00     0.118 C 
HETATM    9  C2  UNL     1     -35.109  13.998  -4.540  1.00 20.00     0.026 C 
ENDBRANCH   6   8
ENDBRANCH   1   6
TORSDOF 3
ENDMDL
MODEL 5
REMARK VINA RESULT:      -3.5      1.051      3.854
REMARK  3 active torsions:
REMARK  status: ('A' for Active; 'I' for Inactive)
REMARK    1  A    between atoms: C1_1  and  C7_7 
REMARK    2  A    between atoms: C1_1  and  N8_8 
REMARK    3  A    between atoms: C6_6  and  N8_8 
ROOT
HETATM    1  C1  UNL     1     -33.136   6.997   3.923  1.00 20.00     0.078 C 
HETATM    2  S9  UNL     1     -33.430   7.796   5.393  1.00 20.00    -0.065 SA
ENDROOT
BRANCH   1   3
HETATM    3  C7  UNL     1     -32.207   7.661   2.872  1.00 20.00     0.039 C 
HETATM    4  C3  UNL     1     -33.022   8.479   1.867  1.00 20.00     0.017 C 
HETATM    5  C4  UNL     1     -31.083   8.515   3.470  1.00 20.00     0.017 C 
ENDBRANCH   1   3
BRANCH   1   6
HETATM    6  N8  UNL     1     -33.726   5.771   3.565  1.00 20.00    -0.380 N 
HETATM    7  C5  UNL     1     -33.163   4.872   2.558  1.00 20.00     0.150 C 
BRANCH   6   8
HETATM    8  C6  UNL     1     -34.973   5.282   4.159  1.00 20.00     0.118 C 
HETATM    9  C2  UNL     1     -34.706   4.489   5.394  1.00 20.00     0.026 C 
ENDBRANCH   6   8
ENDBRANCH   1   6
TORSDOF 3
ENDMDL
MODEL 6
REMARK VINA RESULT:      -3.5      0.567      1.277
REMARK  3 active torsions:
REMARK  status: ('A' for Active; 'I' for Inactive)
REMARK    1  A    between atoms: C1_1  and  C7_7 
REMARK    2  A    between atoms: C1_1  and  N8_8 
REMARK    3  A    between atoms: C6_6  and  N8_8 
ROOT
HETATM    1  C1  UNL     1     -33.627   6.813   4.116  1.00 20.00     0.078 C 
HETATM    2  S9  UNL     1     -33.735   7.232   5.759  1.00 20.00    -0.065 SA
ENDROOT
BRANCH   1   3
HETATM    3  C7  UNL     1     -34.151   5.427   3.652  1.00 20.00     0.039 C 
HETATM    4  C3  UNL     1     -33.120   4.730   2.760  1.00 20.00     0.017 C 
HETATM    5  C4  UNL     1     -34.586   4.500   4.792  1.00 20.00     0.017 C 
ENDBRANCH   1   3
BRANCH   1   6
HETATM    6  N8  UNL     1     -33.043   7.634   3.135  1.00 20.00    -0.380 N 
HETATM    7  C5  UNL     1     -33.746   8.065   1.926  1.00 20.00     0.150 C 
BRANCH   6   8
HETATM    8  C6  UNL     1     -31.666   8.124   3.222  1.00 20.00     0.118 C 
HETATM    9  C2  UNL     1     -31.246   8.779   1.949  1.00 20.00     0.026 C 
ENDBRANCH   6   8
ENDBRANCH   1   6
TORSDOF 3
ENDMDL
MODEL 7
REMARK VINA RESULT:      -3.5     11.135     11.951
REMARK  3 active torsions:
REMARK  status: ('A' for Active; 'I' for Inactive)
REMARK    1  A    between atoms: C1_1  and  C7_7 
REMARK    2  A    between atoms: C1_1  and  N8_8 
REMARK    3  A    between atoms: C6_6  and  N8_8 
ROOT
HETATM    1  C1  UNL     1     -34.803  16.595  -3.568  1.00 20.00     0.078 C 
HETATM    2  S9  UNL     1     -35.934  17.707  -4.176  1.00 20.00    -0.065 SA
ENDROOT
BRANCH   1   3
HETATM    3  C7  UNL     1     -34.376  16.686  -2.078  1.00 20.00     0.039 C 
HETATM    4  C3  UNL     1     -33.188  17.638  -1.913  1.00 20.00     0.017 C 
HETATM    5  C4  UNL     1     -35.506  17.071  -1.118  1.00 20.00     0.017 C 
ENDBRANCH   1   3
BRANCH   1   6
HETATM    6  N8  UNL     1     -34.180  15.604  -4.348  1.00 20.00    -0.380 N 
HETATM    7  C5  UNL     1     -33.216  15.904  -5.407  1.00 20.00     0.150 C 
BRANCH   6   8
HETATM    8  C6  UNL     1     -34.450  14.174  -4.185  1.00 20.00     0.118 C 
HETATM    9  C2  UNL     1     -35.648  13.759  -4.970  1.00 20.00     0.026 C 
ENDBRANCH   6   8
ENDBRANCH   1   6
TORSDOF 3
ENDMDL
MODEL 8
REMARK VINA RESULT:      -3.4     11.394     12.168
REMARK  3 active torsions:
REMARK  status: ('A' for Active; 'I' for Inactive)
REMARK    1  A    between atoms: C1_1  and  C7_7 
REMARK    2  A    between atoms: C1_1  and  N8_8 
REMARK    3  A    between atoms: C6_6  and  N8_8 
ROOT
HETATM    1  C1  UNL     1     -34.169  17.107  -3.488  1.00 20.00     0.078 C 
HETATM    2  S9  UNL     1     -33.488  18.450  -4.275  1.00 20.00    -0.065 SA
ENDROOT
BRANCH   1   3
HETATM    3  C7  UNL     1     -33.983  16.952  -1.955  1.00 20.00     0.039 C 
HETATM    4  C3  UNL     1     -32.967  17.968  -1.427  1.00 20.00     0.017 C 
HETATM    5  C4  UNL     1     -35.284  17.028  -1.149  1.00 20.00     0.017 C 
ENDBRANCH   1   3
BRANCH   1   6
HETATM    6  N8  UNL     1     -34.866  16.081  -4.151  1.00 20.00    -0.380 N 
HETATM    7  C5  UNL     1     -36.045  16.318  -4.984  1.00 20.00     0.150 C 
BRANCH   6   8
HETATM    8  C6  UNL     1     -34.486  14.669  -4.057  1.00 20.00     0.118 C 
HETATM    9  C2  UNL     1     -33.058  14.470  -4.438  1.00 20.00     0.026 C 
ENDBRANCH   6   8
ENDBRANCH   1   6
TORSDOF 3
ENDMDL
MODEL 9
REMARK VINA RESULT:      -3.3      1.641      4.026
REMARK  3 active torsions:
REMARK  status: ('A' for Active; 'I' for Inactive)
REMARK    1  A    between atoms: C1_1  and  C7_7 
REMARK    2  A    between atoms: C1_1  and  N8_8 
REMARK    3  A    between atoms: C6_6  and  N8_8 
ROOT
HETATM    1  C1  UNL     1     -32.353   7.941   2.780  1.00 20.00     0.078 C 
HETATM    2  S9  UNL     1     -31.096   8.494   3.780  1.00 20.00    -0.065 SA
ENDROOT
BRANCH   1   3
HETATM    3  C7  UNL     1     -32.569   8.608   1.395  1.00 20.00     0.039 C 
HETATM    4  C3  UNL     1     -32.993  10.070   1.558  1.00 20.00     0.017 C 
HETATM    5  C4  UNL     1     -31.370   8.502   0.447  1.00 20.00     0.017 C 
ENDBRANCH   1   3
BRANCH   1   6
HETATM    6  N8  UNL     1     -33.258   6.928   3.146  1.00 20.00    -0.380 N 
HETATM    7  C5  UNL     1     -33.199   5.567   2.614  1.00 20.00     0.150 C 
BRANCH   6   8
HETATM    8  C6  UNL     1     -34.359   7.146   4.087  1.00 20.00     0.118 C 
HETATM    9  C2  UNL     1     -33.934   6.866   5.488  1.00 20.00     0.026 C 
ENDBRANCH   6   8
ENDBRANCH   1   6
TORSDOF 3
ENDMDL
