MODEL 1
REMARK VINA RESULT:      -6.3      0.000      0.000
REMARK  1 active torsions:
REMARK  status: ('A' for Active; 'I' for Inactive)
REMARK    1  A    between atoms: C8_8  and  C9_9 
ROOT
HETATM    1  C1  UNL     1     -32.511   8.956   1.440  1.00 20.00     0.218 C 
HETATM    2  C8  UNL     1     -33.157   8.226   2.301  1.00 20.00     0.044 C 
HETATM    3  O10 UNL     1     -31.927   9.616   0.661  1.00 20.00    -0.284 OA
ENDROOT
BRANCH   2   4
HETATM    4  C9  UNL     1     -32.520   7.249   3.247  1.00 20.00     0.057 C 
HETATM    5  C6  UNL     1     -32.802   7.617   4.681  1.00 20.00    -0.014 C 
HETATM    6  C4  UNL     1     -33.723   7.130   5.525  1.00 20.00    -0.003 C 
HETATM    7  C2  UNL     1     -34.746   6.159   5.241  1.00 20.00    -0.000 C 
HETATM    8  C3  UNL     1     -34.748   5.228   4.281  1.00 20.00    -0.000 C 
HETATM    9  C5  UNL     1     -33.727   4.972   3.299  1.00 20.00    -0.003 C 
HETATM   10  C7  UNL     1     -32.805   5.828   2.837  1.00 20.00    -0.014 C 
ENDBRANCH   2   4
TORSDOF 1
ENDMDL
MODEL 2
REMARK VINA RESULT:      -5.9      1.173      2.259
REMARK  1 active torsions:
REMARK  status: ('A' for Active; 'I' for Inactive)
REMARK    1  A    between atoms: C8_8  and  C9_9 
ROOT
HETATM    1  C1  UNL     1     -31.896   8.021   2.248  1.00 20.00     0.218 C 
HETATM    2  C8  UNL     1     -32.344   7.433   3.318  1.00 20.00     0.044 C 
HETATM    3  O10 UNL     1     -31.491   8.554   1.281  1.00 20.00    -0.284 OA
ENDROOT
BRANCH   2   4
HETATM    4  C9  UNL     1     -33.771   7.465   3.781  1.00 20.00     0.057 C 
HETATM    5  C6  UNL     1     -34.587   6.390   3.109  1.00 20.00    -0.014 C 
HETATM    6  C4  UNL     1     -34.948   5.182   3.562  1.00 20.00    -0.003 C 
HETATM    7  C2  UNL     1     -34.578   4.565   4.809  1.00 20.00    -0.000 C 
HETATM    8  C3  UNL     1     -34.198   5.169   5.940  1.00 20.00    -0.000 C 
HETATM    9  C5  UNL     1     -34.066   6.581   6.184  1.00 20.00    -0.003 C 
HETATM   10  C7  UNL     1     -33.856   7.550   5.283  1.00 20.00    -0.014 C 
ENDBRANCH   2   4
TORSDOF 1
ENDMDL
MODEL 3
REMARK VINA RESULT:      -5.5      1.710      2.711
REMARK  1 active torsions:
REMARK  status: ('A' for Active; 'I' for Inactive)
REMARK    1  A    between atoms: C8_8  and  C9_9 
ROOT
HETATM    1  C1  UNL     1     -31.938   8.094   4.128  1.00 20.00     0.218 C 
HETATM    2  C8  UNL     1     -32.830   7.772   5.019  1.00 20.00     0.044 C 
HETATM    3  O10 UNL     1     -31.133   8.386   3.322  1.00 20.00    -0.284 OA
ENDROOT
BRANCH   2   4
HETATM    4  C9  UNL     1     -34.181   7.195   4.711  1.00 20.00     0.057 C 
HETATM    5  C6  UNL     1     -34.289   6.805   3.259  1.00 20.00    -0.014 C 
HETATM    6  C4  UNL     1     -34.152   5.602   2.683  1.00 20.00    -0.003 C 
HETATM    7  C2  UNL     1     -33.788   4.362   3.316  1.00 20.00    -0.000 C 
HETATM    8  C3  UNL     1     -33.937   4.025   4.602  1.00 20.00    -0.000 C 
HETATM    9  C5  UNL     1     -34.497   4.821   5.663  1.00 20.00    -0.003 C 
HETATM   10  C7  UNL     1     -34.576   6.157   5.729  1.00 20.00    -0.014 C 
ENDBRANCH   2   4
TORSDOF 1
ENDMDL
MODEL 4
REMARK VINA RESULT:      -5.1      2.706      4.044
REMARK  1 active torsions:
REMARK  status: ('A' for Active; 'I' for Inactive)
REMARK    1  A    between atoms: C8_8  and  C9_9 
ROOT
HETATM    1  C1  UNL     1     -34.149   3.935   4.737  1.00 20.00     0.218 C 
HETATM    2  C8  UNL     1     -34.391   4.961   5.499  1.00 20.00     0.044 C 
HETATM    3  O10 UNL     1     -33.929   3.008   4.048  1.00 20.00    -0.284 OA
ENDROOT
BRANCH   2   4
HETATM    4  C9  UNL     1     -34.737   6.335   5.003  1.00 20.00     0.057 C 
HETATM    5  C6  UNL     1     -33.835   7.377   5.612  1.00 20.00    -0.014 C 
HETATM    6  C4  UNL     1     -32.745   7.968   5.103  1.00 20.00    -0.003 C 
HETATM    7  C2  UNL     1     -32.105   7.695   3.843  1.00 20.00    -0.000 C 
HETATM    8  C3  UNL     1     -32.653   7.161   2.746  1.00 20.00    -0.000 C 
HETATM    9  C5  UNL     1     -34.014   6.730   2.560  1.00 20.00    -0.003 C 
HETATM   10  C7  UNL     1     -34.887   6.352   3.504  1.00 20.00    -0.014 C 
ENDBRANCH   2   4
TORSDOF 1
ENDMDL
MODEL 5
REMARK VINA RESULT:      -5.1      1.257      2.364
REMARK  1 active torsions:
REMARK  status: ('A' for Active; 'I' for Inactive)
REMARK    1  A    between atoms: C8_8  and  C9_9 
ROOT
HETATM    1  C1  UNL     1     -31.940   8.242   2.604  1.00 20.00     0.218 C 
HETATM    2  C8  UNL     1     -32.334   7.082   3.041  1.00 20.00     0.044 C 
HETATM    3  O10 UNL     1     -31.584   9.291   2.210  1.00 20.00    -0.284 OA
ENDROOT
BRANCH   2   4
HETATM    4  C9  UNL     1     -33.760   6.613   3.065  1.00 20.00     0.057 C 
HETATM    5  C6  UNL     1     -33.863   5.162   2.673  1.00 20.00    -0.014 C 
HETATM    6  C4  UNL     1     -33.974   4.072   3.447  1.00 20.00    -0.003 C 
HETATM    7  C2  UNL     1     -33.949   4.010   4.884  1.00 20.00    -0.000 C 
HETATM    8  C3  UNL     1     -34.254   4.982   5.751  1.00 20.00    -0.000 C 
HETATM    9  C5  UNL     1     -34.679   6.325   5.456  1.00 20.00    -0.003 C 
HETATM   10  C7  UNL     1     -34.448   7.029   4.339  1.00 20.00    -0.014 C 
ENDBRANCH   2   4
TORSDOF 1
ENDMDL
MODEL 6
REMARK VINA RESULT:      -4.8      2.240      3.470
REMARK  1 active torsions:
REMARK  status: ('A' for Active; 'I' for Inactive)
REMARK    1  A    between atoms: C8_8  and  C9_9 
ROOT
HETATM    1  C1  UNL     1     -33.296   7.437   5.619  1.00 20.00     0.218 C 
HETATM    2  C8  UNL     1     -34.209   6.558   5.911  1.00 20.00     0.044 C 
HETATM    3  O10 UNL     1     -32.471   8.232   5.355  1.00 20.00    -0.284 OA
ENDROOT
BRANCH   2   4
HETATM    4  C9  UNL     1     -34.973   5.748   4.904  1.00 20.00     0.057 C 
HETATM    5  C6  UNL     1     -34.990   6.426   3.559  1.00 20.00    -0.014 C 
HETATM    6  C4  UNL     1     -34.229   6.203   2.478  1.00 20.00    -0.003 C 
HETATM    7  C2  UNL     1     -33.129   5.284   2.354  1.00 20.00    -0.000 C 
HETATM    8  C3  UNL     1     -32.901   4.178   3.071  1.00 20.00    -0.000 C 
HETATM    9  C5  UNL     1     -33.701   3.640   4.140  1.00 20.00    -0.003 C 
HETATM   10  C7  UNL     1     -34.553   4.301   4.936  1.00 20.00    -0.014 C 
ENDBRANCH   2   4
TORSDOF 1
ENDMDL
MODEL 7
REMARK VINA RESULT:      -4.6     10.829     11.638
REMARK  1 active torsions:
REMARK  status: ('A' for Active; 'I' for Inactive)
REMARK    1  A    between atoms: C8_8  and  C9_9 
ROOT
HETATM    1  C1  UNL     1     -35.332  13.634  -4.732  1.00 20.00     0.218 C 
HETATM    2  C8  UNL     1     -34.524  14.478  -4.158  1.00 20.00     0.044 C 
HETATM    3  O10 UNL     1     -36.061  12.872  -5.250  1.00 20.00    -0.284 OA
ENDROOT
BRANCH   2   4
HETATM    4  C9  UNL     1     -34.655  15.972  -4.226  1.00 20.00     0.057 C 
HETATM    5  C6  UNL     1     -36.016  16.421  -3.760  1.00 20.00    -0.014 C 
HETATM    6  C4  UNL     1     -36.398  16.901  -2.568  1.00 20.00    -0.003 C 
HETATM    7  C2  UNL     1     -35.595  17.044  -1.382  1.00 20.00    -0.000 C 
HETATM    8  C3  UNL     1     -34.265  17.164  -1.302  1.00 20.00    -0.000 C 
HETATM    9  C5  UNL     1     -33.315  17.179  -2.384  1.00 20.00    -0.003 C 
HETATM   10  C7  UNL     1     -33.462  16.652  -3.608  1.00 20.00    -0.014 C 
ENDBRANCH   2   4
TORSDOF 1
ENDMDL
MODEL 8
REMARK VINA RESULT:      -4.6     10.812     11.842
REMARK  1 active torsions:
REMARK  status: ('A' for Active; 'I' for Inactive)
REMARK    1  A    between atoms: C8_8  and  C9_9 
ROOT
HETATM    1  C1  UNL     1     -35.097  13.842  -4.570  1.00 20.00     0.218 C 
HETATM    2  C8  UNL     1     -34.493  14.837  -3.989  1.00 20.00     0.044 C 
HETATM    3  O10 UNL     1     -35.643  12.943  -5.096  1.00 20.00    -0.284 OA
ENDROOT
BRANCH   2   4
HETATM    4  C9  UNL     1     -35.067  16.215  -3.831  1.00 20.00     0.057 C 
HETATM    5  C6  UNL     1     -35.732  16.377  -2.488  1.00 20.00    -0.014 C 
HETATM    6  C4  UNL     1     -35.265  16.941  -1.365  1.00 20.00    -0.003 C 
HETATM    7  C2  UNL     1     -33.952  17.483  -1.135  1.00 20.00    -0.000 C 
HETATM    8  C3  UNL     1     -33.088  17.948  -2.044  1.00 20.00    -0.000 C 
HETATM    9  C5  UNL     1     -33.261  18.018  -3.471  1.00 20.00    -0.003 C 
HETATM   10  C7  UNL     1     -34.071  17.271  -4.233  1.00 20.00    -0.014 C 
ENDBRANCH   2   4
TORSDOF 1
ENDMDL
MODEL 9
REMARK VINA RESULT:      -4.6      2.637      3.877
REMARK  1 active torsions:
REMARK  status: ('A' for Active; 'I' for Inactive)
REMARK    1  A    between atoms: C8_8  and  C9_9 
ROOT
HETATM    1  C1  UNL     1     -33.768   4.194   3.692  1.00 20.00     0.218 C 
HETATM    2  C8  UNL     1     -33.374   5.076   2.820  1.00 20.00     0.044 C 
HETATM    3  O10 UNL     1     -34.124   3.396   4.478  1.00 20.00    -0.284 OA
ENDROOT
BRANCH   2   4
HETATM    4  C9  UNL     1     -33.846   6.500   2.769  1.00 20.00     0.057 C 
HETATM    5  C6  UNL     1     -34.366   6.951   4.109  1.00 20.00    -0.014 C 
HETATM    6  C4  UNL     1     -33.759   7.669   5.065  1.00 20.00    -0.003 C 
HETATM    7  C2  UNL     1     -32.399   8.140   5.079  1.00 20.00    -0.000 C 
HETATM    8  C3  UNL     1     -31.600   8.366   4.031  1.00 20.00    -0.000 C 
HETATM    9  C5  UNL     1     -31.907   8.193   2.635  1.00 20.00    -0.003 C 
HETATM   10  C7  UNL     1     -32.831   7.386   2.095  1.00 20.00    -0.014 C 
ENDBRANCH   2   4
TORSDOF 1
ENDMDL
