MODEL 1
REMARK VINA RESULT:      -5.4      0.000      0.000
REMARK  3 active torsions:
REMARK  status: ('A' for Active; 'I' for Inactive)
REMARK    1  A    between atoms: C2_2  and  C6_6 
REMARK    2  A    between atoms: C3_3  and  C7_7 
REMARK    3  A    between atoms: C6_6  and  C7_7 
ROOT
HETATM    1  C7  UNL     1     -33.304   6.342   2.511  1.00 20.00     0.242 C 
HETATM    2  F9  UNL     1     -32.589   5.245   2.895  1.00 20.00    -0.241 F 
ENDROOT
BRANCH   1   3
HETATM    3  C3  UNL     1     -32.484   7.604   2.701  1.00 20.00     0.157 C 
HETATM    4  C5  UNL     1     -32.474   8.605   1.575  1.00 20.00     0.094 C 
HETATM    5  O8  UNL     1     -31.846   7.801   3.736  1.00 20.00    -0.295 OA
ENDBRANCH   1   3
BRANCH   1   6
HETATM    6  C6  UNL     1     -34.627   6.346   3.271  1.00 20.00     0.072 C 
BRANCH   6   7
HETATM    7  C2  UNL     1     -34.641   5.376   4.420  1.00 20.00    -0.028 C 
HETATM    8  C1  UNL     1     -34.354   5.714   5.686  1.00 20.00    -0.035 C 
HETATM    9  C4  UNL     1     -33.985   7.095   6.114  1.00 20.00     0.036 C 
ENDBRANCH   6   7
ENDBRANCH   1   6
TORSDOF 3
ENDMDL
MODEL 2
REMARK VINA RESULT:      -5.4      1.911      3.977
REMARK  3 active torsions:
REMARK  status: ('A' for Active; 'I' for Inactive)
REMARK    1  A    between atoms: C2_2  and  C6_6 
REMARK    2  A    between atoms: C3_3  and  C7_7 
REMARK    3  A    between atoms: C6_6  and  C7_7 
ROOT
HETATM    1  C7  UNL     1     -33.691   5.872   3.230  1.00 20.00     0.242 C 
HETATM    2  F9  UNL     1     -34.501   5.807   2.134  1.00 20.00    -0.241 F 
ENDROOT
BRANCH   1   3
HETATM    3  C3  UNL     1     -34.278   5.065   4.373  1.00 20.00     0.157 C 
HETATM    4  C5  UNL     1     -34.571   5.791   5.660  1.00 20.00     0.094 C 
HETATM    5  O8  UNL     1     -34.500   3.860   4.255  1.00 20.00    -0.295 OA
ENDBRANCH   1   3
BRANCH   1   6
HETATM    6  C6  UNL     1     -33.458   7.342   3.571  1.00 20.00     0.072 C 
BRANCH   6   7
HETATM    7  C2  UNL     1     -32.042   7.780   3.318  1.00 20.00    -0.028 C 
HETATM    8  C1  UNL     1     -31.667   8.524   2.267  1.00 20.00    -0.035 C 
HETATM    9  C4  UNL     1     -32.607   9.012   1.216  1.00 20.00     0.036 C 
ENDBRANCH   6   7
ENDBRANCH   1   6
TORSDOF 3
ENDMDL
MODEL 3
REMARK VINA RESULT:      -5.4      1.711      4.114
REMARK  3 active torsions:
REMARK  status: ('A' for Active; 'I' for Inactive)
REMARK    1  A    between atoms: C2_2  and  C6_6 
REMARK    2  A    between atoms: C3_3  and  C7_7 
REMARK    3  A    between atoms: C6_6  and  C7_7 
ROOT
HETATM    1  C7  UNL     1     -33.245   6.572   3.247  1.00 20.00     0.242 C 
HETATM    2  F9  UNL     1     -33.905   6.202   2.111  1.00 20.00    -0.241 F 
ENDROOT
BRANCH   1   3
HETATM    3  C3  UNL     1     -34.153   6.442   4.455  1.00 20.00     0.157 C 
HETATM    4  C5  UNL     1     -33.773   7.205   5.697  1.00 20.00     0.094 C 
HETATM    5  O8  UNL     1     -35.161   5.735   4.425  1.00 20.00    -0.295 OA
ENDBRANCH   1   3
BRANCH   1   6
HETATM    6  C6  UNL     1     -32.685   7.977   3.044  1.00 20.00     0.072 C 
BRANCH   6   7
HETATM    7  C2  UNL     1     -31.856   8.099   1.796  1.00 20.00    -0.028 C 
HETATM    8  C1  UNL     1     -31.939   9.129   0.942  1.00 20.00    -0.035 C 
HETATM    9  C4  UNL     1     -32.864  10.286   1.123  1.00 20.00     0.036 C 
ENDBRANCH   6   7
ENDBRANCH   1   6
TORSDOF 3
ENDMDL
MODEL 4
REMARK VINA RESULT:      -5.3      1.859      4.409
REMARK  3 active torsions:
REMARK  status: ('A' for Active; 'I' for Inactive)
REMARK    1  A    between atoms: C2_2  and  C6_6 
REMARK    2  A    between atoms: C3_3  and  C7_7 
REMARK    3  A    between atoms: C6_6  and  C7_7 
ROOT
HETATM    1  C7  UNL     1     -33.235   7.422   3.304  1.00 20.00     0.242 C 
HETATM    2  F9  UNL     1     -32.478   7.692   4.407  1.00 20.00    -0.241 F 
ENDROOT
BRANCH   1   3
HETATM    3  C3  UNL     1     -33.707   5.980   3.325  1.00 20.00     0.157 C 
HETATM    4  C5  UNL     1     -34.934   5.661   4.139  1.00 20.00     0.094 C 
HETATM    5  O8  UNL     1     -33.108   5.102   2.704  1.00 20.00    -0.295 OA
ENDBRANCH   1   3
BRANCH   1   6
HETATM    6  C6  UNL     1     -32.427   7.788   2.062  1.00 20.00     0.072 C 
BRANCH   6   7
HETATM    7  C2  UNL     1     -32.192   9.267   1.936  1.00 20.00    -0.028 C 
HETATM    8  C1  UNL     1     -32.497   9.982   0.843  1.00 20.00    -0.035 C 
HETATM    9  C4  UNL     1     -33.109   9.398  -0.387  1.00 20.00     0.036 C 
ENDBRANCH   6   7
ENDBRANCH   1   6
TORSDOF 3
ENDMDL
MODEL 5
REMARK VINA RESULT:      -5.3      2.033      4.056
REMARK  3 active torsions:
REMARK  status: ('A' for Active; 'I' for Inactive)
REMARK    1  A    between atoms: C2_2  and  C6_6 
REMARK    2  A    between atoms: C3_3  and  C7_7 
REMARK    3  A    between atoms: C6_6  and  C7_7 
ROOT
HETATM    1  C7  UNL     1     -34.395   6.042   3.400  1.00 20.00     0.242 C 
HETATM    2  F9  UNL     1     -34.766   7.237   3.945  1.00 20.00    -0.241 F 
ENDROOT
BRANCH   1   3
HETATM    3  C3  UNL     1     -34.425   4.947   4.450  1.00 20.00     0.157 C 
HETATM    4  C5  UNL     1     -34.588   5.366   5.888  1.00 20.00     0.094 C 
HETATM    5  O8  UNL     1     -34.315   3.761   4.140  1.00 20.00    -0.295 OA
ENDBRANCH   1   3
BRANCH   1   6
HETATM    6  C6  UNL     1     -33.033   6.218   2.733  1.00 20.00     0.072 C 
BRANCH   6   7
HETATM    7  C2  UNL     1     -32.247   7.364   3.309  1.00 20.00    -0.028 C 
HETATM    8  C1  UNL     1     -31.928   8.470   2.622  1.00 20.00    -0.035 C 
HETATM    9  C4  UNL     1     -32.313   8.705   1.199  1.00 20.00     0.036 C 
ENDBRANCH   6   7
ENDBRANCH   1   6
TORSDOF 3
ENDMDL
MODEL 6
REMARK VINA RESULT:      -5.3      0.945      1.126
REMARK  3 active torsions:
REMARK  status: ('A' for Active; 'I' for Inactive)
REMARK    1  A    between atoms: C2_2  and  C6_6 
REMARK    2  A    between atoms: C3_3  and  C7_7 
REMARK    3  A    between atoms: C6_6  and  C7_7 
ROOT
HETATM    1  C7  UNL     1     -33.362   6.339   2.459  1.00 20.00     0.242 C 
HETATM    2  F9  UNL     1     -32.558   5.360   2.968  1.00 20.00    -0.241 F 
ENDROOT
BRANCH   1   3
HETATM    3  C3  UNL     1     -32.631   7.668   2.437  1.00 20.00     0.157 C 
HETATM    4  C5  UNL     1     -31.704   7.973   3.584  1.00 20.00     0.094 C 
HETATM    5  O8  UNL     1     -32.795   8.472   1.518  1.00 20.00    -0.295 OA
ENDBRANCH   1   3
BRANCH   1   6
HETATM    6  C6  UNL     1     -34.660   6.362   3.262  1.00 20.00     0.072 C 
BRANCH   6   7
HETATM    7  C2  UNL     1     -34.657   5.381   4.401  1.00 20.00    -0.028 C 
HETATM    8  C1  UNL     1     -34.354   5.706   5.667  1.00 20.00    -0.035 C 
HETATM    9  C4  UNL     1     -33.983   7.084   6.104  1.00 20.00     0.036 C 
ENDBRANCH   6   7
ENDBRANCH   1   6
TORSDOF 3
ENDMDL
MODEL 7
REMARK VINA RESULT:      -5.2      0.809      1.240
REMARK  3 active torsions:
REMARK  status: ('A' for Active; 'I' for Inactive)
REMARK    1  A    between atoms: C2_2  and  C6_6 
REMARK    2  A    between atoms: C3_3  and  C7_7 
REMARK    3  A    between atoms: C6_6  and  C7_7 
ROOT
HETATM    1  C7  UNL     1     -33.039   6.976   2.630  1.00 20.00     0.242 C 
HETATM    2  F9  UNL     1     -32.401   5.829   3.005  1.00 20.00    -0.241 F 
ENDROOT
BRANCH   1   3
HETATM    3  C3  UNL     1     -32.066   8.140   2.599  1.00 20.00     0.157 C 
HETATM    4  C5  UNL     1     -32.176   9.108   1.451  1.00 20.00     0.094 C 
HETATM    5  O8  UNL     1     -31.215   8.285   3.477  1.00 20.00    -0.295 OA
ENDBRANCH   1   3
BRANCH   1   6
HETATM    6  C6  UNL     1     -34.229   7.191   3.562  1.00 20.00     0.072 C 
BRANCH   6   7
HETATM    7  C2  UNL     1     -33.839   7.185   5.015  1.00 20.00    -0.028 C 
HETATM    8  C1  UNL     1     -34.061   6.153   5.842  1.00 20.00    -0.035 C 
HETATM    9  C4  UNL     1     -34.723   4.882   5.427  1.00 20.00     0.036 C 
ENDBRANCH   6   7
ENDBRANCH   1   6
TORSDOF 3
ENDMDL
MODEL 8
REMARK VINA RESULT:      -5.2      1.895      2.352
REMARK  3 active torsions:
REMARK  status: ('A' for Active; 'I' for Inactive)
REMARK    1  A    between atoms: C2_2  and  C6_6 
REMARK    2  A    between atoms: C3_3  and  C7_7 
REMARK    3  A    between atoms: C6_6  and  C7_7 
ROOT
HETATM    1  C7  UNL     1     -31.865   7.934   2.811  1.00 20.00     0.242 C 
HETATM    2  F9  UNL     1     -31.419   8.717   3.836  1.00 20.00    -0.241 F 
ENDROOT
BRANCH   1   3
HETATM    3  C3  UNL     1     -31.920   8.729   1.520  1.00 20.00     0.157 C 
HETATM    4  C5  UNL     1     -32.865   9.900   1.463  1.00 20.00     0.094 C 
HETATM    5  O8  UNL     1     -31.222   8.425   0.552  1.00 20.00    -0.295 OA
ENDBRANCH   1   3
BRANCH   1   6
HETATM    6  C6  UNL     1     -33.204   7.325   3.217  1.00 20.00     0.072 C 
BRANCH   6   7
HETATM    7  C2  UNL     1     -33.450   7.395   4.699  1.00 20.00    -0.028 C 
HETATM    8  C1  UNL     1     -34.170   6.492   5.380  1.00 20.00    -0.035 C 
HETATM    9  C4  UNL     1     -34.818   5.303   4.754  1.00 20.00     0.036 C 
ENDBRANCH   6   7
ENDBRANCH   1   6
TORSDOF 3
ENDMDL
MODEL 9
REMARK VINA RESULT:      -5.1      2.139      2.763
REMARK  3 active torsions:
REMARK  status: ('A' for Active; 'I' for Inactive)
REMARK    1  A    between atoms: C2_2  and  C6_6 
REMARK    2  A    between atoms: C3_3  and  C7_7 
REMARK    3  A    between atoms: C6_6  and  C7_7 
ROOT
HETATM    1  C7  UNL     1     -31.984   8.500   1.980  1.00 20.00     0.242 C 
HETATM    2  F9  UNL     1     -31.389   9.059   3.074  1.00 20.00    -0.241 F 
ENDROOT
BRANCH   1   3
HETATM    3  C3  UNL     1     -32.565   9.576   1.083  1.00 20.00     0.157 C 
HETATM    4  C5  UNL     1     -32.967   9.177  -0.313  1.00 20.00     0.094 C 
HETATM    5  O8  UNL     1     -32.700  10.735   1.479  1.00 20.00    -0.295 OA
ENDBRANCH   1   3
BRANCH   1   6
HETATM    6  C6  UNL     1     -33.010   7.477   2.460  1.00 20.00     0.072 C 
BRANCH   6   7
HETATM    7  C2  UNL     1     -33.121   7.422   3.958  1.00 20.00    -0.028 C 
HETATM    8  C1  UNL     1     -34.013   6.666   4.614  1.00 20.00    -0.035 C 
HETATM    9  C4  UNL     1     -35.008   5.782   3.940  1.00 20.00     0.036 C 
ENDBRANCH   6   7
ENDBRANCH   1   6
TORSDOF 3
ENDMDL
