MODEL 1
REMARK VINA RESULT:      -4.4      0.000      0.000
REMARK  2 active torsions:
REMARK  status: ('A' for Active; 'I' for Inactive)
REMARK    1  A    between atoms: C3_3  and  C5_5 
REMARK    2  A    between atoms: C4_4  and  C9_9 
ROOT
HETATM    1  C1  UNL     1     -33.108  15.566  -5.304  1.00 20.00     0.005 C 
HETATM    2  C2  UNL     1     -32.907  14.515  -4.518  1.00 20.00     0.132 C 
HETATM    3  C4  UNL     1     -34.569  15.714  -5.535  1.00 20.00     0.050 C 
HETATM    4  C5  UNL     1     -35.110  14.699  -4.513  1.00 20.00     0.204 C 
HETATM    5  O11 UNL     1     -34.030  13.840  -4.098  1.00 20.00    -0.350 OA
ENDROOT
BRANCH   3   6
HETATM    6  C9  UNL     1     -34.925  15.456  -6.995  1.00 20.00    -0.012 C 
HETATM    7  C7  UNL     1     -35.318  16.756  -7.697  1.00 20.00     0.010 C 
HETATM    8  C8  UNL     1     -33.760  14.787  -7.726  1.00 20.00     0.010 C 
ENDBRANCH   3   6
BRANCH   4   9
HETATM    9  C3  UNL     1     -36.201  13.806  -5.010  1.00 20.00     0.152 C 
HETATM   10  C6  UNL     1     -37.585  14.396  -5.067  1.00 20.00     0.093 C 
HETATM   11  O10 UNL     1     -35.978  12.647  -5.358  1.00 20.00    -0.296 OA
ENDBRANCH   4   9
TORSDOF 2
ENDMDL
MODEL 2
REMARK VINA RESULT:      -4.3      1.668      3.404
REMARK  2 active torsions:
REMARK  status: ('A' for Active; 'I' for Inactive)
REMARK    1  A    between atoms: C3_3  and  C5_5 
REMARK    2  A    between atoms: C4_4  and  C9_9 
ROOT
HETATM    1  C1  UNL     1     -37.200  16.185  -4.268  1.00 20.00     0.005 C 
HETATM    2  C2  UNL     1     -38.108  15.220  -4.357  1.00 20.00     0.132 C 
HETATM    3  C4  UNL     1     -36.046  15.834  -5.137  1.00 20.00     0.050 C 
HETATM    4  C5  UNL     1     -36.633  14.630  -5.896  1.00 20.00     0.204 C 
HETATM    5  O11 UNL     1     -37.809  14.173  -5.199  1.00 20.00    -0.350 OA
ENDROOT
BRANCH   3   6
HETATM    6  C9  UNL     1     -34.795  15.562  -4.308  1.00 20.00    -0.012 C 
HETATM    7  C7  UNL     1     -33.564  16.187  -4.964  1.00 20.00     0.010 C 
HETATM    8  C8  UNL     1     -34.965  16.091  -2.883  1.00 20.00     0.010 C 
ENDBRANCH   3   6
BRANCH   4   9
HETATM    9  C3  UNL     1     -35.727  13.449  -6.028  1.00 20.00     0.152 C 
HETATM   10  C6  UNL     1     -34.811  13.429  -7.223  1.00 20.00     0.093 C 
HETATM   11  O10 UNL     1     -35.726  12.539  -5.200  1.00 20.00    -0.296 OA
ENDBRANCH   4   9
TORSDOF 2
ENDMDL
MODEL 3
REMARK VINA RESULT:      -4.3      1.646      2.367
REMARK  2 active torsions:
REMARK  status: ('A' for Active; 'I' for Inactive)
REMARK    1  A    between atoms: C3_3  and  C5_5 
REMARK    2  A    between atoms: C4_4  and  C9_9 
ROOT
HETATM    1  C1  UNL     1     -33.595  15.779  -3.854  1.00 20.00     0.005 C 
HETATM    2  C2  UNL     1     -32.987  14.821  -4.545  1.00 20.00     0.132 C 
HETATM    3  C4  UNL     1     -35.046  15.463  -3.780  1.00 20.00     0.050 C 
HETATM    4  C5  UNL     1     -35.040  14.028  -4.339  1.00 20.00     0.204 C 
HETATM    5  O11 UNL     1     -33.781  13.794  -5.000  1.00 20.00    -0.350 OA
ENDROOT
BRANCH   3   6
HETATM    6  C9  UNL     1     -35.873  16.484  -4.554  1.00 20.00    -0.012 C 
HETATM    7  C7  UNL     1     -37.089  16.925  -3.740  1.00 20.00     0.010 C 
HETATM    8  C8  UNL     1     -35.020  17.694  -4.935  1.00 20.00     0.010 C 
ENDBRANCH   3   6
BRANCH   4   9
HETATM    9  C3  UNL     1     -36.112  13.723  -5.336  1.00 20.00     0.152 C 
HETATM   10  C6  UNL     1     -35.690  13.639  -6.779  1.00 20.00     0.093 C 
HETATM   11  O10 UNL     1     -37.280  13.545  -4.993  1.00 20.00    -0.296 OA
ENDBRANCH   4   9
TORSDOF 2
ENDMDL
MODEL 4
REMARK VINA RESULT:      -4.1      1.364      2.887
REMARK  2 active torsions:
REMARK  status: ('A' for Active; 'I' for Inactive)
REMARK    1  A    between atoms: C3_3  and  C5_5 
REMARK    2  A    between atoms: C4_4  and  C9_9 
ROOT
HETATM    1  C1  UNL     1     -33.811  16.155  -6.871  1.00 20.00     0.005 C 
HETATM    2  C2  UNL     1     -34.995  16.397  -7.423  1.00 20.00     0.132 C 
HETATM    3  C4  UNL     1     -33.868  14.840  -6.182  1.00 20.00     0.050 C 
HETATM    4  C5  UNL     1     -35.222  14.321  -6.697  1.00 20.00     0.204 C 
HETATM    5  O11 UNL     1     -35.955  15.425  -7.263  1.00 20.00    -0.350 OA
ENDROOT
BRANCH   3   6
HETATM    6  C9  UNL     1     -33.739  15.003  -4.671  1.00 20.00    -0.012 C 
HETATM    7  C7  UNL     1     -32.603  14.138  -4.127  1.00 20.00     0.010 C 
HETATM    8  C8  UNL     1     -33.516  16.469  -4.302  1.00 20.00     0.010 C 
ENDBRANCH   3   6
BRANCH   4   9
HETATM    9  C3  UNL     1     -36.108  13.702  -5.665  1.00 20.00     0.152 C 
HETATM   10  C6  UNL     1     -37.283  14.520  -5.201  1.00 20.00     0.093 C 
HETATM   11  O10 UNL     1     -35.890  12.576  -5.218  1.00 20.00    -0.296 OA
ENDBRANCH   4   9
TORSDOF 2
ENDMDL
MODEL 5
REMARK VINA RESULT:      -4.0      2.456      4.243
REMARK  2 active torsions:
REMARK  status: ('A' for Active; 'I' for Inactive)
REMARK    1  A    between atoms: C3_3  and  C5_5 
REMARK    2  A    between atoms: C4_4  and  C9_9 
ROOT
HETATM    1  C1  UNL     1     -36.738  17.023  -3.423  1.00 20.00     0.005 C 
HETATM    2  C2  UNL     1     -37.335  16.004  -4.028  1.00 20.00     0.132 C 
HETATM    3  C4  UNL     1     -35.272  16.915  -3.644  1.00 20.00     0.050 C 
HETATM    4  C5  UNL     1     -35.238  15.791  -4.695  1.00 20.00     0.204 C 
HETATM    5  O11 UNL     1     -36.518  15.128  -4.705  1.00 20.00    -0.350 OA
ENDROOT
BRANCH   3   6
HETATM    6  C9  UNL     1     -34.537  16.636  -2.337  1.00 20.00    -0.012 C 
HETATM    7  C7  UNL     1     -33.269  17.485  -2.236  1.00 20.00     0.010 C 
HETATM    8  C8  UNL     1     -35.448  16.897  -1.137  1.00 20.00     0.010 C 
ENDBRANCH   3   6
BRANCH   4   9
HETATM    9  C3  UNL     1     -34.208  14.732  -4.472  1.00 20.00     0.152 C 
HETATM   10  C6  UNL     1     -32.799  15.057  -4.893  1.00 20.00     0.093 C 
HETATM   11  O10 UNL     1     -34.495  13.648  -3.965  1.00 20.00    -0.296 OA
ENDBRANCH   4   9
TORSDOF 2
ENDMDL
MODEL 6
REMARK VINA RESULT:      -4.0     11.244     12.482
REMARK  2 active torsions:
REMARK  status: ('A' for Active; 'I' for Inactive)
REMARK    1  A    between atoms: C3_3  and  C5_5 
REMARK    2  A    between atoms: C4_4  and  C9_9 
ROOT
HETATM    1  C1  UNL     1     -33.482   7.644   5.368  1.00 20.00     0.005 C 
HETATM    2  C2  UNL     1     -33.880   6.457   5.811  1.00 20.00     0.132 C 
HETATM    3  C4  UNL     1     -33.693   7.698   3.898  1.00 20.00     0.050 C 
HETATM    4  C5  UNL     1     -34.516   6.413   3.694  1.00 20.00     0.204 C 
HETATM    5  O11 UNL     1     -34.389   5.591   4.870  1.00 20.00    -0.350 OA
ENDROOT
BRANCH   3   6
HETATM    6  C9  UNL     1     -32.365   7.772   3.153  1.00 20.00    -0.012 C 
HETATM    7  C7  UNL     1     -32.510   8.578   1.862  1.00 20.00     0.010 C 
HETATM    8  C8  UNL     1     -31.280   8.382   4.041  1.00 20.00     0.010 C 
ENDBRANCH   3   6
BRANCH   4   9
HETATM    9  C3  UNL     1     -34.107   5.565   2.532  1.00 20.00     0.152 C 
HETATM   10  C6  UNL     1     -33.103   4.478   2.807  1.00 20.00     0.093 C 
HETATM   11  O10 UNL     1     -34.571   5.746   1.406  1.00 20.00    -0.296 OA
ENDBRANCH   4   9
TORSDOF 2
ENDMDL
MODEL 7
REMARK VINA RESULT:      -4.0      1.553      3.335
REMARK  2 active torsions:
REMARK  status: ('A' for Active; 'I' for Inactive)
REMARK    1  A    between atoms: C3_3  and  C5_5 
REMARK    2  A    between atoms: C4_4  and  C9_9 
ROOT
HETATM    1  C1  UNL     1     -36.358  14.228  -7.202  1.00 20.00     0.005 C 
HETATM    2  C2  UNL     1     -35.434  13.282  -7.329  1.00 20.00     0.132 C 
HETATM    3  C4  UNL     1     -35.926  15.175  -6.141  1.00 20.00     0.050 C 
HETATM    4  C5  UNL     1     -34.481  14.692  -5.919  1.00 20.00     0.204 C 
HETATM    5  O11 UNL     1     -34.332  13.388  -6.513  1.00 20.00    -0.350 OA
ENDROOT
BRANCH   3   6
HETATM    6  C9  UNL     1     -36.852  15.108  -4.932  1.00 20.00    -0.012 C 
HETATM    7  C7  UNL     1     -37.147  16.510  -4.397  1.00 20.00     0.010 C 
HETATM    8  C8  UNL     1     -38.153  14.388  -5.285  1.00 20.00     0.010 C 
ENDBRANCH   3   6
BRANCH   4   9
HETATM    9  C3  UNL     1     -34.059  14.564  -4.490  1.00 20.00     0.152 C 
HETATM   10  C6  UNL     1     -33.513  15.804  -3.832  1.00 20.00     0.093 C 
HETATM   11  O10 UNL     1     -34.155  13.499  -3.882  1.00 20.00    -0.296 OA
ENDBRANCH   4   9
TORSDOF 2
ENDMDL
MODEL 8
REMARK VINA RESULT:      -3.9      1.548      2.963
REMARK  2 active torsions:
REMARK  status: ('A' for Active; 'I' for Inactive)
REMARK    1  A    between atoms: C3_3  and  C5_5 
REMARK    2  A    between atoms: C4_4  and  C9_9 
ROOT
HETATM    1  C1  UNL     1     -34.847  15.912  -3.345  1.00 20.00     0.005 C 
HETATM    2  C2  UNL     1     -33.593  16.161  -3.706  1.00 20.00     0.132 C 
HETATM    3  C4  UNL     1     -35.380  14.821  -4.202  1.00 20.00     0.050 C 
HETATM    4  C5  UNL     1     -34.087  14.370  -4.905  1.00 20.00     0.204 C 
HETATM    5  O11 UNL     1     -33.084  15.388  -4.724  1.00 20.00    -0.350 OA
ENDROOT
BRANCH   3   6
HETATM    6  C9  UNL     1     -36.498  15.327  -5.107  1.00 20.00    -0.012 C 
HETATM    7  C7  UNL     1     -37.670  14.346  -5.124  1.00 20.00     0.010 C 
HETATM    8  C8  UNL     1     -36.969  16.712  -4.662  1.00 20.00     0.010 C 
ENDBRANCH   3   6
BRANCH   4   9
HETATM    9  C3  UNL     1     -34.203  14.138  -6.377  1.00 20.00     0.152 C 
HETATM   10  C6  UNL     1     -33.813  15.281  -7.276  1.00 20.00     0.093 C 
HETATM   11  O10 UNL     1     -34.596  13.064  -6.832  1.00 20.00    -0.296 OA
ENDBRANCH   4   9
TORSDOF 2
ENDMDL
MODEL 9
REMARK VINA RESULT:      -3.9      1.256      2.934
REMARK  2 active torsions:
REMARK  status: ('A' for Active; 'I' for Inactive)
REMARK    1  A    between atoms: C3_3  and  C5_5 
REMARK    2  A    between atoms: C4_4  and  C9_9 
ROOT
HETATM    1  C1  UNL     1     -37.069  14.693  -6.614  1.00 20.00     0.005 C 
HETATM    2  C2  UNL     1     -37.568  14.943  -5.409  1.00 20.00     0.132 C 
HETATM    3  C4  UNL     1     -35.693  14.152  -6.457  1.00 20.00     0.050 C 
HETATM    4  C5  UNL     1     -35.664  13.923  -4.935  1.00 20.00     0.204 C 
HETATM    5  O11 UNL     1     -36.758  14.647  -4.337  1.00 20.00    -0.350 OA
ENDROOT
BRANCH   3   6
HETATM    6  C9  UNL     1     -34.654  15.118  -7.012  1.00 20.00    -0.012 C 
HETATM    7  C7  UNL     1     -33.662  14.388  -7.918  1.00 20.00     0.010 C 
HETATM    8  C8  UNL     1     -35.329  16.260  -7.774  1.00 20.00     0.010 C 
ENDBRANCH   3   6
BRANCH   4   9
HETATM    9  C3  UNL     1     -34.420  14.375  -4.240  1.00 20.00     0.152 C 
HETATM   10  C6  UNL     1     -34.500  15.674  -3.484  1.00 20.00     0.093 C 
HETATM   11  O10 UNL     1     -33.382  13.716  -4.283  1.00 20.00    -0.296 OA
ENDBRANCH   4   9
TORSDOF 2
ENDMDL
