MODEL 1
REMARK VINA RESULT:      -5.5      0.000      0.000
REMARK  2 active torsions:
REMARK  status: ('A' for Active; 'I' for Inactive)
REMARK    1  A    between atoms: C2_2  and  C7_7 
REMARK    2  A    between atoms: C6_6  and  C7_7 
ROOT
HETATM    1  C1  UNL     1     -32.576   7.963   2.455  1.00 20.00     0.064 C 
HETATM    2  C4  UNL     1     -32.972   5.537   2.552  1.00 20.00     0.026 C 
HETATM    3  C6  UNL     1     -32.764   6.816   3.368  1.00 20.00     0.099 C 
HETATM    4  N8  UNL     1     -32.426   8.864   1.740  1.00 20.00    -0.197 NA
ENDROOT
BRANCH   3   5
HETATM    5  C7  UNL     1     -33.899   7.106   4.379  1.00 20.00     0.068 C 
HETATM    6  C5  UNL     1     -33.410   7.466   5.784  1.00 20.00     0.019 C 
BRANCH   5   7
HETATM    7  C2  UNL     1     -34.874   5.927   4.444  1.00 20.00     0.128 C 
HETATM    8  C3  UNL     1     -34.611   4.882   5.500  1.00 20.00     0.091 C 
HETATM    9  O9  UNL     1     -35.819   5.808   3.664  1.00 20.00    -0.298 OA
ENDBRANCH   5   7
ENDBRANCH   3   5
TORSDOF 2
ENDMDL
MODEL 2
REMARK VINA RESULT:      -5.1      1.493      1.862
REMARK  2 active torsions:
REMARK  status: ('A' for Active; 'I' for Inactive)
REMARK    1  A    between atoms: C2_2  and  C7_7 
REMARK    2  A    between atoms: C6_6  and  C7_7 
ROOT
HETATM    1  C1  UNL     1     -32.961   5.767   2.773  1.00 20.00     0.064 C 
HETATM    2  C4  UNL     1     -31.884   7.913   3.305  1.00 20.00     0.026 C 
HETATM    3  C6  UNL     1     -33.214   7.165   3.177  1.00 20.00     0.099 C 
HETATM    4  N8  UNL     1     -32.765   4.668   2.454  1.00 20.00    -0.197 NA
ENDROOT
BRANCH   3   5
HETATM    5  C7  UNL     1     -34.083   7.214   4.456  1.00 20.00     0.068 C 
HETATM    6  C5  UNL     1     -33.287   7.419   5.748  1.00 20.00     0.019 C 
BRANCH   5   7
HETATM    7  C2  UNL     1     -34.951   5.957   4.563  1.00 20.00     0.128 C 
HETATM    8  C3  UNL     1     -34.618   4.990   5.673  1.00 20.00     0.091 C 
HETATM    9  O9  UNL     1     -35.866   5.717   3.775  1.00 20.00    -0.298 OA
ENDBRANCH   5   7
ENDBRANCH   3   5
TORSDOF 2
ENDMDL
MODEL 3
REMARK VINA RESULT:      -4.9      2.725      4.193
REMARK  2 active torsions:
REMARK  status: ('A' for Active; 'I' for Inactive)
REMARK    1  A    between atoms: C2_2  and  C7_7 
REMARK    2  A    between atoms: C6_6  and  C7_7 
ROOT
HETATM    1  C1  UNL     1     -34.218   5.222   4.799  1.00 20.00     0.064 C 
HETATM    2  C4  UNL     1     -33.899   7.409   5.879  1.00 20.00     0.026 C 
HETATM    3  C6  UNL     1     -33.448   6.482   4.747  1.00 20.00     0.099 C 
HETATM    4  N8  UNL     1     -34.821   4.231   4.839  1.00 20.00    -0.197 NA
ENDROOT
BRANCH   3   5
HETATM    5  C7  UNL     1     -33.542   7.119   3.340  1.00 20.00     0.068 C 
HETATM    6  C5  UNL     1     -33.761   6.111   2.208  1.00 20.00     0.019 C 
BRANCH   5   7
HETATM    7  C2  UNL     1     -32.305   7.975   3.055  1.00 20.00     0.128 C 
HETATM    8  C3  UNL     1     -32.232   8.639   1.702  1.00 20.00     0.091 C 
HETATM    9  O9  UNL     1     -31.391   8.107   3.870  1.00 20.00    -0.298 OA
ENDBRANCH   5   7
ENDBRANCH   3   5
TORSDOF 2
ENDMDL
MODEL 4
REMARK VINA RESULT:      -4.9      1.440      1.498
REMARK  2 active torsions:
REMARK  status: ('A' for Active; 'I' for Inactive)
REMARK    1  A    between atoms: C2_2  and  C7_7 
REMARK    2  A    between atoms: C6_6  and  C7_7 
ROOT
HETATM    1  C1  UNL     1     -32.295   7.510   3.337  1.00 20.00     0.064 C 
HETATM    2  C4  UNL     1     -34.087   6.410   2.060  1.00 20.00     0.026 C 
HETATM    3  C6  UNL     1     -33.295   6.422   3.371  1.00 20.00     0.099 C 
HETATM    4  N8  UNL     1     -31.507   8.362   3.312  1.00 20.00    -0.197 NA
ENDROOT
BRANCH   3   5
HETATM    5  C7  UNL     1     -34.179   6.536   4.635  1.00 20.00     0.068 C 
HETATM    6  C5  UNL     1     -33.606   7.451   5.722  1.00 20.00     0.019 C 
BRANCH   5   7
HETATM    7  C2  UNL     1     -34.472   5.148   5.212  1.00 20.00     0.128 C 
HETATM    8  C3  UNL     1     -34.190   3.965   4.320  1.00 20.00     0.091 C 
HETATM    9  O9  UNL     1     -34.938   4.987   6.341  1.00 20.00    -0.298 OA
ENDBRANCH   5   7
ENDBRANCH   3   5
TORSDOF 2
ENDMDL
MODEL 5
REMARK VINA RESULT:      -4.8      2.575      3.963
REMARK  2 active torsions:
REMARK  status: ('A' for Active; 'I' for Inactive)
REMARK    1  A    between atoms: C2_2  and  C7_7 
REMARK    2  A    between atoms: C6_6  and  C7_7 
ROOT
HETATM    1  C1  UNL     1     -33.646   7.221   4.685  1.00 20.00     0.064 C 
HETATM    2  C4  UNL     1     -33.785   5.728   2.736  1.00 20.00     0.026 C 
HETATM    3  C6  UNL     1     -33.532   7.160   3.213  1.00 20.00     0.099 C 
HETATM    4  N8  UNL     1     -33.737   7.271   5.841  1.00 20.00    -0.197 NA
ENDROOT
BRANCH   3   5
HETATM    5  C7  UNL     1     -32.177   7.745   2.748  1.00 20.00     0.068 C 
HETATM    6  C5  UNL     1     -31.327   8.333   3.878  1.00 20.00     0.019 C 
BRANCH   5   7
HETATM    7  C2  UNL     1     -32.392   8.790   1.649  1.00 20.00     0.128 C 
HETATM    8  C3  UNL     1     -31.454   8.742   0.469  1.00 20.00     0.091 C 
HETATM    9  O9  UNL     1     -33.269   9.652   1.721  1.00 20.00    -0.298 OA
ENDBRANCH   5   7
ENDBRANCH   3   5
TORSDOF 2
ENDMDL
MODEL 6
REMARK VINA RESULT:      -4.7      0.720      1.933
REMARK  2 active torsions:
REMARK  status: ('A' for Active; 'I' for Inactive)
REMARK    1  A    between atoms: C2_2  and  C7_7 
REMARK    2  A    between atoms: C6_6  and  C7_7 
ROOT
HETATM    1  C1  UNL     1     -32.366   7.989   2.657  1.00 20.00     0.064 C 
HETATM    2  C4  UNL     1     -32.808   8.036   5.076  1.00 20.00     0.026 C 
HETATM    3  C6  UNL     1     -33.274   7.506   3.718  1.00 20.00     0.099 C 
HETATM    4  N8  UNL     1     -31.655   8.368   1.822  1.00 20.00    -0.197 NA
ENDROOT
BRANCH   3   5
HETATM    5  C7  UNL     1     -33.408   5.965   3.660  1.00 20.00     0.068 C 
HETATM    6  C5  UNL     1     -33.256   5.375   2.255  1.00 20.00     0.019 C 
BRANCH   5   7
HETATM    7  C2  UNL     1     -34.733   5.518   4.282  1.00 20.00     0.128 C 
HETATM    8  C3  UNL     1     -34.651   4.696   5.545  1.00 20.00     0.091 C 
HETATM    9  O9  UNL     1     -35.824   5.785   3.776  1.00 20.00    -0.298 OA
ENDBRANCH   5   7
ENDBRANCH   3   5
TORSDOF 2
ENDMDL
MODEL 7
REMARK VINA RESULT:      -4.6      2.441      3.830
REMARK  2 active torsions:
REMARK  status: ('A' for Active; 'I' for Inactive)
REMARK    1  A    between atoms: C2_2  and  C7_7 
REMARK    2  A    between atoms: C6_6  and  C7_7 
ROOT
HETATM    1  C1  UNL     1     -33.824   7.178   5.083  1.00 20.00     0.064 C 
HETATM    2  C4  UNL     1     -35.446   5.780   3.874  1.00 20.00     0.026 C 
HETATM    3  C6  UNL     1     -34.431   6.921   3.761  1.00 20.00     0.099 C 
HETATM    4  N8  UNL     1     -33.346   7.382   6.121  1.00 20.00    -0.197 NA
ENDROOT
BRANCH   3   5
HETATM    5  C7  UNL     1     -33.336   6.681   2.696  1.00 20.00     0.068 C 
HETATM    6  C5  UNL     1     -32.586   5.355   2.855  1.00 20.00     0.019 C 
BRANCH   5   7
HETATM    7  C2  UNL     1     -32.346   7.849   2.671  1.00 20.00     0.128 C 
HETATM    8  C3  UNL     1     -32.574   8.914   1.627  1.00 20.00     0.091 C 
HETATM    9  O9  UNL     1     -31.389   7.920   3.442  1.00 20.00    -0.298 OA
ENDBRANCH   5   7
ENDBRANCH   3   5
TORSDOF 2
ENDMDL
MODEL 8
REMARK VINA RESULT:      -4.5      1.286      2.520
REMARK  2 active torsions:
REMARK  status: ('A' for Active; 'I' for Inactive)
REMARK    1  A    between atoms: C2_2  and  C7_7 
REMARK    2  A    between atoms: C6_6  and  C7_7 
ROOT
HETATM    1  C1  UNL     1     -32.772   7.609   3.887  1.00 20.00     0.064 C 
HETATM    2  C4  UNL     1     -33.717   7.253   6.130  1.00 20.00     0.026 C 
HETATM    3  C6  UNL     1     -34.007   7.277   4.627  1.00 20.00     0.099 C 
HETATM    4  N8  UNL     1     -31.803   7.871   3.304  1.00 20.00    -0.197 NA
ENDROOT
BRANCH   3   5
HETATM    5  C7  UNL     1     -34.629   5.967   4.089  1.00 20.00     0.068 C 
HETATM    6  C5  UNL     1     -34.506   4.776   5.044  1.00 20.00     0.019 C 
BRANCH   5   7
HETATM    7  C2  UNL     1     -34.035   5.612   2.723  1.00 20.00     0.128 C 
HETATM    8  C3  UNL     1     -32.979   4.535   2.696  1.00 20.00     0.091 C 
HETATM    9  O9  UNL     1     -34.373   6.186   1.687  1.00 20.00    -0.298 OA
ENDBRANCH   5   7
ENDBRANCH   3   5
TORSDOF 2
ENDMDL
MODEL 9
REMARK VINA RESULT:      -4.4      2.620      3.622
REMARK  2 active torsions:
REMARK  status: ('A' for Active; 'I' for Inactive)
REMARK    1  A    between atoms: C2_2  and  C7_7 
REMARK    2  A    between atoms: C6_6  and  C7_7 
ROOT
HETATM    1  C1  UNL     1     -34.499   4.871   4.333  1.00 20.00     0.064 C 
HETATM    2  C4  UNL     1     -33.003   4.742   2.385  1.00 20.00     0.026 C 
HETATM    3  C6  UNL     1     -33.806   5.669   3.301  1.00 20.00     0.099 C 
HETATM    4  N8  UNL     1     -35.046   4.245   5.144  1.00 20.00    -0.197 NA
ENDROOT
BRANCH   3   5
HETATM    5  C7  UNL     1     -32.961   6.788   3.956  1.00 20.00     0.068 C 
HETATM    6  C5  UNL     1     -33.649   7.488   5.131  1.00 20.00     0.019 C 
BRANCH   5   7
HETATM    7  C2  UNL     1     -32.527   7.816   2.908  1.00 20.00     0.128 C 
HETATM    8  C3  UNL     1     -31.238   8.555   3.169  1.00 20.00     0.091 C 
HETATM    9  O9  UNL     1     -33.199   8.061   1.905  1.00 20.00    -0.298 OA
ENDBRANCH   5   7
ENDBRANCH   3   5
TORSDOF 2
ENDMDL
