MODEL 1
REMARK VINA RESULT:      -5.3      0.000      0.000
REMARK  1 active torsions:
REMARK  status: ('A' for Active; 'I' for Inactive)
REMARK    1  A    between atoms: C6_6  and  N10_10 
ROOT
HETATM    1  C1  UNL     1     -34.547   4.973   5.258  1.00 20.00    -0.017 A 
HETATM    2  C2  UNL     1     -34.426   6.134   5.823  1.00 20.00     0.079 A 
HETATM    3  C3  UNL     1     -33.774   7.163   5.041  1.00 20.00     0.047 A 
HETATM    4  C4  UNL     1     -33.349   5.758   2.985  1.00 20.00     0.057 A 
HETATM    5  C5  UNL     1     -33.861   4.547   3.308  1.00 20.00     0.129 A 
HETATM    6  C6  UNL     1     -33.298   6.987   3.789  1.00 20.00     0.135 A 
HETATM    7  N9  UNL     1     -34.480   4.109   4.468  1.00 20.00    -0.218 NA
ENDROOT
BRANCH   6   8
HETATM    8  N10 UNL     1     -32.690   8.131   3.199  1.00 20.00    -0.049 N 
HETATM    9  C7  UNL     1     -31.303   8.308   3.739  1.00 20.00     0.276 C 
HETATM   10  C8  UNL     1     -32.730   8.018   1.705  1.00 20.00     0.276 C 
HETATM   11  H21 UNL     1     -33.232   8.967   3.460  1.00 20.00     0.285 HD
ENDBRANCH   6   8
TORSDOF 1
ENDMDL
MODEL 2
REMARK VINA RESULT:      -5.2      0.520      1.837
REMARK  1 active torsions:
REMARK  status: ('A' for Active; 'I' for Inactive)
REMARK    1  A    between atoms: C6_6  and  N10_10 
ROOT
HETATM    1  C1  UNL     1     -34.360   4.572   4.456  1.00 20.00    -0.017 A 
HETATM    2  C2  UNL     1     -33.846   4.646   3.267  1.00 20.00     0.079 A 
HETATM    3  C3  UNL     1     -33.276   5.923   2.895  1.00 20.00     0.047 A 
HETATM    4  C4  UNL     1     -33.769   7.121   5.064  1.00 20.00     0.057 A 
HETATM    5  C5  UNL     1     -34.387   6.183   5.820  1.00 20.00     0.129 A 
HETATM    6  C6  UNL     1     -33.250   7.012   3.694  1.00 20.00     0.135 A 
HETATM    7  N9  UNL     1     -34.710   4.864   5.536  1.00 20.00    -0.218 NA
ENDROOT
BRANCH   6   8
HETATM    8  N10 UNL     1     -32.642   8.170   3.130  1.00 20.00    -0.049 N 
HETATM    9  C7  UNL     1     -31.265   8.351   3.694  1.00 20.00     0.276 C 
HETATM   10  C8  UNL     1     -32.659   8.079   1.634  1.00 20.00     0.276 C 
HETATM   11  H21 UNL     1     -33.195   8.998   3.395  1.00 20.00     0.285 HD
ENDBRANCH   6   8
TORSDOF 1
ENDMDL
MODEL 3
REMARK VINA RESULT:      -4.1     11.827     13.545
REMARK  1 active torsions:
REMARK  status: ('A' for Active; 'I' for Inactive)
REMARK    1  A    between atoms: C6_6  and  N10_10 
ROOT
HETATM    1  C1  UNL     1     -35.185  13.097  -6.631  1.00 20.00    -0.017 A 
HETATM    2  C2  UNL     1     -34.585  13.662  -7.633  1.00 20.00     0.079 A 
HETATM    3  C3  UNL     1     -34.000  14.961  -7.378  1.00 20.00     0.047 A 
HETATM    4  C4  UNL     1     -34.661  15.122  -4.945  1.00 20.00     0.057 A 
HETATM    5  C5  UNL     1     -35.326  13.965  -4.712  1.00 20.00     0.129 A 
HETATM    6  C6  UNL     1     -34.041  15.600  -6.188  1.00 20.00     0.135 A 
HETATM    7  N9  UNL     1     -35.616  12.905  -5.558  1.00 20.00    -0.218 NA
ENDROOT
BRANCH   6   8
HETATM    8  N10 UNL     1     -33.404  16.873  -6.154  1.00 20.00    -0.049 N 
HETATM    9  C7  UNL     1     -33.963  17.754  -7.230  1.00 20.00     0.276 C 
HETATM   10  C8  UNL     1     -33.523  17.468  -4.784  1.00 20.00     0.276 C 
HETATM   11  H21 UNL     1     -32.400  16.747  -6.350  1.00 20.00     0.285 HD
ENDBRANCH   6   8
TORSDOF 1
ENDMDL
MODEL 4
REMARK VINA RESULT:      -3.9     12.054     13.397
REMARK  1 active torsions:
REMARK  status: ('A' for Active; 'I' for Inactive)
REMARK    1  A    between atoms: C6_6  and  N10_10 
ROOT
HETATM    1  C1  UNL     1     -35.692  13.475  -5.294  1.00 20.00    -0.017 A 
HETATM    2  C2  UNL     1     -35.683  14.488  -4.485  1.00 20.00     0.079 A 
HETATM    3  C3  UNL     1     -34.888  15.627  -4.894  1.00 20.00     0.047 A 
HETATM    4  C4  UNL     1     -34.070  14.658  -7.079  1.00 20.00     0.057 A 
HETATM    5  C5  UNL     1     -34.638  13.430  -7.123  1.00 20.00     0.129 A 
HETATM    6  C6  UNL     1     -34.176  15.692  -6.040  1.00 20.00     0.135 A 
HETATM    7  N9  UNL     1     -35.473  12.790  -6.220  1.00 20.00    -0.218 NA
ENDROOT
BRANCH   6   8
HETATM    8  N10 UNL     1     -33.462  16.906  -6.249  1.00 20.00    -0.049 N 
HETATM    9  C7  UNL     1     -33.943  17.574  -7.502  1.00 20.00     0.276 C 
HETATM   10  C8  UNL     1     -33.573  17.780  -5.036  1.00 20.00     0.276 C 
HETATM   11  H21 UNL     1     -32.464  16.686  -6.381  1.00 20.00     0.285 HD
ENDBRANCH   6   8
TORSDOF 1
ENDMDL
MODEL 5
REMARK VINA RESULT:      -3.9     12.028     12.667
REMARK  1 active torsions:
REMARK  status: ('A' for Active; 'I' for Inactive)
REMARK    1  A    between atoms: C6_6  and  N10_10 
ROOT
HETATM    1  C1  UNL     1     -34.686  18.125   0.387  1.00 20.00    -0.017 A 
HETATM    2  C2  UNL     1     -35.518  17.357  -0.245  1.00 20.00     0.079 A 
HETATM    3  C3  UNL     1     -35.069  16.838  -1.519  1.00 20.00     0.047 A 
HETATM    4  C4  UNL     1     -32.792  17.934  -1.508  1.00 20.00     0.057 A 
HETATM    5  C5  UNL     1     -32.768  18.621  -0.342  1.00 20.00     0.129 A 
HETATM    6  C6  UNL     1     -33.863  17.100  -2.071  1.00 20.00     0.135 A 
HETATM    7  N9  UNL     1     -33.726  18.743   0.653  1.00 20.00    -0.218 NA
ENDROOT
BRANCH   6   8
HETATM    8  N10 UNL     1     -33.623  16.489  -3.334  1.00 20.00    -0.049 N 
HETATM    9  C7  UNL     1     -34.657  15.437  -3.599  1.00 20.00     0.276 C 
HETATM   10  C8  UNL     1     -33.561  17.536  -4.406  1.00 20.00     0.276 C 
HETATM   11  H21 UNL     1     -32.706  16.020  -3.308  1.00 20.00     0.285 HD
ENDBRANCH   6   8
TORSDOF 1
ENDMDL
MODEL 6
REMARK VINA RESULT:      -3.8     11.894     13.320
REMARK  1 active torsions:
REMARK  status: ('A' for Active; 'I' for Inactive)
REMARK    1  A    between atoms: C6_6  and  N10_10 
ROOT
HETATM    1  C1  UNL     1     -33.669  17.270  -3.774  1.00 20.00    -0.017 A 
HETATM    2  C2  UNL     1     -33.952  16.209  -3.083  1.00 20.00     0.079 A 
HETATM    3  C3  UNL     1     -34.277  15.019  -3.840  1.00 20.00     0.047 A 
HETATM    4  C4  UNL     1     -34.002  16.035  -6.137  1.00 20.00     0.057 A 
HETATM    5  C5  UNL     1     -33.655  17.319  -5.885  1.00 20.00     0.129 A 
HETATM    6  C6  UNL     1     -34.300  14.952  -5.189  1.00 20.00     0.135 A 
HETATM    7  N9  UNL     1     -33.478  17.986  -4.682  1.00 20.00    -0.218 NA
ENDROOT
BRANCH   6   8
HETATM    8  N10 UNL     1     -34.647  13.683  -5.733  1.00 20.00    -0.049 N 
HETATM    9  C7  UNL     1     -36.055  13.333  -5.356  1.00 20.00     0.276 C 
HETATM   10  C8  UNL     1     -34.415  13.680  -7.214  1.00 20.00     0.276 C 
HETATM   11  H21 UNL     1     -34.031  12.966  -5.323  1.00 20.00     0.285 HD
ENDBRANCH   6   8
TORSDOF 1
ENDMDL
MODEL 7
REMARK VINA RESULT:      -3.8     12.055     12.457
REMARK  1 active torsions:
REMARK  status: ('A' for Active; 'I' for Inactive)
REMARK    1  A    between atoms: C6_6  and  N10_10 
ROOT
HETATM    1  C1  UNL     1     -33.773  14.374  -5.080  1.00 20.00    -0.017 A 
HETATM    2  C2  UNL     1     -33.272  15.191  -4.206  1.00 20.00     0.079 A 
HETATM    3  C3  UNL     1     -34.221  15.915  -3.388  1.00 20.00     0.047 A 
HETATM    4  C4  UNL     1     -36.313  14.917  -4.393  1.00 20.00     0.057 A 
HETATM    5  C5  UNL     1     -35.846  14.065  -5.336  1.00 20.00     0.129 A 
HETATM    6  C6  UNL     1     -35.564  15.790  -3.479  1.00 20.00     0.135 A 
HETATM    7  N9  UNL     1     -34.547  13.765  -5.717  1.00 20.00    -0.218 NA
ENDROOT
BRANCH   6   8
HETATM    8  N10 UNL     1     -36.316  16.597  -2.580  1.00 20.00    -0.049 N 
HETATM    9  C7  UNL     1     -35.461  16.999  -1.416  1.00 20.00     0.276 C 
HETATM   10  C8  UNL     1     -36.902  17.767  -3.311  1.00 20.00     0.276 C 
HETATM   11  H21 UNL     1     -37.099  16.040  -2.209  1.00 20.00     0.285 HD
ENDBRANCH   6   8
TORSDOF 1
ENDMDL
MODEL 8
REMARK VINA RESULT:      -3.8     11.680     12.737
REMARK  1 active torsions:
REMARK  status: ('A' for Active; 'I' for Inactive)
REMARK    1  A    between atoms: C6_6  and  N10_10 
ROOT
HETATM    1  C1  UNL     1     -34.400  14.468  -4.231  1.00 20.00    -0.017 A 
HETATM    2  C2  UNL     1     -34.567  15.529  -3.504  1.00 20.00     0.079 A 
HETATM    3  C3  UNL     1     -35.916  16.048  -3.428  1.00 20.00     0.047 A 
HETATM    4  C4  UNL     1     -36.995  14.305  -4.905  1.00 20.00     0.057 A 
HETATM    5  C5  UNL     1     -35.968  13.499  -5.260  1.00 20.00     0.129 A 
HETATM    6  C6  UNL     1     -36.983  15.502  -4.053  1.00 20.00     0.135 A 
HETATM    7  N9  UNL     1     -34.621  13.557  -4.934  1.00 20.00    -0.218 NA
ENDROOT
BRANCH   6   8
HETATM    8  N10 UNL     1     -38.222  16.172  -3.845  1.00 20.00    -0.049 N 
HETATM    9  C7  UNL     1     -38.040  17.649  -4.022  1.00 20.00     0.276 C 
HETATM   10  C8  UNL     1     -39.272  15.596  -4.747  1.00 20.00     0.276 C 
HETATM   11  H21 UNL     1     -38.527  16.013  -2.874  1.00 20.00     0.285 HD
ENDBRANCH   6   8
TORSDOF 1
ENDMDL
MODEL 9
REMARK VINA RESULT:      -3.8      0.980      3.783
REMARK  1 active torsions:
REMARK  status: ('A' for Active; 'I' for Inactive)
REMARK    1  A    between atoms: C6_6  and  N10_10 
ROOT
HETATM    1  C1  UNL     1     -31.835   8.486   3.469  1.00 20.00    -0.017 A 
HETATM    2  C2  UNL     1     -32.179   8.361   4.713  1.00 20.00     0.079 A 
HETATM    3  C3  UNL     1     -33.163   7.341   5.007  1.00 20.00     0.047 A 
HETATM    4  C4  UNL     1     -33.460   6.514   2.638  1.00 20.00     0.057 A 
HETATM    5  C5  UNL     1     -32.620   7.292   1.915  1.00 20.00     0.129 A 
HETATM    6  C6  UNL     1     -33.726   6.531   4.083  1.00 20.00     0.135 A 
HETATM    7  N9  UNL     1     -31.773   8.316   2.311  1.00 20.00    -0.218 NA
ENDROOT
BRANCH   6   8
HETATM    8  N10 UNL     1     -34.674   5.595   4.586  1.00 20.00    -0.049 N 
HETATM    9  C7  UNL     1     -34.286   4.206   4.179  1.00 20.00     0.276 C 
HETATM   10  C8  UNL     1     -34.814   5.757   6.070  1.00 20.00     0.276 C 
HETATM   11  H21 UNL     1     -35.593   5.795   4.166  1.00 20.00     0.285 HD
ENDBRANCH   6   8
TORSDOF 1
ENDMDL
