MODEL 1
REMARK VINA RESULT:      -5.2      0.000      0.000
REMARK  2 active torsions:
REMARK  status: ('A' for Active; 'I' for Inactive)
REMARK    1  A    between atoms: C1_1  and  C5_5 
REMARK    2  A    between atoms: C1_1  and  O10_10 
ROOT
HETATM    1  C2  UNL     1     -35.100   5.987   3.896  1.00 20.00     0.015 C 
HETATM    2  C3  UNL     1     -34.753   5.111   5.109  1.00 20.00     0.006 C 
HETATM    3  C4  UNL     1     -34.241   7.383   6.331  1.00 20.00     0.011 A 
HETATM    4  C5  UNL     1     -33.916   6.962   3.753  1.00 20.00     0.090 C 
HETATM    5  C6  UNL     1     -33.873   5.967   5.972  1.00 20.00    -0.009 A 
HETATM    6  C7  UNL     1     -33.356   7.094   5.145  1.00 20.00     0.004 A 
ENDROOT
BRANCH   4   7
HETATM    7  C1  UNL     1     -32.905   6.422   2.789  1.00 20.00     0.263 C 
HETATM    8  O9  UNL     1     -32.922   5.282   2.345  1.00 20.00    -0.265 OA
BRANCH   7   9
HETATM    9  O10 UNL     1     -31.988   7.388   2.500  1.00 20.00    -0.326 OA
HETATM   10  C8  UNL     1     -32.493   8.522   1.788  1.00 20.00     0.213 C 
ENDBRANCH   7   9
ENDBRANCH   4   7
TORSDOF 2
ENDMDL
MODEL 2
REMARK VINA RESULT:      -5.1      1.186      1.528
REMARK  2 active torsions:
REMARK  status: ('A' for Active; 'I' for Inactive)
REMARK    1  A    between atoms: C1_1  and  C5_5 
REMARK    2  A    between atoms: C1_1  and  O10_10 
ROOT
HETATM    1  C2  UNL     1     -34.511   6.072   3.095  1.00 20.00     0.015 C 
HETATM    2  C3  UNL     1     -34.020   4.784   3.775  1.00 20.00     0.006 C 
HETATM    3  C4  UNL     1     -34.908   5.873   5.997  1.00 20.00     0.011 A 
HETATM    4  C5  UNL     1     -33.941   7.219   3.952  1.00 20.00     0.090 C 
HETATM    5  C6  UNL     1     -33.843   5.145   5.220  1.00 20.00    -0.009 A 
HETATM    6  C7  UNL     1     -33.788   6.631   5.330  1.00 20.00     0.004 A 
ENDROOT
BRANCH   4   7
HETATM    7  C1  UNL     1     -32.634   7.691   3.394  1.00 20.00     0.263 C 
HETATM    8  O9  UNL     1     -31.681   8.036   4.080  1.00 20.00    -0.265 OA
BRANCH   7   9
HETATM    9  O10 UNL     1     -32.685   7.672   2.032  1.00 20.00    -0.326 OA
HETATM   10  C8  UNL     1     -32.229   8.863   1.383  1.00 20.00     0.213 C 
ENDBRANCH   7   9
ENDBRANCH   4   7
TORSDOF 2
ENDMDL
MODEL 3
REMARK VINA RESULT:      -4.8      1.540      3.752
REMARK  2 active torsions:
REMARK  status: ('A' for Active; 'I' for Inactive)
REMARK    1  A    between atoms: C1_1  and  C5_5 
REMARK    2  A    between atoms: C1_1  and  O10_10 
ROOT
HETATM    1  C2  UNL     1     -32.774   7.911   4.288  1.00 20.00     0.015 C 
HETATM    2  C3  UNL     1     -31.360   8.074   3.709  1.00 20.00     0.006 C 
HETATM    3  C4  UNL     1     -32.550   9.315   1.720  1.00 20.00     0.011 A 
HETATM    4  C5  UNL     1     -33.623   7.364   3.124  1.00 20.00     0.090 C 
HETATM    5  C6  UNL     1     -31.561   8.305   2.241  1.00 20.00    -0.009 A 
HETATM    6  C7  UNL     1     -32.940   7.867   1.880  1.00 20.00     0.004 A 
ENDROOT
BRANCH   4   7
HETATM    7  C1  UNL     1     -33.676   5.868   3.170  1.00 20.00     0.263 C 
HETATM    8  O9  UNL     1     -32.858   5.137   2.629  1.00 20.00    -0.265 OA
BRANCH   7   9
HETATM    9  O10 UNL     1     -34.761   5.472   3.895  1.00 20.00    -0.326 OA
HETATM   10  C8  UNL     1     -34.513   4.443   4.859  1.00 20.00     0.213 C 
ENDBRANCH   7   9
ENDBRANCH   4   7
TORSDOF 2
ENDMDL
MODEL 4
REMARK VINA RESULT:      -4.6      1.710      2.838
REMARK  2 active torsions:
REMARK  status: ('A' for Active; 'I' for Inactive)
REMARK    1  A    between atoms: C1_1  and  C5_5 
REMARK    2  A    between atoms: C1_1  and  O10_10 
ROOT
HETATM    1  C2  UNL     1     -32.605   7.530   4.423  1.00 20.00     0.015 C 
HETATM    2  C3  UNL     1     -34.114   7.278   4.559  1.00 20.00     0.006 C 
HETATM    3  C4  UNL     1     -33.638   5.034   3.274  1.00 20.00     0.011 A 
HETATM    4  C5  UNL     1     -32.287   7.268   2.939  1.00 20.00     0.090 C 
HETATM    5  C6  UNL     1     -34.446   6.288   3.482  1.00 20.00    -0.009 A 
HETATM    6  C7  UNL     1     -33.335   6.284   2.488  1.00 20.00     0.004 A 
ENDROOT
BRANCH   4   7
HETATM    7  C1  UNL     1     -32.341   8.544   2.157  1.00 20.00     0.263 C 
HETATM    8  O9  UNL     1     -31.927   9.619   2.571  1.00 20.00    -0.265 OA
BRANCH   7   9
HETATM    9  O10 UNL     1     -32.915   8.312   0.942  1.00 20.00    -0.326 OA
HETATM   10  C8  UNL     1     -32.851   9.399   0.014  1.00 20.00     0.213 C 
ENDBRANCH   7   9
ENDBRANCH   4   7
TORSDOF 2
ENDMDL
MODEL 5
REMARK VINA RESULT:      -4.5     11.341     12.322
REMARK  2 active torsions:
REMARK  status: ('A' for Active; 'I' for Inactive)
REMARK    1  A    between atoms: C1_1  and  C5_5 
REMARK    2  A    between atoms: C1_1  and  O10_10 
ROOT
HETATM    1  C2  UNL     1     -33.224  14.404  -4.627  1.00 20.00     0.015 C 
HETATM    2  C3  UNL     1     -33.070  15.825  -5.192  1.00 20.00     0.006 C 
HETATM    3  C4  UNL     1     -33.704  16.626  -2.769  1.00 20.00     0.011 A 
HETATM    4  C5  UNL     1     -34.578  14.411  -3.891  1.00 20.00     0.090 C 
HETATM    5  C6  UNL     1     -33.857  16.704  -4.265  1.00 20.00    -0.009 A 
HETATM    6  C7  UNL     1     -34.782  15.843  -3.475  1.00 20.00     0.004 A 
ENDROOT
BRANCH   4   7
HETATM    7  C1  UNL     1     -35.669  13.927  -4.795  1.00 20.00     0.263 C 
HETATM    8  O9  UNL     1     -35.643  12.857  -5.389  1.00 20.00    -0.265 OA
BRANCH   7   9
HETATM    9  O10 UNL     1     -36.668  14.853  -4.842  1.00 20.00    -0.326 OA
HETATM   10  C8  UNL     1     -37.932  14.372  -5.310  1.00 20.00     0.213 C 
ENDBRANCH   7   9
ENDBRANCH   4   7
TORSDOF 2
ENDMDL
MODEL 6
REMARK VINA RESULT:      -4.4     11.691     12.711
REMARK  2 active torsions:
REMARK  status: ('A' for Active; 'I' for Inactive)
REMARK    1  A    between atoms: C1_1  and  C5_5 
REMARK    2  A    between atoms: C1_1  and  O10_10 
ROOT
HETATM    1  C2  UNL     1     -35.431  15.816  -4.049  1.00 20.00     0.015 C 
HETATM    2  C3  UNL     1     -34.020  15.396  -3.608  1.00 20.00     0.006 C 
HETATM    3  C4  UNL     1     -33.310  15.979  -6.072  1.00 20.00     0.011 A 
HETATM    4  C5  UNL     1     -35.677  15.066  -5.372  1.00 20.00     0.090 C 
HETATM    5  C6  UNL     1     -33.296  15.061  -4.879  1.00 20.00    -0.009 A 
HETATM    6  C7  UNL     1     -34.305  14.853  -5.955  1.00 20.00     0.004 A 
ENDROOT
BRANCH   4   7
HETATM    7  C1  UNL     1     -36.387  13.772  -5.117  1.00 20.00     0.263 C 
HETATM    8  O9  UNL     1     -35.875  12.670  -5.263  1.00 20.00    -0.265 OA
BRANCH   7   9
HETATM    9  O10 UNL     1     -37.663  14.023  -4.709  1.00 20.00    -0.326 OA
HETATM   10  C8  UNL     1     -38.469  14.765  -5.630  1.00 20.00     0.213 C 
ENDBRANCH   7   9
ENDBRANCH   4   7
TORSDOF 2
ENDMDL
MODEL 7
REMARK VINA RESULT:      -4.3     11.706     12.366
REMARK  2 active torsions:
REMARK  status: ('A' for Active; 'I' for Inactive)
REMARK    1  A    between atoms: C1_1  and  C5_5 
REMARK    2  A    between atoms: C1_1  and  O10_10 
ROOT
HETATM    1  C2  UNL     1     -36.381  16.299  -4.809  1.00 20.00     0.015 C 
HETATM    2  C3  UNL     1     -36.291  16.430  -3.281  1.00 20.00     0.006 C 
HETATM    3  C4  UNL     1     -33.692  16.242  -3.634  1.00 20.00     0.011 A 
HETATM    4  C5  UNL     1     -35.498  15.087  -5.160  1.00 20.00     0.090 C 
HETATM    5  C6  UNL     1     -34.956  15.850  -2.916  1.00 20.00    -0.009 A 
HETATM    6  C7  UNL     1     -34.473  15.025  -4.059  1.00 20.00     0.004 A 
ENDROOT
BRANCH   4   7
HETATM    7  C1  UNL     1     -36.324  13.839  -5.231  1.00 20.00     0.263 C 
HETATM    8  O9  UNL     1     -37.498  13.774  -4.891  1.00 20.00    -0.265 OA
BRANCH   7   9
HETATM    9  O10 UNL     1     -35.567  12.817  -5.723  1.00 20.00    -0.326 OA
HETATM   10  C8  UNL     1     -35.149  12.961  -7.084  1.00 20.00     0.213 C 
ENDBRANCH   7   9
ENDBRANCH   4   7
TORSDOF 2
ENDMDL
MODEL 8
REMARK VINA RESULT:      -4.1      1.585      4.523
REMARK  2 active torsions:
REMARK  status: ('A' for Active; 'I' for Inactive)
REMARK    1  A    between atoms: C1_1  and  C5_5 
REMARK    2  A    between atoms: C1_1  and  O10_10 
ROOT
HETATM    1  C2  UNL     1     -31.402   8.349   0.881  1.00 20.00     0.015 C 
HETATM    2  C3  UNL     1     -32.453   8.937  -0.072  1.00 20.00     0.006 C 
HETATM    3  C4  UNL     1     -32.370  11.054   1.485  1.00 20.00     0.011 A 
HETATM    4  C5  UNL     1     -31.968   8.582   2.295  1.00 20.00     0.090 C 
HETATM    5  C6  UNL     1     -33.140  10.013   0.716  1.00 20.00    -0.009 A 
HETATM    6  C7  UNL     1     -32.850   9.795   2.161  1.00 20.00     0.004 A 
ENDROOT
BRANCH   4   7
HETATM    7  C1  UNL     1     -32.731   7.380   2.759  1.00 20.00     0.263 C 
HETATM    8  O9  UNL     1     -32.464   6.231   2.433  1.00 20.00    -0.265 OA
BRANCH   7   9
HETATM    9  O10 UNL     1     -33.745   7.772   3.581  1.00 20.00    -0.326 OA
HETATM   10  C8  UNL     1     -33.774   7.143   4.866  1.00 20.00     0.213 C 
ENDBRANCH   7   9
ENDBRANCH   4   7
TORSDOF 2
ENDMDL
MODEL 9
REMARK VINA RESULT:      -4.1     11.387     12.227
REMARK  2 active torsions:
REMARK  status: ('A' for Active; 'I' for Inactive)
REMARK    1  A    between atoms: C1_1  and  C5_5 
REMARK    2  A    between atoms: C1_1  and  O10_10 
ROOT
HETATM    1  C2  UNL     1     -35.645  15.962  -3.317  1.00 20.00     0.015 C 
HETATM    2  C3  UNL     1     -34.815  16.480  -2.133  1.00 20.00     0.006 C 
HETATM    3  C4  UNL     1     -33.690  18.074  -3.896  1.00 20.00     0.011 A 
HETATM    4  C5  UNL     1     -34.619  15.670  -4.429  1.00 20.00     0.090 C 
HETATM    5  C6  UNL     1     -33.597  17.102  -2.750  1.00 20.00    -0.009 A 
HETATM    6  C7  UNL     1     -33.472  16.604  -4.149  1.00 20.00     0.004 A 
ENDROOT
BRANCH   4   7
HETATM    7  C1  UNL     1     -34.197  14.234  -4.390  1.00 20.00     0.263 C 
HETATM    8  O9  UNL     1     -33.042  13.864  -4.228  1.00 20.00    -0.265 OA
BRANCH   7   9
HETATM    9  O10 UNL     1     -35.286  13.432  -4.561  1.00 20.00    -0.326 OA
HETATM   10  C8  UNL     1     -35.822  13.396  -5.887  1.00 20.00     0.213 C 
ENDBRANCH   7   9
ENDBRANCH   4   7
TORSDOF 2
ENDMDL
