MODEL 1
REMARK VINA RESULT:      -5.5      0.000      0.000
REMARK  1 active torsions:
REMARK  status: ('A' for Active; 'I' for Inactive)
REMARK    1  A    between atoms: C3_3  and  C7_7 
ROOT
HETATM    1  C1  UNL     1     -33.014   7.666   5.089  1.00 20.00    -0.029 C 
HETATM    2  C2  UNL     1     -32.134   7.924   4.113  1.00 20.00    -0.026 C 
HETATM    3  C4  UNL     1     -34.317   6.957   4.864  1.00 20.00     0.039 C 
HETATM    4  C5  UNL     1     -33.830   7.165   2.388  1.00 20.00     0.020 C 
HETATM    5  C6  UNL     1     -32.365   7.561   2.669  1.00 20.00     0.004 C 
HETATM    6  C7  UNL     1     -34.423   6.284   3.490  1.00 20.00     0.059 C 
HETATM    7  C9  UNL     1     -31.947   8.707   1.747  1.00 20.00     0.014 C 
ENDROOT
BRANCH   6   8
HETATM    8  C3  UNL     1     -33.768   4.929   3.498  1.00 20.00     0.127 C 
HETATM    9  C8  UNL     1     -34.132   4.008   4.632  1.00 20.00     0.091 C 
HETATM   10  O10 UNL     1     -32.975   4.591   2.620  1.00 20.00    -0.298 OA
ENDBRANCH   6   8
TORSDOF 1
ENDMDL
MODEL 2
REMARK VINA RESULT:      -4.4     11.301     12.571
REMARK  1 active torsions:
REMARK  status: ('A' for Active; 'I' for Inactive)
REMARK    1  A    between atoms: C3_3  and  C7_7 
ROOT
HETATM    1  C1  UNL     1     -34.564  16.742  -6.066  1.00 20.00    -0.029 C 
HETATM    2  C2  UNL     1     -35.154  16.872  -4.870  1.00 20.00    -0.026 C 
HETATM    3  C4  UNL     1     -33.852  15.497  -6.507  1.00 20.00     0.039 C 
HETATM    4  C5  UNL     1     -34.124  14.677  -4.127  1.00 20.00     0.020 C 
HETATM    5  C6  UNL     1     -35.143  15.794  -3.817  1.00 20.00     0.004 C 
HETATM    6  C7  UNL     1     -34.115  14.284  -5.606  1.00 20.00     0.059 C 
HETATM    7  C9  UNL     1     -34.863  16.388  -2.436  1.00 20.00     0.014 C 
ENDROOT
BRANCH   6   8
HETATM    8  C3  UNL     1     -35.400  13.598  -5.982  1.00 20.00     0.127 C 
HETATM    9  C8  UNL     1     -35.980  13.938  -7.329  1.00 20.00     0.091 C 
HETATM   10  O10 UNL     1     -35.948  12.796  -5.227  1.00 20.00    -0.298 OA
ENDBRANCH   6   8
TORSDOF 1
ENDMDL
MODEL 3
REMARK VINA RESULT:      -4.3      1.494      3.632
REMARK  1 active torsions:
REMARK  status: ('A' for Active; 'I' for Inactive)
REMARK    1  A    between atoms: C3_3  and  C7_7 
ROOT
HETATM    1  C1  UNL     1     -32.724   8.094   4.934  1.00 20.00    -0.029 C 
HETATM    2  C2  UNL     1     -33.843   7.367   4.820  1.00 20.00    -0.026 C 
HETATM    3  C4  UNL     1     -31.624   8.088   3.912  1.00 20.00     0.039 C 
HETATM    4  C5  UNL     1     -32.853   6.162   2.821  1.00 20.00     0.020 C 
HETATM    5  C6  UNL     1     -34.113   6.434   3.668  1.00 20.00     0.004 C 
HETATM    6  C7  UNL     1     -32.017   7.423   2.587  1.00 20.00     0.059 C 
HETATM    7  C9  UNL     1     -34.704   5.114   4.166  1.00 20.00     0.014 C 
ENDROOT
BRANCH   6   8
HETATM    8  C3  UNL     1     -32.749   8.387   1.693  1.00 20.00     0.127 C 
HETATM    9  C8  UNL     1     -32.306   9.825   1.743  1.00 20.00     0.091 C 
HETATM   10  O10 UNL     1     -33.661   8.017   0.956  1.00 20.00    -0.298 OA
ENDBRANCH   6   8
TORSDOF 1
ENDMDL
MODEL 4
REMARK VINA RESULT:      -4.3     11.340     12.035
REMARK  1 active torsions:
REMARK  status: ('A' for Active; 'I' for Inactive)
REMARK    1  A    between atoms: C3_3  and  C7_7 
ROOT
HETATM    1  C1  UNL     1     -36.590  16.686  -3.641  1.00 20.00    -0.029 C 
HETATM    2  C2  UNL     1     -35.830  16.701  -2.538  1.00 20.00    -0.026 C 
HETATM    3  C4  UNL     1     -36.068  16.325  -5.001  1.00 20.00     0.039 C 
HETATM    4  C5  UNL     1     -33.759  16.371  -3.963  1.00 20.00     0.020 C 
HETATM    5  C6  UNL     1     -34.356  16.388  -2.540  1.00 20.00     0.004 C 
HETATM    6  C7  UNL     1     -34.676  15.682  -4.977  1.00 20.00     0.059 C 
HETATM    7  C9  UNL     1     -33.589  17.380  -1.664  1.00 20.00     0.014 C 
ENDROOT
BRANCH   6   8
HETATM    8  C3  UNL     1     -34.766  14.206  -4.696  1.00 20.00     0.127 C 
HETATM    9  C8  UNL     1     -36.001  13.498  -5.186  1.00 20.00     0.091 C 
HETATM   10  O10 UNL     1     -33.873  13.608  -4.098  1.00 20.00    -0.298 OA
ENDBRANCH   6   8
TORSDOF 1
ENDMDL
MODEL 5
REMARK VINA RESULT:      -4.3      1.193      3.031
REMARK  1 active torsions:
REMARK  status: ('A' for Active; 'I' for Inactive)
REMARK    1  A    between atoms: C3_3  and  C7_7 
ROOT
HETATM    1  C1  UNL     1     -34.677   4.725   5.352  1.00 20.00    -0.029 C 
HETATM    2  C2  UNL     1     -33.997   5.618   6.082  1.00 20.00    -0.026 C 
HETATM    3  C4  UNL     1     -35.126   4.977   3.942  1.00 20.00     0.039 C 
HETATM    4  C5  UNL     1     -34.388   7.373   4.294  1.00 20.00     0.020 C 
HETATM    5  C6  UNL     1     -33.629   6.992   5.582  1.00 20.00     0.004 C 
HETATM    6  C7  UNL     1     -34.481   6.211   3.301  1.00 20.00     0.059 C 
HETATM    7  C9  UNL     1     -33.873   8.046   6.663  1.00 20.00     0.014 C 
ENDROOT
BRANCH   6   8
HETATM    8  C3  UNL     1     -33.125   5.883   2.737  1.00 20.00     0.127 C 
HETATM    9  C8  UNL     1     -32.200   7.043   2.481  1.00 20.00     0.091 C 
HETATM   10  O10 UNL     1     -32.788   4.724   2.500  1.00 20.00    -0.298 OA
ENDBRANCH   6   8
TORSDOF 1
ENDMDL
MODEL 6
REMARK VINA RESULT:      -4.3     11.133     12.311
REMARK  1 active torsions:
REMARK  status: ('A' for Active; 'I' for Inactive)
REMARK    1  A    between atoms: C3_3  and  C7_7 
ROOT
HETATM    1  C1  UNL     1     -32.958  15.487  -5.361  1.00 20.00    -0.029 C 
HETATM    2  C2  UNL     1     -33.736  16.554  -5.585  1.00 20.00    -0.026 C 
HETATM    3  C4  UNL     1     -33.335  14.368  -4.435  1.00 20.00     0.039 C 
HETATM    4  C5  UNL     1     -35.280  15.819  -3.712  1.00 20.00     0.020 C 
HETATM    5  C6  UNL     1     -35.066  16.770  -4.908  1.00 20.00     0.004 C 
HETATM    6  C7  UNL     1     -34.806  14.392  -4.003  1.00 20.00     0.059 C 
HETATM    7  C9  UNL     1     -35.214  18.223  -4.454  1.00 20.00     0.014 C 
ENDROOT
BRANCH   6   8
HETATM    8  C3  UNL     1     -35.685  13.740  -5.036  1.00 20.00     0.127 C 
HETATM    9  C8  UNL     1     -37.111  14.217  -5.109  1.00 20.00     0.091 C 
HETATM   10  O10 UNL     1     -35.258  12.863  -5.785  1.00 20.00    -0.298 OA
ENDBRANCH   6   8
TORSDOF 1
ENDMDL
MODEL 7
REMARK VINA RESULT:      -4.1      1.590      3.875
REMARK  1 active torsions:
REMARK  status: ('A' for Active; 'I' for Inactive)
REMARK    1  A    between atoms: C3_3  and  C7_7 
ROOT
HETATM    1  C1  UNL     1     -33.394   4.750   2.624  1.00 20.00    -0.029 C 
HETATM    2  C2  UNL     1     -33.436   4.532   3.945  1.00 20.00    -0.026 C 
HETATM    3  C4  UNL     1     -33.752   6.062   1.989  1.00 20.00     0.039 C 
HETATM    4  C5  UNL     1     -34.575   6.773   4.276  1.00 20.00     0.020 C 
HETATM    5  C6  UNL     1     -33.879   5.569   4.945  1.00 20.00     0.004 C 
HETATM    6  C7  UNL     1     -33.874   7.218   2.990  1.00 20.00     0.059 C 
HETATM    7  C9  UNL     1     -34.800   4.950   5.997  1.00 20.00     0.014 C 
ENDROOT
BRANCH   6   8
HETATM    8  C3  UNL     1     -32.527   7.814   3.298  1.00 20.00     0.127 C 
HETATM    9  C8  UNL     1     -31.682   8.221   2.120  1.00 20.00     0.091 C 
HETATM   10  O10 UNL     1     -32.137   7.963   4.455  1.00 20.00    -0.298 OA
ENDBRANCH   6   8
TORSDOF 1
ENDMDL
MODEL 8
REMARK VINA RESULT:      -4.1     11.495     12.370
REMARK  1 active torsions:
REMARK  status: ('A' for Active; 'I' for Inactive)
REMARK    1  A    between atoms: C3_3  and  C7_7 
ROOT
HETATM    1  C1  UNL     1     -32.968  15.477  -4.926  1.00 20.00    -0.029 C 
HETATM    2  C2  UNL     1     -33.718  14.381  -4.749  1.00 20.00    -0.026 C 
HETATM    3  C4  UNL     1     -33.481  16.873  -4.730  1.00 20.00     0.039 C 
HETATM    4  C5  UNL     1     -35.781  15.836  -4.510  1.00 20.00     0.020 C 
HETATM    5  C6  UNL     1     -35.173  14.425  -4.362  1.00 20.00     0.004 C 
HETATM    6  C7  UNL     1     -34.838  16.937  -4.017  1.00 20.00     0.059 C 
HETATM    7  C9  UNL     1     -35.983  13.419  -5.181  1.00 20.00     0.014 C 
ENDROOT
BRANCH   6   8
HETATM    8  C3  UNL     1     -34.670  16.863  -2.523  1.00 20.00     0.127 C 
HETATM    9  C8  UNL     1     -33.341  17.304  -1.970  1.00 20.00     0.091 C 
HETATM   10  O10 UNL     1     -35.574  16.465  -1.791  1.00 20.00    -0.298 OA
ENDBRANCH   6   8
TORSDOF 1
ENDMDL
MODEL 9
REMARK VINA RESULT:      -4.1      1.898      2.737
REMARK  1 active torsions:
REMARK  status: ('A' for Active; 'I' for Inactive)
REMARK    1  A    between atoms: C3_3  and  C7_7 
ROOT
HETATM    1  C1  UNL     1     -32.547   7.635   2.984  1.00 20.00    -0.029 C 
HETATM    2  C2  UNL     1     -32.168   6.374   2.737  1.00 20.00    -0.026 C 
HETATM    3  C4  UNL     1     -33.884   8.000   3.559  1.00 20.00     0.039 C 
HETATM    4  C5  UNL     1     -34.523   5.573   3.225  1.00 20.00     0.020 C 
HETATM    5  C6  UNL     1     -33.052   5.178   2.980  1.00 20.00     0.004 C 
HETATM    6  C7  UNL     1     -34.659   6.805   4.125  1.00 20.00     0.059 C 
HETATM    7  C9  UNL     1     -32.963   4.192   1.814  1.00 20.00     0.014 C 
ENDROOT
BRANCH   6   8
HETATM    8  C3  UNL     1     -34.220   6.489   5.529  1.00 20.00     0.127 C 
HETATM    9  C8  UNL     1     -34.568   5.122   6.055  1.00 20.00     0.091 C 
HETATM   10  O10 UNL     1     -33.604   7.306   6.211  1.00 20.00    -0.298 OA
ENDBRANCH   6   8
TORSDOF 1
ENDMDL
