MODEL 1
REMARK VINA RESULT:      -4.3      0.000      0.000
REMARK  1 active torsions:
REMARK  status: ('A' for Active; 'I' for Inactive)
REMARK    1  A    between atoms: C1_1  and  C3_3 
ROOT
HETATM    1  C2  UNL     1     -35.430   5.869   3.923  1.00 20.00     0.103 A 
HETATM    2  C3  UNL     1     -34.031   6.270   4.319  1.00 20.00     0.073 A 
HETATM    3  C5  UNL     1     -33.878   7.178   5.511  1.00 20.00     0.036 C 
HETATM    4  S7  UNL     1     -34.508   4.630   4.678  1.00 20.00    -0.149 SA
ENDROOT
BRANCH   2   5
HETATM    5  C1  UNL     1     -33.023   6.375   3.243  1.00 20.00     0.142 C 
HETATM    6  C4  UNL     1     -32.295   7.686   3.122  1.00 20.00     0.092 C 
HETATM    7  O6  UNL     1     -32.788   5.435   2.485  1.00 20.00    -0.297 OA
ENDBRANCH   2   5
TORSDOF 1
ENDMDL
MODEL 2
REMARK VINA RESULT:      -4.0      1.816      2.723
REMARK  1 active torsions:
REMARK  status: ('A' for Active; 'I' for Inactive)
REMARK    1  A    between atoms: C1_1  and  C3_3 
ROOT
HETATM    1  C2  UNL     1     -33.251   6.894   3.070  1.00 20.00     0.103 A 
HETATM    2  C3  UNL     1     -34.327   6.179   3.849  1.00 20.00     0.073 A 
HETATM    3  C5  UNL     1     -35.726   6.206   3.291  1.00 20.00     0.036 C 
HETATM    4  S7  UNL     1     -33.190   5.178   2.984  1.00 20.00    -0.149 SA
ENDROOT
BRANCH   2   5
HETATM    5  C1  UNL     1     -34.176   6.118   5.318  1.00 20.00     0.142 C 
HETATM    6  C4  UNL     1     -33.633   7.348   5.994  1.00 20.00     0.092 C 
HETATM    7  O6  UNL     1     -34.482   5.113   5.957  1.00 20.00    -0.297 OA
ENDBRANCH   2   5
TORSDOF 1
ENDMDL
MODEL 3
REMARK VINA RESULT:      -3.9      1.794      2.177
REMARK  1 active torsions:
REMARK  status: ('A' for Active; 'I' for Inactive)
REMARK    1  A    between atoms: C1_1  and  C3_3 
ROOT
HETATM    1  C2  UNL     1     -34.441   5.219   4.881  1.00 20.00     0.103 A 
HETATM    2  C3  UNL     1     -33.709   5.864   3.731  1.00 20.00     0.073 A 
HETATM    3  C5  UNL     1     -33.104   4.956   2.694  1.00 20.00     0.036 C 
HETATM    4  S7  UNL     1     -35.450   5.975   3.713  1.00 20.00    -0.149 SA
ENDROOT
BRANCH   2   5
HETATM    5  C1  UNL     1     -33.033   7.152   3.993  1.00 20.00     0.142 C 
HETATM    6  C4  UNL     1     -32.410   7.842   2.809  1.00 20.00     0.092 C 
HETATM    7  O6  UNL     1     -32.984   7.639   5.122  1.00 20.00    -0.297 OA
ENDBRANCH   2   5
TORSDOF 1
ENDMDL
MODEL 4
REMARK VINA RESULT:      -3.9      1.640      2.260
REMARK  1 active torsions:
REMARK  status: ('A' for Active; 'I' for Inactive)
REMARK    1  A    between atoms: C1_1  and  C3_3 
ROOT
HETATM    1  C2  UNL     1     -34.076   6.134   2.255  1.00 20.00     0.103 A 
HETATM    2  C3  UNL     1     -34.014   6.067   3.761  1.00 20.00     0.073 A 
HETATM    3  C5  UNL     1     -35.185   5.451   4.479  1.00 20.00     0.036 C 
HETATM    4  S7  UNL     1     -32.997   4.952   2.883  1.00 20.00    -0.149 SA
ENDROOT
BRANCH   2   5
HETATM    5  C1  UNL     1     -33.264   7.132   4.459  1.00 20.00     0.142 C 
HETATM    6  C4  UNL     1     -33.607   7.365   5.905  1.00 20.00     0.092 C 
HETATM    7  O6  UNL     1     -32.400   7.795   3.886  1.00 20.00    -0.297 OA
ENDBRANCH   2   5
TORSDOF 1
ENDMDL
MODEL 5
REMARK VINA RESULT:      -3.9      1.368      1.374
REMARK  1 active torsions:
REMARK  status: ('A' for Active; 'I' for Inactive)
REMARK    1  A    between atoms: C1_1  and  C3_3 
ROOT
HETATM    1  C2  UNL     1     -35.234   6.020   3.811  1.00 20.00     0.103 A 
HETATM    2  C3  UNL     1     -33.988   6.511   4.504  1.00 20.00     0.073 A 
HETATM    3  C5  UNL     1     -34.100   6.882   5.959  1.00 20.00     0.036 C 
HETATM    4  S7  UNL     1     -34.068   4.804   4.153  1.00 20.00    -0.149 SA
ENDROOT
BRANCH   2   5
HETATM    5  C1  UNL     1     -32.998   7.241   3.685  1.00 20.00     0.142 C 
HETATM    6  C4  UNL     1     -33.179   7.182   2.192  1.00 20.00     0.092 C 
HETATM    7  O6  UNL     1     -32.072   7.869   4.197  1.00 20.00    -0.297 OA
ENDBRANCH   2   5
TORSDOF 1
ENDMDL
MODEL 6
REMARK VINA RESULT:      -3.9      2.383      3.228
REMARK  1 active torsions:
REMARK  status: ('A' for Active; 'I' for Inactive)
REMARK    1  A    between atoms: C1_1  and  C3_3 
ROOT
HETATM    1  C2  UNL     1     -33.737   7.791   2.785  1.00 20.00     0.103 A 
HETATM    2  C3  UNL     1     -33.468   6.549   3.598  1.00 20.00     0.073 A 
HETATM    3  C5  UNL     1     -33.382   5.239   2.861  1.00 20.00     0.036 C 
HETATM    4  S7  UNL     1     -32.124   7.637   3.360  1.00 20.00    -0.149 SA
ENDROOT
BRANCH   2   5
HETATM    5  C1  UNL     1     -33.973   6.523   4.986  1.00 20.00     0.142 C 
HETATM    6  C4  UNL     1     -34.604   5.239   5.454  1.00 20.00     0.092 C 
HETATM    7  O6  UNL     1     -33.882   7.503   5.726  1.00 20.00    -0.297 OA
ENDBRANCH   2   5
TORSDOF 1
ENDMDL
MODEL 7
REMARK VINA RESULT:      -3.8      1.267      1.637
REMARK  1 active torsions:
REMARK  status: ('A' for Active; 'I' for Inactive)
REMARK    1  A    between atoms: C1_1  and  C3_3 
ROOT
HETATM    1  C2  UNL     1     -34.488   4.759   5.154  1.00 20.00     0.103 A 
HETATM    2  C3  UNL     1     -34.490   5.777   4.042  1.00 20.00     0.073 A 
HETATM    3  C5  UNL     1     -35.825   6.199   3.487  1.00 20.00     0.036 C 
HETATM    4  S7  UNL     1     -34.120   6.365   5.642  1.00 20.00    -0.149 SA
ENDROOT
BRANCH   2   5
HETATM    5  C1  UNL     1     -33.333   5.783   3.123  1.00 20.00     0.142 C 
HETATM    6  C4  UNL     1     -32.769   7.128   2.753  1.00 20.00     0.092 C 
HETATM    7  O6  UNL     1     -32.852   4.739   2.683  1.00 20.00    -0.297 OA
ENDBRANCH   2   5
TORSDOF 1
ENDMDL
MODEL 8
REMARK VINA RESULT:      -3.7     12.013     12.304
REMARK  1 active torsions:
REMARK  status: ('A' for Active; 'I' for Inactive)
REMARK    1  A    between atoms: C1_1  and  C3_3 
ROOT
HETATM    1  C2  UNL     1     -33.170  14.389  -4.437  1.00 20.00     0.103 A 
HETATM    2  C3  UNL     1     -34.574  14.924  -4.300  1.00 20.00     0.073 A 
HETATM    3  C5  UNL     1     -34.853  15.862  -3.155  1.00 20.00     0.036 C 
HETATM    4  S7  UNL     1     -33.608  15.582  -5.595  1.00 20.00    -0.149 SA
ENDROOT
BRANCH   2   5
HETATM    5  C1  UNL     1     -35.679  14.059  -4.762  1.00 20.00     0.142 C 
HETATM    6  C4  UNL     1     -37.051  14.676  -4.801  1.00 20.00     0.092 C 
HETATM    7  O6  UNL     1     -35.488  12.892  -5.101  1.00 20.00    -0.297 OA
ENDBRANCH   2   5
TORSDOF 1
ENDMDL
MODEL 9
REMARK VINA RESULT:      -3.7      1.729      2.643
REMARK  1 active torsions:
REMARK  status: ('A' for Active; 'I' for Inactive)
REMARK    1  A    between atoms: C1_1  and  C3_3 
ROOT
HETATM    1  C2  UNL     1     -32.115   7.463   3.306  1.00 20.00     0.103 A 
HETATM    2  C3  UNL     1     -33.328   6.845   3.955  1.00 20.00     0.073 A 
HETATM    3  C5  UNL     1     -33.698   7.322   5.335  1.00 20.00     0.036 C 
HETATM    4  S7  UNL     1     -33.623   7.980   2.662  1.00 20.00    -0.149 SA
ENDROOT
BRANCH   2   5
HETATM    5  C1  UNL     1     -33.649   5.446   3.604  1.00 20.00     0.142 C 
HETATM    6  C4  UNL     1     -34.690   4.758   4.444  1.00 20.00     0.092 C 
HETATM    7  O6  UNL     1     -33.094   4.872   2.668  1.00 20.00    -0.297 OA
ENDBRANCH   2   5
TORSDOF 1
ENDMDL
