MODEL 1
REMARK VINA RESULT:      -5.3      0.000      0.000
REMARK  1 active torsions:
REMARK  status: ('A' for Active; 'I' for Inactive)
REMARK    1  A    between atoms: C2_2  and  C3_3 
ROOT
HETATM    1  C1  UNL     1     -32.971   7.285   4.019  1.00 20.00     0.050 C 
HETATM    2  C2  UNL     1     -33.794   6.613   4.828  1.00 20.00     0.082 C 
HETATM    3  C4  UNL     1     -32.921   7.145   2.533  1.00 20.00     0.071 C 
HETATM    4  C5  UNL     1     -31.389   8.731   3.352  1.00 20.00     0.179 C 
HETATM    5  C6  UNL     1     -32.297   8.474   2.162  1.00 20.00     0.012 C 
HETATM    6  C8  UNL     1     -31.568   8.466   0.831  1.00 20.00     0.012 C 
HETATM    7  O10 UNL     1     -32.102   8.255   4.505  1.00 20.00    -0.355 OA
ENDROOT
BRANCH   2   8
HETATM    8  C3  UNL     1     -34.764   5.628   4.280  1.00 20.00     0.147 C 
HETATM    9  C7  UNL     1     -34.424   4.172   4.458  1.00 20.00     0.096 C 
HETATM   10  O9  UNL     1     -35.807   5.973   3.730  1.00 20.00    -0.294 OA
ENDBRANCH   2   8
TORSDOF 1
ENDMDL
MODEL 2
REMARK VINA RESULT:      -5.0      1.378      4.569
REMARK  1 active torsions:
REMARK  status: ('A' for Active; 'I' for Inactive)
REMARK    1  A    between atoms: C2_2  and  C3_3 
ROOT
HETATM    1  C1  UNL     1     -33.089   6.628   2.796  1.00 20.00     0.050 C 
HETATM    2  C2  UNL     1     -32.510   7.383   1.859  1.00 20.00     0.082 C 
HETATM    3  C4  UNL     1     -33.439   7.084   4.175  1.00 20.00     0.071 C 
HETATM    4  C5  UNL     1     -34.046   4.846   3.771  1.00 20.00     0.179 C 
HETATM    5  C6  UNL     1     -34.520   6.080   4.520  1.00 20.00     0.012 C 
HETATM    6  C8  UNL     1     -34.704   5.857   6.009  1.00 20.00     0.012 C 
HETATM    7  O10 UNL     1     -33.488   5.322   2.536  1.00 20.00    -0.355 OA
ENDROOT
BRANCH   2   8
HETATM    8  C3  UNL     1     -32.153   8.800   2.138  1.00 20.00     0.147 C 
HETATM    9  C7  UNL     1     -32.718   9.836   1.201  1.00 20.00     0.096 C 
HETATM   10  O9  UNL     1     -31.455   9.123   3.095  1.00 20.00    -0.294 OA
ENDBRANCH   2   8
TORSDOF 1
ENDMDL
MODEL 3
REMARK VINA RESULT:      -4.9      1.576      4.293
REMARK  1 active torsions:
REMARK  status: ('A' for Active; 'I' for Inactive)
REMARK    1  A    between atoms: C2_2  and  C3_3 
ROOT
HETATM    1  C1  UNL     1     -32.599   8.055   3.534  1.00 20.00     0.050 C 
HETATM    2  C2  UNL     1     -31.751   8.834   2.857  1.00 20.00     0.082 C 
HETATM    3  C4  UNL     1     -33.713   7.265   2.928  1.00 20.00     0.071 C 
HETATM    4  C5  UNL     1     -33.557   6.985   5.259  1.00 20.00     0.179 C 
HETATM    5  C6  UNL     1     -33.902   6.210   3.999  1.00 20.00     0.012 C 
HETATM    6  C8  UNL     1     -35.289   5.595   4.022  1.00 20.00     0.012 C 
HETATM    7  O10 UNL     1     -32.472   7.857   4.903  1.00 20.00    -0.355 OA
ENDROOT
BRANCH   2   8
HETATM    8  C3  UNL     1     -31.863   8.979   1.381  1.00 20.00     0.147 C 
HETATM    9  C7  UNL     1     -32.770  10.070   0.875  1.00 20.00     0.096 C 
HETATM   10  O9  UNL     1     -31.232   8.266   0.604  1.00 20.00    -0.294 OA
ENDBRANCH   2   8
TORSDOF 1
ENDMDL
MODEL 4
REMARK VINA RESULT:      -4.4     11.347     12.011
REMARK  1 active torsions:
REMARK  status: ('A' for Active; 'I' for Inactive)
REMARK    1  A    between atoms: C2_2  and  C3_3 
ROOT
HETATM    1  C1  UNL     1     -34.789  15.775  -4.968  1.00 20.00     0.050 C 
HETATM    2  C2  UNL     1     -35.335  14.939  -5.855  1.00 20.00     0.082 C 
HETATM    3  C4  UNL     1     -35.043  15.755  -3.496  1.00 20.00     0.071 C 
HETATM    4  C5  UNL     1     -33.521  17.430  -4.137  1.00 20.00     0.179 C 
HETATM    5  C6  UNL     1     -33.796  16.459  -3.003  1.00 20.00     0.012 C 
HETATM    6  C8  UNL     1     -33.959  17.130  -1.652  1.00 20.00     0.012 C 
HETATM    7  O10 UNL     1     -33.855  16.732  -5.347  1.00 20.00    -0.355 OA
ENDROOT
BRANCH   2   8
HETATM    8  C3  UNL     1     -36.282  13.878  -5.418  1.00 20.00     0.147 C 
HETATM    9  C7  UNL     1     -37.731  14.271  -5.303  1.00 20.00     0.096 C 
HETATM   10  O9  UNL     1     -35.915  12.729  -5.185  1.00 20.00    -0.294 OA
ENDBRANCH   2   8
TORSDOF 1
ENDMDL
MODEL 5
REMARK VINA RESULT:      -4.2     10.974     12.027
REMARK  1 active torsions:
REMARK  status: ('A' for Active; 'I' for Inactive)
REMARK    1  A    between atoms: C2_2  and  C3_3 
ROOT
HETATM    1  C1  UNL     1     -33.558  16.842  -3.918  1.00 20.00     0.050 C 
HETATM    2  C2  UNL     1     -33.529  15.913  -4.877  1.00 20.00     0.082 C 
HETATM    3  C4  UNL     1     -33.853  16.583  -2.476  1.00 20.00     0.071 C 
HETATM    4  C5  UNL     1     -33.399  18.848  -2.922  1.00 20.00     0.179 C 
HETATM    5  C6  UNL     1     -33.193  17.793  -1.849  1.00 20.00     0.012 C 
HETATM    6  C8  UNL     1     -33.766  18.178  -0.498  1.00 20.00     0.012 C 
HETATM    7  O10 UNL     1     -33.242  18.170  -4.179  1.00 20.00    -0.355 OA
ENDROOT
BRANCH   2   8
HETATM    8  C3  UNL     1     -33.804  14.486  -4.563  1.00 20.00     0.147 C 
HETATM    9  C7  UNL     1     -35.238  14.036  -4.658  1.00 20.00     0.096 C 
HETATM   10  O9  UNL     1     -32.910  13.697  -4.265  1.00 20.00    -0.294 OA
ENDBRANCH   2   8
TORSDOF 1
ENDMDL
MODEL 6
REMARK VINA RESULT:      -4.2     11.164     11.937
REMARK  1 active torsions:
REMARK  status: ('A' for Active; 'I' for Inactive)
REMARK    1  A    between atoms: C2_2  and  C3_3 
ROOT
HETATM    1  C1  UNL     1     -35.149  14.409  -5.143  1.00 20.00     0.050 C 
HETATM    2  C2  UNL     1     -36.139  13.806  -5.808  1.00 20.00     0.082 C 
HETATM    3  C4  UNL     1     -35.296  15.638  -4.307  1.00 20.00     0.071 C 
HETATM    4  C5  UNL     1     -33.095  14.808  -4.330  1.00 20.00     0.179 C 
HETATM    5  C6  UNL     1     -34.088  15.492  -3.406  1.00 20.00     0.012 C 
HETATM    6  C8  UNL     1     -33.583  16.803  -2.832  1.00 20.00     0.012 C 
HETATM    7  O10 UNL     1     -33.861  13.887  -5.123  1.00 20.00    -0.355 OA
ENDROOT
BRANCH   2   8
HETATM    8  C3  UNL     1     -37.525  14.344  -5.761  1.00 20.00     0.147 C 
HETATM    9  C7  UNL     1     -37.899  15.341  -6.826  1.00 20.00     0.096 C 
HETATM   10  O9  UNL     1     -38.339  13.981  -4.916  1.00 20.00    -0.294 OA
ENDBRANCH   2   8
TORSDOF 1
ENDMDL
MODEL 7
REMARK VINA RESULT:      -4.1     11.232     11.808
REMARK  1 active torsions:
REMARK  status: ('A' for Active; 'I' for Inactive)
REMARK    1  A    between atoms: C2_2  and  C3_3 
ROOT
HETATM    1  C1  UNL     1     -34.774  16.188  -2.776  1.00 20.00     0.050 C 
HETATM    2  C2  UNL     1     -34.886  15.371  -3.827  1.00 20.00     0.082 C 
HETATM    3  C4  UNL     1     -33.495  16.776  -2.275  1.00 20.00     0.071 C 
HETATM    4  C5  UNL     1     -35.367  17.463  -1.026  1.00 20.00     0.179 C 
HETATM    5  C6  UNL     1     -34.031  17.982  -1.531  1.00 20.00     0.012 C 
HETATM    6  C8  UNL     1     -33.117  18.484  -0.429  1.00 20.00     0.012 C 
HETATM    7  O10 UNL     1     -35.888  16.628  -2.072  1.00 20.00    -0.355 OA
ENDROOT
BRANCH   2   8
HETATM    8  C3  UNL     1     -33.686  14.967  -4.609  1.00 20.00     0.147 C 
HETATM    9  C7  UNL     1     -33.251  15.899  -5.709  1.00 20.00     0.096 C 
HETATM   10  O9  UNL     1     -33.059  13.940  -4.361  1.00 20.00    -0.294 OA
ENDBRANCH   2   8
TORSDOF 1
ENDMDL
MODEL 8
REMARK VINA RESULT:      -4.1     11.039     11.889
REMARK  1 active torsions:
REMARK  status: ('A' for Active; 'I' for Inactive)
REMARK    1  A    between atoms: C2_2  and  C3_3 
ROOT
HETATM    1  C1  UNL     1     -34.568  16.622  -2.249  1.00 20.00     0.050 C 
HETATM    2  C2  UNL     1     -34.760  15.946  -3.384  1.00 20.00     0.082 C 
HETATM    3  C4  UNL     1     -33.292  17.289  -1.849  1.00 20.00     0.071 C 
HETATM    4  C5  UNL     1     -35.005  17.567  -0.260  1.00 20.00     0.179 C 
HETATM    5  C6  UNL     1     -33.823  18.308  -0.863  1.00 20.00     0.012 C 
HETATM    6  C8  UNL     1     -32.803  18.766   0.163  1.00 20.00     0.012 C 
HETATM    7  O10 UNL     1     -35.597  16.823  -1.337  1.00 20.00    -0.355 OA
ENDROOT
BRANCH   2   8
HETATM    8  C3  UNL     1     -33.664  15.800  -4.379  1.00 20.00     0.147 C 
HETATM    9  C7  UNL     1     -32.927  14.487  -4.385  1.00 20.00     0.096 C 
HETATM   10  O9  UNL     1     -33.382  16.690  -5.178  1.00 20.00    -0.294 OA
ENDBRANCH   2   8
TORSDOF 1
ENDMDL
MODEL 9
REMARK VINA RESULT:      -4.1     11.260     12.111
REMARK  1 active torsions:
REMARK  status: ('A' for Active; 'I' for Inactive)
REMARK    1  A    between atoms: C2_2  and  C3_3 
ROOT
HETATM    1  C1  UNL     1     -36.080  15.702  -4.557  1.00 20.00     0.050 C 
HETATM    2  C2  UNL     1     -36.429  14.894  -5.561  1.00 20.00     0.082 C 
HETATM    3  C4  UNL     1     -34.929  15.475  -3.631  1.00 20.00     0.071 C 
HETATM    4  C5  UNL     1     -36.097  17.465  -3.167  1.00 20.00     0.179 C 
HETATM    5  C6  UNL     1     -34.689  16.893  -3.155  1.00 20.00     0.012 C 
HETATM    6  C8  UNL     1     -34.007  16.984  -1.803  1.00 20.00     0.012 C 
HETATM    7  O10 UNL     1     -36.744  16.898  -4.318  1.00 20.00    -0.355 OA
ENDROOT
BRANCH   2   8
HETATM    8  C3  UNL     1     -35.662  13.651  -5.842  1.00 20.00     0.147 C 
HETATM    9  C7  UNL     1     -34.613  13.733  -6.920  1.00 20.00     0.096 C 
HETATM   10  O9  UNL     1     -35.848  12.611  -5.214  1.00 20.00    -0.294 OA
ENDBRANCH   2   8
TORSDOF 1
ENDMDL
