MODEL 1
REMARK VINA RESULT:      -5.0      0.000      0.000
REMARK  2 active torsions:
REMARK  status: ('A' for Active; 'I' for Inactive)
REMARK    1  A    between atoms: C2_2  and  C3_3 
REMARK    2  A    between atoms: C4_4  and  C5_5 
ROOT
HETATM    1  C1  UNL     1     -32.752   9.388   0.189  1.00 20.00     0.087 C 
HETATM    2  C2  UNL     1     -32.035   9.487   1.412  1.00 20.00     0.093 C 
HETATM    3  N8  UNL     1     -33.336   9.311  -0.810  1.00 20.00    -0.192 NA
ENDROOT
BRANCH   2   4
HETATM    4  C3  UNL     1     -32.012   8.477   2.293  1.00 20.00     0.012 C 
HETATM    5  C4  UNL     1     -33.136   7.592   2.506  1.00 20.00     0.017 C 
BRANCH   5   6
HETATM    6  C5  UNL     1     -33.118   6.583   3.385  1.00 20.00     0.084 C 
HETATM    7  N9  UNL     1     -33.902   6.431   4.484  1.00 20.00    -0.398 N 
HETATM    8  C6  UNL     1     -34.786   5.278   4.640  1.00 20.00     0.148 C 
HETATM    9  C7  UNL     1     -33.729   7.264   5.672  1.00 20.00     0.148 C 
ENDBRANCH   5   6
ENDBRANCH   2   4
TORSDOF 2
ENDMDL
MODEL 2
REMARK VINA RESULT:      -4.6      1.285      1.867
REMARK  2 active torsions:
REMARK  status: ('A' for Active; 'I' for Inactive)
REMARK    1  A    between atoms: C2_2  and  C3_3 
REMARK    2  A    between atoms: C4_4  and  C5_5 
ROOT
HETATM    1  C1  UNL     1     -32.149   9.163   1.449  1.00 20.00     0.087 C 
HETATM    2  C2  UNL     1     -31.769   8.163   2.386  1.00 20.00     0.093 C 
HETATM    3  N8  UNL     1     -32.454   9.978   0.683  1.00 20.00    -0.192 NA
ENDROOT
BRANCH   2   4
HETATM    4  C3  UNL     1     -32.666   7.595   3.204  1.00 20.00     0.012 C 
HETATM    5  C4  UNL     1     -33.693   6.689   2.738  1.00 20.00     0.017 C 
BRANCH   5   6
HETATM    6  C5  UNL     1     -34.592   6.120   3.551  1.00 20.00     0.084 C 
HETATM    7  N9  UNL     1     -34.361   5.199   4.522  1.00 20.00    -0.398 N 
HETATM    8  C6  UNL     1     -34.692   5.461   5.921  1.00 20.00     0.148 C 
HETATM    9  C7  UNL     1     -34.006   3.818   4.202  1.00 20.00     0.148 C 
ENDBRANCH   5   6
ENDBRANCH   2   4
TORSDOF 2
ENDMDL
MODEL 3
REMARK VINA RESULT:      -4.5      1.565      5.097
REMARK  2 active torsions:
REMARK  status: ('A' for Active; 'I' for Inactive)
REMARK    1  A    between atoms: C2_2  and  C3_3 
REMARK    2  A    between atoms: C4_4  and  C5_5 
ROOT
HETATM    1  C1  UNL     1     -34.404   5.257   4.635  1.00 20.00     0.087 C 
HETATM    2  C2  UNL     1     -34.023   5.539   3.295  1.00 20.00     0.093 C 
HETATM    3  N8  UNL     1     -34.714   5.024   5.728  1.00 20.00    -0.192 NA
ENDROOT
BRANCH   2   4
HETATM    4  C3  UNL     1     -33.667   6.773   2.913  1.00 20.00     0.012 C 
HETATM    5  C4  UNL     1     -32.330   7.296   3.090  1.00 20.00     0.017 C 
BRANCH   5   6
HETATM    6  C5  UNL     1     -31.970   8.529   2.712  1.00 20.00     0.084 C 
HETATM    7  N9  UNL     1     -32.121   9.094   1.486  1.00 20.00    -0.398 N 
HETATM    8  C6  UNL     1     -32.909  10.309   1.295  1.00 20.00     0.148 C 
HETATM    9  C7  UNL     1     -31.314   8.675   0.342  1.00 20.00     0.148 C 
ENDBRANCH   5   6
ENDBRANCH   2   4
TORSDOF 2
ENDMDL
MODEL 4
REMARK VINA RESULT:      -3.7     10.127     10.846
REMARK  2 active torsions:
REMARK  status: ('A' for Active; 'I' for Inactive)
REMARK    1  A    between atoms: C2_2  and  C3_3 
REMARK    2  A    between atoms: C4_4  and  C5_5 
ROOT
HETATM    1  C1  UNL     1     -32.312  18.120  -0.653  1.00 20.00     0.087 C 
HETATM    2  C2  UNL     1     -33.613  17.750  -1.091  1.00 20.00     0.093 C 
HETATM    3  N8  UNL     1     -31.252  18.422  -0.291  1.00 20.00    -0.192 NA
ENDROOT
BRANCH   2   4
HETATM    4  C3  UNL     1     -33.824  17.265  -2.323  1.00 20.00     0.012 C 
HETATM    5  C4  UNL     1     -34.897  16.347  -2.633  1.00 20.00     0.017 C 
BRANCH   5   6
HETATM    6  C5  UNL     1     -35.111  15.859  -3.862  1.00 20.00     0.084 C 
HETATM    7  N9  UNL     1     -34.690  14.668  -4.363  1.00 20.00    -0.398 N 
HETATM    8  C6  UNL     1     -35.633  13.663  -4.845  1.00 20.00     0.148 C 
HETATM    9  C7  UNL     1     -33.284  14.424  -4.679  1.00 20.00     0.148 C 
ENDBRANCH   5   6
ENDBRANCH   2   4
TORSDOF 2
ENDMDL
MODEL 5
REMARK VINA RESULT:      -3.7      9.915     10.552
REMARK  2 active torsions:
REMARK  status: ('A' for Active; 'I' for Inactive)
REMARK    1  A    between atoms: C2_2  and  C3_3 
REMARK    2  A    between atoms: C4_4  and  C5_5 
ROOT
HETATM    1  C1  UNL     1     -35.237  13.665  -4.744  1.00 20.00     0.087 C 
HETATM    2  C2  UNL     1     -34.253  14.493  -4.139  1.00 20.00     0.093 C 
HETATM    3  N8  UNL     1     -36.037  12.986  -5.239  1.00 20.00    -0.192 NA
ENDROOT
BRANCH   2   4
HETATM    4  C3  UNL     1     -34.586  15.628  -3.508  1.00 20.00     0.012 C 
HETATM    5  C4  UNL     1     -33.617  16.477  -2.853  1.00 20.00     0.017 C 
BRANCH   5   6
HETATM    6  C5  UNL     1     -33.944  17.611  -2.220  1.00 20.00     0.084 C 
HETATM    7  N9  UNL     1     -34.258  17.762  -0.907  1.00 20.00    -0.398 N 
HETATM    8  C6  UNL     1     -33.478  18.630  -0.028  1.00 20.00     0.148 C 
HETATM    9  C7  UNL     1     -35.521  17.272  -0.358  1.00 20.00     0.148 C 
ENDBRANCH   5   6
ENDBRANCH   2   4
TORSDOF 2
ENDMDL
MODEL 6
REMARK VINA RESULT:      -3.7      9.936     11.185
REMARK  2 active torsions:
REMARK  status: ('A' for Active; 'I' for Inactive)
REMARK    1  A    between atoms: C2_2  and  C3_3 
REMARK    2  A    between atoms: C4_4  and  C5_5 
ROOT
HETATM    1  C1  UNL     1     -32.208  18.494  -0.119  1.00 20.00     0.087 C 
HETATM    2  C2  UNL     1     -33.628  18.511  -0.188  1.00 20.00     0.093 C 
HETATM    3  N8  UNL     1     -31.050  18.482  -0.058  1.00 20.00    -0.192 NA
ENDROOT
BRANCH   2   4
HETATM    4  C3  UNL     1     -34.294  17.739  -1.059  1.00 20.00     0.012 C 
HETATM    5  C4  UNL     1     -33.651  17.063  -2.163  1.00 20.00     0.017 C 
BRANCH   5   6
HETATM    6  C5  UNL     1     -34.312  16.292  -3.036  1.00 20.00     0.084 C 
HETATM    7  N9  UNL     1     -33.793  15.594  -4.079  1.00 20.00    -0.398 N 
HETATM    8  C6  UNL     1     -33.925  14.141  -4.170  1.00 20.00     0.148 C 
HETATM    9  C7  UNL     1     -33.298  16.262  -5.280  1.00 20.00     0.148 C 
ENDBRANCH   5   6
ENDBRANCH   2   4
TORSDOF 2
ENDMDL
MODEL 7
REMARK VINA RESULT:      -3.6     10.435     11.252
REMARK  2 active torsions:
REMARK  status: ('A' for Active; 'I' for Inactive)
REMARK    1  A    between atoms: C2_2  and  C3_3 
REMARK    2  A    between atoms: C4_4  and  C5_5 
ROOT
HETATM    1  C1  UNL     1     -33.128  17.767  -1.512  1.00 20.00     0.087 C 
HETATM    2  C2  UNL     1     -34.231  16.914  -1.789  1.00 20.00     0.093 C 
HETATM    3  N8  UNL     1     -32.228  18.461  -1.281  1.00 20.00    -0.192 NA
ENDROOT
BRANCH   2   4
HETATM    4  C3  UNL     1     -34.501  16.503  -3.036  1.00 20.00     0.012 C 
HETATM    5  C4  UNL     1     -33.673  15.555  -3.748  1.00 20.00     0.017 C 
BRANCH   5   6
HETATM    6  C5  UNL     1     -33.937  15.141  -4.994  1.00 20.00     0.084 C 
HETATM    7  N9  UNL     1     -35.145  14.795  -5.510  1.00 20.00    -0.398 N 
HETATM    8  C6  UNL     1     -35.719  15.500  -6.654  1.00 20.00     0.148 C 
HETATM    9  C7  UNL     1     -35.820  13.559  -5.122  1.00 20.00     0.148 C 
ENDBRANCH   5   6
ENDBRANCH   2   4
TORSDOF 2
ENDMDL
MODEL 8
REMARK VINA RESULT:      -3.5     10.427     11.087
REMARK  2 active torsions:
REMARK  status: ('A' for Active; 'I' for Inactive)
REMARK    1  A    between atoms: C2_2  and  C3_3 
REMARK    2  A    between atoms: C4_4  and  C5_5 
ROOT
HETATM    1  C1  UNL     1     -33.134  17.944  -1.437  1.00 20.00     0.087 C 
HETATM    2  C2  UNL     1     -34.233  17.043  -1.428  1.00 20.00     0.093 C 
HETATM    3  N8  UNL     1     -32.236  18.678  -1.441  1.00 20.00    -0.192 NA
ENDROOT
BRANCH   2   4
HETATM    4  C3  UNL     1     -35.056  16.932  -2.480  1.00 20.00     0.012 C 
HETATM    5  C4  UNL     1     -35.064  15.780  -3.354  1.00 20.00     0.017 C 
BRANCH   5   6
HETATM    6  C5  UNL     1     -35.883  15.665  -4.407  1.00 20.00     0.084 C 
HETATM    7  N9  UNL     1     -36.613  14.578  -4.771  1.00 20.00    -0.398 N 
HETATM    8  C6  UNL     1     -38.070  14.630  -4.865  1.00 20.00     0.148 C 
HETATM    9  C7  UNL     1     -35.983  13.382  -5.325  1.00 20.00     0.148 C 
ENDBRANCH   5   6
ENDBRANCH   2   4
TORSDOF 2
ENDMDL
MODEL 9
REMARK VINA RESULT:      -3.5     10.148     10.999
REMARK  2 active torsions:
REMARK  status: ('A' for Active; 'I' for Inactive)
REMARK    1  A    between atoms: C2_2  and  C3_3 
REMARK    2  A    between atoms: C4_4  and  C5_5 
ROOT
HETATM    1  C1  UNL     1     -34.642  17.044  -1.509  1.00 20.00     0.087 C 
HETATM    2  C2  UNL     1     -33.688  16.942  -2.558  1.00 20.00     0.093 C 
HETATM    3  N8  UNL     1     -35.419  17.131  -0.653  1.00 20.00    -0.192 NA
ENDROOT
BRANCH   2   4
HETATM    4  C3  UNL     1     -33.698  15.912  -3.415  1.00 20.00     0.012 C 
HETATM    5  C4  UNL     1     -34.888  15.143  -3.706  1.00 20.00     0.017 C 
BRANCH   5   6
HETATM    6  C5  UNL     1     -34.903  14.112  -4.560  1.00 20.00     0.084 C 
HETATM    7  N9  UNL     1     -35.352  14.109  -5.842  1.00 20.00    -0.398 N 
HETATM    8  C6  UNL     1     -34.473  13.775  -6.961  1.00 20.00     0.148 C 
HETATM    9  C7  UNL     1     -36.777  14.192  -6.157  1.00 20.00     0.148 C 
ENDBRANCH   5   6
ENDBRANCH   2   4
TORSDOF 2
ENDMDL
