MODEL 1
REMARK VINA RESULT:      -6.2      0.000      0.000
REMARK  5 active torsions:
REMARK  status: ('A' for Active; 'I' for Inactive)
REMARK    1  A    between atoms: C1_1  and  C7_7 
REMARK    2  A    between atoms: C2_2  and  C9_9 
REMARK    3  A    between atoms: C4_4  and  C8_8 
REMARK    4  A    between atoms: C8_8  and  C9_9 
REMARK    5  A    between atoms: C9_9  and  O10_10 
ROOT
HETATM    1  C9  UNL     1     -31.921   8.026   2.432  1.00 20.00     0.200 C 
ENDROOT
BRANCH   1   2
HETATM    2  C2  UNL     1     -32.949   7.153   3.018  1.00 20.00    -0.074 C 
HETATM    3  C1  UNL     1     -33.788   6.439   3.497  1.00 20.00    -0.099 C 
BRANCH   3   4
HETATM    4  C7  UNL     1     -34.794   5.583   4.071  1.00 20.00     0.065 A 
HETATM    5  C5  UNL     1     -34.704   5.246   5.531  1.00 20.00     0.018 A 
HETATM    6  C6  UNL     1     -34.401   4.200   4.502  1.00 20.00     0.018 A 
ENDBRANCH   3   4
ENDBRANCH   1   2
BRANCH   1   7
HETATM    7  C8  UNL     1     -32.559   9.286   1.835  1.00 20.00     0.071 C 
BRANCH   7   8
HETATM    8  C4  UNL     1     -32.267   9.417   0.367  1.00 20.00    -0.033 C 
HETATM    9  C3  UNL     1     -33.202   9.368  -0.589  1.00 20.00     0.007 C 
ENDBRANCH   7   8
ENDBRANCH   1   7
BRANCH   1  10
HETATM   10  O10 UNL     1     -30.997   8.418   3.445  1.00 20.00    -0.383 OA
HETATM   11  H22 UNL     1     -30.825   7.628   3.980  1.00 20.00     0.211 HD
ENDBRANCH   1  10
TORSDOF 5
ENDMDL
MODEL 2
REMARK VINA RESULT:      -6.1      1.720      5.201
REMARK  5 active torsions:
REMARK  status: ('A' for Active; 'I' for Inactive)
REMARK    1  A    between atoms: C1_1  and  C7_7 
REMARK    2  A    between atoms: C2_2  and  C9_9 
REMARK    3  A    between atoms: C4_4  and  C8_8 
REMARK    4  A    between atoms: C8_8  and  C9_9 
REMARK    5  A    between atoms: C9_9  and  O10_10 
ROOT
HETATM    1  C9  UNL     1     -33.049   5.944   3.317  1.00 20.00     0.200 C 
ENDROOT
BRANCH   1   2
HETATM    2  C2  UNL     1     -32.676   7.111   2.503  1.00 20.00    -0.074 C 
HETATM    3  C1  UNL     1     -32.371   8.064   1.840  1.00 20.00    -0.099 C 
BRANCH   3   4
HETATM    4  C7  UNL     1     -32.006   9.207   1.044  1.00 20.00     0.065 A 
HETATM    5  C5  UNL     1     -32.830  10.457   1.158  1.00 20.00     0.018 A 
HETATM    6  C6  UNL     1     -32.910   9.619  -0.082  1.00 20.00     0.018 A 
ENDBRANCH   3   4
ENDBRANCH   1   2
BRANCH   1   7
HETATM    7  C8  UNL     1     -34.465   6.110   3.881  1.00 20.00     0.071 C 
BRANCH   7   8
HETATM    8  C4  UNL     1     -34.453   6.298   5.372  1.00 20.00    -0.033 C 
HETATM    9  C3  UNL     1     -33.748   7.244   6.002  1.00 20.00     0.007 C 
ENDBRANCH   7   8
ENDBRANCH   1   7
BRANCH   1  10
HETATM   10  O10 UNL     1     -33.015   4.770   2.507  1.00 20.00    -0.383 OA
HETATM   11  H22 UNL     1     -33.566   4.110   2.956  1.00 20.00     0.211 HD
ENDBRANCH   1  10
TORSDOF 5
ENDMDL
MODEL 3
REMARK VINA RESULT:      -5.5      1.149      5.395
REMARK  5 active torsions:
REMARK  status: ('A' for Active; 'I' for Inactive)
REMARK    1  A    between atoms: C1_1  and  C7_7 
REMARK    2  A    between atoms: C2_2  and  C9_9 
REMARK    3  A    between atoms: C4_4  and  C8_8 
REMARK    4  A    between atoms: C8_8  and  C9_9 
REMARK    5  A    between atoms: C9_9  and  O10_10 
ROOT
HETATM    1  C9  UNL     1     -33.661   6.973   3.969  1.00 20.00     0.200 C 
ENDROOT
BRANCH   1   2
HETATM    2  C2  UNL     1     -33.067   7.725   2.853  1.00 20.00    -0.074 C 
HETATM    3  C1  UNL     1     -32.580   8.339   1.943  1.00 20.00    -0.099 C 
BRANCH   3   4
HETATM    4  C7  UNL     1     -31.998   9.076   0.852  1.00 20.00     0.065 A 
HETATM    5  C5  UNL     1     -32.410  10.505   0.648  1.00 20.00     0.018 A 
HETATM    6  C6  UNL     1     -32.871   9.449  -0.311  1.00 20.00     0.018 A 
ENDBRANCH   3   4
ENDBRANCH   1   2
BRANCH   1   7
HETATM    7  C8  UNL     1     -33.606   5.466   3.693  1.00 20.00     0.071 C 
BRANCH   7   8
HETATM    8  C4  UNL     1     -34.585   4.707   4.545  1.00 20.00    -0.033 C 
HETATM    9  C3  UNL     1     -34.708   4.867   5.867  1.00 20.00     0.007 C 
ENDBRANCH   7   8
ENDBRANCH   1   7
BRANCH   1  10
HETATM   10  O10 UNL     1     -32.933   7.245   5.165  1.00 20.00    -0.383 OA
HETATM   11  H22 UNL     1     -33.127   6.517   5.776  1.00 20.00     0.211 HD
ENDBRANCH   1  10
TORSDOF 5
ENDMDL
MODEL 4
REMARK VINA RESULT:      -4.4     10.892     11.620
REMARK  5 active torsions:
REMARK  status: ('A' for Active; 'I' for Inactive)
REMARK    1  A    between atoms: C1_1  and  C7_7 
REMARK    2  A    between atoms: C2_2  and  C9_9 
REMARK    3  A    between atoms: C4_4  and  C8_8 
REMARK    4  A    between atoms: C8_8  and  C9_9 
REMARK    5  A    between atoms: C9_9  and  O10_10 
ROOT
HETATM    1  C9  UNL     1     -36.267  13.942  -5.180  1.00 20.00     0.200 C 
ENDROOT
BRANCH   1   2
HETATM    2  C2  UNL     1     -35.349  14.784  -4.399  1.00 20.00    -0.074 C 
HETATM    3  C1  UNL     1     -34.598  15.472  -3.762  1.00 20.00    -0.099 C 
BRANCH   3   4
HETATM    4  C7  UNL     1     -33.698  16.296  -2.998  1.00 20.00     0.065 A 
HETATM    5  C5  UNL     1     -34.224  16.995  -1.777  1.00 20.00     0.018 A 
HETATM    6  C6  UNL     1     -33.900  17.784  -3.009  1.00 20.00     0.018 A 
ENDBRANCH   3   4
ENDBRANCH   1   2
BRANCH   1   7
HETATM    7  C8  UNL     1     -36.172  14.280  -6.672  1.00 20.00     0.071 C 
BRANCH   7   8
HETATM    8  C4  UNL     1     -34.987  13.619  -7.319  1.00 20.00    -0.033 C 
HETATM    9  C3  UNL     1     -33.992  14.285  -7.916  1.00 20.00     0.007 C 
ENDBRANCH   7   8
ENDBRANCH   1   7
BRANCH   1  10
HETATM   10  O10 UNL     1     -35.921  12.570  -5.000  1.00 20.00    -0.383 OA
HETATM   11  H22 UNL     1     -35.419  12.520  -4.172  1.00 20.00     0.211 HD
ENDBRANCH   1  10
TORSDOF 5
ENDMDL
MODEL 5
REMARK VINA RESULT:      -4.1     10.286     11.227
REMARK  5 active torsions:
REMARK  status: ('A' for Active; 'I' for Inactive)
REMARK    1  A    between atoms: C1_1  and  C7_7 
REMARK    2  A    between atoms: C2_2  and  C9_9 
REMARK    3  A    between atoms: C4_4  and  C8_8 
REMARK    4  A    between atoms: C8_8  and  C9_9 
REMARK    5  A    between atoms: C9_9  and  O10_10 
ROOT
HETATM    1  C9  UNL     1     -33.838  14.182  -4.364  1.00 20.00     0.200 C 
ENDROOT
BRANCH   1   2
HETATM    2  C2  UNL     1     -33.872  15.444  -3.609  1.00 20.00    -0.074 C 
HETATM    3  C1  UNL     1     -33.898  16.474  -2.992  1.00 20.00    -0.099 C 
BRANCH   3   4
HETATM    4  C7  UNL     1     -33.930  17.709  -2.252  1.00 20.00     0.065 A 
HETATM    5  C5  UNL     1     -32.790  18.023  -1.327  1.00 20.00     0.018 A 
HETATM    6  C6  UNL     1     -34.129  17.652  -0.765  1.00 20.00     0.018 A 
ENDBRANCH   3   4
ENDBRANCH   1   2
BRANCH   1   7
HETATM    7  C8  UNL     1     -34.303  14.404  -5.807  1.00 20.00     0.071 C 
BRANCH   7   8
HETATM    8  C4  UNL     1     -35.619  13.730  -6.079  1.00 20.00    -0.033 C 
HETATM    9  C3  UNL     1     -36.718  13.905  -5.337  1.00 20.00     0.007 C 
ENDBRANCH   7   8
ENDBRANCH   1   7
BRANCH   1  10
HETATM   10  O10 UNL     1     -32.504  13.679  -4.386  1.00 20.00    -0.383 OA
HETATM   11  H22 UNL     1     -32.468  13.026  -5.102  1.00 20.00     0.211 HD
ENDBRANCH   1  10
TORSDOF 5
ENDMDL
MODEL 6
REMARK VINA RESULT:      -4.1     10.905     11.686
REMARK  5 active torsions:
REMARK  status: ('A' for Active; 'I' for Inactive)
REMARK    1  A    between atoms: C1_1  and  C7_7 
REMARK    2  A    between atoms: C2_2  and  C9_9 
REMARK    3  A    between atoms: C4_4  and  C8_8 
REMARK    4  A    between atoms: C8_8  and  C9_9 
REMARK    5  A    between atoms: C9_9  and  O10_10 
ROOT
HETATM    1  C9  UNL     1     -33.547  14.815  -4.764  1.00 20.00     0.200 C 
ENDROOT
BRANCH   1   2
HETATM    2  C2  UNL     1     -33.660  15.769  -3.650  1.00 20.00    -0.074 C 
HETATM    3  C1  UNL     1     -33.750  16.548  -2.741  1.00 20.00    -0.099 C 
BRANCH   3   4
HETATM    4  C7  UNL     1     -33.859  17.482  -1.650  1.00 20.00     0.065 A 
HETATM    5  C5  UNL     1     -33.553  18.929  -1.909  1.00 20.00     0.018 A 
HETATM    6  C6  UNL     1     -32.604  18.097  -1.101  1.00 20.00     0.018 A 
ENDBRANCH   3   4
ENDBRANCH   1   2
BRANCH   1   7
HETATM    7  C8  UNL     1     -33.139  15.537  -6.053  1.00 20.00     0.071 C 
BRANCH   7   8
HETATM    8  C4  UNL     1     -33.994  15.123  -7.218  1.00 20.00    -0.033 C 
HETATM    9  C3  UNL     1     -34.318  13.856  -7.497  1.00 20.00     0.007 C 
ENDBRANCH   7   8
ENDBRANCH   1   7
BRANCH   1  10
HETATM   10  O10 UNL     1     -32.555  13.839  -4.453  1.00 20.00    -0.383 OA
HETATM   11  H22 UNL     1     -31.997  14.224  -3.760  1.00 20.00     0.211 HD
ENDBRANCH   1  10
TORSDOF 5
ENDMDL
MODEL 7
REMARK VINA RESULT:      -4.1     10.868     11.737
REMARK  5 active torsions:
REMARK  status: ('A' for Active; 'I' for Inactive)
REMARK    1  A    between atoms: C1_1  and  C7_7 
REMARK    2  A    between atoms: C2_2  and  C9_9 
REMARK    3  A    between atoms: C4_4  and  C8_8 
REMARK    4  A    between atoms: C8_8  and  C9_9 
REMARK    5  A    between atoms: C9_9  and  O10_10 
ROOT
HETATM    1  C9  UNL     1     -32.459  18.681  -0.634  1.00 20.00     0.200 C 
ENDROOT
BRANCH   1   2
HETATM    2  C2  UNL     1     -33.113  17.728  -1.544  1.00 20.00    -0.074 C 
HETATM    3  C1  UNL     1     -33.647  16.950  -2.286  1.00 20.00    -0.099 C 
BRANCH   3   4
HETATM    4  C7  UNL     1     -34.288  16.017  -3.177  1.00 20.00     0.065 A 
HETATM    5  C5  UNL     1     -33.435  15.238  -4.136  1.00 20.00     0.018 A 
HETATM    6  C6  UNL     1     -34.324  16.332  -4.644  1.00 20.00     0.018 A 
ENDBRANCH   3   4
ENDBRANCH   1   2
BRANCH   1   7
HETATM    7  C8  UNL     1     -33.223  18.772   0.691  1.00 20.00     0.071 C 
BRANCH   7   8
HETATM    8  C4  UNL     1     -32.295  18.744   1.874  1.00 20.00    -0.033 C 
HETATM    9  C3  UNL     1     -32.694  18.540   3.134  1.00 20.00     0.007 C 
ENDBRANCH   7   8
ENDBRANCH   1   7
BRANCH   1  10
HETATM   10  O10 UNL     1     -31.129  18.243  -0.365  1.00 20.00    -0.383 OA
HETATM   11  H22 UNL     1     -30.566  18.638  -1.048  1.00 20.00     0.211 HD
ENDBRANCH   1  10
TORSDOF 5
ENDMDL
MODEL 8
REMARK VINA RESULT:      -3.9     10.480     11.526
REMARK  5 active torsions:
REMARK  status: ('A' for Active; 'I' for Inactive)
REMARK    1  A    between atoms: C1_1  and  C7_7 
REMARK    2  A    between atoms: C2_2  and  C9_9 
REMARK    3  A    between atoms: C4_4  and  C8_8 
REMARK    4  A    between atoms: C8_8  and  C9_9 
REMARK    5  A    between atoms: C9_9  and  O10_10 
ROOT
HETATM    1  C9  UNL     1     -33.802  17.871  -0.732  1.00 20.00     0.200 C 
ENDROOT
BRANCH   1   2
HETATM    2  C2  UNL     1     -33.851  17.080  -1.971  1.00 20.00    -0.074 C 
HETATM    3  C1  UNL     1     -33.893  16.434  -2.983  1.00 20.00    -0.099 C 
BRANCH   3   4
HETATM    4  C7  UNL     1     -33.942  15.660  -4.196  1.00 20.00     0.065 A 
HETATM    5  C5  UNL     1     -34.481  14.260  -4.134  1.00 20.00     0.018 A 
HETATM    6  C6  UNL     1     -33.014  14.488  -4.339  1.00 20.00     0.018 A 
ENDBRANCH   3   4
ENDBRANCH   1   2
BRANCH   1   7
HETATM    7  C8  UNL     1     -32.429  18.532  -0.568  1.00 20.00     0.071 C 
BRANCH   7   8
HETATM    8  C4  UNL     1     -32.161  18.913   0.861  1.00 20.00    -0.033 C 
HETATM    9  C3  UNL     1     -30.988  18.730   1.478  1.00 20.00     0.007 C 
ENDBRANCH   7   8
ENDBRANCH   1   7
BRANCH   1  10
HETATM   10  O10 UNL     1     -34.797  18.892  -0.782  1.00 20.00    -0.383 OA
HETATM   11  H22 UNL     1     -34.562  19.469  -1.526  1.00 20.00     0.211 HD
ENDBRANCH   1  10
TORSDOF 5
ENDMDL
MODEL 9
REMARK VINA RESULT:      -3.9     11.032     11.661
REMARK  5 active torsions:
REMARK  status: ('A' for Active; 'I' for Inactive)
REMARK    1  A    between atoms: C1_1  and  C7_7 
REMARK    2  A    between atoms: C2_2  and  C9_9 
REMARK    3  A    between atoms: C4_4  and  C8_8 
REMARK    4  A    between atoms: C8_8  and  C9_9 
REMARK    5  A    between atoms: C9_9  and  O10_10 
ROOT
HETATM    1  C9  UNL     1     -36.670  15.049  -4.723  1.00 20.00     0.200 C 
ENDROOT
BRANCH   1   2
HETATM    2  C2  UNL     1     -35.612  15.637  -3.887  1.00 20.00    -0.074 C 
HETATM    3  C1  UNL     1     -34.747  16.116  -3.205  1.00 20.00    -0.099 C 
BRANCH   3   4
HETATM    4  C7  UNL     1     -33.711  16.691  -2.387  1.00 20.00     0.065 A 
HETATM    5  C5  UNL     1     -34.105  17.425  -1.138  1.00 20.00     0.018 A 
HETATM    6  C6  UNL     1     -33.591  18.186  -2.323  1.00 20.00     0.018 A 
ENDBRANCH   3   4
ENDBRANCH   1   2
BRANCH   1   7
HETATM    7  C8  UNL     1     -36.252  13.664  -5.227  1.00 20.00     0.071 C 
BRANCH   7   8
HETATM    8  C4  UNL     1     -35.788  13.707  -6.657  1.00 20.00    -0.033 C 
HETATM    9  C3  UNL     1     -34.507  13.624  -7.031  1.00 20.00     0.007 C 
ENDBRANCH   7   8
ENDBRANCH   1   7
BRANCH   1  10
HETATM   10  O10 UNL     1     -37.862  14.914  -3.952  1.00 20.00    -0.383 OA
HETATM   11  H22 UNL     1     -37.665  14.276  -3.249  1.00 20.00     0.211 HD
ENDBRANCH   1  10
TORSDOF 5
ENDMDL
