MODEL 1
REMARK VINA RESULT:      -6.6      0.000      0.000
REMARK  2 active torsions:
REMARK  status: ('A' for Active; 'I' for Inactive)
REMARK    1  A    between atoms: C1_1  and  C8_8 
REMARK    2  A    between atoms: C3_3  and  C9_9 
ROOT
HETATM    1  C4  UNL     1     -32.873   7.460   4.703  1.00 20.00     0.009 C 
HETATM    2  C5  UNL     1     -32.846   6.039   2.594  1.00 20.00     0.009 C 
HETATM    3  C6  UNL     1     -34.382   7.243   4.830  1.00 20.00     0.012 C 
HETATM    4  C7  UNL     1     -34.353   5.808   2.732  1.00 20.00     0.012 C 
HETATM    5  C8  UNL     1     -32.352   7.307   3.279  1.00 20.00     0.008 C 
HETATM    6  C9  UNL     1     -34.875   5.969   4.153  1.00 20.00     0.047 C 
ENDROOT
BRANCH   5   7
HETATM    7  C1  UNL     1     -32.761   8.524   2.467  1.00 20.00    -0.026 C 
HETATM    8  C2  UNL     1     -32.125   8.929   1.357  1.00 20.00    -0.035 C 
HETATM    9  C10 UNL     1     -32.527  10.124   0.557  1.00 20.00     0.036 C 
ENDBRANCH   5   7
BRANCH   6  10
HETATM   10  C3  UNL     1     -34.466   4.774   4.999  1.00 20.00     0.235 C 
HETATM   11  O11 UNL     1     -34.284   3.652   4.540  1.00 20.00    -0.306 OA
ENDBRANCH   6  10
TORSDOF 2
ENDMDL
MODEL 2
REMARK VINA RESULT:      -4.8     10.791     12.050
REMARK  2 active torsions:
REMARK  status: ('A' for Active; 'I' for Inactive)
REMARK    1  A    between atoms: C1_1  and  C8_8 
REMARK    2  A    between atoms: C3_3  and  C9_9 
ROOT
HETATM    1  C4  UNL     1     -34.100  14.220  -4.099  1.00 20.00     0.009 C 
HETATM    2  C5  UNL     1     -33.264  15.872  -5.843  1.00 20.00     0.009 C 
HETATM    3  C6  UNL     1     -35.471  14.196  -4.778  1.00 20.00     0.012 C 
HETATM    4  C7  UNL     1     -34.630  15.834  -6.532  1.00 20.00     0.012 C 
HETATM    5  C8  UNL     1     -33.308  15.494  -4.368  1.00 20.00     0.008 C 
HETATM    6  C9  UNL     1     -35.426  14.564  -6.257  1.00 20.00     0.047 C 
ENDROOT
BRANCH   5   7
HETATM    7  C1  UNL     1     -33.909  16.634  -3.562  1.00 20.00    -0.026 C 
HETATM    8  C2  UNL     1     -34.068  16.604  -2.231  1.00 20.00    -0.035 C 
HETATM    9  C10 UNL     1     -34.658  17.724  -1.439  1.00 20.00     0.036 C 
ENDBRANCH   5   7
BRANCH   6  10
HETATM   10  C3  UNL     1     -34.837  13.399  -7.034  1.00 20.00     0.235 C 
HETATM   11  O11 UNL     1     -35.102  12.225  -6.797  1.00 20.00    -0.306 OA
ENDBRANCH   6  10
TORSDOF 2
ENDMDL
MODEL 3
REMARK VINA RESULT:      -4.6     10.687     11.757
REMARK  2 active torsions:
REMARK  status: ('A' for Active; 'I' for Inactive)
REMARK    1  A    between atoms: C1_1  and  C8_8 
REMARK    2  A    between atoms: C3_3  and  C9_9 
ROOT
HETATM    1  C4  UNL     1     -33.358  15.347  -4.268  1.00 20.00     0.009 C 
HETATM    2  C5  UNL     1     -35.637  16.448  -4.520  1.00 20.00     0.009 C 
HETATM    3  C6  UNL     1     -34.035  13.987  -4.086  1.00 20.00     0.012 C 
HETATM    4  C7  UNL     1     -36.312  15.084  -4.356  1.00 20.00     0.012 C 
HETATM    5  C8  UNL     1     -34.249  16.527  -3.897  1.00 20.00     0.008 C 
HETATM    6  C9  UNL     1     -35.419  13.905  -4.719  1.00 20.00     0.047 C 
ENDROOT
BRANCH   5   7
HETATM    7  C1  UNL     1     -34.368  16.605  -2.384  1.00 20.00    -0.026 C 
HETATM    8  C2  UNL     1     -35.349  17.259  -1.745  1.00 20.00    -0.035 C 
HETATM    9  C10 UNL     1     -35.467  17.335  -0.259  1.00 20.00     0.036 C 
ENDBRANCH   5   7
BRANCH   6  10
HETATM   10  C3  UNL     1     -35.264  13.810  -6.227  1.00 20.00     0.235 C 
HETATM   11  O11 UNL     1     -34.796  12.831  -6.799  1.00 20.00    -0.306 OA
ENDBRANCH   6  10
TORSDOF 2
ENDMDL
MODEL 4
REMARK VINA RESULT:      -4.5     10.913     12.269
REMARK  2 active torsions:
REMARK  status: ('A' for Active; 'I' for Inactive)
REMARK    1  A    between atoms: C1_1  and  C8_8 
REMARK    2  A    between atoms: C3_3  and  C9_9 
ROOT
HETATM    1  C4  UNL     1     -35.394  16.551  -4.925  1.00 20.00     0.009 C 
HETATM    2  C5  UNL     1     -34.530  14.393  -3.893  1.00 20.00     0.009 C 
HETATM    3  C6  UNL     1     -34.097  16.688  -5.725  1.00 20.00     0.012 C 
HETATM    4  C7  UNL     1     -33.240  14.521  -4.707  1.00 20.00     0.012 C 
HETATM    5  C8  UNL     1     -35.244  15.718  -3.658  1.00 20.00     0.008 C 
HETATM    6  C9  UNL     1     -33.388  15.361  -5.970  1.00 20.00     0.047 C 
ENDROOT
BRANCH   5   7
HETATM    7  C1  UNL     1     -34.494  16.528  -2.614  1.00 20.00    -0.026 C 
HETATM    8  C2  UNL     1     -35.043  16.965  -1.472  1.00 20.00    -0.035 C 
HETATM    9  C10 UNL     1     -34.306  17.761  -0.446  1.00 20.00     0.036 C 
ENDBRANCH   5   7
BRANCH   6  10
HETATM   10  C3  UNL     1     -34.152  14.584  -7.029  1.00 20.00     0.235 C 
HETATM   11  O11 UNL     1     -34.213  13.359  -7.057  1.00 20.00    -0.306 OA
ENDBRANCH   6  10
TORSDOF 2
ENDMDL
MODEL 5
REMARK VINA RESULT:      -4.2     11.554     12.629
REMARK  2 active torsions:
REMARK  status: ('A' for Active; 'I' for Inactive)
REMARK    1  A    between atoms: C1_1  and  C8_8 
REMARK    2  A    between atoms: C3_3  and  C9_9 
ROOT
HETATM    1  C4  UNL     1     -33.724  16.946  -2.026  1.00 20.00     0.009 C 
HETATM    2  C5  UNL     1     -35.104  17.695  -0.025  1.00 20.00     0.009 C 
HETATM    3  C6  UNL     1     -33.149  18.358  -2.158  1.00 20.00     0.012 C 
HETATM    4  C7  UNL     1     -34.514  19.102  -0.146  1.00 20.00     0.012 C 
HETATM    5  C8  UNL     1     -35.076  16.901  -1.325  1.00 20.00     0.008 C 
HETATM    6  C9  UNL     1     -33.167  19.148  -0.855  1.00 20.00     0.047 C 
ENDROOT
BRANCH   5   7
HETATM    7  C1  UNL     1     -36.145  17.425  -2.270  1.00 20.00    -0.026 C 
HETATM    8  C2  UNL     1     -36.404  16.892  -3.473  1.00 20.00    -0.035 C 
HETATM    9  C10 UNL     1     -37.454  17.405  -4.401  1.00 20.00     0.036 C 
ENDBRANCH   5   7
BRANCH   6  10
HETATM   10  C3  UNL     1     -32.077  18.612   0.059  1.00 20.00     0.235 C 
HETATM   11  O11 UNL     1     -30.979  18.243  -0.343  1.00 20.00    -0.306 OA
ENDBRANCH   6  10
TORSDOF 2
ENDMDL
MODEL 6
REMARK VINA RESULT:      -4.0     10.862     12.178
REMARK  2 active torsions:
REMARK  status: ('A' for Active; 'I' for Inactive)
REMARK    1  A    between atoms: C1_1  and  C8_8 
REMARK    2  A    between atoms: C3_3  and  C9_9 
ROOT
HETATM    1  C4  UNL     1     -36.836  15.138  -5.365  1.00 20.00     0.009 C 
HETATM    2  C5  UNL     1     -34.826  13.995  -4.307  1.00 20.00     0.009 C 
HETATM    3  C6  UNL     1     -35.971  15.557  -6.556  1.00 20.00     0.012 C 
HETATM    4  C7  UNL     1     -33.966  14.399  -5.507  1.00 20.00     0.012 C 
HETATM    5  C8  UNL     1     -36.040  14.890  -4.090  1.00 20.00     0.008 C 
HETATM    6  C9  UNL     1     -34.763  14.655  -6.780  1.00 20.00     0.047 C 
ENDROOT
BRANCH   5   7
HETATM    7  C1  UNL     1     -35.599  16.223  -3.510  1.00 20.00    -0.026 C 
HETATM    8  C2  UNL     1     -34.704  16.348  -2.520  1.00 20.00    -0.035 C 
HETATM    9  C10 UNL     1     -34.269  17.657  -1.951  1.00 20.00     0.036 C 
ENDBRANCH   5   7
BRANCH   6  10
HETATM   10  C3  UNL     1     -35.236  13.339  -7.375  1.00 20.00     0.235 C 
HETATM   11  O11 UNL     1     -35.055  12.251  -6.839  1.00 20.00    -0.306 OA
ENDBRANCH   6  10
TORSDOF 2
ENDMDL
MODEL 7
REMARK VINA RESULT:      -3.9     11.077     12.463
REMARK  2 active torsions:
REMARK  status: ('A' for Active; 'I' for Inactive)
REMARK    1  A    between atoms: C1_1  and  C8_8 
REMARK    2  A    between atoms: C3_3  and  C9_9 
ROOT
HETATM    1  C4  UNL     1     -33.670  17.219  -5.501  1.00 20.00     0.009 C 
HETATM    2  C5  UNL     1     -33.144  14.884  -4.641  1.00 20.00     0.009 C 
HETATM    3  C6  UNL     1     -34.895  17.280  -4.586  1.00 20.00     0.012 C 
HETATM    4  C7  UNL     1     -34.359  14.954  -3.713  1.00 20.00     0.012 C 
HETATM    5  C8  UNL     1     -33.243  15.799  -5.854  1.00 20.00     0.008 C 
HETATM    6  C9  UNL     1     -34.791  16.373  -3.366  1.00 20.00     0.047 C 
ENDROOT
BRANCH   5   7
HETATM    7  C1  UNL     1     -34.225  15.219  -6.858  1.00 20.00    -0.026 C 
HETATM    8  C2  UNL     1     -34.535  13.917  -6.932  1.00 20.00    -0.035 C 
HETATM    9  C10 UNL     1     -35.501  13.346  -7.917  1.00 20.00     0.036 C 
ENDBRANCH   5   7
BRANCH   6  10
HETATM   10  C3  UNL     1     -33.817  16.989  -2.377  1.00 20.00     0.235 C 
HETATM   11  O11 UNL     1     -34.051  17.103  -1.178  1.00 20.00    -0.306 OA
ENDBRANCH   6  10
TORSDOF 2
ENDMDL
MODEL 8
REMARK VINA RESULT:      -3.9     11.559     12.437
REMARK  2 active torsions:
REMARK  status: ('A' for Active; 'I' for Inactive)
REMARK    1  A    between atoms: C1_1  and  C8_8 
REMARK    2  A    between atoms: C3_3  and  C9_9 
ROOT
HETATM    1  C4  UNL     1     -36.298  17.480  -2.386  1.00 20.00     0.009 C 
HETATM    2  C5  UNL     1     -34.464  17.306  -4.140  1.00 20.00     0.009 C 
HETATM    3  C6  UNL     1     -35.353  16.885  -1.339  1.00 20.00     0.012 C 
HETATM    4  C7  UNL     1     -33.515  16.727  -3.088  1.00 20.00     0.012 C 
HETATM    5  C8  UNL     1     -35.939  17.101  -3.817  1.00 20.00     0.008 C 
HETATM    6  C9  UNL     1     -33.878  17.099  -1.656  1.00 20.00     0.047 C 
ENDROOT
BRANCH   5   7
HETATM    7  C1  UNL     1     -36.322  15.650  -4.059  1.00 20.00    -0.026 C 
HETATM    8  C2  UNL     1     -35.785  14.887  -5.022  1.00 20.00    -0.035 C 
HETATM    9  C10 UNL     1     -36.159  13.461  -5.259  1.00 20.00     0.036 C 
ENDBRANCH   5   7
BRANCH   6  10
HETATM   10  C3  UNL     1     -33.525  18.553  -1.388  1.00 20.00     0.235 C 
HETATM   11  O11 UNL     1     -32.387  19.000  -1.479  1.00 20.00    -0.306 OA
ENDBRANCH   6  10
TORSDOF 2
ENDMDL
MODEL 9
REMARK VINA RESULT:      -3.6     11.314     12.297
REMARK  2 active torsions:
REMARK  status: ('A' for Active; 'I' for Inactive)
REMARK    1  A    between atoms: C1_1  and  C8_8 
REMARK    2  A    between atoms: C3_3  and  C9_9 
ROOT
HETATM    1  C4  UNL     1     -32.866  17.943  -1.523  1.00 20.00     0.009 C 
HETATM    2  C5  UNL     1     -34.976  16.558  -1.834  1.00 20.00     0.009 C 
HETATM    3  C6  UNL     1     -33.717  19.152  -1.128  1.00 20.00     0.012 C 
HETATM    4  C7  UNL     1     -35.826  17.762  -1.422  1.00 20.00     0.012 C 
HETATM    5  C8  UNL     1     -33.607  16.931  -2.388  1.00 20.00     0.008 C 
HETATM    6  C9  UNL     1     -35.083  18.778  -0.564  1.00 20.00     0.047 C 
ENDROOT
BRANCH   5   7
HETATM    7  C1  UNL     1     -33.756  17.491  -3.793  1.00 20.00    -0.026 C 
HETATM    8  C2  UNL     1     -33.692  16.744  -4.905  1.00 20.00    -0.035 C 
HETATM    9  C10 UNL     1     -33.840  17.293  -6.285  1.00 20.00     0.036 C 
ENDBRANCH   5   7
BRANCH   6  10
HETATM   10  C3  UNL     1     -34.900  18.239   0.845  1.00 20.00     0.235 C 
HETATM   11  O11 UNL     1     -35.740  17.556   1.422  1.00 20.00    -0.306 OA
ENDBRANCH   6  10
TORSDOF 2
ENDMDL
