MODEL 1
REMARK VINA RESULT:      -3.7      0.000      0.000
REMARK  1 active torsions:
REMARK  status: ('A' for Active; 'I' for Inactive)
REMARK    1  A    between atoms: C3_3  and  N6_6 
ROOT
HETATM    1  C1  UNL     1     -32.832   7.438   4.098  1.00 20.00     0.216 C 
HETATM    2  C4  UNL     1     -34.331   6.041   5.148  1.00 20.00     0.158 C 
HETATM    3  C5  UNL     1     -33.975   7.202   6.049  1.00 20.00     0.198 C 
HETATM    4  N6  UNL     1     -33.684   6.369   3.913  1.00 20.00    -0.327 N 
HETATM    5  O7  UNL     1     -32.913   7.900   5.381  1.00 20.00    -0.325 OA
HETATM    6  S8  UNL     1     -31.779   8.198   3.065  1.00 20.00    -0.033 SA
ENDROOT
BRANCH   4   7
HETATM    7  C3  UNL     1     -33.890   5.646   2.774  1.00 20.00     0.083 C 
HETATM    8  C2  UNL     1     -33.096   4.640   2.400  1.00 20.00     0.030 C 
ENDBRANCH   4   7
TORSDOF 1
ENDMDL
MODEL 2
REMARK VINA RESULT:      -3.5      2.012      2.778
REMARK  1 active torsions:
REMARK  status: ('A' for Active; 'I' for Inactive)
REMARK    1  A    between atoms: C3_3  and  N6_6 
ROOT
HETATM    1  C1  UNL     1     -33.831   6.321   4.891  1.00 20.00     0.216 C 
HETATM    2  C4  UNL     1     -33.596   5.005   3.016  1.00 20.00     0.158 C 
HETATM    3  C5  UNL     1     -34.313   4.242   4.106  1.00 20.00     0.198 C 
HETATM    4  N6  UNL     1     -33.479   6.326   3.557  1.00 20.00    -0.327 N 
HETATM    5  O7  UNL     1     -34.245   5.076   5.273  1.00 20.00    -0.325 OA
HETATM    6  S8  UNL     1     -33.819   7.520   6.038  1.00 20.00    -0.033 SA
ENDROOT
BRANCH   4   7
HETATM    7  C3  UNL     1     -33.025   7.376   2.812  1.00 20.00     0.083 C 
HETATM    8  C2  UNL     1     -31.835   7.946   3.013  1.00 20.00     0.030 C 
ENDBRANCH   4   7
TORSDOF 1
ENDMDL
MODEL 3
REMARK VINA RESULT:      -3.5      1.814      2.486
REMARK  1 active torsions:
REMARK  status: ('A' for Active; 'I' for Inactive)
REMARK    1  A    between atoms: C3_3  and  N6_6 
ROOT
HETATM    1  C1  UNL     1     -33.290   7.236   4.568  1.00 20.00     0.216 C 
HETATM    2  C4  UNL     1     -33.211   6.537   2.376  1.00 20.00     0.158 C 
HETATM    3  C5  UNL     1     -32.106   7.530   2.650  1.00 20.00     0.198 C 
HETATM    4  N6  UNL     1     -33.787   6.316   3.669  1.00 20.00    -0.327 N 
HETATM    5  O7  UNL     1     -32.354   8.032   3.972  1.00 20.00    -0.325 OA
HETATM    6  S8  UNL     1     -33.641   7.513   6.166  1.00 20.00    -0.033 SA
ENDROOT
BRANCH   4   7
HETATM    7  C3  UNL     1     -34.727   5.351   3.886  1.00 20.00     0.083 C 
HETATM    8  C2  UNL     1     -34.466   4.218   4.543  1.00 20.00     0.030 C 
ENDBRANCH   4   7
TORSDOF 1
ENDMDL
MODEL 4
REMARK VINA RESULT:      -3.3      1.995      2.582
REMARK  1 active torsions:
REMARK  status: ('A' for Active; 'I' for Inactive)
REMARK    1  A    between atoms: C3_3  and  N6_6 
ROOT
HETATM    1  C1  UNL     1     -33.526   5.849   3.792  1.00 20.00     0.216 C 
HETATM    2  C4  UNL     1     -33.590   7.565   5.326  1.00 20.00     0.158 C 
HETATM    3  C5  UNL     1     -34.350   6.367   5.847  1.00 20.00     0.198 C 
HETATM    4  N6  UNL     1     -32.997   7.080   4.115  1.00 20.00    -0.327 N 
HETATM    5  O7  UNL     1     -34.403   5.436   4.755  1.00 20.00    -0.325 OA
HETATM    6  S8  UNL     1     -33.284   4.854   2.486  1.00 20.00    -0.033 SA
ENDROOT
BRANCH   4   7
HETATM    7  C3  UNL     1     -32.088   7.816   3.411  1.00 20.00     0.083 C 
HETATM    8  C2  UNL     1     -32.369   8.386   2.237  1.00 20.00     0.030 C 
ENDBRANCH   4   7
TORSDOF 1
ENDMDL
MODEL 5
REMARK VINA RESULT:      -3.3      1.656      2.915
REMARK  1 active torsions:
REMARK  status: ('A' for Active; 'I' for Inactive)
REMARK    1  A    between atoms: C3_3  and  N6_6 
ROOT
HETATM    1  C1  UNL     1     -32.933   6.782   2.896  1.00 20.00     0.216 C 
HETATM    2  C4  UNL     1     -34.226   5.193   3.946  1.00 20.00     0.158 C 
HETATM    3  C5  UNL     1     -33.398   4.557   2.854  1.00 20.00     0.198 C 
HETATM    4  N6  UNL     1     -33.747   6.543   3.983  1.00 20.00    -0.327 N 
HETATM    5  O7  UNL     1     -32.777   5.646   2.153  1.00 20.00    -0.325 OA
HETATM    6  S8  UNL     1     -32.166   8.159   2.376  1.00 20.00    -0.033 SA
ENDROOT
BRANCH   4   7
HETATM    7  C3  UNL     1     -34.131   7.420   4.955  1.00 20.00     0.083 C 
HETATM    8  C2  UNL     1     -33.657   7.376   6.202  1.00 20.00     0.030 C 
ENDBRANCH   4   7
TORSDOF 1
ENDMDL
MODEL 6
REMARK VINA RESULT:      -3.2     12.239     12.706
REMARK  1 active torsions:
REMARK  status: ('A' for Active; 'I' for Inactive)
REMARK    1  A    between atoms: C3_3  and  N6_6 
ROOT
HETATM    1  C1  UNL     1     -37.440  14.906  -4.627  1.00 20.00     0.216 C 
HETATM    2  C4  UNL     1     -35.238  14.265  -4.421  1.00 20.00     0.158 C 
HETATM    3  C5  UNL     1     -35.951  13.381  -5.418  1.00 20.00     0.198 C 
HETATM    4  N6  UNL     1     -36.213  15.266  -4.108  1.00 20.00    -0.327 N 
HETATM    5  O7  UNL     1     -37.338  13.743  -5.335  1.00 20.00    -0.325 OA
HETATM    6  S8  UNL     1     -38.933  15.623  -4.521  1.00 20.00    -0.033 SA
ENDROOT
BRANCH   4   7
HETATM    7  C3  UNL     1     -35.909  16.361  -3.353  1.00 20.00     0.083 C 
HETATM    8  C2  UNL     1     -34.846  16.414  -2.547  1.00 20.00     0.030 C 
ENDBRANCH   4   7
TORSDOF 1
ENDMDL
MODEL 7
REMARK VINA RESULT:      -3.0     12.388     12.798
REMARK  1 active torsions:
REMARK  status: ('A' for Active; 'I' for Inactive)
REMARK    1  A    between atoms: C3_3  and  N6_6 
ROOT
HETATM    1  C1  UNL     1     -34.115  14.734  -6.305  1.00 20.00     0.216 C 
HETATM    2  C4  UNL     1     -34.406  14.913  -4.028  1.00 20.00     0.158 C 
HETATM    3  C5  UNL     1     -33.323  15.859  -4.495  1.00 20.00     0.198 C 
HETATM    4  N6  UNL     1     -34.929  14.379  -5.249  1.00 20.00    -0.327 N 
HETATM    5  O7  UNL     1     -33.099  15.540  -5.877  1.00 20.00    -0.325 OA
HETATM    6  S8  UNL     1     -34.172  14.348  -7.918  1.00 20.00    -0.033 SA
ENDROOT
BRANCH   4   7
HETATM    7  C3  UNL     1     -36.045  13.593  -5.276  1.00 20.00     0.083 C 
HETATM    8  C2  UNL     1     -37.283  14.092  -5.299  1.00 20.00     0.030 C 
ENDBRANCH   4   7
TORSDOF 1
ENDMDL
MODEL 8
REMARK VINA RESULT:      -3.0     12.075     12.382
REMARK  1 active torsions:
REMARK  status: ('A' for Active; 'I' for Inactive)
REMARK    1  A    between atoms: C3_3  and  N6_6 
ROOT
HETATM    1  C1  UNL     1     -35.270  14.574  -4.709  1.00 20.00     0.216 C 
HETATM    2  C4  UNL     1     -33.557  15.639  -3.598  1.00 20.00     0.158 C 
HETATM    3  C5  UNL     1     -33.004  14.767  -4.702  1.00 20.00     0.198 C 
HETATM    4  N6  UNL     1     -34.974  15.560  -3.791  1.00 20.00    -0.327 N 
HETATM    5  O7  UNL     1     -34.124  14.019  -5.203  1.00 20.00    -0.325 OA
HETATM    6  S8  UNL     1     -36.718  13.985  -5.265  1.00 20.00    -0.033 SA
ENDROOT
BRANCH   4   7
HETATM    7  C3  UNL     1     -35.844  16.342  -3.088  1.00 20.00     0.083 C 
HETATM    8  C2  UNL     1     -35.567  16.828  -1.876  1.00 20.00     0.030 C 
ENDBRANCH   4   7
TORSDOF 1
ENDMDL
MODEL 9
REMARK VINA RESULT:      -3.0      2.112      3.275
REMARK  1 active torsions:
REMARK  status: ('A' for Active; 'I' for Inactive)
REMARK    1  A    between atoms: C3_3  and  N6_6 
ROOT
HETATM    1  C1  UNL     1     -33.204   6.833   3.237  1.00 20.00     0.216 C 
HETATM    2  C4  UNL     1     -31.856   8.441   4.184  1.00 20.00     0.158 C 
HETATM    3  C5  UNL     1     -31.680   8.426   2.683  1.00 20.00     0.198 C 
HETATM    4  N6  UNL     1     -32.931   7.520   4.401  1.00 20.00    -0.327 N 
HETATM    5  O7  UNL     1     -32.415   7.284   2.217  1.00 20.00    -0.325 OA
HETATM    6  S8  UNL     1     -34.274   5.608   2.906  1.00 20.00    -0.033 SA
ENDROOT
BRANCH   4   7
HETATM    7  C3  UNL     1     -33.512   7.362   5.626  1.00 20.00     0.083 C 
HETATM    8  C2  UNL     1     -34.285   6.318   5.934  1.00 20.00     0.030 C 
ENDBRANCH   4   7
TORSDOF 1
ENDMDL
