MODEL 1
REMARK VINA RESULT:      -5.0      0.000      0.000
REMARK  1 active torsions:
REMARK  status: ('A' for Active; 'I' for Inactive)
REMARK    1  A    between atoms: C3_3  and  C7_7 
ROOT
HETATM    1  C1  UNL     1     -34.404   4.848   4.229  1.00 20.00    -0.023 C 
HETATM    2  C2  UNL     1     -33.445   5.377   3.447  1.00 20.00    -0.075 C 
HETATM    3  C4  UNL     1     -34.925   5.506   5.471  1.00 20.00     0.027 C 
HETATM    4  C5  UNL     1     -34.000   6.606   5.987  1.00 20.00     0.005 C 
HETATM    5  C6  UNL     1     -33.560   7.518   4.849  1.00 20.00     0.018 C 
HETATM    6  C7  UNL     1     -32.842   6.736   3.738  1.00 20.00     0.100 C 
HETATM    7  C8  UNL     1     -32.888   4.602   2.283  1.00 20.00     0.044 C 
ENDROOT
BRANCH   6   8
HETATM    8  C3  UNL     1     -32.886   7.560   2.484  1.00 20.00     0.227 C 
HETATM    9  O9  UNL     1     -33.841   7.514   1.715  1.00 20.00    -0.279 OA
HETATM   10 CL10 UNL     1     -31.461   8.535   2.292  1.00 20.00    -0.043 Cl
ENDBRANCH   6   8
TORSDOF 1
ENDMDL
MODEL 2
REMARK VINA RESULT:      -4.8      1.441      2.615
REMARK  1 active torsions:
REMARK  status: ('A' for Active; 'I' for Inactive)
REMARK    1  A    between atoms: C3_3  and  C7_7 
ROOT
HETATM    1  C1  UNL     1     -34.056   6.005   5.867  1.00 20.00    -0.023 C 
HETATM    2  C2  UNL     1     -33.731   7.147   5.235  1.00 20.00    -0.075 C 
HETATM    3  C4  UNL     1     -34.558   4.778   5.167  1.00 20.00     0.027 C 
HETATM    4  C5  UNL     1     -35.052   5.069   3.751  1.00 20.00     0.005 C 
HETATM    5  C6  UNL     1     -34.055   5.939   3.000  1.00 20.00     0.018 C 
HETATM    6  C7  UNL     1     -33.797   7.268   3.727  1.00 20.00     0.100 C 
HETATM    7  C8  UNL     1     -33.348   8.375   6.017  1.00 20.00     0.044 C 
ENDROOT
BRANCH   6   8
HETATM    8  C3  UNL     1     -32.494   7.827   3.232  1.00 20.00     0.227 C 
HETATM    9  O9  UNL     1     -31.440   7.633   3.829  1.00 20.00    -0.279 OA
HETATM   10 CL10 UNL     1     -32.690   8.741   1.767  1.00 20.00    -0.043 Cl
ENDBRANCH   6   8
TORSDOF 1
ENDMDL
MODEL 3
REMARK VINA RESULT:      -4.5     11.752     12.409
REMARK  1 active torsions:
REMARK  status: ('A' for Active; 'I' for Inactive)
REMARK    1  A    between atoms: C3_3  and  C7_7 
ROOT
HETATM    1  C1  UNL     1     -34.680  15.827  -3.134  1.00 20.00    -0.023 C 
HETATM    2  C2  UNL     1     -34.353  15.181  -4.269  1.00 20.00    -0.075 C 
HETATM    3  C4  UNL     1     -35.982  16.541  -2.927  1.00 20.00     0.027 C 
HETATM    4  C5  UNL     1     -36.718  16.818  -4.237  1.00 20.00     0.005 C 
HETATM    5  C6  UNL     1     -36.738  15.576  -5.117  1.00 20.00     0.018 C 
HETATM    6  C7  UNL     1     -35.319  15.077  -5.430  1.00 20.00     0.100 C 
HETATM    7  C8  UNL     1     -32.980  14.591  -4.447  1.00 20.00     0.044 C 
ENDROOT
BRANCH   6   8
HETATM    8  C3  UNL     1     -35.411  13.638  -5.850  1.00 20.00     0.227 C 
HETATM    9  O9  UNL     1     -35.960  12.795  -5.148  1.00 20.00    -0.279 OA
HETATM   10 CL10 UNL     1     -34.666  13.359  -7.395  1.00 20.00    -0.043 Cl
ENDBRANCH   6   8
TORSDOF 1
ENDMDL
MODEL 4
REMARK VINA RESULT:      -4.5     11.461     12.027
REMARK  1 active torsions:
REMARK  status: ('A' for Active; 'I' for Inactive)
REMARK    1  A    between atoms: C3_3  and  C7_7 
ROOT
HETATM    1  C1  UNL     1     -36.727  15.597  -4.585  1.00 20.00    -0.023 C 
HETATM    2  C2  UNL     1     -35.762  14.660  -4.560  1.00 20.00    -0.075 C 
HETATM    3  C4  UNL     1     -36.723  16.822  -3.721  1.00 20.00     0.027 C 
HETATM    4  C5  UNL     1     -35.762  16.707  -2.540  1.00 20.00     0.005 C 
HETATM    5  C6  UNL     1     -34.411  16.173  -2.994  1.00 20.00     0.018 C 
HETATM    6  C7  UNL     1     -34.540  14.801  -3.675  1.00 20.00     0.100 C 
HETATM    7  C8  UNL     1     -35.894  13.398  -5.370  1.00 20.00     0.044 C 
ENDROOT
BRANCH   6   8
HETATM    8  C3  UNL     1     -33.313  14.575  -4.510  1.00 20.00     0.227 C 
HETATM    9  O9  UNL     1     -32.552  13.637  -4.297  1.00 20.00    -0.279 OA
HETATM   10 CL10 UNL     1     -33.140  15.775  -5.755  1.00 20.00    -0.043 Cl
ENDBRANCH   6   8
TORSDOF 1
ENDMDL
MODEL 5
REMARK VINA RESULT:      -4.4     12.220     12.465
REMARK  1 active torsions:
REMARK  status: ('A' for Active; 'I' for Inactive)
REMARK    1  A    between atoms: C3_3  and  C7_7 
ROOT
HETATM    1  C1  UNL     1     -36.162  16.557  -2.664  1.00 20.00    -0.023 C 
HETATM    2  C2  UNL     1     -35.329  15.894  -3.488  1.00 20.00    -0.075 C 
HETATM    3  C4  UNL     1     -35.700  17.466  -1.565  1.00 20.00     0.027 C 
HETATM    4  C5  UNL     1     -34.231  17.252  -1.203  1.00 20.00     0.005 C 
HETATM    5  C6  UNL     1     -33.371  17.185  -2.457  1.00 20.00     0.018 C 
HETATM    6  C7  UNL     1     -33.826  16.061  -3.401  1.00 20.00     0.100 C 
HETATM    7  C8  UNL     1     -35.864  14.908  -4.490  1.00 20.00     0.044 C 
ENDROOT
BRANCH   6   8
HETATM    8  C3  UNL     1     -33.295  16.359  -4.773  1.00 20.00     0.227 C 
HETATM    9  O9  UNL     1     -32.562  15.574  -5.365  1.00 20.00    -0.279 OA
HETATM   10 CL10 UNL     1     -33.844  17.897  -5.367  1.00 20.00    -0.043 Cl
ENDBRANCH   6   8
TORSDOF 1
ENDMDL
MODEL 6
REMARK VINA RESULT:      -4.4     11.746     12.965
REMARK  1 active torsions:
REMARK  status: ('A' for Active; 'I' for Inactive)
REMARK    1  A    between atoms: C3_3  and  C7_7 
ROOT
HETATM    1  C1  UNL     1     -33.739  15.637  -6.448  1.00 20.00    -0.023 C 
HETATM    2  C2  UNL     1     -35.063  15.414  -6.364  1.00 20.00    -0.075 C 
HETATM    3  C4  UNL     1     -32.824  15.685  -5.262  1.00 20.00     0.027 C 
HETATM    4  C5  UNL     1     -33.576  15.869  -3.945  1.00 20.00     0.005 C 
HETATM    5  C6  UNL     1     -34.766  14.923  -3.867  1.00 20.00     0.018 C 
HETATM    6  C7  UNL     1     -35.739  15.133  -5.038  1.00 20.00     0.100 C 
HETATM    7  C8  UNL     1     -35.936  15.498  -7.587  1.00 20.00     0.044 C 
ENDROOT
BRANCH   6   8
HETATM    8  C3  UNL     1     -36.578  13.896  -5.177  1.00 20.00     0.227 C 
HETATM    9  O9  UNL     1     -36.073  12.782  -5.272  1.00 20.00    -0.279 OA
HETATM   10 CL10 UNL     1     -38.277  14.255  -5.184  1.00 20.00    -0.043 Cl
ENDBRANCH   6   8
TORSDOF 1
ENDMDL
MODEL 7
REMARK VINA RESULT:      -4.3      2.411      3.968
REMARK  1 active torsions:
REMARK  status: ('A' for Active; 'I' for Inactive)
REMARK    1  A    between atoms: C3_3  and  C7_7 
ROOT
HETATM    1  C1  UNL     1     -32.846   8.440   3.790  1.00 20.00    -0.023 C 
HETATM    2  C2  UNL     1     -33.277   7.381   4.501  1.00 20.00    -0.075 C 
HETATM    3  C4  UNL     1     -32.499   8.381   2.333  1.00 20.00     0.027 C 
HETATM    4  C5  UNL     1     -32.282   6.953   1.837  1.00 20.00     0.005 C 
HETATM    5  C6  UNL     1     -33.398   6.038   2.323  1.00 20.00     0.018 C 
HETATM    6  C7  UNL     1     -33.500   6.029   3.856  1.00 20.00     0.100 C 
HETATM    7  C8  UNL     1     -33.492   7.490   5.987  1.00 20.00     0.044 C 
ENDROOT
BRANCH   6   8
HETATM    8  C3  UNL     1     -34.868   5.538   4.231  1.00 20.00     0.227 C 
HETATM    9  O9  UNL     1     -35.877   5.950   3.669  1.00 20.00    -0.279 OA
HETATM   10 CL10 UNL     1     -34.813   4.362   5.509  1.00 20.00    -0.043 Cl
ENDBRANCH   6   8
TORSDOF 1
ENDMDL
MODEL 8
REMARK VINA RESULT:      -4.3     11.910     12.328
REMARK  1 active torsions:
REMARK  status: ('A' for Active; 'I' for Inactive)
REMARK    1  A    between atoms: C3_3  and  C7_7 
ROOT
HETATM    1  C1  UNL     1     -36.681  16.146  -3.751  1.00 20.00    -0.023 C 
HETATM    2  C2  UNL     1     -36.176  15.080  -4.400  1.00 20.00    -0.075 C 
HETATM    3  C4  UNL     1     -35.875  17.037  -2.855  1.00 20.00     0.027 C 
HETATM    4  C5  UNL     1     -34.555  16.399  -2.424  1.00 20.00     0.005 C 
HETATM    5  C6  UNL     1     -33.840  15.782  -3.618  1.00 20.00     0.018 C 
HETATM    6  C7  UNL     1     -34.707  14.723  -4.316  1.00 20.00     0.100 C 
HETATM    7  C8  UNL     1     -37.073  14.163  -5.187  1.00 20.00     0.044 C 
ENDROOT
BRANCH   6   8
HETATM    8  C3  UNL     1     -34.179  14.530  -5.708  1.00 20.00     0.227 C 
HETATM    9  O9  UNL     1     -34.089  13.417  -6.216  1.00 20.00    -0.279 OA
HETATM   10 CL10 UNL     1     -33.737  16.036  -6.454  1.00 20.00    -0.043 Cl
ENDBRANCH   6   8
TORSDOF 1
ENDMDL
MODEL 9
REMARK VINA RESULT:      -4.3     11.682     12.828
REMARK  1 active torsions:
REMARK  status: ('A' for Active; 'I' for Inactive)
REMARK    1  A    between atoms: C3_3  and  C7_7 
ROOT
HETATM    1  C1  UNL     1     -35.221  17.295  -5.004  1.00 20.00    -0.023 C 
HETATM    2  C2  UNL     1     -35.875  16.120  -5.065  1.00 20.00    -0.075 C 
HETATM    3  C4  UNL     1     -33.951  17.503  -4.236  1.00 20.00     0.027 C 
HETATM    4  C5  UNL     1     -33.693  16.398  -3.213  1.00 20.00     0.005 C 
HETATM    5  C6  UNL     1     -33.913  15.026  -3.835  1.00 20.00     0.018 C 
HETATM    6  C7  UNL     1     -35.337  14.875  -4.392  1.00 20.00     0.100 C 
HETATM    7  C8  UNL     1     -37.208  16.018  -5.757  1.00 20.00     0.044 C 
ENDROOT
BRANCH   6   8
HETATM    8  C3  UNL     1     -35.332  13.753  -5.390  1.00 20.00     0.227 C 
HETATM    9  O9  UNL     1     -35.984  12.729  -5.214  1.00 20.00    -0.279 OA
HETATM   10 CL10 UNL     1     -34.320  14.101  -6.759  1.00 20.00    -0.043 Cl
ENDBRANCH   6   8
TORSDOF 1
ENDMDL
