MODEL 1
REMARK VINA RESULT:      -5.6      0.000      0.000
REMARK  3 active torsions:
REMARK  status: ('A' for Active; 'I' for Inactive)
REMARK    1  A    between atoms: C8_8  and  C9_9 
REMARK    2  A    between atoms: C8_8  and  O11_11 
REMARK    3  A    between atoms: N10_10  and  O11_11 
ROOT
HETATM    1  C1  UNL     1     -33.014   7.055   4.225  1.00 20.00     0.107 A 
HETATM    2  C2  UNL     1     -33.881   6.031   3.504  1.00 20.00     0.049 A 
HETATM    3  C3  UNL     1     -33.391   7.641   5.540  1.00 20.00     0.031 C 
HETATM    4  C4  UNL     1     -35.217   5.631   4.076  1.00 20.00     0.036 C 
HETATM    5  C5  UNL     1     -33.178   4.920   2.766  1.00 20.00     0.036 C 
HETATM    6  N10 UNL     1     -33.776   7.429   3.039  1.00 20.00    -0.180 NA
ENDROOT
BRANCH   6   7
HETATM    7  O11 UNL     1     -32.860   7.517   1.917  1.00 20.00    -0.302 OA
BRANCH   7   8
HETATM    8  C8  UNL     1     -31.977   8.603   2.166  1.00 20.00     0.197 C 
BRANCH   8   9
HETATM    9  C9  UNL     1     -32.129   9.660   1.069  1.00 20.00     0.003 C 
HETATM   10  C6  UNL     1     -32.856   9.095  -0.152  1.00 20.00     0.011 C 
HETATM   11  C7  UNL     1     -32.866  10.885   1.607  1.00 20.00     0.011 C 
ENDBRANCH   8   9
ENDBRANCH   7   8
ENDBRANCH   6   7
TORSDOF 3
ENDMDL
MODEL 2
REMARK VINA RESULT:      -4.5      1.398      2.278
REMARK  3 active torsions:
REMARK  status: ('A' for Active; 'I' for Inactive)
REMARK    1  A    between atoms: C8_8  and  C9_9 
REMARK    2  A    between atoms: C8_8  and  O11_11 
REMARK    3  A    between atoms: N10_10  and  O11_11 
ROOT
HETATM    1  C1  UNL     1     -33.506   5.464   2.667  1.00 20.00     0.107 A 
HETATM    2  C2  UNL     1     -34.436   5.659   3.858  1.00 20.00     0.049 A 
HETATM    3  C3  UNL     1     -32.663   4.249   2.498  1.00 20.00     0.031 C 
HETATM    4  C4  UNL     1     -34.471   4.638   4.967  1.00 20.00     0.036 C 
HETATM    5  C5  UNL     1     -35.764   6.325   3.602  1.00 20.00     0.036 C 
HETATM    6  N10 UNL     1     -33.175   6.414   3.723  1.00 20.00    -0.180 NA
ENDROOT
BRANCH   6   7
HETATM    7  O11 UNL     1     -33.442   7.753   3.231  1.00 20.00    -0.302 OA
BRANCH   7   8
HETATM    8  C8  UNL     1     -32.229   8.266   2.698  1.00 20.00     0.197 C 
BRANCH   8   9
HETATM    9  C9  UNL     1     -32.482   8.870   1.314  1.00 20.00     0.003 C 
HETATM   10  C6  UNL     1     -32.792  10.366   1.407  1.00 20.00     0.011 C 
HETATM   11  C7  UNL     1     -31.281   8.633   0.402  1.00 20.00     0.011 C 
ENDBRANCH   8   9
ENDBRANCH   7   8
ENDBRANCH   6   7
TORSDOF 3
ENDMDL
MODEL 3
REMARK VINA RESULT:      -4.3      1.219      4.804
REMARK  3 active torsions:
REMARK  status: ('A' for Active; 'I' for Inactive)
REMARK    1  A    between atoms: C8_8  and  C9_9 
REMARK    2  A    between atoms: C8_8  and  O11_11 
REMARK    3  A    between atoms: N10_10  and  O11_11 
ROOT
HETATM    1  C1  UNL     1     -31.463   8.769   1.088  1.00 20.00     0.107 A 
HETATM    2  C2  UNL     1     -32.746   9.564   0.881  1.00 20.00     0.049 A 
HETATM    3  C3  UNL     1     -30.705   8.162  -0.040  1.00 20.00     0.031 C 
HETATM    4  C4  UNL     1     -33.343   9.694  -0.497  1.00 20.00     0.036 C 
HETATM    5  C5  UNL     1     -32.966  10.771   1.756  1.00 20.00     0.036 C 
HETATM    6  N10 UNL     1     -32.755   8.204   1.457  1.00 20.00    -0.180 NA
ENDROOT
BRANCH   6   7
HETATM    7  O11 UNL     1     -32.887   8.272   2.900  1.00 20.00    -0.302 OA
BRANCH   7   8
HETATM    8  C8  UNL     1     -33.036   6.943   3.382  1.00 20.00     0.197 C 
BRANCH   8   9
HETATM    9  C9  UNL     1     -34.167   6.885   4.412  1.00 20.00     0.003 C 
HETATM   10  C6  UNL     1     -34.790   5.488   4.478  1.00 20.00     0.011 C 
HETATM   11  C7  UNL     1     -33.657   7.303   5.789  1.00 20.00     0.011 C 
ENDBRANCH   8   9
ENDBRANCH   7   8
ENDBRANCH   6   7
TORSDOF 3
ENDMDL
MODEL 4
REMARK VINA RESULT:      -4.3      1.379      2.167
REMARK  3 active torsions:
REMARK  status: ('A' for Active; 'I' for Inactive)
REMARK    1  A    between atoms: C8_8  and  C9_9 
REMARK    2  A    between atoms: C8_8  and  O11_11 
REMARK    3  A    between atoms: N10_10  and  O11_11 
ROOT
HETATM    1  C1  UNL     1     -34.749   6.771   3.825  1.00 20.00     0.107 A 
HETATM    2  C2  UNL     1     -33.952   6.423   5.075  1.00 20.00     0.049 A 
HETATM    3  C3  UNL     1     -35.877   5.933   3.334  1.00 20.00     0.031 C 
HETATM    4  C4  UNL     1     -34.237   5.147   5.825  1.00 20.00     0.036 C 
HETATM    5  C5  UNL     1     -33.509   7.562   5.958  1.00 20.00     0.036 C 
HETATM    6  N10 UNL     1     -33.388   6.256   3.721  1.00 20.00    -0.180 NA
ENDROOT
BRANCH   6   7
HETATM    7  O11 UNL     1     -32.505   7.363   3.405  1.00 20.00    -0.302 OA
BRANCH   7   8
HETATM    8  C8  UNL     1     -33.021   8.011   2.250  1.00 20.00     0.197 C 
BRANCH   8   9
HETATM    9  C9  UNL     1     -32.063   9.117   1.800  1.00 20.00     0.003 C 
HETATM   10  C6  UNL     1     -31.232   8.677   0.593  1.00 20.00     0.011 C 
HETATM   11  C7  UNL     1     -32.836  10.393   1.476  1.00 20.00     0.011 C 
ENDBRANCH   8   9
ENDBRANCH   7   8
ENDBRANCH   6   7
TORSDOF 3
ENDMDL
MODEL 5
REMARK VINA RESULT:      -4.2     10.354     11.229
REMARK  3 active torsions:
REMARK  status: ('A' for Active; 'I' for Inactive)
REMARK    1  A    between atoms: C8_8  and  C9_9 
REMARK    2  A    between atoms: C8_8  and  O11_11 
REMARK    3  A    between atoms: N10_10  and  O11_11 
ROOT
HETATM    1  C1  UNL     1     -34.536  15.232  -6.127  1.00 20.00     0.107 A 
HETATM    2  C2  UNL     1     -35.256  13.891  -6.078  1.00 20.00     0.049 A 
HETATM    3  C3  UNL     1     -33.810  15.709  -7.336  1.00 20.00     0.031 C 
HETATM    4  C4  UNL     1     -35.186  12.950  -7.253  1.00 20.00     0.036 C 
HETATM    5  C5  UNL     1     -36.561  13.829  -5.326  1.00 20.00     0.036 C 
HETATM    6  N10 UNL     1     -33.984  14.119  -5.364  1.00 20.00    -0.180 NA
ENDROOT
BRANCH   6   7
HETATM    7  O11 UNL     1     -34.236  14.362  -3.956  1.00 20.00    -0.302 OA
BRANCH   7   8
HETATM    8  C8  UNL     1     -33.832  15.694  -3.669  1.00 20.00     0.197 C 
BRANCH   8   9
HETATM    9  C9  UNL     1     -34.649  16.246  -2.498  1.00 20.00     0.003 C 
HETATM   10  C6  UNL     1     -33.867  17.312  -1.727  1.00 20.00     0.011 C 
HETATM   11  C7  UNL     1     -35.975  16.816  -2.994  1.00 20.00     0.011 C 
ENDBRANCH   8   9
ENDBRANCH   7   8
ENDBRANCH   6   7
TORSDOF 3
ENDMDL
MODEL 6
REMARK VINA RESULT:      -4.0     10.339     11.461
REMARK  3 active torsions:
REMARK  status: ('A' for Active; 'I' for Inactive)
REMARK    1  A    between atoms: C8_8  and  C9_9 
REMARK    2  A    between atoms: C8_8  and  O11_11 
REMARK    3  A    between atoms: N10_10  and  O11_11 
ROOT
HETATM    1  C1  UNL     1     -34.615  15.910  -5.930  1.00 20.00     0.107 A 
HETATM    2  C2  UNL     1     -34.648  14.388  -5.878  1.00 20.00     0.049 A 
HETATM    3  C3  UNL     1     -34.497  16.667  -7.206  1.00 20.00     0.031 C 
HETATM    4  C4  UNL     1     -34.478  13.583  -7.142  1.00 20.00     0.036 C 
HETATM    5  C5  UNL     1     -35.561  13.745  -4.866  1.00 20.00     0.036 C 
HETATM    6  N10 UNL     1     -33.464  15.156  -5.445  1.00 20.00    -0.180 NA
ENDROOT
BRANCH   6   7
HETATM    7  O11 UNL     1     -33.432  15.254  -3.998  1.00 20.00    -0.302 OA
BRANCH   7   8
HETATM    8  C8  UNL     1     -33.629  16.619  -3.653  1.00 20.00     0.197 C 
BRANCH   8   9
HETATM    9  C9  UNL     1     -33.871  16.747  -2.147  1.00 20.00     0.003 C 
HETATM   10  C6  UNL     1     -33.146  17.965  -1.568  1.00 20.00     0.011 C 
HETATM   11  C7  UNL     1     -35.366  16.830  -1.853  1.00 20.00     0.011 C 
ENDBRANCH   8   9
ENDBRANCH   7   8
ENDBRANCH   6   7
TORSDOF 3
ENDMDL
MODEL 7
REMARK VINA RESULT:      -4.0     10.621     11.412
REMARK  3 active torsions:
REMARK  status: ('A' for Active; 'I' for Inactive)
REMARK    1  A    between atoms: C8_8  and  C9_9 
REMARK    2  A    between atoms: C8_8  and  O11_11 
REMARK    3  A    between atoms: N10_10  and  O11_11 
ROOT
HETATM    1  C1  UNL     1     -35.263  14.614  -4.808  1.00 20.00     0.107 A 
HETATM    2  C2  UNL     1     -34.241  15.230  -5.754  1.00 20.00     0.049 A 
HETATM    3  C3  UNL     1     -36.271  13.615  -5.256  1.00 20.00     0.031 C 
HETATM    4  C4  UNL     1     -34.273  14.897  -7.224  1.00 20.00     0.036 C 
HETATM    5  C5  UNL     1     -32.855  15.478  -5.216  1.00 20.00     0.036 C 
HETATM    6  N10 UNL     1     -35.395  15.998  -5.247  1.00 20.00    -0.180 NA
ENDROOT
BRANCH   6   7
HETATM    7  O11 UNL     1     -34.982  16.864  -4.158  1.00 20.00    -0.302 OA
BRANCH   7   8
HETATM    8  C8  UNL     1     -35.767  16.530  -3.021  1.00 20.00     0.197 C 
BRANCH   8   9
HETATM    9  C9  UNL     1     -34.914  16.624  -1.753  1.00 20.00     0.003 C 
HETATM   10  C6  UNL     1     -33.549  17.251  -2.045  1.00 20.00     0.011 C 
HETATM   11  C7  UNL     1     -35.646  17.423  -0.677  1.00 20.00     0.011 C 
ENDBRANCH   8   9
ENDBRANCH   7   8
ENDBRANCH   6   7
TORSDOF 3
ENDMDL
MODEL 8
REMARK VINA RESULT:      -3.8     10.248     11.597
REMARK  3 active torsions:
REMARK  status: ('A' for Active; 'I' for Inactive)
REMARK    1  A    between atoms: C8_8  and  C9_9 
REMARK    2  A    between atoms: C8_8  and  O11_11 
REMARK    3  A    between atoms: N10_10  and  O11_11 
ROOT
HETATM    1  C1  UNL     1     -34.344  16.366  -5.558  1.00 20.00     0.107 A 
HETATM    2  C2  UNL     1     -34.829  15.591  -4.340  1.00 20.00     0.049 A 
HETATM    3  C3  UNL     1     -33.484  15.754  -6.608  1.00 20.00     0.031 C 
HETATM    4  C4  UNL     1     -34.376  14.171  -4.115  1.00 20.00     0.036 C 
HETATM    5  C5  UNL     1     -36.228  15.868  -3.851  1.00 20.00     0.036 C 
HETATM    6  N10 UNL     1     -33.777  16.621  -4.240  1.00 20.00    -0.180 NA
ENDROOT
BRANCH   6   7
HETATM    7  O11 UNL     1     -34.336  17.862  -3.736  1.00 20.00    -0.302 OA
BRANCH   7   8
HETATM    8  C8  UNL     1     -33.357  18.470  -2.904  1.00 20.00     0.197 C 
BRANCH   8   9
HETATM    9  C9  UNL     1     -33.187  17.657  -1.618  1.00 20.00     0.003 C 
HETATM   10  C6  UNL     1     -32.216  18.340  -0.652  1.00 20.00     0.011 C 
HETATM   11  C7  UNL     1     -34.539  17.437  -0.944  1.00 20.00     0.011 C 
ENDBRANCH   8   9
ENDBRANCH   7   8
ENDBRANCH   6   7
TORSDOF 3
ENDMDL
MODEL 9
REMARK VINA RESULT:      -3.8      1.291      4.522
REMARK  3 active torsions:
REMARK  status: ('A' for Active; 'I' for Inactive)
REMARK    1  A    between atoms: C8_8  and  C9_9 
REMARK    2  A    between atoms: C8_8  and  O11_11 
REMARK    3  A    between atoms: N10_10  and  O11_11 
ROOT
HETATM    1  C1  UNL     1     -31.957   8.362   3.160  1.00 20.00     0.107 A 
HETATM    2  C2  UNL     1     -32.345   8.633   1.712  1.00 20.00     0.049 A 
HETATM    3  C3  UNL     1     -30.540   8.251   3.603  1.00 20.00     0.031 C 
HETATM    4  C4  UNL     1     -31.283   8.720   0.646  1.00 20.00     0.036 C 
HETATM    5  C5  UNL     1     -33.529   9.533   1.466  1.00 20.00     0.036 C 
HETATM    6  N10 UNL     1     -32.523   7.304   2.331  1.00 20.00    -0.180 NA
ENDROOT
BRANCH   6   7
HETATM    7  O11 UNL     1     -33.909   7.114   2.718  1.00 20.00    -0.302 OA
BRANCH   7   8
HETATM    8  C8  UNL     1     -34.011   5.839   3.338  1.00 20.00     0.197 C 
BRANCH   8   9
HETATM    9  C9  UNL     1     -34.654   5.980   4.720  1.00 20.00     0.003 C 
HETATM   10  C6  UNL     1     -34.671   4.644   5.466  1.00 20.00     0.011 C 
HETATM   11  C7  UNL     1     -33.921   7.037   5.543  1.00 20.00     0.011 C 
ENDBRANCH   8   9
ENDBRANCH   7   8
ENDBRANCH   6   7
TORSDOF 3
ENDMDL
