MODEL 1
REMARK VINA RESULT:      -6.1      0.000      0.000
REMARK  0 active torsions:
REMARK  status: ('A' for Active; 'I' for Inactive)
ROOT
HETATM    1  C1  UNL     1     -32.163   6.333   2.535  1.00 20.00     0.012 A 
HETATM    2  C2  UNL     1     -33.887   6.341   6.031  1.00 20.00     0.006 A 
HETATM    3  C3  UNL     1     -32.002   8.321   3.877  1.00 20.00     0.101 C 
HETATM    4  C4  UNL     1     -32.389   7.647   2.609  1.00 20.00     0.016 A 
HETATM    5  C5  UNL     1     -33.573   7.194   5.042  1.00 20.00     0.035 A 
HETATM    6  C6  UNL     1     -34.466   4.289   4.592  1.00 20.00     0.015 A 
HETATM    7  C7  UNL     1     -33.534   6.745   2.539  1.00 20.00     0.017 A 
HETATM    8  C8  UNL     1     -34.858   5.310   5.624  1.00 20.00     0.015 A 
HETATM    9  C9  UNL     1     -34.375   6.834   3.784  1.00 20.00     0.048 A 
HETATM   10  C10 UNL     1     -35.130   5.568   4.150  1.00 20.00     0.004 A 
HETATM   11  N11 UNL     1     -32.567   8.128   5.033  1.00 20.00    -0.269 NA
ENDROOT
TORSDOF 0
ENDMDL
MODEL 2
REMARK VINA RESULT:      -5.6      1.510      3.731
REMARK  0 active torsions:
REMARK  status: ('A' for Active; 'I' for Inactive)
ROOT
HETATM    1  C1  UNL     1     -33.446   6.689   6.164  1.00 20.00     0.012 A 
HETATM    2  C2  UNL     1     -32.864   5.522   2.490  1.00 20.00     0.006 A 
HETATM    3  C3  UNL     1     -34.611   4.731   5.395  1.00 20.00     0.101 C 
HETATM    4  C4  UNL     1     -34.629   6.097   5.985  1.00 20.00     0.016 A 
HETATM    5  C5  UNL     1     -33.826   5.512   3.428  1.00 20.00     0.035 A 
HETATM    6  C6  UNL     1     -31.837   7.818   3.026  1.00 20.00     0.015 A 
HETATM    7  C7  UNL     1     -34.314   7.279   5.190  1.00 20.00     0.017 A 
HETATM    8  C8  UNL     1     -32.493   6.879   2.052  1.00 20.00     0.015 A 
HETATM    9  C9  UNL     1     -34.266   6.952   3.722  1.00 20.00     0.048 A 
HETATM   10  C10 UNL     1     -33.338   7.823   2.893  1.00 20.00     0.004 A 
HETATM   11  N11 UNL     1     -34.249   4.444   4.179  1.00 20.00    -0.269 NA
ENDROOT
TORSDOF 0
ENDMDL
MODEL 3
REMARK VINA RESULT:      -5.3      1.016      3.382
REMARK  0 active torsions:
REMARK  status: ('A' for Active; 'I' for Inactive)
ROOT
HETATM    1  C1  UNL     1     -35.387   6.240   3.473  1.00 20.00     0.012 A 
HETATM    2  C2  UNL     1     -32.283   8.449   4.300  1.00 20.00     0.006 A 
HETATM    3  C3  UNL     1     -34.505   6.170   5.709  1.00 20.00     0.101 C 
HETATM    4  C4  UNL     1     -34.892   5.477   4.451  1.00 20.00     0.016 A 
HETATM    5  C5  UNL     1     -32.838   7.283   4.670  1.00 20.00     0.035 A 
HETATM    6  C6  UNL     1     -32.862   8.367   1.796  1.00 20.00     0.015 A 
HETATM    7  C7  UNL     1     -34.117   5.628   3.224  1.00 20.00     0.017 A 
HETATM    8  C8  UNL     1     -31.841   8.463   2.895  1.00 20.00     0.015 A 
HETATM    9  C9  UNL     1     -32.798   6.303   3.491  1.00 20.00     0.048 A 
HETATM   10  C10 UNL     1     -32.234   7.106   2.332  1.00 20.00     0.004 A 
HETATM   11  N11 UNL     1     -33.522   7.015   5.829  1.00 20.00    -0.269 NA
ENDROOT
TORSDOF 0
ENDMDL
MODEL 4
REMARK VINA RESULT:      -4.6     11.809     13.467
REMARK  0 active torsions:
REMARK  status: ('A' for Active; 'I' for Inactive)
ROOT
HETATM    1  C1  UNL     1     -34.922  16.223  -7.544  1.00 20.00     0.012 A 
HETATM    2  C2  UNL     1     -34.654  14.363  -4.128  1.00 20.00     0.006 A 
HETATM    3  C3  UNL     1     -34.313  13.897  -7.561  1.00 20.00     0.101 C 
HETATM    4  C4  UNL     1     -34.020  15.311  -7.918  1.00 20.00     0.016 A 
HETATM    5  C5  UNL     1     -34.108  14.335  -5.355  1.00 20.00     0.035 A 
HETATM    6  C6  UNL     1     -34.951  16.908  -3.906  1.00 20.00     0.015 A 
HETATM    7  C7  UNL     1     -33.641  16.293  -6.909  1.00 20.00     0.017 A 
HETATM    8  C8  UNL     1     -34.379  15.614  -3.399  1.00 20.00     0.015 A 
HETATM    9  C9  UNL     1     -33.323  15.631  -5.595  1.00 20.00     0.048 A 
HETATM   10  C10 UNL     1     -33.580  16.479  -4.361  1.00 20.00     0.004 A 
HETATM   11  N11 UNL     1     -34.340  13.418  -6.351  1.00 20.00    -0.269 NA
ENDROOT
TORSDOF 0
ENDMDL
MODEL 5
REMARK VINA RESULT:      -4.5      1.410      2.317
REMARK  0 active torsions:
REMARK  status: ('A' for Active; 'I' for Inactive)
ROOT
HETATM    1  C1  UNL     1     -32.305   7.667   4.323  1.00 20.00     0.012 A 
HETATM    2  C2  UNL     1     -34.176   4.270   4.718  1.00 20.00     0.006 A 
HETATM    3  C3  UNL     1     -33.893   7.446   6.114  1.00 20.00     0.101 C 
HETATM    4  C4  UNL     1     -33.411   8.149   4.894  1.00 20.00     0.016 A 
HETATM    5  C5  UNL     1     -34.375   5.580   4.937  1.00 20.00     0.035 A 
HETATM    6  C6  UNL     1     -32.801   4.452   2.553  1.00 20.00     0.015 A 
HETATM    7  C7  UNL     1     -33.517   7.545   3.570  1.00 20.00     0.017 A 
HETATM    8  C8  UNL     1     -34.004   3.938   3.293  1.00 20.00     0.015 A 
HETATM    9  C9  UNL     1     -34.396   6.324   3.596  1.00 20.00     0.048 A 
HETATM   10  C10 UNL     1     -34.069   5.267   2.556  1.00 20.00     0.004 A 
HETATM   11  N11 UNL     1     -34.369   6.235   6.143  1.00 20.00    -0.269 NA
ENDROOT
TORSDOF 0
ENDMDL
MODEL 6
REMARK VINA RESULT:      -4.5     11.727     12.694
REMARK  0 active torsions:
REMARK  status: ('A' for Active; 'I' for Inactive)
ROOT
HETATM    1  C1  UNL     1     -36.292  14.457  -6.601  1.00 20.00     0.012 A 
HETATM    2  C2  UNL     1     -34.744  16.349  -3.564  1.00 20.00     0.006 A 
HETATM    3  C3  UNL     1     -37.721  14.982  -4.740  1.00 20.00     0.101 C 
HETATM    4  C4  UNL     1     -37.121  13.985  -5.667  1.00 20.00     0.016 A 
HETATM    5  C5  UNL     1     -35.710  15.455  -3.829  1.00 20.00     0.035 A 
HETATM    6  C6  UNL     1     -33.009  15.552  -5.287  1.00 20.00     0.015 A 
HETATM    7  C7  UNL     1     -35.710  13.623  -5.594  1.00 20.00     0.017 A 
HETATM    8  C8  UNL     1     -33.391  15.849  -3.864  1.00 20.00     0.015 A 
HETATM    9  C9  UNL     1     -35.076  14.153  -4.336  1.00 20.00     0.048 A 
HETATM   10  C10 UNL     1     -33.590  14.453  -4.435  1.00 20.00     0.004 A 
HETATM   11  N11 UNL     1     -37.065  15.671  -3.852  1.00 20.00    -0.269 NA
ENDROOT
TORSDOF 0
ENDMDL
MODEL 7
REMARK VINA RESULT:      -4.5     11.945     13.395
REMARK  0 active torsions:
REMARK  status: ('A' for Active; 'I' for Inactive)
ROOT
HETATM    1  C1  UNL     1     -35.900  15.401  -4.146  1.00 20.00     0.012 A 
HETATM    2  C2  UNL     1     -33.667  15.823  -7.314  1.00 20.00     0.006 A 
HETATM    3  C3  UNL     1     -33.876  16.682  -3.947  1.00 20.00     0.101 C 
HETATM    4  C4  UNL     1     -34.734  15.547  -3.512  1.00 20.00     0.016 A 
HETATM    5  C5  UNL     1     -33.547  15.752  -5.977  1.00 20.00     0.035 A 
HETATM    6  C6  UNL     1     -35.584  14.134  -7.610  1.00 20.00     0.015 A 
HETATM    7  C7  UNL     1     -34.928  14.370  -4.350  1.00 20.00     0.017 A 
HETATM    8  C8  UNL     1     -34.181  14.581  -7.917  1.00 20.00     0.015 A 
HETATM    9  C9  UNL     1     -33.959  14.353  -5.501  1.00 20.00     0.048 A 
HETATM   10  C10 UNL     1     -34.447  13.641  -6.751  1.00 20.00     0.004 A 
HETATM   11  N11 UNL     1     -33.293  16.782  -5.106  1.00 20.00    -0.269 NA
ENDROOT
TORSDOF 0
ENDMDL
MODEL 8
REMARK VINA RESULT:      -4.4     12.029     12.961
REMARK  0 active torsions:
REMARK  status: ('A' for Active; 'I' for Inactive)
ROOT
HETATM    1  C1  UNL     1     -37.166  14.318  -5.046  1.00 20.00     0.012 A 
HETATM    2  C2  UNL     1     -33.360  14.780  -4.337  1.00 20.00     0.006 A 
HETATM    3  C3  UNL     1     -35.596  13.343  -6.584  1.00 20.00     0.101 C 
HETATM    4  C4  UNL     1     -36.747  14.245  -6.312  1.00 20.00     0.016 A 
HETATM    5  C5  UNL     1     -34.199  14.642  -5.377  1.00 20.00     0.035 A 
HETATM    6  C6  UNL     1     -34.880  16.186  -2.811  1.00 20.00     0.015 A 
HETATM    7  C7  UNL     1     -36.581  15.504  -5.595  1.00 20.00     0.017 A 
HETATM    8  C8  UNL     1     -33.591  16.014  -3.564  1.00 20.00     0.015 A 
HETATM    9  C9  UNL     1     -35.126  15.862  -5.451  1.00 20.00     0.048 A 
HETATM   10  C10 UNL     1     -34.780  16.692  -4.227  1.00 20.00     0.004 A 
HETATM   11  N11 UNL     1     -34.380  13.530  -6.161  1.00 20.00    -0.269 NA
ENDROOT
TORSDOF 0
ENDMDL
MODEL 9
REMARK VINA RESULT:      -4.4     11.746     13.025
REMARK  0 active torsions:
REMARK  status: ('A' for Active; 'I' for Inactive)
ROOT
HETATM    1  C1  UNL     1     -34.358  15.570  -3.484  1.00 20.00     0.012 A 
HETATM    2  C2  UNL     1     -36.222  15.446  -6.906  1.00 20.00     0.006 A 
HETATM    3  C3  UNL     1     -33.081  15.934  -5.488  1.00 20.00     0.101 C 
HETATM    4  C4  UNL     1     -33.320  15.180  -4.228  1.00 20.00     0.016 A 
HETATM    5  C5  UNL     1     -35.010  15.184  -6.390  1.00 20.00     0.035 A 
HETATM    6  C6  UNL     1     -37.655  14.679  -4.913  1.00 20.00     0.015 A 
HETATM    7  C7  UNL     1     -34.452  14.273  -4.082  1.00 20.00     0.017 A 
HETATM    8  C8  UNL     1     -37.283  14.578  -6.366  1.00 20.00     0.015 A 
HETATM    9  C9  UNL     1     -35.116  14.011  -5.407  1.00 20.00     0.048 A 
HETATM   10  C10 UNL     1     -36.599  13.690  -5.338  1.00 20.00     0.004 A 
HETATM   11  N11 UNL     1     -33.865  15.929  -6.526  1.00 20.00    -0.269 NA
ENDROOT
TORSDOF 0
ENDMDL
