MODEL 1
REMARK VINA RESULT:      -6.4      0.000      0.000
REMARK  1 active torsions:
REMARK  status: ('A' for Active; 'I' for Inactive)
REMARK    1  A    between atoms: C2_2  and  C3_3 
ROOT
HETATM    1  C1  UNL     1     -33.313   7.340   5.387  1.00 20.00    -0.015 C 
HETATM    2  C2  UNL     1     -33.206   7.234   4.059  1.00 20.00    -0.012 C 
HETATM    3  C4  UNL     1     -34.466   6.537   5.897  1.00 20.00     0.032 C 
HETATM    4  C5  UNL     1     -34.264   6.356   3.463  1.00 20.00     0.022 C 
HETATM    5  C6  UNL     1     -34.784   5.598   4.716  1.00 20.00    -0.007 C 
HETATM    6  C8  UNL     1     -33.797   5.467   2.316  1.00 20.00     0.015 C 
HETATM    7  C9  UNL     1     -34.146   4.222   4.947  1.00 20.00     0.011 C 
ENDROOT
BRANCH   2   8
HETATM    8  C3  UNL     1     -32.195   7.965   3.313  1.00 20.00     0.151 C 
HETATM    9  C7  UNL     1     -32.573   8.548   1.969  1.00 20.00     0.096 C 
HETATM   10  O10 UNL     1     -31.047   8.105   3.758  1.00 20.00    -0.293 OA
ENDBRANCH   2   8
TORSDOF 1
ENDMDL
MODEL 2
REMARK VINA RESULT:      -5.5      1.985      4.071
REMARK  1 active torsions:
REMARK  status: ('A' for Active; 'I' for Inactive)
REMARK    1  A    between atoms: C2_2  and  C3_3 
ROOT
HETATM    1  C1  UNL     1     -33.347   5.666   2.585  1.00 20.00    -0.015 C 
HETATM    2  C2  UNL     1     -33.827   5.825   3.821  1.00 20.00    -0.012 C 
HETATM    3  C4  UNL     1     -32.987   6.982   1.976  1.00 20.00     0.032 C 
HETATM    4  C5  UNL     1     -33.874   7.263   4.241  1.00 20.00     0.022 C 
HETATM    5  C6  UNL     1     -32.935   7.925   3.195  1.00 20.00    -0.007 C 
HETATM    6  C8  UNL     1     -33.508   7.525   5.697  1.00 20.00     0.015 C 
HETATM    7  C9  UNL     1     -31.484   8.113   3.659  1.00 20.00     0.011 C 
ENDROOT
BRANCH   2   8
HETATM    8  C3  UNL     1     -34.301   4.698   4.609  1.00 20.00     0.151 C 
HETATM    9  C7  UNL     1     -34.774   4.956   6.023  1.00 20.00     0.096 C 
HETATM   10  O10 UNL     1     -34.312   3.551   4.142  1.00 20.00    -0.293 OA
ENDBRANCH   2   8
TORSDOF 1
ENDMDL
MODEL 3
REMARK VINA RESULT:      -5.1      1.865      3.700
REMARK  1 active torsions:
REMARK  status: ('A' for Active; 'I' for Inactive)
REMARK    1  A    between atoms: C2_2  and  C3_3 
ROOT
HETATM    1  C1  UNL     1     -33.171   7.686   4.838  1.00 20.00    -0.015 C 
HETATM    2  C2  UNL     1     -33.604   6.651   4.112  1.00 20.00    -0.012 C 
HETATM    3  C4  UNL     1     -31.954   8.298   4.225  1.00 20.00     0.032 C 
HETATM    4  C5  UNL     1     -32.752   6.395   2.906  1.00 20.00     0.022 C 
HETATM    5  C6  UNL     1     -31.964   7.730   2.792  1.00 20.00    -0.007 C 
HETATM    6  C8  UNL     1     -33.513   5.983   1.652  1.00 20.00     0.015 C 
HETATM    7  C9  UNL     1     -32.567   8.753   1.820  1.00 20.00     0.011 C 
ENDROOT
BRANCH   2   8
HETATM    8  C3  UNL     1     -34.745   5.850   4.527  1.00 20.00     0.151 C 
HETATM    9  C7  UNL     1     -34.610   4.992   5.766  1.00 20.00     0.096 C 
HETATM   10  O10 UNL     1     -35.803   5.861   3.882  1.00 20.00    -0.293 OA
ENDBRANCH   2   8
TORSDOF 1
ENDMDL
MODEL 4
REMARK VINA RESULT:      -5.0      0.924      2.215
REMARK  1 active torsions:
REMARK  status: ('A' for Active; 'I' for Inactive)
REMARK    1  A    between atoms: C2_2  and  C3_3 
ROOT
HETATM    1  C1  UNL     1     -32.858   6.020   2.285  1.00 20.00    -0.015 C 
HETATM    2  C2  UNL     1     -32.669   6.929   3.246  1.00 20.00    -0.012 C 
HETATM    3  C4  UNL     1     -33.568   4.817   2.816  1.00 20.00     0.032 C 
HETATM    4  C5  UNL     1     -33.210   6.487   4.572  1.00 20.00     0.022 C 
HETATM    5  C6  UNL     1     -34.147   5.320   4.154  1.00 20.00    -0.007 C 
HETATM    6  C8  UNL     1     -33.871   7.584   5.399  1.00 20.00     0.015 C 
HETATM    7  C9  UNL     1     -35.622   5.708   3.981  1.00 20.00     0.011 C 
ENDROOT
BRANCH   2   8
HETATM    8  C3  UNL     1     -31.952   8.169   2.996  1.00 20.00     0.151 C 
HETATM    9  C7  UNL     1     -32.274   8.945   1.738  1.00 20.00     0.096 C 
HETATM   10  O10 UNL     1     -31.091   8.581   3.786  1.00 20.00    -0.293 OA
ENDBRANCH   2   8
TORSDOF 1
ENDMDL
MODEL 5
REMARK VINA RESULT:      -4.8     11.512     12.421
REMARK  1 active torsions:
REMARK  status: ('A' for Active; 'I' for Inactive)
REMARK    1  A    between atoms: C2_2  and  C3_3 
ROOT
HETATM    1  C1  UNL     1     -36.469  15.706  -3.972  1.00 20.00    -0.015 C 
HETATM    2  C2  UNL     1     -35.554  14.843  -4.423  1.00 20.00    -0.012 C 
HETATM    3  C4  UNL     1     -35.921  16.531  -2.852  1.00 20.00     0.032 C 
HETATM    4  C5  UNL     1     -34.255  14.940  -3.683  1.00 20.00     0.022 C 
HETATM    5  C6  UNL     1     -34.399  16.317  -2.977  1.00 20.00    -0.007 C 
HETATM    6  C8  UNL     1     -33.007  14.781  -4.543  1.00 20.00     0.015 C 
HETATM    7  C9  UNL     1     -33.757  17.494  -3.723  1.00 20.00     0.011 C 
ENDROOT
BRANCH   2   8
HETATM    8  C3  UNL     1     -35.859  13.888  -5.476  1.00 20.00     0.151 C 
HETATM    9  C7  UNL     1     -36.059  14.408  -6.883  1.00 20.00     0.096 C 
HETATM   10  O10 UNL     1     -35.961  12.677  -5.233  1.00 20.00    -0.293 OA
ENDBRANCH   2   8
TORSDOF 1
ENDMDL
MODEL 6
REMARK VINA RESULT:      -4.7     11.767     12.866
REMARK  1 active torsions:
REMARK  status: ('A' for Active; 'I' for Inactive)
REMARK    1  A    between atoms: C2_2  and  C3_3 
ROOT
HETATM    1  C1  UNL     1     -35.044  15.356  -3.583  1.00 20.00    -0.015 C 
HETATM    2  C2  UNL     1     -35.032  14.711  -4.753  1.00 20.00    -0.012 C 
HETATM    3  C4  UNL     1     -33.817  16.193  -3.420  1.00 20.00     0.032 C 
HETATM    4  C5  UNL     1     -33.802  15.000  -5.559  1.00 20.00     0.022 C 
HETATM    5  C6  UNL     1     -33.261  16.276  -4.856  1.00 20.00    -0.007 C 
HETATM    6  C8  UNL     1     -34.029  15.134  -7.060  1.00 20.00     0.015 C 
HETATM    7  C9  UNL     1     -33.679  17.599  -5.511  1.00 20.00     0.011 C 
ENDROOT
BRANCH   2   8
HETATM    8  C3  UNL     1     -36.092  13.788  -5.127  1.00 20.00     0.151 C 
HETATM    9  C7  UNL     1     -37.496  14.329  -5.287  1.00 20.00     0.096 C 
HETATM   10  O10 UNL     1     -35.858  12.584  -5.305  1.00 20.00    -0.293 OA
ENDBRANCH   2   8
TORSDOF 1
ENDMDL
MODEL 7
REMARK VINA RESULT:      -4.5      1.669      2.984
REMARK  1 active torsions:
REMARK  status: ('A' for Active; 'I' for Inactive)
REMARK    1  A    between atoms: C2_2  and  C3_3 
ROOT
HETATM    1  C1  UNL     1     -33.671   7.146   1.805  1.00 20.00    -0.015 C 
HETATM    2  C2  UNL     1     -32.630   7.930   2.098  1.00 20.00    -0.012 C 
HETATM    3  C4  UNL     1     -33.872   6.105   2.859  1.00 20.00     0.032 C 
HETATM    4  C5  UNL     1     -31.961   7.545   3.383  1.00 20.00     0.022 C 
HETATM    5  C6  UNL     1     -33.044   6.647   4.042  1.00 20.00    -0.007 C 
HETATM    6  C8  UNL     1     -31.479   8.712   4.237  1.00 20.00     0.015 C 
HETATM    7  C9  UNL     1     -33.957   7.368   5.043  1.00 20.00     0.011 C 
ENDROOT
BRANCH   2   8
HETATM    8  C3  UNL     1     -32.193   8.988   1.201  1.00 20.00     0.151 C 
HETATM    9  C7  UNL     1     -32.961  10.292   1.198  1.00 20.00     0.096 C 
HETATM   10  O10 UNL     1     -31.221   8.829   0.449  1.00 20.00    -0.293 OA
ENDBRANCH   2   8
TORSDOF 1
ENDMDL
MODEL 8
REMARK VINA RESULT:      -4.4     11.738     12.531
REMARK  1 active torsions:
REMARK  status: ('A' for Active; 'I' for Inactive)
REMARK    1  A    between atoms: C2_2  and  C3_3 
ROOT
HETATM    1  C1  UNL     1     -33.782  14.815  -4.336  1.00 20.00    -0.015 C 
HETATM    2  C2  UNL     1     -34.997  14.841  -4.891  1.00 20.00    -0.012 C 
HETATM    3  C4  UNL     1     -33.486  16.100  -3.633  1.00 20.00     0.032 C 
HETATM    4  C5  UNL     1     -35.709  16.139  -4.661  1.00 20.00     0.022 C 
HETATM    5  C6  UNL     1     -34.879  16.748  -3.497  1.00 20.00    -0.007 C 
HETATM    6  C8  UNL     1     -37.205  16.017  -4.395  1.00 20.00     0.015 C 
HETATM    7  C9  UNL     1     -35.449  16.491  -2.096  1.00 20.00     0.011 C 
ENDROOT
BRANCH   2   8
HETATM    8  C3  UNL     1     -35.500  13.728  -5.681  1.00 20.00     0.151 C 
HETATM    9  C7  UNL     1     -35.446  13.832  -7.189  1.00 20.00     0.096 C 
HETATM   10  O10 UNL     1     -35.971  12.719  -5.137  1.00 20.00    -0.293 OA
ENDBRANCH   2   8
TORSDOF 1
ENDMDL
MODEL 9
REMARK VINA RESULT:      -4.3     11.943     12.651
REMARK  1 active torsions:
REMARK  status: ('A' for Active; 'I' for Inactive)
REMARK    1  A    between atoms: C2_2  and  C3_3 
ROOT
HETATM    1  C1  UNL     1     -36.028  16.211  -2.988  1.00 20.00    -0.015 C 
HETATM    2  C2  UNL     1     -35.375  15.595  -3.977  1.00 20.00    -0.012 C 
HETATM    3  C4  UNL     1     -35.077  16.710  -1.948  1.00 20.00     0.032 C 
HETATM    4  C5  UNL     1     -33.892  15.573  -3.765  1.00 20.00     0.022 C 
HETATM    5  C6  UNL     1     -33.716  16.664  -2.673  1.00 20.00    -0.007 C 
HETATM    6  C8  UNL     1     -33.055  15.775  -5.023  1.00 20.00     0.015 C 
HETATM    7  C9  UNL     1     -33.353  18.057  -3.206  1.00 20.00     0.011 C 
ENDROOT
BRANCH   2   8
HETATM    8  C3  UNL     1     -36.080  14.972  -5.087  1.00 20.00     0.151 C 
HETATM    9  C7  UNL     1     -36.020  13.466  -5.222  1.00 20.00     0.096 C 
HETATM   10  O10 UNL     1     -36.710  15.653  -5.908  1.00 20.00    -0.293 OA
ENDBRANCH   2   8
TORSDOF 1
ENDMDL
