MODEL 1
REMARK VINA RESULT:      -5.0      0.000      0.000
REMARK  2 active torsions:
REMARK  status: ('A' for Active; 'I' for Inactive)
REMARK    1  A    between atoms: C1_1  and  C10_10 
REMARK    2  A    between atoms: C1_1  and  C11_11 
ROOT
HETATM    1  C2  UNL     1     -33.387  17.091  -5.051  1.00 20.00     0.009 C 
HETATM    2  C3  UNL     1     -34.572  16.013  -3.102  1.00 20.00     0.010 C 
HETATM    3  C4  UNL     1     -32.906  14.707  -4.377  1.00 20.00     0.010 C 
HETATM    4  C5  UNL     1     -35.803  16.354  -5.053  1.00 20.00     0.022 C 
HETATM    5  C6  UNL     1     -34.134  15.045  -6.329  1.00 20.00     0.022 C 
HETATM    6  C7  UNL     1     -34.709  17.039  -4.229  1.00 20.00    -0.013 C 
HETATM    7  C8  UNL     1     -32.972  15.677  -5.558  1.00 20.00    -0.013 C 
HETATM    8  C9  UNL     1     -34.370  14.721  -3.909  1.00 20.00     0.002 C 
HETATM    9  C10 UNL     1     -35.195  14.957  -5.223  1.00 20.00     0.026 C 
ENDROOT
BRANCH   9  10
HETATM   10  C1  UNL     1     -36.211  13.896  -5.490  1.00 20.00     0.149 C 
HETATM   11  O12 UNL     1     -35.970  12.717  -5.226  1.00 20.00    -0.296 OA
BRANCH  10  12
HETATM   12  C11 UNL     1     -37.513  14.369  -6.091  1.00 20.00     0.193 C 
HETATM   13 CL13 UNL     1     -38.702  14.710  -4.824  1.00 20.00    -0.123 Cl
ENDBRANCH  10  12
ENDBRANCH   9  10
TORSDOF 2
ENDMDL
MODEL 2
REMARK VINA RESULT:      -5.0      0.710      1.517
REMARK  2 active torsions:
REMARK  status: ('A' for Active; 'I' for Inactive)
REMARK    1  A    between atoms: C1_1  and  C10_10 
REMARK    2  A    between atoms: C1_1  and  C11_11 
ROOT
HETATM    1  C2  UNL     1     -33.587  17.186  -4.488  1.00 20.00     0.009 C 
HETATM    2  C3  UNL     1     -32.888  14.763  -4.397  1.00 20.00     0.010 C 
HETATM    3  C4  UNL     1     -33.408  15.791  -6.583  1.00 20.00     0.010 C 
HETATM    4  C5  UNL     1     -35.027  15.296  -3.635  1.00 20.00     0.022 C 
HETATM    5  C6  UNL     1     -35.546  16.323  -5.826  1.00 20.00     0.022 C 
HETATM    6  C7  UNL     1     -33.612  15.880  -3.640  1.00 20.00    -0.013 C 
HETATM    7  C8  UNL     1     -34.153  16.951  -5.921  1.00 20.00    -0.013 C 
HETATM    8  C9  UNL     1     -33.778  14.633  -5.643  1.00 20.00     0.002 C 
HETATM    9  C10 UNL     1     -35.215  14.997  -5.128  1.00 20.00     0.026 C 
ENDROOT
BRANCH   9  10
HETATM   10  C1  UNL     1     -36.233  13.939  -5.398  1.00 20.00     0.149 C 
HETATM   11  O12 UNL     1     -35.977  12.754  -5.184  1.00 20.00    -0.296 OA
BRANCH  10  12
HETATM   12  C11 UNL     1     -37.557  14.424  -5.940  1.00 20.00     0.193 C 
HETATM   13 CL13 UNL     1     -38.612  14.966  -4.625  1.00 20.00    -0.123 Cl
ENDBRANCH  10  12
ENDBRANCH   9  10
TORSDOF 2
ENDMDL
MODEL 3
REMARK VINA RESULT:      -5.0      1.646      2.669
REMARK  2 active torsions:
REMARK  status: ('A' for Active; 'I' for Inactive)
REMARK    1  A    between atoms: C1_1  and  C10_10 
REMARK    2  A    between atoms: C1_1  and  C11_11 
ROOT
HETATM    1  C2  UNL     1     -33.752  16.346  -3.098  1.00 20.00     0.009 C 
HETATM    2  C3  UNL     1     -33.335  15.704  -5.503  1.00 20.00     0.010 C 
HETATM    3  C4  UNL     1     -35.016  17.442  -4.988  1.00 20.00     0.010 C 
HETATM    4  C5  UNL     1     -34.496  14.183  -4.169  1.00 20.00     0.022 C 
HETATM    5  C6  UNL     1     -36.178  15.924  -3.656  1.00 20.00     0.022 C 
HETATM    6  C7  UNL     1     -33.348  15.190  -4.061  1.00 20.00    -0.013 C 
HETATM    7  C8  UNL     1     -35.100  17.002  -3.525  1.00 20.00    -0.013 C 
HETATM    8  C9  UNL     1     -34.812  16.088  -5.686  1.00 20.00     0.002 C 
HETATM    9  C10 UNL     1     -35.589  15.066  -4.784  1.00 20.00     0.026 C 
ENDROOT
BRANCH   9  10
HETATM   10  C1  UNL     1     -36.633  14.292  -5.519  1.00 20.00     0.149 C 
HETATM   11  O12 UNL     1     -37.569  13.770  -4.912  1.00 20.00    -0.296 OA
BRANCH  10  12
HETATM   12  C11 UNL     1     -36.453  14.204  -7.016  1.00 20.00     0.193 C 
HETATM   13 CL13 UNL     1     -35.252  12.972  -7.431  1.00 20.00    -0.123 Cl
ENDBRANCH  10  12
ENDBRANCH   9  10
TORSDOF 2
ENDMDL
MODEL 4
REMARK VINA RESULT:      -4.8      1.361      2.234
REMARK  2 active torsions:
REMARK  status: ('A' for Active; 'I' for Inactive)
REMARK    1  A    between atoms: C1_1  and  C10_10 
REMARK    2  A    between atoms: C1_1  and  C11_11 
ROOT
HETATM    1  C2  UNL     1     -33.570  17.091  -4.090  1.00 20.00     0.009 C 
HETATM    2  C3  UNL     1     -35.651  17.254  -5.508  1.00 20.00     0.010 C 
HETATM    3  C4  UNL     1     -35.776  16.154  -3.298  1.00 20.00     0.010 C 
HETATM    4  C5  UNL     1     -34.012  15.735  -6.174  1.00 20.00     0.022 C 
HETATM    5  C6  UNL     1     -34.139  14.634  -3.961  1.00 20.00     0.022 C 
HETATM    6  C7  UNL     1     -34.127  17.125  -5.545  1.00 20.00    -0.013 C 
HETATM    7  C8  UNL     1     -34.257  15.980  -3.241  1.00 20.00    -0.013 C 
HETATM    8  C9  UNL     1     -36.035  15.946  -4.799  1.00 20.00     0.002 C 
HETATM    9  C10 UNL     1     -34.927  14.928  -5.245  1.00 20.00     0.026 C 
ENDROOT
BRANCH   9  10
HETATM   10  C1  UNL     1     -35.472  13.690  -5.877  1.00 20.00     0.149 C 
HETATM   11  O12 UNL     1     -35.817  12.732  -5.184  1.00 20.00    -0.296 OA
BRANCH  10  12
HETATM   12  C11 UNL     1     -35.561  13.706  -7.385  1.00 20.00     0.193 C 
HETATM   13 CL13 UNL     1     -37.057  14.490  -7.916  1.00 20.00    -0.123 Cl
ENDBRANCH  10  12
ENDBRANCH   9  10
TORSDOF 2
ENDMDL
MODEL 5
REMARK VINA RESULT:      -4.7      2.567      3.574
REMARK  2 active torsions:
REMARK  status: ('A' for Active; 'I' for Inactive)
REMARK    1  A    between atoms: C1_1  and  C10_10 
REMARK    2  A    between atoms: C1_1  and  C11_11 
ROOT
HETATM    1  C2  UNL     1     -34.051  14.916  -6.709  1.00 20.00     0.009 C 
HETATM    2  C3  UNL     1     -33.111  14.694  -4.378  1.00 20.00     0.010 C 
HETATM    3  C4  UNL     1     -35.394  13.872  -4.846  1.00 20.00     0.010 C 
HETATM    4  C5  UNL     1     -33.731  16.827  -5.089  1.00 20.00     0.022 C 
HETATM    5  C6  UNL     1     -36.017  16.002  -5.556  1.00 20.00     0.022 C 
HETATM    6  C7  UNL     1     -33.101  15.549  -5.647  1.00 20.00    -0.013 C 
HETATM    7  C8  UNL     1     -35.482  14.690  -6.135  1.00 20.00    -0.013 C 
HETATM    8  C9  UNL     1     -34.582  14.824  -3.953  1.00 20.00     0.002 C 
HETATM    9  C10 UNL     1     -34.997  16.257  -4.438  1.00 20.00     0.026 C 
ENDROOT
BRANCH   9  10
HETATM   10  C1  UNL     1     -35.546  17.121  -3.350  1.00 20.00     0.149 C 
HETATM   11  O12 UNL     1     -36.229  18.109  -3.619  1.00 20.00    -0.296 OA
BRANCH  10  12
HETATM   12  C11 UNL     1     -35.203  16.699  -1.941  1.00 20.00     0.193 C 
HETATM   13 CL13 UNL     1     -33.615  17.321  -1.468  1.00 20.00    -0.123 Cl
ENDBRANCH  10  12
ENDBRANCH   9  10
TORSDOF 2
ENDMDL
MODEL 6
REMARK VINA RESULT:      -4.7      1.916      2.392
REMARK  2 active torsions:
REMARK  status: ('A' for Active; 'I' for Inactive)
REMARK    1  A    between atoms: C1_1  and  C10_10 
REMARK    2  A    between atoms: C1_1  and  C11_11 
ROOT
HETATM    1  C2  UNL     1     -35.882  18.276  -3.857  1.00 20.00     0.009 C 
HETATM    2  C3  UNL     1     -35.347  16.675  -1.981  1.00 20.00     0.010 C 
HETATM    3  C4  UNL     1     -33.563  17.327  -3.561  1.00 20.00     0.010 C 
HETATM    4  C5  UNL     1     -36.625  15.864  -3.755  1.00 20.00     0.022 C 
HETATM    5  C6  UNL     1     -34.836  16.517  -5.336  1.00 20.00     0.022 C 
HETATM    6  C7  UNL     1     -36.443  17.147  -2.940  1.00 20.00    -0.013 C 
HETATM    7  C8  UNL     1     -34.581  17.827  -4.587  1.00 20.00    -0.013 C 
HETATM    8  C9  UNL     1     -34.312  16.121  -2.973  1.00 20.00     0.002 C 
HETATM    9  C10 UNL     1     -35.176  15.581  -4.167  1.00 20.00     0.026 C 
ENDROOT
BRANCH   9  10
HETATM   10  C1  UNL     1     -34.919  14.147  -4.489  1.00 20.00     0.149 C 
HETATM   11  O12 UNL     1     -33.915  13.578  -4.060  1.00 20.00    -0.296 OA
BRANCH  10  12
HETATM   12  C11 UNL     1     -35.954  13.473  -5.359  1.00 20.00     0.193 C 
HETATM   13 CL13 UNL     1     -35.287  13.105  -6.957  1.00 20.00    -0.123 Cl
ENDBRANCH  10  12
ENDBRANCH   9  10
TORSDOF 2
ENDMDL
MODEL 7
REMARK VINA RESULT:      -4.6      2.876      3.975
REMARK  2 active torsions:
REMARK  status: ('A' for Active; 'I' for Inactive)
REMARK    1  A    between atoms: C1_1  and  C10_10 
REMARK    2  A    between atoms: C1_1  and  C11_11 
ROOT
HETATM    1  C2  UNL     1     -35.369  15.642  -6.021  1.00 20.00     0.009 C 
HETATM    2  C3  UNL     1     -32.972  15.619  -5.233  1.00 20.00     0.010 C 
HETATM    3  C4  UNL     1     -34.599  14.070  -4.203  1.00 20.00     0.010 C 
HETATM    4  C5  UNL     1     -34.294  17.433  -4.600  1.00 20.00     0.022 C 
HETATM    5  C6  UNL     1     -35.922  15.880  -3.568  1.00 20.00     0.022 C 
HETATM    6  C7  UNL     1     -34.088  16.501  -5.797  1.00 20.00    -0.013 C 
HETATM    7  C8  UNL     1     -35.784  14.885  -4.723  1.00 20.00    -0.013 C 
HETATM    8  C9  UNL     1     -33.591  15.189  -3.894  1.00 20.00     0.002 C 
HETATM    9  C10 UNL     1     -34.484  16.409  -3.475  1.00 20.00     0.026 C 
ENDROOT
BRANCH   9  10
HETATM   10  C1  UNL     1     -34.161  16.948  -2.121  1.00 20.00     0.149 C 
HETATM   11  O12 UNL     1     -33.023  17.336  -1.855  1.00 20.00    -0.296 OA
BRANCH  10  12
HETATM   12  C11 UNL     1     -35.305  16.976  -1.135  1.00 20.00     0.193 C 
HETATM   13 CL13 UNL     1     -34.841  17.839   0.340  1.00 20.00    -0.123 Cl
ENDBRANCH  10  12
ENDBRANCH   9  10
TORSDOF 2
ENDMDL
MODEL 8
REMARK VINA RESULT:      -4.6      1.296      1.995
REMARK  2 active torsions:
REMARK  status: ('A' for Active; 'I' for Inactive)
REMARK    1  A    between atoms: C1_1  and  C10_10 
REMARK    2  A    between atoms: C1_1  and  C11_11 
ROOT
HETATM    1  C2  UNL     1     -33.725  18.103  -3.661  1.00 20.00     0.009 C 
HETATM    2  C3  UNL     1     -36.225  17.769  -3.753  1.00 20.00     0.010 C 
HETATM    3  C4  UNL     1     -34.904  16.561  -2.048  1.00 20.00     0.010 C 
HETATM    4  C5  UNL     1     -34.947  16.790  -5.440  1.00 20.00     0.022 C 
HETATM    5  C6  UNL     1     -33.626  15.581  -3.732  1.00 20.00     0.022 C 
HETATM    6  C7  UNL     1     -34.977  18.062  -4.589  1.00 20.00    -0.013 C 
HETATM    7  C8  UNL     1     -33.601  16.803  -2.811  1.00 20.00    -0.013 C 
HETATM    8  C9  UNL     1     -35.890  16.370  -3.213  1.00 20.00     0.002 C 
HETATM    9  C10 UNL     1     -35.025  15.717  -4.348  1.00 20.00     0.026 C 
ENDROOT
BRANCH   9  10
HETATM   10  C1  UNL     1     -35.564  14.413  -4.835  1.00 20.00     0.149 C 
HETATM   11  O12 UNL     1     -35.074  13.350  -4.453  1.00 20.00    -0.296 OA
BRANCH  10  12
HETATM   12  C11 UNL     1     -36.720  14.501  -5.804  1.00 20.00     0.193 C 
HETATM   13 CL13 UNL     1     -38.264  14.509  -4.939  1.00 20.00    -0.123 Cl
ENDBRANCH  10  12
ENDBRANCH   9  10
TORSDOF 2
ENDMDL
MODEL 9
REMARK VINA RESULT:      -4.6      2.311      3.566
REMARK  2 active torsions:
REMARK  status: ('A' for Active; 'I' for Inactive)
REMARK    1  A    between atoms: C1_1  and  C10_10 
REMARK    2  A    between atoms: C1_1  and  C11_11 
ROOT
HETATM    1  C2  UNL     1     -34.492  13.829  -6.835  1.00 20.00     0.009 C 
HETATM    2  C3  UNL     1     -36.567  14.784  -5.764  1.00 20.00     0.010 C 
HETATM    3  C4  UNL     1     -34.941  16.312  -6.826  1.00 20.00     0.010 C 
HETATM    4  C5  UNL     1     -34.895  13.986  -4.347  1.00 20.00     0.022 C 
HETATM    5  C6  UNL     1     -33.268  15.517  -5.412  1.00 20.00     0.022 C 
HETATM    6  C7  UNL     1     -35.539  13.652  -5.695  1.00 20.00    -0.013 C 
HETATM    7  C8  UNL     1     -33.844  15.246  -6.804  1.00 20.00    -0.013 C 
HETATM    8  C9  UNL     1     -35.670  16.005  -5.508  1.00 20.00     0.002 C 
HETATM    9  C10 UNL     1     -34.544  15.463  -4.560  1.00 20.00     0.026 C 
ENDROOT
BRANCH   9  10
HETATM   10  C1  UNL     1     -34.414  16.232  -3.286  1.00 20.00     0.149 C 
HETATM   11  O12 UNL     1     -33.303  16.525  -2.842  1.00 20.00    -0.296 OA
BRANCH  10  12
HETATM   12  C11 UNL     1     -35.711  16.605  -2.609  1.00 20.00     0.193 C 
HETATM   13 CL13 UNL     1     -35.439  16.987  -0.902  1.00 20.00    -0.123 Cl
ENDBRANCH  10  12
ENDBRANCH   9  10
TORSDOF 2
ENDMDL
