MODEL 1
REMARK VINA RESULT:      -4.6      0.000      0.000
REMARK  1 active torsions:
REMARK  status: ('A' for Active; 'I' for Inactive)
REMARK    1  A    between atoms: C2_2  and  C6_6 
ROOT
HETATM    1  C3  UNL     1     -36.771  14.394  -7.614  1.00 20.00     0.031 C 
HETATM    2  C4  UNL     1     -35.459  13.603  -7.644  1.00 20.00     0.032 C 
HETATM    3  C5  UNL     1     -35.944  15.737  -5.640  1.00 20.00     0.040 C 
HETATM    4  C6  UNL     1     -34.600  14.983  -5.713  1.00 20.00     0.042 C 
HETATM    5  C7  UNL     1     -37.051  14.811  -6.166  1.00 20.00     0.131 C 
HETATM    6  C8  UNL     1     -34.891  13.552  -6.218  1.00 20.00     0.139 C 
HETATM    7  N10 UNL     1     -37.032  13.583  -5.333  1.00 20.00    -0.192 NA
HETATM    8  N11 UNL     1     -35.940  12.954  -5.351  1.00 20.00    -0.192 NA
ENDROOT
BRANCH   4   9
HETATM    9  C2  UNL     1     -33.884  14.985  -4.396  1.00 20.00    -0.087 C 
HETATM   10  C1  UNL     1     -32.739  14.313  -4.210  1.00 20.00     0.014 C 
HETATM   11  C9  UNL     1     -34.523  15.783  -3.297  1.00 20.00     0.043 C 
ENDBRANCH   4   9
TORSDOF 1
ENDMDL
MODEL 2
REMARK VINA RESULT:      -4.6      1.390      3.833
REMARK  1 active torsions:
REMARK  status: ('A' for Active; 'I' for Inactive)
REMARK    1  A    between atoms: C2_2  and  C6_6 
ROOT
HETATM    1  C3  UNL     1     -33.668  16.088  -3.360  1.00 20.00     0.031 C 
HETATM    2  C4  UNL     1     -35.180  15.885  -3.495  1.00 20.00     0.032 C 
HETATM    3  C5  UNL     1     -33.357  15.597  -5.818  1.00 20.00     0.040 C 
HETATM    4  C6  UNL     1     -34.886  15.456  -5.965  1.00 20.00     0.042 C 
HETATM    5  C7  UNL     1     -32.966  15.195  -4.388  1.00 20.00     0.131 C 
HETATM    6  C8  UNL     1     -35.435  14.890  -4.637  1.00 20.00     0.139 C 
HETATM    7  N10 UNL     1     -33.440  13.805  -4.175  1.00 20.00    -0.192 NA
HETATM    8  N11 UNL     1     -34.684  13.650  -4.310  1.00 20.00    -0.192 NA
ENDROOT
BRANCH   4   9
HETATM    9  C2  UNL     1     -35.260  14.605  -7.141  1.00 20.00    -0.087 C 
HETATM   10  C1  UNL     1     -36.539  14.387  -7.481  1.00 20.00     0.014 C 
HETATM   11  C9  UNL     1     -34.121  14.013  -7.918  1.00 20.00     0.043 C 
ENDBRANCH   4   9
TORSDOF 1
ENDMDL
MODEL 3
REMARK VINA RESULT:      -4.6      0.084      1.063
REMARK  1 active torsions:
REMARK  status: ('A' for Active; 'I' for Inactive)
REMARK    1  A    between atoms: C2_2  and  C6_6 
ROOT
HETATM    1  C3  UNL     1     -36.757  14.377  -7.629  1.00 20.00     0.031 C 
HETATM    2  C4  UNL     1     -35.416  13.637  -7.610  1.00 20.00     0.032 C 
HETATM    3  C5  UNL     1     -36.048  15.762  -5.638  1.00 20.00     0.040 C 
HETATM    4  C6  UNL     1     -34.675  15.060  -5.661  1.00 20.00     0.042 C 
HETATM    5  C7  UNL     1     -37.101  14.791  -6.194  1.00 20.00     0.131 C 
HETATM    6  C8  UNL     1     -34.894  13.616  -6.165  1.00 20.00     0.139 C 
HETATM    7  N10 UNL     1     -37.063  13.570  -5.352  1.00 20.00    -0.192 NA
HETATM    8  N11 UNL     1     -35.948  12.983  -5.330  1.00 20.00    -0.192 NA
ENDROOT
BRANCH   4   9
HETATM    9  C2  UNL     1     -34.005  15.096  -4.320  1.00 20.00    -0.087 C 
HETATM   10  C1  UNL     1     -34.512  15.791  -3.292  1.00 20.00     0.014 C 
HETATM   11  C9  UNL     1     -32.734  14.309  -4.195  1.00 20.00     0.043 C 
ENDBRANCH   4   9
TORSDOF 1
ENDMDL
MODEL 4
REMARK VINA RESULT:      -4.4      1.924      2.873
REMARK  1 active torsions:
REMARK  status: ('A' for Active; 'I' for Inactive)
REMARK    1  A    between atoms: C2_2  and  C6_6 
ROOT
HETATM    1  C3  UNL     1     -34.806  14.484  -6.344  1.00 20.00     0.031 C 
HETATM    2  C4  UNL     1     -33.704  15.548  -6.336  1.00 20.00     0.032 C 
HETATM    3  C5  UNL     1     -35.720  15.381  -4.166  1.00 20.00     0.040 C 
HETATM    4  C6  UNL     1     -34.649  16.490  -4.194  1.00 20.00     0.042 C 
HETATM    5  C7  UNL     1     -35.163  14.147  -4.892  1.00 20.00     0.131 C 
HETATM    6  C8  UNL     1     -33.391  15.911  -4.877  1.00 20.00     0.139 C 
HETATM    7  N10 UNL     1     -33.910  13.757  -4.200  1.00 20.00    -0.192 NA
HETATM    8  N11 UNL     1     -33.020  14.650  -4.184  1.00 20.00    -0.192 NA
ENDROOT
BRANCH   4   9
HETATM    9  C2  UNL     1     -34.357  17.021  -2.823  1.00 20.00    -0.087 C 
HETATM   10  C1  UNL     1     -35.073  16.652  -1.751  1.00 20.00     0.014 C 
HETATM   11  C9  UNL     1     -33.215  17.989  -2.718  1.00 20.00     0.043 C 
ENDBRANCH   4   9
TORSDOF 1
ENDMDL
MODEL 5
REMARK VINA RESULT:      -4.4      1.985      3.029
REMARK  1 active torsions:
REMARK  status: ('A' for Active; 'I' for Inactive)
REMARK    1  A    between atoms: C2_2  and  C6_6 
ROOT
HETATM    1  C3  UNL     1     -34.761  14.062  -5.928  1.00 20.00     0.031 C 
HETATM    2  C4  UNL     1     -35.913  14.154  -4.922  1.00 20.00     0.032 C 
HETATM    3  C5  UNL     1     -33.298  15.462  -4.416  1.00 20.00     0.040 C 
HETATM    4  C6  UNL     1     -34.437  15.498  -3.378  1.00 20.00     0.042 C 
HETATM    5  C7  UNL     1     -33.919  15.338  -5.816  1.00 20.00     0.131 C 
HETATM    6  C8  UNL     1     -35.776  15.473  -4.147  1.00 20.00     0.139 C 
HETATM    7  N10 UNL     1     -34.829  16.495  -5.998  1.00 20.00    -0.192 NA
HETATM    8  N11 UNL     1     -35.760  16.568  -5.152  1.00 20.00    -0.192 NA
ENDROOT
BRANCH   4   9
HETATM    9  C2  UNL     1     -34.329  16.686  -2.468  1.00 20.00    -0.087 C 
HETATM   10  C1  UNL     1     -33.328  17.572  -2.575  1.00 20.00     0.014 C 
HETATM   11  C9  UNL     1     -35.405  16.826  -1.432  1.00 20.00     0.043 C 
ENDBRANCH   4   9
TORSDOF 1
ENDMDL
MODEL 6
REMARK VINA RESULT:      -4.3      1.256      3.558
REMARK  1 active torsions:
REMARK  status: ('A' for Active; 'I' for Inactive)
REMARK    1  A    between atoms: C2_2  and  C6_6 
ROOT
HETATM    1  C3  UNL     1     -33.597  14.393  -5.313  1.00 20.00     0.031 C 
HETATM    2  C4  UNL     1     -34.577  14.495  -4.140  1.00 20.00     0.032 C 
HETATM    3  C5  UNL     1     -35.404  15.126  -6.918  1.00 20.00     0.040 C 
HETATM    4  C6  UNL     1     -36.370  15.290  -5.728  1.00 20.00     0.042 C 
HETATM    5  C7  UNL     1     -34.387  14.027  -6.573  1.00 20.00     0.131 C 
HETATM    6  C8  UNL     1     -35.994  14.230  -4.668  1.00 20.00     0.139 C 
HETATM    7  N10 UNL     1     -35.156  12.792  -6.280  1.00 20.00    -0.192 NA
HETATM    8  N11 UNL     1     -35.973  12.898  -5.326  1.00 20.00    -0.192 NA
ENDROOT
BRANCH   4   9
HETATM    9  C2  UNL     1     -37.805  15.183  -6.152  1.00 20.00    -0.087 C 
HETATM   10  C1  UNL     1     -38.769  14.803  -5.301  1.00 20.00     0.014 C 
HETATM   11  C9  UNL     1     -38.099  15.528  -7.582  1.00 20.00     0.043 C 
ENDBRANCH   4   9
TORSDOF 1
ENDMDL
MODEL 7
REMARK VINA RESULT:      -4.2      1.300      2.759
REMARK  1 active torsions:
REMARK  status: ('A' for Active; 'I' for Inactive)
REMARK    1  A    between atoms: C2_2  and  C6_6 
ROOT
HETATM    1  C3  UNL     1     -34.323  13.977  -7.373  1.00 20.00     0.031 C 
HETATM    2  C4  UNL     1     -33.799  14.911  -6.279  1.00 20.00     0.032 C 
HETATM    3  C5  UNL     1     -36.705  14.550  -6.758  1.00 20.00     0.040 C 
HETATM    4  C6  UNL     1     -36.174  15.538  -5.699  1.00 20.00     0.042 C 
HETATM    5  C7  UNL     1     -35.679  13.420  -6.926  1.00 20.00     0.131 C 
HETATM    6  C8  UNL     1     -34.844  14.974  -5.154  1.00 20.00     0.139 C 
HETATM    7  N10 UNL     1     -35.490  12.793  -5.595  1.00 20.00    -0.192 NA
HETATM    8  N11 UNL     1     -35.078  13.579  -4.699  1.00 20.00    -0.192 NA
ENDROOT
BRANCH   4   9
HETATM    9  C2  UNL     1     -37.175  15.783  -4.610  1.00 20.00    -0.087 C 
HETATM   10  C1  UNL     1     -36.929  16.628  -3.598  1.00 20.00     0.014 C 
HETATM   11  C9  UNL     1     -38.467  15.029  -4.717  1.00 20.00     0.043 C 
ENDBRANCH   4   9
TORSDOF 1
ENDMDL
MODEL 8
REMARK VINA RESULT:      -4.0      1.638      2.470
REMARK  1 active torsions:
REMARK  status: ('A' for Active; 'I' for Inactive)
REMARK    1  A    between atoms: C2_2  and  C6_6 
ROOT
HETATM    1  C3  UNL     1     -37.951  14.397  -5.300  1.00 20.00     0.031 C 
HETATM    2  C4  UNL     1     -37.793  15.630  -4.406  1.00 20.00     0.032 C 
HETATM    3  C5  UNL     1     -35.543  13.757  -4.885  1.00 20.00     0.040 C 
HETATM    4  C6  UNL     1     -35.404  14.964  -3.935  1.00 20.00     0.042 C 
HETATM    5  C7  UNL     1     -36.597  14.094  -5.951  1.00 20.00     0.131 C 
HETATM    6  C8  UNL     1     -36.327  16.085  -4.462  1.00 20.00     0.139 C 
HETATM    7  N10 UNL     1     -36.146  15.326  -6.644  1.00 20.00    -0.192 NA
HETATM    8  N11 UNL     1     -36.001  16.327  -5.892  1.00 20.00    -0.192 NA
ENDROOT
BRANCH   4   9
HETATM    9  C2  UNL     1     -33.980  15.415  -3.806  1.00 20.00    -0.087 C 
HETATM   10  C1  UNL     1     -32.981  14.809  -4.463  1.00 20.00     0.014 C 
HETATM   11  C9  UNL     1     -33.737  16.586  -2.900  1.00 20.00     0.043 C 
ENDBRANCH   4   9
TORSDOF 1
ENDMDL
MODEL 9
REMARK VINA RESULT:      -4.0      1.653      2.683
REMARK  1 active torsions:
REMARK  status: ('A' for Active; 'I' for Inactive)
REMARK    1  A    between atoms: C2_2  and  C6_6 
ROOT
HETATM    1  C3  UNL     1     -37.950  14.385  -5.312  1.00 20.00     0.031 C 
HETATM    2  C4  UNL     1     -37.852  15.625  -4.418  1.00 20.00     0.032 C 
HETATM    3  C5  UNL     1     -35.536  13.818  -4.829  1.00 20.00     0.040 C 
HETATM    4  C6  UNL     1     -35.459  15.030  -3.880  1.00 20.00     0.042 C 
HETATM    5  C7  UNL     1     -36.570  14.121  -5.924  1.00 20.00     0.131 C 
HETATM    6  C8  UNL     1     -36.399  16.123  -4.435  1.00 20.00     0.139 C 
HETATM    7  N10 UNL     1     -36.136  15.363  -6.609  1.00 20.00    -0.192 NA
HETATM    8  N11 UNL     1     -36.041  16.370  -5.857  1.00 20.00    -0.192 NA
ENDROOT
BRANCH   4   9
HETATM    9  C2  UNL     1     -34.053  15.524  -3.713  1.00 20.00    -0.087 C 
HETATM   10  C1  UNL     1     -33.756  16.565  -2.922  1.00 20.00     0.014 C 
HETATM   11  C9  UNL     1     -32.997  14.786  -4.482  1.00 20.00     0.043 C 
ENDBRANCH   4   9
TORSDOF 1
ENDMDL
