MODEL 1
REMARK VINA RESULT:      -4.5      0.000      0.000
REMARK  1 active torsions:
REMARK  status: ('A' for Active; 'I' for Inactive)
REMARK    1  A    between atoms: C3_3  and  C9_9 
ROOT
HETATM    1  C1  UNL     1     -38.191  15.690  -6.877  1.00 20.00     0.013 C 
HETATM    2  C2  UNL     1     -37.124  15.387  -6.417  1.00 20.00    -0.099 C 
HETATM    3  C4  UNL     1     -33.356  15.960  -4.450  1.00 20.00     0.000 C 
HETATM    4  C5  UNL     1     -33.325  15.615  -5.934  1.00 20.00     0.002 C 
HETATM    5  C6  UNL     1     -34.415  15.152  -3.711  1.00 20.00     0.002 C 
HETATM    6  C7  UNL     1     -34.699  15.787  -6.584  1.00 20.00     0.030 C 
HETATM    7  C8  UNL     1     -35.798  15.319  -4.341  1.00 20.00     0.030 C 
HETATM    8  C9  UNL     1     -35.812  15.015  -5.851  1.00 20.00     0.083 C 
ENDROOT
BRANCH   8   9
HETATM    9  C3  UNL     1     -35.639  13.534  -6.075  1.00 20.00     0.143 C 
HETATM   10  C10 UNL     1     -35.139  13.110  -7.431  1.00 20.00     0.093 C 
HETATM   11  O11 UNL     1     -35.891  12.713  -5.195  1.00 20.00    -0.297 OA
ENDBRANCH   8   9
TORSDOF 1
ENDMDL
MODEL 2
REMARK VINA RESULT:      -4.5      1.236      1.297
REMARK  1 active torsions:
REMARK  status: ('A' for Active; 'I' for Inactive)
REMARK    1  A    between atoms: C3_3  and  C9_9 
ROOT
HETATM    1  C1  UNL     1     -38.259  14.840  -4.700  1.00 20.00     0.013 C 
HETATM    2  C2  UNL     1     -37.113  14.755  -5.047  1.00 20.00    -0.099 C 
HETATM    3  C4  UNL     1     -32.920  15.655  -5.116  1.00 20.00     0.000 C 
HETATM    4  C5  UNL     1     -33.739  16.041  -6.342  1.00 20.00     0.002 C 
HETATM    5  C6  UNL     1     -33.334  14.292  -4.574  1.00 20.00     0.002 C 
HETATM    6  C7  UNL     1     -35.241  15.998  -6.057  1.00 20.00     0.030 C 
HETATM    7  C8  UNL     1     -34.833  14.234  -4.274  1.00 20.00     0.030 C 
HETATM    8  C9  UNL     1     -35.704  14.649  -5.474  1.00 20.00     0.083 C 
ENDROOT
BRANCH   8   9
HETATM    9  C3  UNL     1     -35.644  13.585  -6.541  1.00 20.00     0.143 C 
HETATM   10  C10 UNL     1     -36.104  13.982  -7.918  1.00 20.00     0.093 C 
HETATM   11  O11 UNL     1     -35.239  12.449  -6.299  1.00 20.00    -0.297 OA
ENDBRANCH   8   9
TORSDOF 1
ENDMDL
MODEL 3
REMARK VINA RESULT:      -4.3      1.797      3.173
REMARK  1 active torsions:
REMARK  status: ('A' for Active; 'I' for Inactive)
REMARK    1  A    between atoms: C3_3  and  C9_9 
ROOT
HETATM    1  C1  UNL     1     -35.077  16.665  -1.703  1.00 20.00     0.013 C 
HETATM    2  C2  UNL     1     -34.967  16.342  -2.854  1.00 20.00    -0.099 C 
HETATM    3  C4  UNL     1     -33.897  16.729  -6.989  1.00 20.00     0.000 C 
HETATM    4  C5  UNL     1     -35.383  16.703  -6.650  1.00 20.00     0.002 C 
HETATM    5  C6  UNL     1     -33.117  15.719  -6.157  1.00 20.00     0.002 C 
HETATM    6  C7  UNL     1     -35.627  16.920  -5.156  1.00 20.00     0.030 C 
HETATM    7  C8  UNL     1     -33.341  15.927  -4.658  1.00 20.00     0.030 C 
HETATM    8  C9  UNL     1     -34.831  15.944  -4.269  1.00 20.00     0.083 C 
ENDROOT
BRANCH   8   9
HETATM    9  C3  UNL     1     -35.407  14.556  -4.394  1.00 20.00     0.143 C 
HETATM   10  C10 UNL     1     -36.860  14.459  -4.776  1.00 20.00     0.093 C 
HETATM   11  O11 UNL     1     -34.724  13.552  -4.196  1.00 20.00    -0.297 OA
ENDBRANCH   8   9
TORSDOF 1
ENDMDL
MODEL 4
REMARK VINA RESULT:      -4.3      3.669      5.474
REMARK  1 active torsions:
REMARK  status: ('A' for Active; 'I' for Inactive)
REMARK    1  A    between atoms: C3_3  and  C9_9 
ROOT
HETATM    1  C1  UNL     1     -33.371  15.245  -4.177  1.00 20.00     0.013 C 
HETATM    2  C2  UNL     1     -33.713  16.117  -3.425  1.00 20.00    -0.099 C 
HETATM    3  C4  UNL     1     -34.527  18.002   0.341  1.00 20.00     0.000 C 
HETATM    4  C5  UNL     1     -35.719  17.679  -0.553  1.00 20.00     0.002 C 
HETATM    5  C6  UNL     1     -33.351  18.534  -0.468  1.00 20.00     0.002 C 
HETATM    6  C7  UNL     1     -35.341  16.710  -1.674  1.00 20.00     0.030 C 
HETATM    7  C8  UNL     1     -32.952  17.573  -1.588  1.00 20.00     0.030 C 
HETATM    8  C9  UNL     1     -34.132  17.189  -2.500  1.00 20.00     0.083 C 
ENDROOT
BRANCH   8   9
HETATM    9  C3  UNL     1     -34.530  18.371  -3.347  1.00 20.00     0.143 C 
HETATM   10  C10 UNL     1     -33.411  19.200  -3.919  1.00 20.00     0.093 C 
HETATM   11  O11 UNL     1     -35.710  18.645  -3.561  1.00 20.00    -0.297 OA
ENDBRANCH   8   9
TORSDOF 1
ENDMDL
MODEL 5
REMARK VINA RESULT:      -4.3      1.306      2.782
REMARK  1 active torsions:
REMARK  status: ('A' for Active; 'I' for Inactive)
REMARK    1  A    between atoms: C3_3  and  C9_9 
ROOT
HETATM    1  C1  UNL     1     -38.074  15.516  -4.421  1.00 20.00     0.013 C 
HETATM    2  C2  UNL     1     -36.996  15.255  -4.880  1.00 20.00    -0.099 C 
HETATM    3  C4  UNL     1     -34.025  14.665  -7.918  1.00 20.00     0.000 C 
HETATM    4  C5  UNL     1     -34.505  13.433  -7.159  1.00 20.00     0.002 C 
HETATM    5  C6  UNL     1     -33.847  15.859  -6.988  1.00 20.00     0.002 C 
HETATM    6  C7  UNL     1     -35.789  13.714  -6.376  1.00 20.00     0.030 C 
HETATM    7  C8  UNL     1     -35.124  16.161  -6.203  1.00 20.00     0.030 C 
HETATM    8  C9  UNL     1     -35.669  14.936  -5.445  1.00 20.00     0.083 C 
ENDROOT
BRANCH   8   9
HETATM    9  C3  UNL     1     -34.763  14.607  -4.286  1.00 20.00     0.143 C 
HETATM   10  C10 UNL     1     -34.322  15.760  -3.424  1.00 20.00     0.093 C 
HETATM   11  O11 UNL     1     -34.403  13.454  -4.054  1.00 20.00    -0.297 OA
ENDBRANCH   8   9
TORSDOF 1
ENDMDL
MODEL 6
REMARK VINA RESULT:      -4.3      1.595      3.612
REMARK  1 active torsions:
REMARK  status: ('A' for Active; 'I' for Inactive)
REMARK    1  A    between atoms: C3_3  and  C9_9 
ROOT
HETATM    1  C1  UNL     1     -34.821  16.786  -1.756  1.00 20.00     0.013 C 
HETATM    2  C2  UNL     1     -35.055  16.296  -2.827  1.00 20.00    -0.099 C 
HETATM    3  C4  UNL     1     -36.963  15.849  -6.642  1.00 20.00     0.000 C 
HETATM    4  C5  UNL     1     -37.253  14.789  -5.585  1.00 20.00     0.002 C 
HETATM    5  C6  UNL     1     -35.493  16.252  -6.638  1.00 20.00     0.002 C 
HETATM    6  C7  UNL     1     -36.814  15.243  -4.193  1.00 20.00     0.030 C 
HETATM    7  C8  UNL     1     -35.038  16.718  -5.254  1.00 20.00     0.030 C 
HETATM    8  C9  UNL     1     -35.342  15.695  -4.144  1.00 20.00     0.083 C 
ENDROOT
BRANCH   8   9
HETATM    9  C3  UNL     1     -34.436  14.499  -4.290  1.00 20.00     0.143 C 
HETATM   10  C10 UNL     1     -32.965  14.779  -4.440  1.00 20.00     0.093 C 
HETATM   11  O11 UNL     1     -34.876  13.350  -4.285  1.00 20.00    -0.297 OA
ENDBRANCH   8   9
TORSDOF 1
ENDMDL
MODEL 7
REMARK VINA RESULT:      -4.2      1.816      2.711
REMARK  1 active torsions:
REMARK  status: ('A' for Active; 'I' for Inactive)
REMARK    1  A    between atoms: C3_3  and  C9_9 
ROOT
HETATM    1  C1  UNL     1     -34.017  16.076  -7.529  1.00 20.00     0.013 C 
HETATM    2  C2  UNL     1     -34.295  15.926  -6.371  1.00 20.00    -0.099 C 
HETATM    3  C4  UNL     1     -35.239  17.072  -2.347  1.00 20.00     0.000 C 
HETATM    4  C5  UNL     1     -33.896  16.391  -2.584  1.00 20.00     0.002 C 
HETATM    5  C6  UNL     1     -36.347  16.423  -3.167  1.00 20.00     0.002 C 
HETATM    6  C7  UNL     1     -33.532  16.359  -4.069  1.00 20.00     0.030 C 
HETATM    7  C8  UNL     1     -36.004  16.391  -4.657  1.00 20.00     0.030 C 
HETATM    8  C9  UNL     1     -34.637  15.742  -4.946  1.00 20.00     0.083 C 
ENDROOT
BRANCH   8   9
HETATM    9  C3  UNL     1     -34.715  14.257  -4.700  1.00 20.00     0.143 C 
HETATM   10  C10 UNL     1     -35.957  13.555  -5.181  1.00 20.00     0.093 C 
HETATM   11  O11 UNL     1     -33.808  13.647  -4.134  1.00 20.00    -0.297 OA
ENDBRANCH   8   9
TORSDOF 1
ENDMDL
MODEL 8
REMARK VINA RESULT:      -4.1      1.919      3.969
REMARK  1 active torsions:
REMARK  status: ('A' for Active; 'I' for Inactive)
REMARK    1  A    between atoms: C3_3  and  C9_9 
ROOT
HETATM    1  C1  UNL     1     -33.657  17.090  -1.909  1.00 20.00     0.013 C 
HETATM    2  C2  UNL     1     -34.106  16.570  -2.894  1.00 20.00    -0.099 C 
HETATM    3  C4  UNL     1     -36.786  14.175  -5.235  1.00 20.00     0.000 C 
HETATM    4  C5  UNL     1     -35.361  13.663  -5.059  1.00 20.00     0.002 C 
HETATM    5  C6  UNL     1     -36.812  15.681  -5.464  1.00 20.00     0.002 C 
HETATM    6  C7  UNL     1     -34.628  14.400  -3.937  1.00 20.00     0.030 C 
HETATM    7  C8  UNL     1     -36.092  16.437  -4.346  1.00 20.00     0.030 C 
HETATM    8  C9  UNL     1     -34.657  15.931  -4.105  1.00 20.00     0.083 C 
ENDROOT
BRANCH   8   9
HETATM    9  C3  UNL     1     -33.773  16.335  -5.258  1.00 20.00     0.143 C 
HETATM   10  C10 UNL     1     -34.006  17.702  -5.843  1.00 20.00     0.093 C 
HETATM   11  O11 UNL     1     -32.903  15.584  -5.699  1.00 20.00    -0.297 OA
ENDBRANCH   8   9
TORSDOF 1
ENDMDL
MODEL 9
REMARK VINA RESULT:      -4.1      1.676      1.813
REMARK  1 active torsions:
REMARK  status: ('A' for Active; 'I' for Inactive)
REMARK    1  A    between atoms: C3_3  and  C9_9 
ROOT
HETATM    1  C1  UNL     1     -37.886  14.607  -4.909  1.00 20.00     0.013 C 
HETATM    2  C2  UNL     1     -36.757  14.993  -4.775  1.00 20.00    -0.099 C 
HETATM    3  C4  UNL     1     -33.598  17.726  -3.803  1.00 20.00     0.000 C 
HETATM    4  C5  UNL     1     -33.784  17.365  -5.272  1.00 20.00     0.002 C 
HETATM    5  C6  UNL     1     -33.771  16.509  -2.903  1.00 20.00     0.002 C 
HETATM    6  C7  UNL     1     -35.131  16.686  -5.523  1.00 20.00     0.030 C 
HETATM    7  C8  UNL     1     -35.118  15.822  -3.133  1.00 20.00     0.030 C 
HETATM    8  C9  UNL     1     -35.369  15.468  -4.610  1.00 20.00     0.083 C 
ENDROOT
BRANCH   8   9
HETATM    9  C3  UNL     1     -34.464  14.336  -5.025  1.00 20.00     0.143 C 
HETATM   10  C10 UNL     1     -34.327  14.086  -6.503  1.00 20.00     0.093 C 
HETATM   11  O11 UNL     1     -33.865  13.650  -4.197  1.00 20.00    -0.297 OA
ENDBRANCH   8   9
TORSDOF 1
ENDMDL
