MODEL 1
REMARK VINA RESULT:      -4.6      0.000      0.000
REMARK  2 active torsions:
REMARK  status: ('A' for Active; 'I' for Inactive)
REMARK    1  A    between atoms: C1_1  and  C2_2 
REMARK    2  A    between atoms: N7_7  and  O8_8 
ROOT
HETATM    1  C2  UNL     1     -33.560   6.125   3.583  1.00 20.00     0.115 A 
HETATM    2  C3  UNL     1     -34.104   6.200   5.009  1.00 20.00     0.033 A 
HETATM    3  C4  UNL     1     -34.926   6.656   3.849  1.00 20.00     0.260 A 
HETATM    4  C5  UNL     1     -33.582   7.247   5.956  1.00 20.00     0.022 C 
HETATM    5  C6  UNL     1     -34.480   4.903   5.675  1.00 20.00     0.022 C 
HETATM    6  F9  UNL     1     -36.035   5.946   3.445  1.00 20.00    -0.205 F 
HETATM    7  F10 UNL     1     -35.213   7.991   3.664  1.00 20.00    -0.205 F 
ENDROOT
BRANCH   1   8
HETATM    8  C1  UNL     1     -32.498   7.033   3.136  1.00 20.00     0.130 C 
HETATM    9  N7  UNL     1     -32.655   7.769   2.087  1.00 20.00    -0.152 NA
BRANCH   9  10
HETATM   10  O8  UNL     1     -31.496   8.526   1.899  1.00 20.00    -0.267 OA
HETATM   11  H19 UNL     1     -31.778   9.146   1.206  1.00 20.00     0.247 HD
ENDBRANCH   9  10
ENDBRANCH   1   8
TORSDOF 2
ENDMDL
MODEL 2
REMARK VINA RESULT:      -4.6     11.357     12.312
REMARK  2 active torsions:
REMARK  status: ('A' for Active; 'I' for Inactive)
REMARK    1  A    between atoms: C1_1  and  C2_2 
REMARK    2  A    between atoms: N7_7  and  O8_8 
ROOT
HETATM    1  C2  UNL     1     -34.186  15.720  -3.795  1.00 20.00     0.115 A 
HETATM    2  C3  UNL     1     -34.561  17.198  -3.883  1.00 20.00     0.033 A 
HETATM    3  C4  UNL     1     -34.392  16.527  -2.560  1.00 20.00     0.260 A 
HETATM    4  C5  UNL     1     -35.953  17.594  -4.298  1.00 20.00     0.022 C 
HETATM    5  C6  UNL     1     -33.491  18.158  -4.331  1.00 20.00     0.022 C 
HETATM    6  F9  UNL     1     -33.323  16.828  -1.745  1.00 20.00    -0.205 F 
HETATM    7  F10 UNL     1     -35.473  16.295  -1.738  1.00 20.00    -0.205 F 
ENDROOT
BRANCH   1   8
HETATM    8  C1  UNL     1     -35.153  14.677  -4.155  1.00 20.00     0.130 C 
HETATM    9  N7  UNL     1     -34.757  13.541  -4.625  1.00 20.00    -0.152 NA
BRANCH   9  10
HETATM   10  O8  UNL     1     -35.881  12.750  -4.877  1.00 20.00    -0.267 OA
HETATM   11  H19 UNL     1     -35.721  12.471  -5.794  1.00 20.00     0.247 HD
ENDBRANCH   9  10
ENDBRANCH   1   8
TORSDOF 2
ENDMDL
MODEL 3
REMARK VINA RESULT:      -4.5      1.852      2.422
REMARK  2 active torsions:
REMARK  status: ('A' for Active; 'I' for Inactive)
REMARK    1  A    between atoms: C1_1  and  C2_2 
REMARK    2  A    between atoms: N7_7  and  O8_8 
ROOT
HETATM    1  C2  UNL     1     -33.857   7.684   2.933  1.00 20.00     0.115 A 
HETATM    2  C3  UNL     1     -33.856   6.255   3.476  1.00 20.00     0.033 A 
HETATM    3  C4  UNL     1     -33.250   7.373   4.258  1.00 20.00     0.260 A 
HETATM    4  C5  UNL     1     -32.927   5.229   2.882  1.00 20.00     0.022 C 
HETATM    5  C6  UNL     1     -35.171   5.693   3.947  1.00 20.00     0.022 C 
HETATM    6  F9  UNL     1     -33.844   7.831   5.414  1.00 20.00    -0.205 F 
HETATM    7  F10 UNL     1     -31.888   7.453   4.446  1.00 20.00    -0.205 F 
ENDROOT
BRANCH   1   8
HETATM    8  C1  UNL     1     -32.997   8.060   1.806  1.00 20.00     0.130 C 
HETATM    9  N7  UNL     1     -32.404   9.206   1.780  1.00 20.00    -0.152 NA
BRANCH   9  10
HETATM   10  O8  UNL     1     -31.658   9.293   0.602  1.00 20.00    -0.267 OA
HETATM   11  H19 UNL     1     -31.466   8.357   0.424  1.00 20.00     0.247 HD
ENDBRANCH   9  10
ENDBRANCH   1   8
TORSDOF 2
ENDMDL
MODEL 4
REMARK VINA RESULT:      -4.5      1.850      2.217
REMARK  2 active torsions:
REMARK  status: ('A' for Active; 'I' for Inactive)
REMARK    1  A    between atoms: C1_1  and  C2_2 
REMARK    2  A    between atoms: N7_7  and  O8_8 
ROOT
HETATM    1  C2  UNL     1     -33.060   6.433   3.657  1.00 20.00     0.115 A 
HETATM    2  C3  UNL     1     -34.359   5.686   3.955  1.00 20.00     0.033 A 
HETATM    3  C4  UNL     1     -33.452   5.239   2.857  1.00 20.00     0.260 A 
HETATM    4  C5  UNL     1     -35.680   6.298   3.570  1.00 20.00     0.022 C 
HETATM    5  C6  UNL     1     -34.409   4.859   5.212  1.00 20.00     0.022 C 
HETATM    6  F9  UNL     1     -32.733   4.068   2.965  1.00 20.00    -0.205 F 
HETATM    7  F10 UNL     1     -33.820   5.365   1.536  1.00 20.00    -0.205 F 
ENDROOT
BRANCH   1   8
HETATM    8  C1  UNL     1     -33.084   7.764   3.041  1.00 20.00     0.130 C 
HETATM    9  N7  UNL     1     -32.191   8.107   2.173  1.00 20.00    -0.152 NA
BRANCH   9  10
HETATM   10  O8  UNL     1     -32.457   9.415   1.758  1.00 20.00    -0.267 OA
HETATM   11  H19 UNL     1     -32.340   9.341   0.796  1.00 20.00     0.247 HD
ENDBRANCH   9  10
ENDBRANCH   1   8
TORSDOF 2
ENDMDL
MODEL 5
REMARK VINA RESULT:      -4.3     11.554     12.213
REMARK  2 active torsions:
REMARK  status: ('A' for Active; 'I' for Inactive)
REMARK    1  A    between atoms: C1_1  and  C2_2 
REMARK    2  A    between atoms: N7_7  and  O8_8 
ROOT
HETATM    1  C2  UNL     1     -34.896  14.885  -3.864  1.00 20.00     0.115 A 
HETATM    2  C3  UNL     1     -34.230  16.259  -3.813  1.00 20.00     0.033 A 
HETATM    3  C4  UNL     1     -35.713  16.129  -3.921  1.00 20.00     0.260 A 
HETATM    4  C5  UNL     1     -33.479  16.773  -5.012  1.00 20.00     0.022 C 
HETATM    5  C6  UNL     1     -33.653  16.699  -2.493  1.00 20.00     0.022 C 
HETATM    6  F9  UNL     1     -36.532  16.468  -2.866  1.00 20.00    -0.205 F 
HETATM    7  F10 UNL     1     -36.375  16.486  -5.075  1.00 20.00    -0.205 F 
ENDROOT
BRANCH   1   8
HETATM    8  C1  UNL     1     -34.776  14.036  -5.054  1.00 20.00     0.130 C 
HETATM    9  N7  UNL     1     -35.564  13.030  -5.232  1.00 20.00    -0.152 NA
BRANCH   9  10
HETATM   10  O8  UNL     1     -35.225  12.408  -6.436  1.00 20.00    -0.267 OA
HETATM   11  H19 UNL     1     -35.564  11.508  -6.293  1.00 20.00     0.247 HD
ENDBRANCH   9  10
ENDBRANCH   1   8
TORSDOF 2
ENDMDL
MODEL 6
REMARK VINA RESULT:      -4.2     11.706     12.093
REMARK  2 active torsions:
REMARK  status: ('A' for Active; 'I' for Inactive)
REMARK    1  A    between atoms: C1_1  and  C2_2 
REMARK    2  A    between atoms: N7_7  and  O8_8 
ROOT
HETATM    1  C2  UNL     1     -35.054  15.935  -3.108  1.00 20.00     0.115 A 
HETATM    2  C3  UNL     1     -34.678  17.016  -2.097  1.00 20.00     0.033 A 
HETATM    3  C4  UNL     1     -35.369  17.367  -3.373  1.00 20.00     0.260 A 
HETATM    4  C5  UNL     1     -33.238  17.428  -1.940  1.00 20.00     0.022 C 
HETATM    5  C6  UNL     1     -35.476  17.077  -0.821  1.00 20.00     0.022 C 
HETATM    6  F9  UNL     1     -36.677  17.798  -3.374  1.00 20.00    -0.205 F 
HETATM    7  F10 UNL     1     -34.714  18.061  -4.366  1.00 20.00    -0.205 F 
ENDROOT
BRANCH   1   8
HETATM    8  C1  UNL     1     -34.022  15.256  -3.900  1.00 20.00     0.130 C 
HETATM    9  N7  UNL     1     -34.090  13.987  -4.128  1.00 20.00    -0.152 NA
BRANCH   9  10
HETATM   10  O8  UNL     1     -32.986  13.616  -4.899  1.00 20.00    -0.267 OA
HETATM   11  H19 UNL     1     -33.393  13.487  -5.772  1.00 20.00     0.247 HD
ENDBRANCH   9  10
ENDBRANCH   1   8
TORSDOF 2
ENDMDL
MODEL 7
REMARK VINA RESULT:      -4.2     11.695     12.376
REMARK  2 active torsions:
REMARK  status: ('A' for Active; 'I' for Inactive)
REMARK    1  A    between atoms: C1_1  and  C2_2 
REMARK    2  A    between atoms: N7_7  and  O8_8 
ROOT
HETATM    1  C2  UNL     1     -35.423  14.327  -4.332  1.00 20.00     0.115 A 
HETATM    2  C3  UNL     1     -34.164  14.987  -4.891  1.00 20.00     0.033 A 
HETATM    3  C4  UNL     1     -35.007  15.682  -3.873  1.00 20.00     0.260 A 
HETATM    4  C5  UNL     1     -34.165  15.533  -6.295  1.00 20.00     0.022 C 
HETATM    5  C6  UNL     1     -32.836  14.431  -4.450  1.00 20.00     0.022 C 
HETATM    6  F9  UNL     1     -34.553  15.866  -2.585  1.00 20.00    -0.205 F 
HETATM    7  F10 UNL     1     -35.746  16.796  -4.203  1.00 20.00    -0.205 F 
ENDROOT
BRANCH   1   8
HETATM    8  C1  UNL     1     -36.623  14.174  -5.162  1.00 20.00     0.130 C 
HETATM    9  N7  UNL     1     -37.801  14.216  -4.636  1.00 20.00    -0.152 NA
BRANCH   9  10
HETATM   10  O8  UNL     1     -38.746  14.044  -5.651  1.00 20.00    -0.267 OA
HETATM   11  H19 UNL     1     -38.329  13.350  -6.189  1.00 20.00     0.247 HD
ENDBRANCH   9  10
ENDBRANCH   1   8
TORSDOF 2
ENDMDL
MODEL 8
REMARK VINA RESULT:      -4.2      3.131      4.356
REMARK  2 active torsions:
REMARK  status: ('A' for Active; 'I' for Inactive)
REMARK    1  A    between atoms: C1_1  and  C2_2 
REMARK    2  A    between atoms: N7_7  and  O8_8 
ROOT
HETATM    1  C2  UNL     1     -32.482   7.185   2.763  1.00 20.00     0.115 A 
HETATM    2  C3  UNL     1     -32.232   8.536   2.097  1.00 20.00     0.033 A 
HETATM    3  C4  UNL     1     -31.577   8.187   3.392  1.00 20.00     0.260 A 
HETATM    4  C5  UNL     1     -33.307   9.591   2.115  1.00 20.00     0.022 C 
HETATM    5  C6  UNL     1     -31.381   8.549   0.855  1.00 20.00     0.022 C 
HETATM    6  F9  UNL     1     -30.222   7.948   3.459  1.00 20.00    -0.205 F 
HETATM    7  F10 UNL     1     -31.933   8.822   4.562  1.00 20.00    -0.205 F 
ENDROOT
BRANCH   1   8
HETATM    8  C1  UNL     1     -33.777   6.881   3.382  1.00 20.00     0.130 C 
HETATM    9  N7  UNL     1     -34.196   5.663   3.477  1.00 20.00    -0.152 NA
BRANCH   9  10
HETATM   10  O8  UNL     1     -35.445   5.672   4.102  1.00 20.00    -0.267 OA
HETATM   11  H19 UNL     1     -35.959   5.089   3.519  1.00 20.00     0.247 HD
ENDBRANCH   9  10
ENDBRANCH   1   8
TORSDOF 2
ENDMDL
MODEL 9
REMARK VINA RESULT:      -4.1     11.758     12.581
REMARK  2 active torsions:
REMARK  status: ('A' for Active; 'I' for Inactive)
REMARK    1  A    between atoms: C1_1  and  C2_2 
REMARK    2  A    between atoms: N7_7  and  O8_8 
ROOT
HETATM    1  C2  UNL     1     -35.597  14.549  -4.929  1.00 20.00     0.115 A 
HETATM    2  C3  UNL     1     -34.593  15.545  -5.507  1.00 20.00     0.033 A 
HETATM    3  C4  UNL     1     -34.327  14.852  -4.212  1.00 20.00     0.260 A 
HETATM    4  C5  UNL     1     -34.893  17.020  -5.467  1.00 20.00     0.022 C 
HETATM    5  C6  UNL     1     -33.806  15.111  -6.716  1.00 20.00     0.022 C 
HETATM    6  F9  UNL     1     -33.344  13.892  -4.111  1.00 20.00    -0.205 F 
HETATM    7  F10 UNL     1     -34.338  15.544  -3.021  1.00 20.00    -0.205 F 
ENDROOT
BRANCH   1   8
HETATM    8  C1  UNL     1     -36.876  15.008  -4.375  1.00 20.00     0.130 C 
HETATM    9  N7  UNL     1     -37.967  14.357  -4.603  1.00 20.00    -0.152 NA
BRANCH   9  10
HETATM   10  O8  UNL     1     -39.018  15.016  -3.958  1.00 20.00    -0.267 OA
HETATM   11  H19 UNL     1     -39.316  14.337  -3.329  1.00 20.00     0.247 HD
ENDBRANCH   9  10
ENDBRANCH   1   8
TORSDOF 2
ENDMDL
