MODEL 1
REMARK VINA RESULT:      -5.2      0.000      0.000
REMARK  2 active torsions:
REMARK  status: ('A' for Active; 'I' for Inactive)
REMARK    1  A    between atoms: C1_1  and  C4_4 
REMARK    2  A    between atoms: C3_3  and  C5_5 
ROOT
HETATM    1  C4  UNL     1     -33.084   7.564   3.430  1.00 20.00     0.029 A 
HETATM    2  C5  UNL     1     -33.109   6.500   4.504  1.00 20.00     0.089 A 
HETATM    3  C6  UNL     1     -33.721   6.216   3.143  1.00 20.00    -0.028 A 
HETATM    4  C8  UNL     1     -33.013   5.206   2.272  1.00 20.00     0.016 C 
HETATM    5  C9  UNL     1     -35.222   6.188   2.989  1.00 20.00     0.016 C 
ENDROOT
BRANCH   1   6
HETATM    6  C1  UNL     1     -31.808   7.933   2.833  1.00 20.00    -0.025 C 
HETATM    7  C2  UNL     1     -31.691   8.661   1.714  1.00 20.00    -0.034 C 
HETATM    8  C7  UNL     1     -32.853   9.186   0.937  1.00 20.00     0.036 C 
ENDBRANCH   1   6
BRANCH   2   9
HETATM    9  C3  UNL     1     -33.958   6.695   5.687  1.00 20.00     0.224 C 
HETATM   10  O10 UNL     1     -34.053   7.786   6.241  1.00 20.00    -0.279 OA
HETATM   11 CL11 UNL     1     -34.764   5.230   6.161  1.00 20.00    -0.043 Cl
ENDBRANCH   2   9
TORSDOF 2
ENDMDL
MODEL 2
REMARK VINA RESULT:      -5.0      2.588      4.215
REMARK  2 active torsions:
REMARK  status: ('A' for Active; 'I' for Inactive)
REMARK    1  A    between atoms: C1_1  and  C4_4 
REMARK    2  A    between atoms: C3_3  and  C5_5 
ROOT
HETATM    1  C4  UNL     1     -33.117   6.966   4.377  1.00 20.00     0.029 A 
HETATM    2  C5  UNL     1     -33.203   7.891   3.185  1.00 20.00     0.089 A 
HETATM    3  C6  UNL     1     -33.685   6.455   3.066  1.00 20.00    -0.028 A 
HETATM    4  C8  UNL     1     -35.172   6.243   2.907  1.00 20.00     0.016 C 
HETATM    5  C9  UNL     1     -32.855   5.448   2.307  1.00 20.00     0.016 C 
ENDROOT
BRANCH   1   6
HETATM    6  C1  UNL     1     -33.980   7.212   5.524  1.00 20.00    -0.025 C 
HETATM    7  C2  UNL     1     -34.609   6.244   6.206  1.00 20.00    -0.034 C 
HETATM    8  C7  UNL     1     -34.503   4.792   5.878  1.00 20.00     0.036 C 
ENDBRANCH   1   6
BRANCH   2   9
HETATM    9  C3  UNL     1     -31.965   8.328   2.525  1.00 20.00     0.224 C 
HETATM   10  O10 UNL     1     -30.878   8.271   3.090  1.00 20.00    -0.279 OA
HETATM   11 CL11 UNL     1     -32.254   8.907   0.912  1.00 20.00    -0.043 Cl
ENDBRANCH   2   9
TORSDOF 2
ENDMDL
MODEL 3
REMARK VINA RESULT:      -4.6     11.148     11.794
REMARK  2 active torsions:
REMARK  status: ('A' for Active; 'I' for Inactive)
REMARK    1  A    between atoms: C1_1  and  C4_4 
REMARK    2  A    between atoms: C3_3  and  C5_5 
ROOT
HETATM    1  C4  UNL     1     -34.320  15.769  -4.026  1.00 20.00     0.029 A 
HETATM    2  C5  UNL     1     -34.661  14.300  -4.118  1.00 20.00     0.089 A 
HETATM    3  C6  UNL     1     -33.484  14.853  -4.901  1.00 20.00    -0.028 A 
HETATM    4  C8  UNL     1     -32.104  14.423  -4.459  1.00 20.00     0.016 C 
HETATM    5  C9  UNL     1     -33.599  15.040  -6.394  1.00 20.00     0.016 C 
ENDROOT
BRANCH   1   6
HETATM    6  C1  UNL     1     -33.796  16.294  -2.773  1.00 20.00    -0.025 C 
HETATM    7  C2  UNL     1     -34.546  16.916  -1.852  1.00 20.00    -0.034 C 
HETATM    8  C7  UNL     1     -36.014  17.148  -1.994  1.00 20.00     0.036 C 
ENDBRANCH   1   6
BRANCH   2   9
HETATM    9  C3  UNL     1     -35.897  13.891  -4.801  1.00 20.00     0.224 C 
HETATM   10  O10 UNL     1     -36.038  12.762  -5.258  1.00 20.00    -0.279 OA
HETATM   11 CL11 UNL     1     -37.065  15.177  -4.862  1.00 20.00    -0.043 Cl
ENDBRANCH   2   9
TORSDOF 2
ENDMDL
MODEL 4
REMARK VINA RESULT:      -4.6     11.737     12.568
REMARK  2 active torsions:
REMARK  status: ('A' for Active; 'I' for Inactive)
REMARK    1  A    between atoms: C1_1  and  C4_4 
REMARK    2  A    between atoms: C3_3  and  C5_5 
ROOT
HETATM    1  C4  UNL     1     -35.034  15.384  -4.249  1.00 20.00     0.029 A 
HETATM    2  C5  UNL     1     -34.768  14.791  -5.614  1.00 20.00     0.089 A 
HETATM    3  C6  UNL     1     -35.542  16.092  -5.492  1.00 20.00    -0.028 A 
HETATM    4  C8  UNL     1     -34.861  17.344  -5.993  1.00 20.00     0.016 C 
HETATM    5  C9  UNL     1     -37.036  16.097  -5.713  1.00 20.00     0.016 C 
ENDROOT
BRANCH   1   6
HETATM    6  C1  UNL     1     -33.917  15.922  -3.485  1.00 20.00    -0.025 C 
HETATM    7  C2  UNL     1     -34.055  16.587  -2.329  1.00 20.00    -0.034 C 
HETATM    8  C7  UNL     1     -35.371  16.860  -1.678  1.00 20.00     0.036 C 
ENDBRANCH   1   6
BRANCH   2   9
HETATM    9  C3  UNL     1     -35.443  13.544  -5.998  1.00 20.00     0.224 C 
HETATM   10  O10 UNL     1     -35.883  12.764  -5.159  1.00 20.00    -0.279 OA
HETATM   11 CL11 UNL     1     -35.522  13.348  -7.723  1.00 20.00    -0.043 Cl
ENDBRANCH   2   9
TORSDOF 2
ENDMDL
MODEL 5
REMARK VINA RESULT:      -4.5      1.160      1.160
REMARK  2 active torsions:
REMARK  status: ('A' for Active; 'I' for Inactive)
REMARK    1  A    between atoms: C1_1  and  C4_4 
REMARK    2  A    between atoms: C3_3  and  C5_5 
ROOT
HETATM    1  C4  UNL     1     -33.141   7.380   3.579  1.00 20.00     0.029 A 
HETATM    2  C5  UNL     1     -33.226   6.204   4.525  1.00 20.00     0.089 A 
HETATM    3  C6  UNL     1     -33.826   6.101   3.134  1.00 20.00    -0.028 A 
HETATM    4  C8  UNL     1     -33.146   5.166   2.161  1.00 20.00     0.016 C 
HETATM    5  C9  UNL     1     -35.325   6.153   2.960  1.00 20.00     0.016 C 
ENDROOT
BRANCH   1   6
HETATM    6  C1  UNL     1     -31.842   7.761   3.042  1.00 20.00    -0.025 C 
HETATM    7  C2  UNL     1     -31.677   8.619   2.026  1.00 20.00    -0.034 C 
HETATM    8  C7  UNL     1     -32.803   9.296   1.317  1.00 20.00     0.036 C 
ENDBRANCH   1   6
BRANCH   2   9
HETATM    9  C3  UNL     1     -34.085   6.300   5.713  1.00 20.00     0.224 C 
HETATM   10  O10 UNL     1     -34.769   5.355   6.092  1.00 20.00    -0.279 OA
HETATM   11 CL11 UNL     1     -33.994   7.866   6.461  1.00 20.00    -0.043 Cl
ENDBRANCH   2   9
TORSDOF 2
ENDMDL
MODEL 6
REMARK VINA RESULT:      -4.5     11.576     12.251
REMARK  2 active torsions:
REMARK  status: ('A' for Active; 'I' for Inactive)
REMARK    1  A    between atoms: C1_1  and  C4_4 
REMARK    2  A    between atoms: C3_3  and  C5_5 
ROOT
HETATM    1  C4  UNL     1     -34.239  16.116  -2.926  1.00 20.00     0.029 A 
HETATM    2  C5  UNL     1     -33.889  15.977  -4.390  1.00 20.00     0.089 A 
HETATM    3  C6  UNL     1     -35.257  16.497  -3.986  1.00 20.00    -0.028 A 
HETATM    4  C8  UNL     1     -35.551  17.950  -4.277  1.00 20.00     0.016 C 
HETATM    5  C9  UNL     1     -36.468  15.605  -4.123  1.00 20.00     0.016 C 
ENDROOT
BRANCH   1   6
HETATM    6  C1  UNL     1     -33.564  17.135  -2.134  1.00 20.00    -0.025 C 
HETATM    7  C2  UNL     1     -34.065  17.655  -1.004  1.00 20.00    -0.034 C 
HETATM    8  C7  UNL     1     -35.376  17.255  -0.414  1.00 20.00     0.036 C 
ENDBRANCH   1   6
BRANCH   2   9
HETATM    9  C3  UNL     1     -33.732  14.634  -4.965  1.00 20.00     0.224 C 
HETATM   10  O10 UNL     1     -33.419  13.669  -4.275  1.00 20.00    -0.279 OA
HETATM   11 CL11 UNL     1     -34.040  14.616  -6.676  1.00 20.00    -0.043 Cl
ENDBRANCH   2   9
TORSDOF 2
ENDMDL
MODEL 7
REMARK VINA RESULT:      -4.4     11.825     12.503
REMARK  2 active torsions:
REMARK  status: ('A' for Active; 'I' for Inactive)
REMARK    1  A    between atoms: C1_1  and  C4_4 
REMARK    2  A    between atoms: C3_3  and  C5_5 
ROOT
HETATM    1  C4  UNL     1     -34.798  15.730  -3.283  1.00 20.00     0.029 A 
HETATM    2  C5  UNL     1     -34.821  16.300  -4.683  1.00 20.00     0.089 A 
HETATM    3  C6  UNL     1     -35.753  15.158  -4.316  1.00 20.00    -0.028 A 
HETATM    4  C8  UNL     1     -37.229  15.472  -4.250  1.00 20.00     0.016 C 
HETATM    5  C9  UNL     1     -35.463  13.764  -4.818  1.00 20.00     0.016 C 
ENDROOT
BRANCH   1   6
HETATM    6  C1  UNL     1     -35.286  16.547  -2.181  1.00 20.00    -0.025 C 
HETATM    7  C2  UNL     1     -34.516  17.391  -1.480  1.00 20.00    -0.034 C 
HETATM    8  C7  UNL     1     -33.061  17.602  -1.741  1.00 20.00     0.036 C 
ENDBRANCH   1   6
BRANCH   2   9
HETATM    9  C3  UNL     1     -33.668  16.078  -5.567  1.00 20.00     0.224 C 
HETATM   10  O10 UNL     1     -32.584  15.705  -5.132  1.00 20.00    -0.279 OA
HETATM   11 CL11 UNL     1     -34.049  16.406  -7.231  1.00 20.00    -0.043 Cl
ENDBRANCH   2   9
TORSDOF 2
ENDMDL
MODEL 8
REMARK VINA RESULT:      -4.2     11.511     12.269
REMARK  2 active torsions:
REMARK  status: ('A' for Active; 'I' for Inactive)
REMARK    1  A    between atoms: C1_1  and  C4_4 
REMARK    2  A    between atoms: C3_3  and  C5_5 
ROOT
HETATM    1  C4  UNL     1     -33.602  16.731  -3.320  1.00 20.00     0.029 A 
HETATM    2  C5  UNL     1     -33.981  16.931  -1.871  1.00 20.00     0.089 A 
HETATM    3  C6  UNL     1     -34.953  17.326  -2.969  1.00 20.00    -0.028 A 
HETATM    4  C8  UNL     1     -36.211  16.501  -3.099  1.00 20.00     0.016 C 
HETATM    5  C9  UNL     1     -35.162  18.786  -3.294  1.00 20.00     0.016 C 
ENDROOT
BRANCH   1   6
HETATM    6  C1  UNL     1     -33.493  15.374  -3.839  1.00 20.00    -0.025 C 
HETATM    7  C2  UNL     1     -33.419  15.077  -5.144  1.00 20.00    -0.034 C 
HETATM    8  C7  UNL     1     -33.438  16.100  -6.232  1.00 20.00     0.036 C 
ENDBRANCH   1   6
BRANCH   2   9
HETATM    9  C3  UNL     1     -33.279  17.953  -1.081  1.00 20.00     0.224 C 
HETATM   10  O10 UNL     1     -32.209  18.428  -1.446  1.00 20.00    -0.279 OA
HETATM   11 CL11 UNL     1     -34.144  18.365   0.369  1.00 20.00    -0.043 Cl
ENDBRANCH   2   9
TORSDOF 2
ENDMDL
MODEL 9
REMARK VINA RESULT:      -4.1      2.309      4.004
REMARK  2 active torsions:
REMARK  status: ('A' for Active; 'I' for Inactive)
REMARK    1  A    between atoms: C1_1  and  C4_4 
REMARK    2  A    between atoms: C3_3  and  C5_5 
ROOT
HETATM    1  C4  UNL     1     -33.674   7.479   3.931  1.00 20.00     0.029 A 
HETATM    2  C5  UNL     1     -32.908   6.335   3.309  1.00 20.00     0.089 A 
HETATM    3  C6  UNL     1     -32.468   7.766   3.055  1.00 20.00    -0.028 A 
HETATM    4  C8  UNL     1     -31.159   8.200   3.673  1.00 20.00     0.016 C 
HETATM    5  C9  UNL     1     -32.733   8.404   1.713  1.00 20.00     0.016 C 
ENDROOT
BRANCH   1   6
HETATM    6  C1  UNL     1     -33.614   7.665   5.374  1.00 20.00    -0.025 C 
HETATM    7  C2  UNL     1     -34.049   6.760   6.262  1.00 20.00    -0.034 C 
HETATM    8  C7  UNL     1     -34.649   5.446   5.884  1.00 20.00     0.036 C 
ENDBRANCH   1   6
BRANCH   2   9
HETATM    9  C3  UNL     1     -33.541   5.541   2.247  1.00 20.00     0.224 C 
HETATM   10  O10 UNL     1     -34.587   5.895   1.713  1.00 20.00    -0.279 OA
HETATM   11 CL11 UNL     1     -32.637   4.102   1.879  1.00 20.00    -0.043 Cl
ENDBRANCH   2   9
TORSDOF 2
ENDMDL
