MODEL 1
REMARK VINA RESULT:      -5.6      0.000      0.000
REMARK  1 active torsions:
REMARK  status: ('A' for Active; 'I' for Inactive)
REMARK    1  A    between atoms: C3_3  and  C4_4 
ROOT
HETATM    1  C1  UNL     1     -34.218   6.686   5.589  1.00 20.00     0.061 C 
HETATM    2  C2  UNL     1     -33.326   7.588   5.175  1.00 20.00     0.087 C 
HETATM    3  C4  UNL     1     -34.558   5.753   4.476  1.00 20.00     0.376 C 
HETATM    4  C5  UNL     1     -32.988   7.352   3.744  1.00 20.00     0.463 C 
HETATM    5  C6  UNL     1     -34.112   5.958   2.062  1.00 20.00     0.324 C 
HETATM    6  N7  UNL     1     -33.579   6.043   3.411  1.00 20.00     0.211 N 
HETATM    7  F9  UNL     1     -35.836   5.953   4.058  1.00 20.00    -0.195 F 
HETATM    8  F10 UNL     1     -33.484   8.347   2.963  1.00 20.00    -0.169 F 
HETATM    9  F11 UNL     1     -31.648   7.315   3.540  1.00 20.00    -0.169 F 
ENDROOT
BRANCH   3  10
HETATM   10  C3  UNL     1     -34.339   4.350   4.934  1.00 20.00     0.312 C 
HETATM   11  O8  UNL     1     -34.110   3.417   4.171  1.00 20.00    -0.301 OA
ENDBRANCH   3  10
TORSDOF 1
ENDMDL
MODEL 2
REMARK VINA RESULT:      -5.1      2.139      3.520
REMARK  1 active torsions:
REMARK  status: ('A' for Active; 'I' for Inactive)
REMARK    1  A    between atoms: C3_3  and  C4_4 
ROOT
HETATM    1  C1  UNL     1     -33.193   7.698   4.698  1.00 20.00     0.061 C 
HETATM    2  C2  UNL     1     -34.120   6.923   5.264  1.00 20.00     0.087 C 
HETATM    3  C4  UNL     1     -32.804   7.144   3.368  1.00 20.00     0.376 C 
HETATM    4  C5  UNL     1     -34.437   5.773   4.373  1.00 20.00     0.463 C 
HETATM    5  C6  UNL     1     -33.240   4.920   2.405  1.00 20.00     0.324 C 
HETATM    6  N7  UNL     1     -33.786   6.081   3.087  1.00 20.00     0.211 N 
HETATM    7  F9  UNL     1     -31.533   6.663   3.405  1.00 20.00    -0.195 F 
HETATM    8  F10 UNL     1     -33.980   4.611   4.909  1.00 20.00    -0.169 F 
HETATM    9  F11 UNL     1     -35.773   5.629   4.189  1.00 20.00    -0.169 F 
ENDROOT
BRANCH   3  10
HETATM   10  C3  UNL     1     -32.963   8.207   2.334  1.00 20.00     0.312 C 
HETATM   11  O8  UNL     1     -32.038   8.622   1.643  1.00 20.00    -0.301 OA
ENDBRANCH   3  10
TORSDOF 1
ENDMDL
MODEL 3
REMARK VINA RESULT:      -5.0      2.232      3.576
REMARK  1 active torsions:
REMARK  status: ('A' for Active; 'I' for Inactive)
REMARK    1  A    between atoms: C3_3  and  C4_4 
ROOT
HETATM    1  C1  UNL     1     -34.479   5.848   3.152  1.00 20.00     0.061 C 
HETATM    2  C2  UNL     1     -34.851   4.993   4.106  1.00 20.00     0.087 C 
HETATM    3  C4  UNL     1     -33.701   6.973   3.747  1.00 20.00     0.376 C 
HETATM    4  C5  UNL     1     -34.366   5.466   5.432  1.00 20.00     0.463 C 
HETATM    5  C6  UNL     1     -33.477   7.655   6.102  1.00 20.00     0.324 C 
HETATM    6  N7  UNL     1     -33.433   6.568   5.139  1.00 20.00     0.211 N 
HETATM    7  F9  UNL     1     -34.412   8.131   3.683  1.00 20.00    -0.195 F 
HETATM    8  F10 UNL     1     -35.406   5.872   6.206  1.00 20.00    -0.169 F 
HETATM    9  F11 UNL     1     -33.720   4.486   6.113  1.00 20.00    -0.169 F 
ENDROOT
BRANCH   3  10
HETATM   10  C3  UNL     1     -32.394   7.088   3.038  1.00 20.00     0.312 C 
HETATM   11  O8  UNL     1     -31.670   8.076   3.111  1.00 20.00    -0.301 OA
ENDBRANCH   3  10
TORSDOF 1
ENDMDL
MODEL 4
REMARK VINA RESULT:      -4.8      1.714      2.051
REMARK  1 active torsions:
REMARK  status: ('A' for Active; 'I' for Inactive)
REMARK    1  A    between atoms: C3_3  and  C4_4 
ROOT
HETATM    1  C1  UNL     1     -34.867   5.172   4.920  1.00 20.00     0.061 C 
HETATM    2  C2  UNL     1     -34.628   6.054   5.893  1.00 20.00     0.087 C 
HETATM    3  C4  UNL     1     -34.163   5.585   3.671  1.00 20.00     0.376 C 
HETATM    4  C5  UNL     1     -33.749   7.144   5.389  1.00 20.00     0.463 C 
HETATM    5  C6  UNL     1     -33.135   7.746   3.088  1.00 20.00     0.324 C 
HETATM    6  N7  UNL     1     -33.269   6.687   4.073  1.00 20.00     0.211 N 
HETATM    7  F9  UNL     1     -35.059   5.979   2.726  1.00 20.00    -0.195 F 
HETATM    8  F10 UNL     1     -34.437   8.313   5.300  1.00 20.00    -0.169 F 
HETATM    9  F11 UNL     1     -32.694   7.365   6.212  1.00 20.00    -0.169 F 
ENDROOT
BRANCH   3  10
HETATM   10  C3  UNL     1     -33.317   4.453   3.193  1.00 20.00     0.312 C 
HETATM   11  O8  UNL     1     -32.764   4.438   2.098  1.00 20.00    -0.301 OA
ENDBRANCH   3  10
TORSDOF 1
ENDMDL
MODEL 5
REMARK VINA RESULT:      -4.8     12.083     12.703
REMARK  1 active torsions:
REMARK  status: ('A' for Active; 'I' for Inactive)
REMARK    1  A    between atoms: C3_3  and  C4_4 
ROOT
HETATM    1  C1  UNL     1     -35.525  15.483  -3.862  1.00 20.00     0.061 C 
HETATM    2  C2  UNL     1     -34.246  15.659  -3.524  1.00 20.00     0.087 C 
HETATM    3  C4  UNL     1     -35.623  15.018  -5.276  1.00 20.00     0.376 C 
HETATM    4  C5  UNL     1     -33.365  15.336  -4.680  1.00 20.00     0.463 C 
HETATM    5  C6  UNL     1     -33.918  15.024  -7.053  1.00 20.00     0.324 C 
HETATM    6  N7  UNL     1     -34.241  14.693  -5.676  1.00 20.00     0.211 N 
HETATM    7  F9  UNL     1     -36.163  15.988  -6.061  1.00 20.00    -0.195 F 
HETATM    8  F10 UNL     1     -32.781  16.462  -5.168  1.00 20.00    -0.169 F 
HETATM    9  F11 UNL     1     -32.365  14.487  -4.332  1.00 20.00    -0.169 F 
ENDROOT
BRANCH   3  10
HETATM   10  C3  UNL     1     -36.425  13.762  -5.320  1.00 20.00     0.312 C 
HETATM   11  O8  UNL     1     -35.930  12.641  -5.248  1.00 20.00    -0.301 OA
ENDBRANCH   3  10
TORSDOF 1
ENDMDL
MODEL 6
REMARK VINA RESULT:      -4.7     11.899     12.863
REMARK  1 active torsions:
REMARK  status: ('A' for Active; 'I' for Inactive)
REMARK    1  A    between atoms: C3_3  and  C4_4 
ROOT
HETATM    1  C1  UNL     1     -34.136  14.219  -4.011  1.00 20.00     0.061 C 
HETATM    2  C2  UNL     1     -33.050  14.802  -4.525  1.00 20.00     0.087 C 
HETATM    3  C4  UNL     1     -35.368  14.866  -4.550  1.00 20.00     0.376 C 
HETATM    4  C5  UNL     1     -33.449  15.898  -5.449  1.00 20.00     0.463 C 
HETATM    5  C6  UNL     1     -35.624  16.999  -5.755  1.00 20.00     0.324 C 
HETATM    6  N7  UNL     1     -34.902  15.743  -5.641  1.00 20.00     0.211 N 
HETATM    7  F9  UNL     1     -36.006  15.565  -3.574  1.00 20.00    -0.195 F 
HETATM    8  F10 UNL     1     -33.132  17.110  -4.923  1.00 20.00    -0.169 F 
HETATM    9  F11 UNL     1     -32.816  15.806  -6.646  1.00 20.00    -0.169 F 
ENDROOT
BRANCH   3  10
HETATM   10  C3  UNL     1     -36.247  13.817  -5.143  1.00 20.00     0.312 C 
HETATM   11  O8  UNL     1     -35.917  12.640  -5.250  1.00 20.00    -0.301 OA
ENDBRANCH   3  10
TORSDOF 1
ENDMDL
MODEL 7
REMARK VINA RESULT:      -4.5      2.110      2.804
REMARK  1 active torsions:
REMARK  status: ('A' for Active; 'I' for Inactive)
REMARK    1  A    between atoms: C3_3  and  C4_4 
ROOT
HETATM    1  C1  UNL     1     -32.479   7.697   3.498  1.00 20.00     0.061 C 
HETATM    2  C2  UNL     1     -32.261   6.768   2.566  1.00 20.00     0.087 C 
HETATM    3  C4  UNL     1     -33.682   7.341   4.306  1.00 20.00     0.376 C 
HETATM    4  C5  UNL     1     -33.300   5.705   2.653  1.00 20.00     0.463 C 
HETATM    5  C6  UNL     1     -35.444   5.682   3.851  1.00 20.00     0.324 C 
HETATM    6  N7  UNL     1     -34.020   5.960   3.913  1.00 20.00     0.211 N 
HETATM    7  F9  UNL     1     -34.701   8.204   4.050  1.00 20.00    -0.195 F 
HETATM    8  F10 UNL     1     -34.127   5.753   1.576  1.00 20.00    -0.169 F 
HETATM    9  F11 UNL     1     -32.752   4.464   2.680  1.00 20.00    -0.169 F 
ENDROOT
BRANCH   3  10
HETATM   10  C3  UNL     1     -33.313   7.334   5.751  1.00 20.00     0.312 C 
HETATM   11  O8  UNL     1     -34.130   7.204   6.657  1.00 20.00    -0.301 OA
ENDBRANCH   3  10
TORSDOF 1
ENDMDL
MODEL 8
REMARK VINA RESULT:      -4.3     12.091     13.058
REMARK  1 active torsions:
REMARK  status: ('A' for Active; 'I' for Inactive)
REMARK    1  A    between atoms: C3_3  and  C4_4 
ROOT
HETATM    1  C1  UNL     1     -35.002  13.936  -6.477  1.00 20.00     0.061 C 
HETATM    2  C2  UNL     1     -34.008  14.705  -6.924  1.00 20.00     0.087 C 
HETATM    3  C4  UNL     1     -35.408  14.368  -5.107  1.00 20.00     0.376 C 
HETATM    4  C5  UNL     1     -33.646  15.721  -5.897  1.00 20.00     0.463 C 
HETATM    5  C6  UNL     1     -34.246  15.847  -3.518  1.00 20.00     0.324 C 
HETATM    6  N7  UNL     1     -34.710  15.647  -4.880  1.00 20.00     0.211 N 
HETATM    7  F9  UNL     1     -35.058  13.430  -4.188  1.00 20.00    -0.195 F 
HETATM    8  F10 UNL     1     -32.422  15.457  -5.371  1.00 20.00    -0.169 F 
HETATM    9  F11 UNL     1     -33.595  16.972  -6.419  1.00 20.00    -0.169 F 
ENDROOT
BRANCH   3  10
HETATM   10  C3  UNL     1     -36.876  14.632  -5.097  1.00 20.00     0.312 C 
HETATM   11  O8  UNL     1     -37.720  13.753  -4.959  1.00 20.00    -0.301 OA
ENDBRANCH   3  10
TORSDOF 1
ENDMDL
MODEL 9
REMARK VINA RESULT:      -4.3     12.462     13.343
REMARK  1 active torsions:
REMARK  status: ('A' for Active; 'I' for Inactive)
REMARK    1  A    between atoms: C3_3  and  C4_4 
ROOT
HETATM    1  C1  UNL     1     -33.700  15.052  -7.067  1.00 20.00     0.061 C 
HETATM    2  C2  UNL     1     -34.208  14.137  -7.896  1.00 20.00     0.087 C 
HETATM    3  C4  UNL     1     -34.426  15.022  -5.764  1.00 20.00     0.376 C 
HETATM    4  C5  UNL     1     -35.326  13.413  -7.232  1.00 20.00     0.463 C 
HETATM    5  C6  UNL     1     -36.568  13.955  -5.183  1.00 20.00     0.324 C 
HETATM    6  N7  UNL     1     -35.268  13.812  -5.814  1.00 20.00     0.211 N 
HETATM    7  F9  UNL     1     -35.168  16.150  -5.605  1.00 20.00    -0.195 F 
HETATM    8  F10 UNL     1     -36.515  13.738  -7.803  1.00 20.00    -0.169 F 
HETATM    9  F11 UNL     1     -35.189  12.067  -7.336  1.00 20.00    -0.169 F 
ENDROOT
BRANCH   3  10
HETATM   10  C3  UNL     1     -33.436  14.852  -4.661  1.00 20.00     0.312 C 
HETATM   11  O8  UNL     1     -32.976  13.765  -4.328  1.00 20.00    -0.301 OA
ENDBRANCH   3  10
TORSDOF 1
ENDMDL
