MODEL 1
REMARK VINA RESULT:      -4.7      0.000      0.000
REMARK  1 active torsions:
REMARK  status: ('A' for Active; 'I' for Inactive)
REMARK    1  A    between atoms: C1_1  and  C3_3 
ROOT
HETATM    1  C2  UNL     1     -33.405   5.605   2.811  1.00 20.00     0.030 A 
HETATM    2  C3  UNL     1     -34.368   6.404   3.648  1.00 20.00     0.070 A 
HETATM    3  C4  UNL     1     -33.343   7.106   2.794  1.00 20.00     0.070 A 
HETATM    4 BR7  UNL     1     -31.822   7.949   3.582  1.00 20.00    -0.090 Br
ENDROOT
BRANCH   2   5
HETATM    5  C1  UNL     1     -34.257   6.362   5.112  1.00 20.00     0.128 C 
HETATM    6  C5  UNL     1     -34.474   5.027   5.769  1.00 20.00     0.091 C 
HETATM    7  O6  UNL     1     -33.997   7.370   5.768  1.00 20.00    -0.298 OA
ENDBRANCH   2   5
TORSDOF 1
ENDMDL
MODEL 2
REMARK VINA RESULT:      -4.5      2.372      3.357
REMARK  1 active torsions:
REMARK  status: ('A' for Active; 'I' for Inactive)
REMARK    1  A    between atoms: C1_1  and  C3_3 
ROOT
HETATM    1  C2  UNL     1     -33.734   6.902   5.803  1.00 20.00     0.030 A 
HETATM    2  C3  UNL     1     -34.191   7.213   4.402  1.00 20.00     0.070 A 
HETATM    3  C4  UNL     1     -34.734   6.007   5.127  1.00 20.00     0.070 A 
HETATM    4 BR7  UNL     1     -34.178   4.244   4.650  1.00 20.00    -0.090 Br
ENDROOT
BRANCH   2   5
HETATM    5  C1  UNL     1     -33.242   7.083   3.290  1.00 20.00     0.128 C 
HETATM    6  C5  UNL     1     -31.943   7.831   3.418  1.00 20.00     0.091 C 
HETATM    7  O6  UNL     1     -33.496   6.396   2.302  1.00 20.00    -0.298 OA
ENDBRANCH   2   5
TORSDOF 1
ENDMDL
MODEL 3
REMARK VINA RESULT:      -4.3      2.045      3.232
REMARK  1 active torsions:
REMARK  status: ('A' for Active; 'I' for Inactive)
REMARK    1  A    between atoms: C1_1  and  C3_3 
ROOT
HETATM    1  C2  UNL     1     -34.325   6.399   2.871  1.00 20.00     0.030 A 
HETATM    2  C3  UNL     1     -32.824   6.503   2.924  1.00 20.00     0.070 A 
HETATM    3  C4  UNL     1     -33.595   6.057   4.140  1.00 20.00     0.070 A 
HETATM    4 BR7  UNL     1     -33.816   7.216   5.640  1.00 20.00    -0.090 Br
ENDROOT
BRANCH   2   5
HETATM    5  C1  UNL     1     -32.190   7.826   2.852  1.00 20.00     0.128 C 
HETATM    6  C5  UNL     1     -32.638   8.731   1.737  1.00 20.00     0.091 C 
HETATM    7  O6  UNL     1     -31.337   8.177   3.665  1.00 20.00    -0.298 OA
ENDBRANCH   2   5
TORSDOF 1
ENDMDL
MODEL 4
REMARK VINA RESULT:      -4.3      2.017      2.555
REMARK  1 active torsions:
REMARK  status: ('A' for Active; 'I' for Inactive)
REMARK    1  A    between atoms: C1_1  and  C3_3 
ROOT
HETATM    1  C2  UNL     1     -34.357   4.579   5.434  1.00 20.00     0.030 A 
HETATM    2  C3  UNL     1     -34.896   5.808   4.751  1.00 20.00     0.070 A 
HETATM    3  C4  UNL     1     -34.551   4.583   3.944  1.00 20.00     0.070 A 
HETATM    4 BR7  UNL     1     -32.995   4.543   2.839  1.00 20.00    -0.090 Br
ENDROOT
BRANCH   2   5
HETATM    5  C1  UNL     1     -34.073   7.023   4.701  1.00 20.00     0.128 C 
HETATM    6  C5  UNL     1     -33.480   7.492   6.002  1.00 20.00     0.091 C 
HETATM    7  O6  UNL     1     -33.878   7.627   3.648  1.00 20.00    -0.298 OA
ENDBRANCH   2   5
TORSDOF 1
ENDMDL
MODEL 5
REMARK VINA RESULT:      -4.0      1.977      2.033
REMARK  1 active torsions:
REMARK  status: ('A' for Active; 'I' for Inactive)
REMARK    1  A    between atoms: C1_1  and  C3_3 
ROOT
HETATM    1  C2  UNL     1     -33.209   6.309   2.877  1.00 20.00     0.030 A 
HETATM    2  C3  UNL     1     -34.497   5.801   3.469  1.00 20.00     0.070 A 
HETATM    3  C4  UNL     1     -34.001   7.185   3.805  1.00 20.00     0.070 A 
HETATM    4 BR7  UNL     1     -33.260   7.571   5.521  1.00 20.00    -0.090 Br
ENDROOT
BRANCH   2   5
HETATM    5  C1  UNL     1     -34.456   4.707   4.448  1.00 20.00     0.128 C 
HETATM    6  C5  UNL     1     -34.835   5.051   5.863  1.00 20.00     0.091 C 
HETATM    7  O6  UNL     1     -34.129   3.566   4.127  1.00 20.00    -0.298 OA
ENDBRANCH   2   5
TORSDOF 1
ENDMDL
MODEL 6
REMARK VINA RESULT:      -4.0      1.773      2.201
REMARK  1 active torsions:
REMARK  status: ('A' for Active; 'I' for Inactive)
REMARK    1  A    between atoms: C1_1  and  C3_3 
ROOT
HETATM    1  C2  UNL     1     -34.083   7.742   5.508  1.00 20.00     0.030 A 
HETATM    2  C3  UNL     1     -33.774   6.276   5.358  1.00 20.00     0.070 A 
HETATM    3  C4  UNL     1     -32.839   7.311   4.785  1.00 20.00     0.070 A 
HETATM    4 BR7  UNL     1     -32.748   7.613   2.902  1.00 20.00    -0.090 Br
ENDROOT
BRANCH   2   5
HETATM    5  C1  UNL     1     -34.628   5.446   4.499  1.00 20.00     0.128 C 
HETATM    6  C5  UNL     1     -34.227   4.005   4.337  1.00 20.00     0.091 C 
HETATM    7  O6  UNL     1     -35.623   5.905   3.941  1.00 20.00    -0.298 OA
ENDBRANCH   2   5
TORSDOF 1
ENDMDL
MODEL 7
REMARK VINA RESULT:      -4.0     11.895     12.374
REMARK  1 active torsions:
REMARK  status: ('A' for Active; 'I' for Inactive)
REMARK    1  A    between atoms: C1_1  and  C3_3 
ROOT
HETATM    1  C2  UNL     1     -34.486  15.561  -3.607  1.00 20.00     0.030 A 
HETATM    2  C3  UNL     1     -34.534  14.137  -4.093  1.00 20.00     0.070 A 
HETATM    3  C4  UNL     1     -33.455  15.069  -4.583  1.00 20.00     0.070 A 
HETATM    4 BR7  UNL     1     -33.498  15.769  -6.358  1.00 20.00    -0.090 Br
ENDROOT
BRANCH   2   5
HETATM    5  C1  UNL     1     -35.639  13.710  -4.960  1.00 20.00     0.128 C 
HETATM    6  C5  UNL     1     -36.898  14.532  -4.907  1.00 20.00     0.091 C 
HETATM    7  O6  UNL     1     -35.541  12.728  -5.694  1.00 20.00    -0.298 OA
ENDBRANCH   2   5
TORSDOF 1
ENDMDL
MODEL 8
REMARK VINA RESULT:      -3.9      2.089      2.497
REMARK  1 active torsions:
REMARK  status: ('A' for Active; 'I' for Inactive)
REMARK    1  A    between atoms: C1_1  and  C3_3 
ROOT
HETATM    1  C2  UNL     1     -33.099   7.209   2.971  1.00 20.00     0.030 A 
HETATM    2  C3  UNL     1     -34.236   6.226   3.069  1.00 20.00     0.070 A 
HETATM    3  C4  UNL     1     -34.151   7.385   4.030  1.00 20.00     0.070 A 
HETATM    4 BR7  UNL     1     -33.642   7.112   5.850  1.00 20.00    -0.090 Br
ENDROOT
BRANCH   2   5
HETATM    5  C1  UNL     1     -33.962   4.848   3.493  1.00 20.00     0.128 C 
HETATM    6  C5  UNL     1     -32.782   4.166   2.857  1.00 20.00     0.091 C 
HETATM    7  O6  UNL     1     -34.662   4.279   4.329  1.00 20.00    -0.298 OA
ENDBRANCH   2   5
TORSDOF 1
ENDMDL
MODEL 9
REMARK VINA RESULT:      -3.9      2.266      2.855
REMARK  1 active torsions:
REMARK  status: ('A' for Active; 'I' for Inactive)
REMARK    1  A    between atoms: C1_1  and  C3_3 
ROOT
HETATM    1  C2  UNL     1     -31.456   8.379   3.438  1.00 20.00     0.030 A 
HETATM    2  C3  UNL     1     -32.050   7.140   2.821  1.00 20.00     0.070 A 
HETATM    3  C4  UNL     1     -31.731   8.337   1.962  1.00 20.00     0.070 A 
HETATM    4 BR7  UNL     1     -33.121   9.452   1.278  1.00 20.00    -0.090 Br
ENDROOT
BRANCH   2   5
HETATM    5  C1  UNL     1     -33.433   6.768   3.144  1.00 20.00     0.128 C 
HETATM    6  C5  UNL     1     -33.952   7.194   4.490  1.00 20.00     0.091 C 
HETATM    7  O6  UNL     1     -34.134   6.139   2.351  1.00 20.00    -0.298 OA
ENDBRANCH   2   5
TORSDOF 1
ENDMDL
