MODEL 1
REMARK VINA RESULT:      -4.7      0.000      0.000
REMARK  1 active torsions:
REMARK  status: ('A' for Active; 'I' for Inactive)
REMARK    1  A    between atoms: C7_7  and  N11_11 
ROOT
HETATM    1  C1  UNL     1     -33.658   6.664   4.951  1.00 20.00     0.164 C 
HETATM    2  C2  UNL     1     -34.280   4.313   4.618  1.00 20.00     0.013 C 
HETATM    3  C3  UNL     1     -35.652   6.177   3.617  1.00 20.00     0.013 C 
HETATM    4  C4  UNL     1     -33.426   4.271   3.340  1.00 20.00     0.008 C 
HETATM    5  C5  UNL     1     -34.793   6.093   2.346  1.00 20.00     0.008 C 
HETATM    6  C6  UNL     1     -34.847   5.721   4.841  1.00 20.00     0.058 C 
HETATM    7  C7  UNL     1     -32.729   6.638   3.745  1.00 20.00     0.295 C 
HETATM    8  C8  UNL     1     -33.351   5.675   2.704  1.00 20.00     0.026 C 
HETATM    9  O12 UNL     1     -33.472   7.381   5.931  1.00 20.00    -0.295 OA
ENDROOT
BRANCH   7  10
HETATM   10  N11 UNL     1     -32.577   8.006   3.267  1.00 20.00     0.092 N 
HETATM   11  C9  UNL     1     -32.490   8.037   1.805  1.00 20.00     0.310 C 
HETATM   12  C10 UNL     1     -31.392   8.631   3.856  1.00 20.00     0.310 C 
ENDBRANCH   7  10
TORSDOF 1
ENDMDL
MODEL 2
REMARK VINA RESULT:      -4.4     11.745     12.994
REMARK  1 active torsions:
REMARK  status: ('A' for Active; 'I' for Inactive)
REMARK    1  A    between atoms: C7_7  and  N11_11 
ROOT
HETATM    1  C1  UNL     1     -35.411  13.934  -5.095  1.00 20.00     0.164 C 
HETATM    2  C2  UNL     1     -33.300  14.659  -4.074  1.00 20.00     0.013 C 
HETATM    3  C3  UNL     1     -33.855  15.233  -6.467  1.00 20.00     0.013 C 
HETATM    4  C4  UNL     1     -33.973  15.965  -3.617  1.00 20.00     0.008 C 
HETATM    5  C5  UNL     1     -34.499  16.540  -5.977  1.00 20.00     0.008 C 
HETATM    6  C6  UNL     1     -33.933  14.155  -5.378  1.00 20.00     0.058 C 
HETATM    7  C7  UNL     1     -36.139  15.169  -4.582  1.00 20.00     0.295 C 
HETATM    8  C8  UNL     1     -35.121  16.337  -4.579  1.00 20.00     0.026 C 
HETATM    9  O12 UNL     1     -35.962  12.850  -5.270  1.00 20.00    -0.295 OA
ENDROOT
BRANCH   7  10
HETATM   10  N11 UNL     1     -37.295  15.397  -5.438  1.00 20.00     0.092 N 
HETATM   11  C9  UNL     1     -37.621  16.824  -5.501  1.00 20.00     0.310 C 
HETATM   12  C10 UNL     1     -38.451  14.636  -4.958  1.00 20.00     0.310 C 
ENDBRANCH   7  10
TORSDOF 1
ENDMDL
MODEL 3
REMARK VINA RESULT:      -4.2     11.816     13.137
REMARK  1 active torsions:
REMARK  status: ('A' for Active; 'I' for Inactive)
REMARK    1  A    between atoms: C7_7  and  N11_11 
ROOT
HETATM    1  C1  UNL     1     -34.750  14.696  -4.302  1.00 20.00     0.164 C 
HETATM    2  C2  UNL     1     -36.009  16.439  -3.118  1.00 20.00     0.013 C 
HETATM    3  C3  UNL     1     -33.569  16.746  -3.677  1.00 20.00     0.013 C 
HETATM    4  C4  UNL     1     -36.386  17.078  -4.465  1.00 20.00     0.008 C 
HETATM    5  C5  UNL     1     -33.982  17.400  -5.004  1.00 20.00     0.008 C 
HETATM    6  C6  UNL     1     -34.640  15.751  -3.212  1.00 20.00     0.058 C 
HETATM    7  C7  UNL     1     -35.177  15.242  -5.658  1.00 20.00     0.295 C 
HETATM    8  C8  UNL     1     -35.298  16.780  -5.518  1.00 20.00     0.026 C 
HETATM    9  O12 UNL     1     -34.513  13.508  -4.097  1.00 20.00    -0.295 OA
ENDROOT
BRANCH   7  10
HETATM   10  N11 UNL     1     -34.193  14.815  -6.643  1.00 20.00     0.092 N 
HETATM   11  C9  UNL     1     -34.082  15.797  -7.723  1.00 20.00     0.310 C 
HETATM   12  C10 UNL     1     -34.545  13.502  -7.189  1.00 20.00     0.310 C 
ENDBRANCH   7  10
TORSDOF 1
ENDMDL
MODEL 4
REMARK VINA RESULT:      -4.2     11.743     12.799
REMARK  1 active torsions:
REMARK  status: ('A' for Active; 'I' for Inactive)
REMARK    1  A    between atoms: C7_7  and  N11_11 
ROOT
HETATM    1  C1  UNL     1     -33.833  15.974  -3.805  1.00 20.00     0.164 C 
HETATM    2  C2  UNL     1     -33.613  17.312  -1.758  1.00 20.00     0.013 C 
HETATM    3  C3  UNL     1     -34.502  18.328  -3.888  1.00 20.00     0.013 C 
HETATM    4  C4  UNL     1     -35.048  16.928  -1.356  1.00 20.00     0.008 C 
HETATM    5  C5  UNL     1     -35.924  17.949  -3.445  1.00 20.00     0.008 C 
HETATM    6  C6  UNL     1     -33.476  17.359  -3.286  1.00 20.00     0.058 C 
HETATM    7  C7  UNL     1     -35.221  15.496  -3.399  1.00 20.00     0.295 C 
HETATM    8  C8  UNL     1     -35.896  16.648  -2.615  1.00 20.00     0.026 C 
HETATM    9  O12 UNL     1     -33.063  15.308  -4.491  1.00 20.00    -0.295 OA
ENDROOT
BRANCH   7  10
HETATM   10  N11 UNL     1     -35.934  15.110  -4.610  1.00 20.00     0.092 N 
HETATM   11  C9  UNL     1     -37.379  15.264  -4.432  1.00 20.00     0.310 C 
HETATM   12  C10 UNL     1     -35.615  13.730  -4.980  1.00 20.00     0.310 C 
ENDBRANCH   7  10
TORSDOF 1
ENDMDL
MODEL 5
REMARK VINA RESULT:      -4.2     11.908     13.029
REMARK  1 active torsions:
REMARK  status: ('A' for Active; 'I' for Inactive)
REMARK    1  A    between atoms: C7_7  and  N11_11 
ROOT
HETATM    1  C1  UNL     1     -34.087  14.750  -4.426  1.00 20.00     0.164 C 
HETATM    2  C2  UNL     1     -34.870  16.219  -2.621  1.00 20.00     0.013 C 
HETATM    3  C3  UNL     1     -33.548  17.134  -4.565  1.00 20.00     0.013 C 
HETATM    4  C4  UNL     1     -36.171  16.477  -3.399  1.00 20.00     0.008 C 
HETATM    5  C5  UNL     1     -34.869  17.399  -5.304  1.00 20.00     0.008 C 
HETATM    6  C6  UNL     1     -33.706  15.961  -3.589  1.00 20.00     0.058 C 
HETATM    7  C7  UNL     1     -35.399  14.905  -5.185  1.00 20.00     0.295 C 
HETATM    8  C8  UNL     1     -35.921  16.339  -4.916  1.00 20.00     0.026 C 
HETATM    9  O12 UNL     1     -33.392  13.740  -4.481  1.00 20.00    -0.295 OA
ENDROOT
BRANCH   7  10
HETATM   10  N11 UNL     1     -35.140  14.627  -6.591  1.00 20.00     0.092 N 
HETATM   11  C9  UNL     1     -36.087  15.346  -7.445  1.00 20.00     0.310 C 
HETATM   12  C10 UNL     1     -35.213  13.188  -6.855  1.00 20.00     0.310 C 
ENDBRANCH   7  10
TORSDOF 1
ENDMDL
MODEL 6
REMARK VINA RESULT:      -4.1     11.962     13.170
REMARK  1 active torsions:
REMARK  status: ('A' for Active; 'I' for Inactive)
REMARK    1  A    between atoms: C7_7  and  N11_11 
ROOT
HETATM    1  C1  UNL     1     -34.676  14.195  -5.151  1.00 20.00     0.164 C 
HETATM    2  C2  UNL     1     -34.439  13.610  -7.523  1.00 20.00     0.013 C 
HETATM    3  C3  UNL     1     -36.617  14.497  -6.612  1.00 20.00     0.013 C 
HETATM    4  C4  UNL     1     -33.995  15.049  -7.832  1.00 20.00     0.008 C 
HETATM    5  C5  UNL     1     -36.150  15.920  -6.954  1.00 20.00     0.008 C 
HETATM    6  C6  UNL     1     -35.411  13.588  -6.336  1.00 20.00     0.058 C 
HETATM    7  C7  UNL     1     -34.152  15.604  -5.398  1.00 20.00     0.295 C 
HETATM    8  C8  UNL     1     -34.617  16.028  -6.813  1.00 20.00     0.026 C 
HETATM    9  O12 UNL     1     -34.523  13.594  -4.091  1.00 20.00    -0.295 OA
ENDROOT
BRANCH   7  10
HETATM   10  N11 UNL     1     -34.651  16.461  -4.331  1.00 20.00     0.092 N 
HETATM   11  C9  UNL     1     -34.787  17.843  -4.797  1.00 20.00     0.310 C 
HETATM   12  C10 UNL     1     -33.766  16.405  -3.166  1.00 20.00     0.310 C 
ENDBRANCH   7  10
TORSDOF 1
ENDMDL
MODEL 7
REMARK VINA RESULT:      -4.1     11.454     12.850
REMARK  1 active torsions:
REMARK  status: ('A' for Active; 'I' for Inactive)
REMARK    1  A    between atoms: C7_7  and  N11_11 
ROOT
HETATM    1  C1  UNL     1     -36.039  13.904  -5.401  1.00 20.00     0.164 C 
HETATM    2  C2  UNL     1     -37.510  15.186  -6.888  1.00 20.00     0.013 C 
HETATM    3  C3  UNL     1     -37.927  15.100  -4.402  1.00 20.00     0.013 C 
HETATM    4  C4  UNL     1     -36.628  16.430  -6.686  1.00 20.00     0.008 C 
HETATM    5  C5  UNL     1     -37.057  16.356  -4.239  1.00 20.00     0.008 C 
HETATM    6  C6  UNL     1     -37.488  14.300  -5.636  1.00 20.00     0.058 C 
HETATM    7  C7  UNL     1     -35.087  15.083  -5.247  1.00 20.00     0.295 C 
HETATM    8  C8  UNL     1     -35.941  16.375  -5.305  1.00 20.00     0.026 C 
HETATM    9  O12 UNL     1     -35.676  12.732  -5.340  1.00 20.00    -0.295 OA
ENDROOT
BRANCH   7  10
HETATM   10  N11 UNL     1     -34.360  14.913  -3.997  1.00 20.00     0.092 N 
HETATM   11  C9  UNL     1     -34.197  16.197  -3.312  1.00 20.00     0.310 C 
HETATM   12  C10 UNL     1     -33.052  14.300  -4.239  1.00 20.00     0.310 C 
ENDBRANCH   7  10
TORSDOF 1
ENDMDL
MODEL 8
REMARK VINA RESULT:      -4.1     11.782     13.500
REMARK  1 active torsions:
REMARK  status: ('A' for Active; 'I' for Inactive)
REMARK    1  A    between atoms: C7_7  and  N11_11 
ROOT
HETATM    1  C1  UNL     1     -37.083  14.313  -5.239  1.00 20.00     0.164 C 
HETATM    2  C2  UNL     1     -34.829  14.054  -4.303  1.00 20.00     0.013 C 
HETATM    3  C3  UNL     1     -35.340  13.373  -6.677  1.00 20.00     0.013 C 
HETATM    4  C4  UNL     1     -34.464  15.463  -4.798  1.00 20.00     0.008 C 
HETATM    5  C5  UNL     1     -34.946  14.785  -7.139  1.00 20.00     0.008 C 
HETATM    6  C6  UNL     1     -35.862  13.406  -5.235  1.00 20.00     0.058 C 
HETATM    7  C7  UNL     1     -36.793  15.747  -5.664  1.00 20.00     0.295 C 
HETATM    8  C8  UNL     1     -35.295  15.820  -6.048  1.00 20.00     0.026 C 
HETATM    9  O12 UNL     1     -38.202  13.915  -4.927  1.00 20.00    -0.295 OA
ENDROOT
BRANCH   7  10
HETATM   10  N11 UNL     1     -37.699  16.084  -6.753  1.00 20.00     0.092 N 
HETATM   11  C9  UNL     1     -37.101  17.091  -7.632  1.00 20.00     0.310 C 
HETATM   12  C10 UNL     1     -38.979  16.566  -6.231  1.00 20.00     0.310 C 
ENDBRANCH   7  10
TORSDOF 1
ENDMDL
MODEL 9
REMARK VINA RESULT:      -4.0     11.889     13.430
REMARK  1 active torsions:
REMARK  status: ('A' for Active; 'I' for Inactive)
REMARK    1  A    between atoms: C7_7  and  N11_11 
ROOT
HETATM    1  C1  UNL     1     -34.120  16.414  -5.693  1.00 20.00     0.164 C 
HETATM    2  C2  UNL     1     -33.293  14.439  -4.493  1.00 20.00     0.013 C 
HETATM    3  C3  UNL     1     -33.713  16.615  -3.288  1.00 20.00     0.013 C 
HETATM    4  C4  UNL     1     -34.742  14.012  -4.202  1.00 20.00     0.008 C 
HETATM    5  C5  UNL     1     -35.147  16.147  -2.996  1.00 20.00     0.008 C 
HETATM    6  C6  UNL     1     -33.189  15.968  -4.576  1.00 20.00     0.058 C 
HETATM    7  C7  UNL     1     -35.568  15.979  -5.508  1.00 20.00     0.295 C 
HETATM    8  C8  UNL     1     -35.660  15.251  -4.143  1.00 20.00     0.026 C 
HETATM    9  O12 UNL     1     -33.731  17.069  -6.656  1.00 20.00    -0.295 OA
ENDROOT
BRANCH   7  10
HETATM   10  N11 UNL     1     -36.409  17.165  -5.601  1.00 20.00     0.092 N 
HETATM   11  C9  UNL     1     -37.627  17.000  -4.806  1.00 20.00     0.310 C 
HETATM   12  C10 UNL     1     -36.750  17.447  -6.997  1.00 20.00     0.310 C 
ENDBRANCH   7  10
TORSDOF 1
ENDMDL
