MODEL 1
REMARK VINA RESULT:      -4.5      0.000      0.000
REMARK  0 active torsions:
REMARK  status: ('A' for Active; 'I' for Inactive)
ROOT
HETATM    1  C1  UNL     1     -35.047  16.608  -2.411  1.00 20.00     0.015 C 
HETATM    2  C2  UNL     1     -34.769  15.894  -3.335  1.00 20.00    -0.076 C 
HETATM    3  C3  UNL     1     -35.470  13.897  -4.577  1.00 20.00     0.057 C 
HETATM    4  C4  UNL     1     -35.404  13.477  -6.036  1.00 20.00     0.044 C 
HETATM    5  C5  UNL     1     -34.430  15.015  -4.471  1.00 20.00     0.218 C 
HETATM    6  C6  UNL     1     -35.063  14.772  -6.796  1.00 20.00     0.154 C 
HETATM    7  C7  UNL     1     -33.019  14.440  -4.262  1.00 20.00     0.064 C 
HETATM    8  C8  UNL     1     -34.056  14.467  -7.917  1.00 20.00     0.049 C 
HETATM    9  C9  UNL     1     -36.339  15.363  -7.423  1.00 20.00     0.049 C 
HETATM   10  C10 UNL     1     -33.588  16.676  -6.125  1.00 20.00     0.313 C 
HETATM   11  N11 UNL     1     -34.615  15.720  -5.752  1.00 20.00     0.114 N 
ENDROOT
TORSDOF 0
ENDMDL
MODEL 2
REMARK VINA RESULT:      -4.4      1.442      1.814
REMARK  0 active torsions:
REMARK  status: ('A' for Active; 'I' for Inactive)
ROOT
HETATM    1  C1  UNL     1     -33.721  16.929  -2.269  1.00 20.00     0.015 C 
HETATM    2  C2  UNL     1     -34.034  16.313  -3.251  1.00 20.00    -0.076 C 
HETATM    3  C3  UNL     1     -34.658  14.089  -4.081  1.00 20.00     0.057 C 
HETATM    4  C4  UNL     1     -35.599  13.586  -5.163  1.00 20.00     0.044 C 
HETATM    5  C5  UNL     1     -34.419  15.554  -4.457  1.00 20.00     0.218 C 
HETATM    6  C6  UNL     1     -36.461  14.810  -5.525  1.00 20.00     0.154 C 
HETATM    7  C7  UNL     1     -33.306  15.680  -5.511  1.00 20.00     0.064 C 
HETATM    8  C8  UNL     1     -36.682  14.856  -7.046  1.00 20.00     0.049 C 
HETATM    9  C9  UNL     1     -37.830  14.712  -4.828  1.00 20.00     0.049 C 
HETATM   10  C10 UNL     1     -35.833  17.227  -5.643  1.00 20.00     0.313 C 
HETATM   11  N11 UNL     1     -35.753  15.964  -4.930  1.00 20.00     0.114 N 
ENDROOT
TORSDOF 0
ENDMDL
MODEL 3
REMARK VINA RESULT:      -4.2      1.312      2.101
REMARK  0 active torsions:
REMARK  status: ('A' for Active; 'I' for Inactive)
ROOT
HETATM    1  C1  UNL     1     -34.593  16.958  -1.460  1.00 20.00     0.015 C 
HETATM    2  C2  UNL     1     -34.446  16.664  -2.615  1.00 20.00    -0.076 C 
HETATM    3  C3  UNL     1     -33.398  15.042  -4.129  1.00 20.00     0.057 C 
HETATM    4  C4  UNL     1     -33.785  14.436  -5.467  1.00 20.00     0.044 C 
HETATM    5  C5  UNL     1     -34.264  16.301  -4.033  1.00 20.00     0.218 C 
HETATM    6  C6  UNL     1     -35.273  14.793  -5.637  1.00 20.00     0.154 C 
HETATM    7  C7  UNL     1     -33.612  17.478  -4.778  1.00 20.00     0.064 C 
HETATM    8  C8  UNL     1     -35.551  15.179  -7.099  1.00 20.00     0.049 C 
HETATM    9  C9  UNL     1     -36.148  13.580  -5.270  1.00 20.00     0.049 C 
HETATM   10  C10 UNL     1     -36.508  16.860  -4.961  1.00 20.00     0.313 C 
HETATM   11  N11 UNL     1     -35.533  15.837  -4.622  1.00 20.00     0.114 N 
ENDROOT
TORSDOF 0
ENDMDL
MODEL 4
REMARK VINA RESULT:      -4.0      1.656      3.210
REMARK  0 active torsions:
REMARK  status: ('A' for Active; 'I' for Inactive)
ROOT
HETATM    1  C1  UNL     1     -35.546  17.214  -0.275  1.00 20.00     0.015 C 
HETATM    2  C2  UNL     1     -35.263  17.168  -1.440  1.00 20.00    -0.076 C 
HETATM    3  C3  UNL     1     -33.492  16.563  -3.028  1.00 20.00     0.057 C 
HETATM    4  C4  UNL     1     -33.479  15.980  -4.431  1.00 20.00     0.044 C 
HETATM    5  C5  UNL     1     -34.914  17.110  -2.873  1.00 20.00     0.218 C 
HETATM    6  C6  UNL     1     -34.914  15.464  -4.649  1.00 20.00     0.154 C 
HETATM    7  C7  UNL     1     -35.032  18.519  -3.480  1.00 20.00     0.064 C 
HETATM    8  C8  UNL     1     -35.364  15.775  -6.087  1.00 20.00     0.049 C 
HETATM    9  C9  UNL     1     -34.962  13.941  -4.433  1.00 20.00     0.049 C 
HETATM   10  C10 UNL     1     -37.089  16.417  -3.868  1.00 20.00     0.313 C 
HETATM   11  N11 UNL     1     -35.709  16.081  -3.565  1.00 20.00     0.114 N 
ENDROOT
TORSDOF 0
ENDMDL
MODEL 5
REMARK VINA RESULT:      -3.9      1.196      3.779
REMARK  0 active torsions:
REMARK  status: ('A' for Active; 'I' for Inactive)
ROOT
HETATM    1  C1  UNL     1     -34.043  14.014  -7.918  1.00 20.00     0.015 C 
HETATM    2  C2  UNL     1     -34.339  14.355  -6.806  1.00 20.00    -0.076 C 
HETATM    3  C3  UNL     1     -33.470  14.683  -4.534  1.00 20.00     0.057 C 
HETATM    4  C4  UNL     1     -33.765  15.671  -3.418  1.00 20.00     0.044 C 
HETATM    5  C5  UNL     1     -34.702  14.775  -5.438  1.00 20.00     0.218 C 
HETATM    6  C6  UNL     1     -34.584  16.785  -4.094  1.00 20.00     0.154 C 
HETATM    7  C7  UNL     1     -35.837  13.877  -4.918  1.00 20.00     0.064 C 
HETATM    8  C8  UNL     1     -35.715  17.241  -3.156  1.00 20.00     0.049 C 
HETATM    9  C9  UNL     1     -33.677  17.991  -4.398  1.00 20.00     0.049 C 
HETATM   10  C10 UNL     1     -36.291  16.633  -5.915  1.00 20.00     0.313 C 
HETATM   11  N11 UNL     1     -35.001  16.217  -5.395  1.00 20.00     0.114 N 
ENDROOT
TORSDOF 0
ENDMDL
MODEL 6
REMARK VINA RESULT:      -3.9      0.745      3.804
REMARK  0 active torsions:
REMARK  status: ('A' for Active; 'I' for Inactive)
ROOT
HETATM    1  C1  UNL     1     -37.502  15.554  -7.918  1.00 20.00     0.015 C 
HETATM    2  C2  UNL     1     -36.420  15.343  -7.445  1.00 20.00    -0.076 C 
HETATM    3  C3  UNL     1     -34.297  16.393  -6.802  1.00 20.00     0.057 C 
HETATM    4  C4  UNL     1     -33.292  16.158  -5.687  1.00 20.00     0.044 C 
HETATM    5  C5  UNL     1     -35.089  15.084  -6.862  1.00 20.00     0.218 C 
HETATM    6  C6  UNL     1     -34.025  15.240  -4.692  1.00 20.00     0.154 C 
HETATM    7  C7  UNL     1     -34.357  14.035  -7.717  1.00 20.00     0.064 C 
HETATM    8  C8  UNL     1     -33.052  14.179  -4.151  1.00 20.00     0.049 C 
HETATM    9  C9  UNL     1     -34.561  16.069  -3.511  1.00 20.00     0.049 C 
HETATM   10  C10 UNL     1     -35.648  13.388  -5.125  1.00 20.00     0.313 C 
HETATM   11  N11 UNL     1     -35.200  14.735  -5.435  1.00 20.00     0.114 N 
ENDROOT
TORSDOF 0
ENDMDL
MODEL 7
REMARK VINA RESULT:      -3.9      1.358      1.584
REMARK  0 active torsions:
REMARK  status: ('A' for Active; 'I' for Inactive)
ROOT
HETATM    1  C1  UNL     1     -34.042  16.911  -1.930  1.00 20.00     0.015 C 
HETATM    2  C2  UNL     1     -34.476  16.317  -2.879  1.00 20.00    -0.076 C 
HETATM    3  C3  UNL     1     -36.541  15.568  -3.974  1.00 20.00     0.057 C 
HETATM    4  C4  UNL     1     -36.970  15.388  -5.420  1.00 20.00     0.044 C 
HETATM    5  C5  UNL     1     -35.012  15.589  -4.046  1.00 20.00     0.218 C 
HETATM    6  C6  UNL     1     -35.892  16.123  -6.238  1.00 20.00     0.154 C 
HETATM    7  C7  UNL     1     -34.440  14.162  -4.058  1.00 20.00     0.064 C 
HETATM    8  C8  UNL     1     -35.557  15.314  -7.502  1.00 20.00     0.049 C 
HETATM    9  C9  UNL     1     -36.410  17.510  -6.661  1.00 20.00     0.049 C 
HETATM   10  C10 UNL     1     -33.433  16.317  -5.830  1.00 20.00     0.313 C 
HETATM   11  N11 UNL     1     -34.780  16.347  -5.288  1.00 20.00     0.114 N 
ENDROOT
TORSDOF 0
ENDMDL
MODEL 8
REMARK VINA RESULT:      -3.8      1.507      3.558
REMARK  0 active torsions:
REMARK  status: ('A' for Active; 'I' for Inactive)
ROOT
HETATM    1  C1  UNL     1     -37.669  15.484  -7.662  1.00 20.00     0.015 C 
HETATM    2  C2  UNL     1     -37.119  15.390  -6.599  1.00 20.00    -0.076 C 
HETATM    3  C3  UNL     1     -35.806  13.886  -5.172  1.00 20.00     0.057 C 
HETATM    4  C4  UNL     1     -34.684  14.087  -4.168  1.00 20.00     0.044 C 
HETATM    5  C5  UNL     1     -36.442  15.274  -5.293  1.00 20.00     0.218 C 
HETATM    6  C6  UNL     1     -34.201  15.528  -4.412  1.00 20.00     0.154 C 
HETATM    7  C7  UNL     1     -37.465  15.513  -4.169  1.00 20.00     0.064 C 
HETATM    8  C8  UNL     1     -33.896  16.208  -3.066  1.00 20.00     0.049 C 
HETATM    9  C9  UNL     1     -32.917  15.514  -5.262  1.00 20.00     0.049 C 
HETATM   10  C10 UNL     1     -35.507  17.568  -5.032  1.00 20.00     0.313 C 
HETATM   11  N11 UNL     1     -35.260  16.151  -5.236  1.00 20.00     0.114 N 
ENDROOT
TORSDOF 0
ENDMDL
MODEL 9
REMARK VINA RESULT:      -3.8      1.266      3.701
REMARK  0 active torsions:
REMARK  status: ('A' for Active; 'I' for Inactive)
ROOT
HETATM    1  C1  UNL     1     -37.032  15.002  -7.911  1.00 20.00     0.015 C 
HETATM    2  C2  UNL     1     -36.273  14.967  -6.983  1.00 20.00    -0.076 C 
HETATM    3  C3  UNL     1     -33.898  14.912  -6.364  1.00 20.00     0.057 C 
HETATM    4  C4  UNL     1     -33.090  15.481  -5.210  1.00 20.00     0.044 C 
HETATM    5  C5  UNL     1     -35.338  14.924  -5.841  1.00 20.00     0.218 C 
HETATM    6  C6  UNL     1     -34.034  16.494  -4.538  1.00 20.00     0.154 C 
HETATM    7  C7  UNL     1     -35.629  13.673  -4.995  1.00 20.00     0.064 C 
HETATM    8  C8  UNL     1     -33.888  16.405  -3.010  1.00 20.00     0.049 C 
HETATM    9  C9  UNL     1     -33.676  17.922  -4.987  1.00 20.00     0.049 C 
HETATM   10  C10 UNL     1     -36.510  16.393  -4.207  1.00 20.00     0.313 C 
HETATM   11  N11 UNL     1     -35.373  16.189  -5.087  1.00 20.00     0.114 N 
ENDROOT
TORSDOF 0
ENDMDL
