MODEL 1
REMARK VINA RESULT:      -5.2      0.000      0.000
REMARK  1 active torsions:
REMARK  status: ('A' for Active; 'I' for Inactive)
REMARK    1  A    between atoms: C1_1  and  C7_7 
ROOT
HETATM    1  C2  UNL     1     -34.419   6.525   5.966  1.00 20.00     0.004 C 
HETATM    2  C3  UNL     1     -34.391   5.038   5.639  1.00 20.00     0.037 C 
HETATM    3  C4  UNL     1     -33.293   7.279   5.258  1.00 20.00     0.016 C 
HETATM    4  C5  UNL     1     -33.282   5.531   3.427  1.00 20.00     0.053 C 
HETATM    5  C6  UNL     1     -34.411   4.793   4.138  1.00 20.00     0.171 C 
HETATM    6  C7  UNL     1     -33.259   7.039   3.736  1.00 20.00     0.012 C 
HETATM    7  C8  UNL     1     -34.409   7.771   3.030  1.00 20.00     0.023 C 
HETATM    8  F10 UNL     1     -34.260   3.457   3.916  1.00 20.00    -0.249 F 
ENDROOT
BRANCH   6   9
HETATM    9  C1  UNL     1     -31.977   7.616   3.192  1.00 20.00     0.240 C 
HETATM   10  O9  UNL     1     -31.927   8.339   2.203  1.00 20.00    -0.306 OA
ENDBRANCH   6   9
TORSDOF 1
ENDMDL
MODEL 2
REMARK VINA RESULT:      -4.9      2.731      3.837
REMARK  1 active torsions:
REMARK  status: ('A' for Active; 'I' for Inactive)
REMARK    1  A    between atoms: C1_1  and  C7_7 
ROOT
HETATM    1  C2  UNL     1     -32.803   6.995   2.529  1.00 20.00     0.004 C 
HETATM    2  C3  UNL     1     -32.238   7.764   3.716  1.00 20.00     0.037 C 
HETATM    3  C4  UNL     1     -33.314   5.615   2.945  1.00 20.00     0.016 C 
HETATM    4  C5  UNL     1     -33.746   6.485   5.283  1.00 20.00     0.053 C 
HETATM    5  C6  UNL     1     -33.243   7.859   4.854  1.00 20.00     0.171 C 
HETATM    6  C7  UNL     1     -34.318   5.662   4.115  1.00 20.00     0.012 C 
HETATM    7  C8  UNL     1     -35.679   6.206   3.660  1.00 20.00     0.023 C 
HETATM    8  F10 UNL     1     -32.633   8.447   5.921  1.00 20.00    -0.249 F 
ENDROOT
BRANCH   6   9
HETATM    9  C1  UNL     1     -34.551   4.252   4.596  1.00 20.00     0.240 C 
HETATM   10  O9  UNL     1     -34.059   3.265   4.061  1.00 20.00    -0.306 OA
ENDBRANCH   6   9
TORSDOF 1
ENDMDL
MODEL 3
REMARK VINA RESULT:      -4.5      1.723      2.539
REMARK  1 active torsions:
REMARK  status: ('A' for Active; 'I' for Inactive)
REMARK    1  A    between atoms: C1_1  and  C7_7 
ROOT
HETATM    1  C2  UNL     1     -33.872   4.974   3.584  1.00 20.00     0.004 C 
HETATM    2  C3  UNL     1     -34.494   5.455   4.889  1.00 20.00     0.037 C 
HETATM    3  C4  UNL     1     -33.808   6.094   2.545  1.00 20.00     0.016 C 
HETATM    4  C5  UNL     1     -33.724   7.808   4.406  1.00 20.00     0.053 C 
HETATM    5  C6  UNL     1     -33.779   6.682   5.432  1.00 20.00     0.171 C 
HETATM    6  C7  UNL     1     -33.113   7.369   3.063  1.00 20.00     0.012 C 
HETATM    7  C8  UNL     1     -31.595   7.170   3.177  1.00 20.00     0.023 C 
HETATM    8  F10 UNL     1     -34.458   7.129   6.526  1.00 20.00    -0.249 F 
ENDROOT
BRANCH   6   9
HETATM    9  C1  UNL     1     -33.333   8.470   2.057  1.00 20.00     0.240 C 
HETATM   10  O9  UNL     1     -32.420   9.075   1.506  1.00 20.00    -0.306 OA
ENDBRANCH   6   9
TORSDOF 1
ENDMDL
MODEL 4
REMARK VINA RESULT:      -4.3     12.103     12.808
REMARK  1 active torsions:
REMARK  status: ('A' for Active; 'I' for Inactive)
REMARK    1  A    between atoms: C1_1  and  C7_7 
ROOT
HETATM    1  C2  UNL     1     -33.726  15.835  -3.418  1.00 20.00     0.004 C 
HETATM    2  C3  UNL     1     -34.676  16.533  -2.453  1.00 20.00     0.037 C 
HETATM    3  C4  UNL     1     -34.402  14.658  -4.121  1.00 20.00     0.016 C 
HETATM    4  C5  UNL     1     -36.651  15.784  -3.833  1.00 20.00     0.053 C 
HETATM    5  C6  UNL     1     -35.965  16.957  -3.142  1.00 20.00     0.171 C 
HETATM    6  C7  UNL     1     -35.727  15.037  -4.812  1.00 20.00     0.012 C 
HETATM    7  C8  UNL     1     -35.477  15.860  -6.084  1.00 20.00     0.023 C 
HETATM    8  F10 UNL     1     -36.812  17.458  -2.201  1.00 20.00    -0.249 F 
ENDROOT
BRANCH   6   9
HETATM    9  C1  UNL     1     -36.417  13.768  -5.244  1.00 20.00     0.240 C 
HETATM   10  O9  UNL     1     -35.871  12.671  -5.252  1.00 20.00    -0.306 OA
ENDBRANCH   6   9
TORSDOF 1
ENDMDL
MODEL 5
REMARK VINA RESULT:      -4.2     11.761     12.895
REMARK  1 active torsions:
REMARK  status: ('A' for Active; 'I' for Inactive)
REMARK    1  A    between atoms: C1_1  and  C7_7 
ROOT
HETATM    1  C2  UNL     1     -33.910  16.747  -5.649  1.00 20.00     0.004 C 
HETATM    2  C3  UNL     1     -32.928  15.599  -5.453  1.00 20.00     0.037 C 
HETATM    3  C4  UNL     1     -35.358  16.256  -5.643  1.00 20.00     0.016 C 
HETATM    4  C5  UNL     1     -34.682  14.294  -4.193  1.00 20.00     0.053 C 
HETATM    5  C6  UNL     1     -33.243  14.798  -4.198  1.00 20.00     0.171 C 
HETATM    6  C7  UNL     1     -35.714  15.417  -4.400  1.00 20.00     0.012 C 
HETATM    7  C8  UNL     1     -35.840  16.298  -3.149  1.00 20.00     0.023 C 
HETATM    8  F10 UNL     1     -32.409  13.722  -4.152  1.00 20.00    -0.249 F 
ENDROOT
BRANCH   6   9
HETATM    9  C1  UNL     1     -37.065  14.786  -4.625  1.00 20.00     0.240 C 
HETATM   10  O9  UNL     1     -37.217  13.620  -4.972  1.00 20.00    -0.306 OA
ENDBRANCH   6   9
TORSDOF 1
ENDMDL
MODEL 6
REMARK VINA RESULT:      -4.2     12.436     13.568
REMARK  1 active torsions:
REMARK  status: ('A' for Active; 'I' for Inactive)
REMARK    1  A    between atoms: C1_1  and  C7_7 
ROOT
HETATM    1  C2  UNL     1     -33.535  14.396  -4.439  1.00 20.00     0.004 C 
HETATM    2  C3  UNL     1     -33.201  15.779  -4.984  1.00 20.00     0.037 C 
HETATM    3  C4  UNL     1     -35.030  14.095  -4.549  1.00 20.00     0.016 C 
HETATM    4  C5  UNL     1     -35.198  15.673  -6.521  1.00 20.00     0.053 C 
HETATM    5  C6  UNL     1     -33.705  15.958  -6.408  1.00 20.00     0.171 C 
HETATM    6  C7  UNL     1     -35.590  14.289  -5.972  1.00 20.00     0.012 C 
HETATM    7  C8  UNL     1     -35.131  13.164  -6.910  1.00 20.00     0.023 C 
HETATM    8  F10 UNL     1     -33.483  17.248  -6.785  1.00 20.00    -0.249 F 
ENDROOT
BRANCH   6   9
HETATM    9  C1  UNL     1     -37.094  14.213  -5.904  1.00 20.00     0.240 C 
HETATM   10  O9  UNL     1     -37.708  13.839  -4.912  1.00 20.00    -0.306 OA
ENDBRANCH   6   9
TORSDOF 1
ENDMDL
MODEL 7
REMARK VINA RESULT:      -4.1     12.127     13.022
REMARK  1 active torsions:
REMARK  status: ('A' for Active; 'I' for Inactive)
REMARK    1  A    between atoms: C1_1  and  C7_7 
ROOT
HETATM    1  C2  UNL     1     -33.363  16.706  -4.999  1.00 20.00     0.004 C 
HETATM    2  C3  UNL     1     -33.638  16.658  -3.501  1.00 20.00     0.037 C 
HETATM    3  C4  UNL     1     -33.821  15.424  -5.696  1.00 20.00     0.016 C 
HETATM    4  C5  UNL     1     -35.558  15.068  -3.889  1.00 20.00     0.053 C 
HETATM    5  C6  UNL     1     -35.099  16.353  -3.208  1.00 20.00     0.171 C 
HETATM    6  C7  UNL     1     -35.291  15.062  -5.405  1.00 20.00     0.012 C 
HETATM    7  C8  UNL     1     -36.254  16.000  -6.147  1.00 20.00     0.023 C 
HETATM    8  F10 UNL     1     -35.248  16.203  -1.862  1.00 20.00    -0.249 F 
ENDROOT
BRANCH   6   9
HETATM    9  C1  UNL     1     -35.550  13.672  -5.928  1.00 20.00     0.240 C 
HETATM   10  O9  UNL     1     -35.916  12.741  -5.220  1.00 20.00    -0.306 OA
ENDBRANCH   6   9
TORSDOF 1
ENDMDL
MODEL 8
REMARK VINA RESULT:      -4.0     12.229     12.979
REMARK  1 active torsions:
REMARK  status: ('A' for Active; 'I' for Inactive)
REMARK    1  A    between atoms: C1_1  and  C7_7 
ROOT
HETATM    1  C2  UNL     1     -33.926  14.386  -5.459  1.00 20.00     0.004 C 
HETATM    2  C3  UNL     1     -33.299  14.874  -4.159  1.00 20.00     0.037 C 
HETATM    3  C4  UNL     1     -35.435  14.185  -5.314  1.00 20.00     0.016 C 
HETATM    4  C5  UNL     1     -35.487  15.930  -3.482  1.00 20.00     0.053 C 
HETATM    5  C6  UNL     1     -33.985  16.129  -3.641  1.00 20.00     0.171 C 
HETATM    6  C7  UNL     1     -36.168  15.426  -4.767  1.00 20.00     0.012 C 
HETATM    7  C8  UNL     1     -36.256  16.534  -5.825  1.00 20.00     0.023 C 
HETATM    8  F10 UNL     1     -33.459  16.436  -2.422  1.00 20.00    -0.249 F 
ENDROOT
BRANCH   6   9
HETATM    9  C1  UNL     1     -37.584  15.031  -4.432  1.00 20.00     0.240 C 
HETATM   10  O9  UNL     1     -38.120  14.014  -4.858  1.00 20.00    -0.306 OA
ENDBRANCH   6   9
TORSDOF 1
ENDMDL
MODEL 9
REMARK VINA RESULT:      -4.0      2.950      4.048
REMARK  1 active torsions:
REMARK  status: ('A' for Active; 'I' for Inactive)
REMARK    1  A    between atoms: C1_1  and  C7_7 
ROOT
HETATM    1  C2  UNL     1     -31.642   8.039   3.822  1.00 20.00     0.004 C 
HETATM    2  C3  UNL     1     -31.895   8.889   2.583  1.00 20.00     0.037 C 
HETATM    3  C4  UNL     1     -32.916   7.333   4.288  1.00 20.00     0.016 C 
HETATM    4  C5  UNL     1     -33.803   7.379   1.918  1.00 20.00     0.053 C 
HETATM    5  C6  UNL     1     -32.526   8.075   1.463  1.00 20.00     0.171 C 
HETATM    6  C7  UNL     1     -33.603   6.515   3.176  1.00 20.00     0.012 C 
HETATM    7  C8  UNL     1     -32.818   5.235   2.858  1.00 20.00     0.023 C 
HETATM    8  F10 UNL     1     -32.836   8.918   0.438  1.00 20.00    -0.249 F 
ENDROOT
BRANCH   6   9
HETATM    9  C1  UNL     1     -34.958   6.082   3.676  1.00 20.00     0.240 C 
HETATM   10  O9  UNL     1     -35.117   5.267   4.578  1.00 20.00    -0.306 OA
ENDBRANCH   6   9
TORSDOF 1
ENDMDL
