MODEL 1
REMARK VINA RESULT:      -5.5      0.000      0.000
REMARK  1 active torsions:
REMARK  status: ('A' for Active; 'I' for Inactive)
REMARK    1  A    between atoms: C9_9  and  O10_10 
ROOT
HETATM    1  C1  UNL     1     -32.391   8.763   1.638  1.00 20.00     0.012 C 
HETATM    2  C2  UNL     1     -32.554   7.956   2.513  1.00 20.00    -0.112 C 
HETATM    3  C3  UNL     1     -34.114   4.800   5.004  1.00 20.00     0.007 C 
HETATM    4  C4  UNL     1     -34.189   6.250   5.503  1.00 20.00     0.009 C 
HETATM    5  C5  UNL     1     -32.721   5.520   3.047  1.00 20.00     0.024 C 
HETATM    6  C6  UNL     1     -32.754   6.969   3.584  1.00 20.00     0.071 C 
HETATM    7  C7  UNL     1     -34.093   4.961   3.472  1.00 20.00     0.016 C 
HETATM    8  C8  UNL     1     -34.173   7.066   4.192  1.00 20.00     0.030 C 
HETATM    9  C9  UNL     1     -34.993   6.176   3.248  1.00 20.00     0.127 C 
ENDROOT
BRANCH   9  10
HETATM   10  O10 UNL     1     -36.322   5.966   3.678  1.00 20.00    -0.395 OA
HETATM   11  H22 UNL     1     -36.810   5.577   2.932  1.00 20.00     0.210 HD
ENDBRANCH   9  10
TORSDOF 1
ENDMDL
MODEL 2
REMARK VINA RESULT:      -4.7     11.134     12.255
REMARK  1 active torsions:
REMARK  status: ('A' for Active; 'I' for Inactive)
REMARK    1  A    between atoms: C9_9  and  O10_10 
ROOT
HETATM    1  C1  UNL     1     -34.841  16.998  -1.268  1.00 20.00     0.012 C 
HETATM    2  C2  UNL     1     -34.807  16.725  -2.437  1.00 20.00    -0.112 C 
HETATM    3  C3  UNL     1     -34.265  14.704  -6.208  1.00 20.00     0.007 C 
HETATM    4  C4  UNL     1     -33.312  15.847  -5.831  1.00 20.00     0.009 C 
HETATM    5  C5  UNL     1     -35.697  15.208  -4.212  1.00 20.00     0.024 C 
HETATM    6  C6  UNL     1     -34.765  16.391  -3.868  1.00 20.00     0.071 C 
HETATM    7  C7  UNL     1     -34.736  14.178  -4.838  1.00 20.00     0.016 C 
HETATM    8  C8  UNL     1     -33.376  15.852  -4.288  1.00 20.00     0.030 C 
HETATM    9  C9  UNL     1     -33.495  14.357  -3.963  1.00 20.00     0.127 C 
ENDROOT
BRANCH   9  10
HETATM   10  O10 UNL     1     -32.393  13.592  -4.404  1.00 20.00    -0.395 OA
HETATM   11  H22 UNL     1     -32.362  12.788  -3.857  1.00 20.00     0.210 HD
ENDBRANCH   9  10
TORSDOF 1
ENDMDL
MODEL 3
REMARK VINA RESULT:      -4.5     11.364     12.304
REMARK  1 active torsions:
REMARK  status: ('A' for Active; 'I' for Inactive)
REMARK    1  A    between atoms: C9_9  and  O10_10 
ROOT
HETATM    1  C1  UNL     1     -35.218  16.695  -1.553  1.00 20.00     0.012 C 
HETATM    2  C2  UNL     1     -34.886  16.421  -2.674  1.00 20.00    -0.112 C 
HETATM    3  C3  UNL     1     -34.658  14.726  -6.633  1.00 20.00     0.007 C 
HETATM    4  C4  UNL     1     -33.621  14.306  -5.581  1.00 20.00     0.009 C 
HETATM    5  C5  UNL     1     -35.560  16.475  -5.080  1.00 20.00     0.024 C 
HETATM    6  C6  UNL     1     -34.479  16.086  -4.047  1.00 20.00     0.071 C 
HETATM    7  C7  UNL     1     -35.872  15.137  -5.778  1.00 20.00     0.016 C 
HETATM    8  C8  UNL     1     -34.361  14.556  -4.250  1.00 20.00     0.030 C 
HETATM    9  C9  UNL     1     -35.802  14.163  -4.602  1.00 20.00     0.127 C 
ENDROOT
BRANCH   9  10
HETATM   10  O10 UNL     1     -35.942  12.813  -4.994  1.00 20.00    -0.395 OA
HETATM   11  H22 UNL     1     -35.992  12.797  -5.965  1.00 20.00     0.210 HD
ENDBRANCH   9  10
TORSDOF 1
ENDMDL
MODEL 4
REMARK VINA RESULT:      -4.5      1.387      1.912
REMARK  1 active torsions:
REMARK  status: ('A' for Active; 'I' for Inactive)
REMARK    1  A    between atoms: C9_9  and  O10_10 
ROOT
HETATM    1  C1  UNL     1     -31.807   8.452   1.698  1.00 20.00     0.012 C 
HETATM    2  C2  UNL     1     -32.659   8.064   2.451  1.00 20.00    -0.112 C 
HETATM    3  C3  UNL     1     -35.014   5.699   5.182  1.00 20.00     0.007 C 
HETATM    4  C4  UNL     1     -35.533   5.927   3.755  1.00 20.00     0.009 C 
HETATM    5  C5  UNL     1     -33.144   7.322   4.787  1.00 20.00     0.024 C 
HETATM    6  C6  UNL     1     -33.702   7.589   3.371  1.00 20.00     0.071 C 
HETATM    7  C7  UNL     1     -33.488   5.838   5.023  1.00 20.00     0.016 C 
HETATM    8  C8  UNL     1     -34.238   6.197   2.958  1.00 20.00     0.030 C 
HETATM    9  C9  UNL     1     -33.238   5.250   3.634  1.00 20.00     0.127 C 
ENDROOT
BRANCH   9  10
HETATM   10  O10 UNL     1     -33.596   3.887   3.539  1.00 20.00    -0.395 OA
HETATM   11  H22 UNL     1     -34.517   3.808   3.841  1.00 20.00     0.210 HD
ENDBRANCH   9  10
TORSDOF 1
ENDMDL
MODEL 5
REMARK VINA RESULT:      -4.5     11.553     12.601
REMARK  1 active torsions:
REMARK  status: ('A' for Active; 'I' for Inactive)
REMARK    1  A    between atoms: C9_9  and  O10_10 
ROOT
HETATM    1  C1  UNL     1     -33.676  16.686  -2.633  1.00 20.00     0.012 C 
HETATM    2  C2  UNL     1     -33.954  16.349  -3.752  1.00 20.00    -0.112 C 
HETATM    3  C3  UNL     1     -35.730  14.435  -7.185  1.00 20.00     0.007 C 
HETATM    4  C4  UNL     1     -34.292  14.071  -6.789  1.00 20.00     0.009 C 
HETATM    5  C5  UNL     1     -35.760  16.272  -5.478  1.00 20.00     0.024 C 
HETATM    6  C6  UNL     1     -34.294  15.936  -5.122  1.00 20.00     0.071 C 
HETATM    7  C7  UNL     1     -36.350  14.898  -5.852  1.00 20.00     0.016 C 
HETATM    8  C8  UNL     1     -34.258  14.397  -5.280  1.00 20.00     0.030 C 
HETATM    9  C9  UNL     1     -35.667  13.990  -4.829  1.00 20.00     0.127 C 
ENDROOT
BRANCH   9  10
HETATM   10  O10 UNL     1     -35.952  12.622  -5.027  1.00 20.00    -0.395 OA
HETATM   11  H22 UNL     1     -36.763  12.420  -4.528  1.00 20.00     0.210 HD
ENDBRANCH   9  10
TORSDOF 1
ENDMDL
MODEL 6
REMARK VINA RESULT:      -4.3     11.753     12.666
REMARK  1 active torsions:
REMARK  status: ('A' for Active; 'I' for Inactive)
REMARK    1  A    between atoms: C9_9  and  O10_10 
ROOT
HETATM    1  C1  UNL     1     -35.459  17.318  -0.719  1.00 20.00     0.012 C 
HETATM    2  C2  UNL     1     -34.728  16.944  -1.595  1.00 20.00    -0.112 C 
HETATM    3  C3  UNL     1     -33.058  15.860  -5.421  1.00 20.00     0.007 C 
HETATM    4  C4  UNL     1     -33.413  14.750  -4.421  1.00 20.00     0.009 C 
HETATM    5  C5  UNL     1     -33.530  17.608  -3.686  1.00 20.00     0.024 C 
HETATM    6  C6  UNL     1     -33.833  16.485  -2.668  1.00 20.00     0.071 C 
HETATM    7  C7  UNL     1     -34.009  17.005  -5.021  1.00 20.00     0.016 C 
HETATM    8  C8  UNL     1     -34.507  15.408  -3.552  1.00 20.00     0.030 C 
HETATM    9  C9  UNL     1     -35.268  16.258  -4.578  1.00 20.00     0.127 C 
ENDROOT
BRANCH   9  10
HETATM   10  O10 UNL     1     -35.856  15.502  -5.615  1.00 20.00    -0.395 OA
HETATM   11  H22 UNL     1     -36.755  15.849  -5.752  1.00 20.00     0.210 HD
ENDBRANCH   9  10
TORSDOF 1
ENDMDL
MODEL 7
REMARK VINA RESULT:      -4.3     12.057     13.173
REMARK  1 active torsions:
REMARK  status: ('A' for Active; 'I' for Inactive)
REMARK    1  A    between atoms: C9_9  and  O10_10 
ROOT
HETATM    1  C1  UNL     1     -34.723  16.963  -1.493  1.00 20.00     0.012 C 
HETATM    2  C2  UNL     1     -34.752  16.357  -2.529  1.00 20.00    -0.112 C 
HETATM    3  C3  UNL     1     -34.020  14.985  -6.552  1.00 20.00     0.007 C 
HETATM    4  C4  UNL     1     -35.344  15.695  -6.235  1.00 20.00     0.009 C 
HETATM    5  C5  UNL     1     -33.430  14.949  -4.115  1.00 20.00     0.024 C 
HETATM    6  C6  UNL     1     -34.788  15.614  -3.797  1.00 20.00     0.071 C 
HETATM    7  C7  UNL     1     -33.061  15.549  -5.486  1.00 20.00     0.016 C 
HETATM    8  C8  UNL     1     -34.986  16.559  -5.007  1.00 20.00     0.030 C 
HETATM    9  C9  UNL     1     -33.547  16.989  -5.323  1.00 20.00     0.127 C 
ENDROOT
BRANCH   9  10
HETATM   10  O10 UNL     1     -33.430  17.750  -6.507  1.00 20.00    -0.395 OA
HETATM   11  H22 UNL     1     -34.165  17.493  -7.089  1.00 20.00     0.210 HD
ENDBRANCH   9  10
TORSDOF 1
ENDMDL
MODEL 8
REMARK VINA RESULT:      -4.2     11.410     12.701
REMARK  1 active torsions:
REMARK  status: ('A' for Active; 'I' for Inactive)
REMARK    1  A    between atoms: C9_9  and  O10_10 
ROOT
HETATM    1  C1  UNL     1     -38.404  15.026  -4.550  1.00 20.00     0.012 C 
HETATM    2  C2  UNL     1     -37.224  15.214  -4.434  1.00 20.00    -0.112 C 
HETATM    3  C3  UNL     1     -32.975  15.452  -5.136  1.00 20.00     0.007 C 
HETATM    4  C4  UNL     1     -33.512  14.392  -4.163  1.00 20.00     0.009 C 
HETATM    5  C5  UNL     1     -35.256  16.479  -5.314  1.00 20.00     0.024 C 
HETATM    6  C6  UNL     1     -35.779  15.444  -4.292  1.00 20.00     0.071 C 
HETATM    7  C7  UNL     1     -34.170  15.696  -6.078  1.00 20.00     0.016 C 
HETATM    8  C8  UNL     1     -34.961  14.180  -4.652  1.00 20.00     0.030 C 
HETATM    9  C9  UNL     1     -34.812  14.312  -6.174  1.00 20.00     0.127 C 
ENDROOT
BRANCH   9  10
HETATM   10  O10 UNL     1     -33.956  13.344  -6.745  1.00 20.00    -0.395 OA
HETATM   11  H22 UNL     1     -34.123  12.503  -6.286  1.00 20.00     0.210 HD
ENDBRANCH   9  10
TORSDOF 1
ENDMDL
MODEL 9
REMARK VINA RESULT:      -4.1     11.777     12.526
REMARK  1 active torsions:
REMARK  status: ('A' for Active; 'I' for Inactive)
REMARK    1  A    between atoms: C9_9  and  O10_10 
ROOT
HETATM    1  C1  UNL     1     -34.079  17.138  -1.949  1.00 20.00     0.012 C 
HETATM    2  C2  UNL     1     -34.098  16.251  -2.758  1.00 20.00    -0.112 C 
HETATM    3  C3  UNL     1     -34.645  13.926  -6.349  1.00 20.00     0.007 C 
HETATM    4  C4  UNL     1     -35.550  13.654  -5.139  1.00 20.00     0.009 C 
HETATM    5  C5  UNL     1     -33.240  15.486  -4.977  1.00 20.00     0.024 C 
HETATM    6  C6  UNL     1     -34.121  15.165  -3.749  1.00 20.00     0.071 C 
HETATM    7  C7  UNL     1     -34.235  15.399  -6.151  1.00 20.00     0.016 C 
HETATM    8  C8  UNL     1     -35.524  14.998  -4.381  1.00 20.00     0.030 C 
HETATM    9  C9  UNL     1     -35.487  16.017  -5.528  1.00 20.00     0.127 C 
ENDROOT
BRANCH   9  10
HETATM   10  O10 UNL     1     -36.614  15.955  -6.377  1.00 20.00    -0.395 OA
HETATM   11  H22 UNL     1     -37.404  15.969  -5.810  1.00 20.00     0.210 HD
ENDBRANCH   9  10
TORSDOF 1
ENDMDL
