MODEL 1
REMARK VINA RESULT:      -6.1      0.000      0.000
REMARK  1 active torsions:
REMARK  status: ('A' for Active; 'I' for Inactive)
REMARK    1  A    between atoms: C3_3  and  C7_7 
ROOT
HETATM    1  C1  UNL     1     -33.484   4.641   2.983  1.00 20.00    -0.029 C 
HETATM    2  C2  UNL     1     -34.366   4.770   3.984  1.00 20.00    -0.026 C 
HETATM    3  C4  UNL     1     -32.681   5.785   2.441  1.00 20.00     0.039 C 
HETATM    4  C5  UNL     1     -33.545   7.127   4.395  1.00 20.00     0.020 C 
HETATM    5  C6  UNL     1     -34.625   6.072   4.699  1.00 20.00     0.004 C 
HETATM    6  C7  UNL     1     -33.197   7.151   2.906  1.00 20.00     0.059 C 
HETATM    7  C9  UNL     1     -34.735   5.853   6.207  1.00 20.00     0.014 C 
ENDROOT
BRANCH   6   8
HETATM    8  C3  UNL     1     -32.156   8.195   2.636  1.00 20.00     0.127 C 
HETATM    9  C8  UNL     1     -32.246   8.914   1.318  1.00 20.00     0.091 C 
HETATM   10  O10 UNL     1     -31.274   8.452   3.453  1.00 20.00    -0.298 OA
ENDBRANCH   6   8
TORSDOF 1
ENDMDL
MODEL 2
REMARK VINA RESULT:      -4.9      1.464      2.339
REMARK  1 active torsions:
REMARK  status: ('A' for Active; 'I' for Inactive)
REMARK    1  A    between atoms: C3_3  and  C7_7 
ROOT
HETATM    1  C1  UNL     1     -32.810   7.854   5.231  1.00 20.00    -0.029 C 
HETATM    2  C2  UNL     1     -33.590   6.772   5.104  1.00 20.00    -0.026 C 
HETATM    3  C4  UNL     1     -32.184   8.560   4.066  1.00 20.00     0.039 C 
HETATM    4  C5  UNL     1     -33.625   7.100   2.596  1.00 20.00     0.020 C 
HETATM    5  C6  UNL     1     -33.954   6.164   3.773  1.00 20.00     0.004 C 
HETATM    6  C7  UNL     1     -32.249   7.746   2.769  1.00 20.00     0.059 C 
HETATM    7  C9  UNL     1     -35.432   5.775   3.737  1.00 20.00     0.014 C 
ENDROOT
BRANCH   6   8
HETATM    8  C3  UNL     1     -31.947   8.639   1.605  1.00 20.00     0.127 C 
HETATM    9  C8  UNL     1     -32.696   9.943   1.540  1.00 20.00     0.091 C 
HETATM   10  O10 UNL     1     -31.126   8.323   0.745  1.00 20.00    -0.298 OA
ENDBRANCH   6   8
TORSDOF 1
ENDMDL
MODEL 3
REMARK VINA RESULT:      -4.6     11.465     12.394
REMARK  1 active torsions:
REMARK  status: ('A' for Active; 'I' for Inactive)
REMARK    1  A    between atoms: C3_3  and  C7_7 
ROOT
HETATM    1  C1  UNL     1     -33.588  16.919  -5.388  1.00 20.00    -0.029 C 
HETATM    2  C2  UNL     1     -33.599  17.050  -4.055  1.00 20.00    -0.026 C 
HETATM    3  C4  UNL     1     -34.107  15.707  -6.102  1.00 20.00     0.039 C 
HETATM    4  C5  UNL     1     -35.020  14.964  -3.870  1.00 20.00     0.020 C 
HETATM    5  C6  UNL     1     -34.167  16.007  -3.125  1.00 20.00     0.004 C 
HETATM    6  C7  UNL     1     -34.341  14.517  -5.165  1.00 20.00     0.059 C 
HETATM    7  C9  UNL     1     -34.988  16.658  -2.012  1.00 20.00     0.014 C 
ENDROOT
BRANCH   6   8
HETATM    8  C3  UNL     1     -35.184  13.492  -5.862  1.00 20.00     0.127 C 
HETATM    9  C8  UNL     1     -35.026  13.389  -7.355  1.00 20.00     0.091 C 
HETATM   10  O10 UNL     1     -35.964  12.770  -5.244  1.00 20.00    -0.298 OA
ENDBRANCH   6   8
TORSDOF 1
ENDMDL
MODEL 4
REMARK VINA RESULT:      -4.6     11.493     12.493
REMARK  1 active torsions:
REMARK  status: ('A' for Active; 'I' for Inactive)
REMARK    1  A    between atoms: C3_3  and  C7_7 
ROOT
HETATM    1  C1  UNL     1     -33.796  16.860  -5.714  1.00 20.00    -0.029 C 
HETATM    2  C2  UNL     1     -33.292  17.108  -4.497  1.00 20.00    -0.026 C 
HETATM    3  C4  UNL     1     -34.733  15.726  -6.002  1.00 20.00     0.039 C 
HETATM    4  C5  UNL     1     -34.864  15.393  -3.504  1.00 20.00     0.020 C 
HETATM    5  C6  UNL     1     -33.638  16.295  -3.275  1.00 20.00     0.004 C 
HETATM    6  C7  UNL     1     -34.796  14.699  -4.865  1.00 20.00     0.059 C 
HETATM    7  C9  UNL     1     -33.870  17.200  -2.065  1.00 20.00     0.014 C 
ENDROOT
BRANCH   6   8
HETATM    8  C3  UNL     1     -35.992  13.818  -5.056  1.00 20.00     0.127 C 
HETATM    9  C8  UNL     1     -37.341  14.474  -4.943  1.00 20.00     0.091 C 
HETATM   10  O10 UNL     1     -35.877  12.617  -5.297  1.00 20.00    -0.298 OA
ENDBRANCH   6   8
TORSDOF 1
ENDMDL
MODEL 5
REMARK VINA RESULT:      -4.5     11.330     12.077
REMARK  1 active torsions:
REMARK  status: ('A' for Active; 'I' for Inactive)
REMARK    1  A    between atoms: C3_3  and  C7_7 
ROOT
HETATM    1  C1  UNL     1     -33.441  16.374  -3.165  1.00 20.00    -0.029 C 
HETATM    2  C2  UNL     1     -34.460  16.931  -2.496  1.00 20.00    -0.026 C 
HETATM    3  C4  UNL     1     -33.614  15.250  -4.143  1.00 20.00     0.039 C 
HETATM    4  C5  UNL     1     -36.098  15.643  -3.932  1.00 20.00     0.020 C 
HETATM    5  C6  UNL     1     -35.898  16.513  -2.677  1.00 20.00     0.004 C 
HETATM    6  C7  UNL     1     -34.995  14.591  -4.057  1.00 20.00     0.059 C 
HETATM    7  C9  UNL     1     -36.817  17.733  -2.733  1.00 20.00     0.014 C 
ENDROOT
BRANCH   6   8
HETATM    8  C3  UNL     1     -35.221  13.749  -5.276  1.00 20.00     0.127 C 
HETATM    9  C8  UNL     1     -34.511  14.174  -6.533  1.00 20.00     0.091 C 
HETATM   10  O10 UNL     1     -35.949  12.758  -5.250  1.00 20.00    -0.298 OA
ENDBRANCH   6   8
TORSDOF 1
ENDMDL
MODEL 6
REMARK VINA RESULT:      -4.3      2.015      4.360
REMARK  1 active torsions:
REMARK  status: ('A' for Active; 'I' for Inactive)
REMARK    1  A    between atoms: C3_3  and  C7_7 
ROOT
HETATM    1  C1  UNL     1     -31.811   8.538   4.259  1.00 20.00    -0.029 C 
HETATM    2  C2  UNL     1     -31.662   9.086   3.046  1.00 20.00    -0.026 C 
HETATM    3  C4  UNL     1     -32.755   7.407   4.541  1.00 20.00     0.039 C 
HETATM    4  C5  UNL     1     -33.061   7.233   2.043  1.00 20.00     0.020 C 
HETATM    5  C6  UNL     1     -32.399   8.605   1.822  1.00 20.00     0.004 C 
HETATM    6  C7  UNL     1     -33.754   7.165   3.405  1.00 20.00     0.059 C 
HETATM    7  C9  UNL     1     -31.468   8.550   0.611  1.00 20.00     0.014 C 
ENDROOT
BRANCH   6   8
HETATM    8  C3  UNL     1     -34.402   5.826   3.588  1.00 20.00     0.127 C 
HETATM    9  C8  UNL     1     -33.587   4.622   3.202  1.00 20.00     0.091 C 
HETATM   10  O10 UNL     1     -35.543   5.717   4.034  1.00 20.00    -0.298 OA
ENDBRANCH   6   8
TORSDOF 1
ENDMDL
MODEL 7
REMARK VINA RESULT:      -4.3     11.413     12.144
REMARK  1 active torsions:
REMARK  status: ('A' for Active; 'I' for Inactive)
REMARK    1  A    between atoms: C3_3  and  C7_7 
ROOT
HETATM    1  C1  UNL     1     -33.141  17.949  -1.374  1.00 20.00    -0.029 C 
HETATM    2  C2  UNL     1     -34.052  17.986  -0.391  1.00 20.00    -0.026 C 
HETATM    3  C4  UNL     1     -33.343  17.197  -2.655  1.00 20.00     0.039 C 
HETATM    4  C5  UNL     1     -35.733  16.868  -1.916  1.00 20.00     0.020 C 
HETATM    5  C6  UNL     1     -35.395  17.306  -0.479  1.00 20.00     0.004 C 
HETATM    6  C7  UNL     1     -34.525  16.223  -2.597  1.00 20.00     0.059 C 
HETATM    7  C9  UNL     1     -36.500  18.209   0.069  1.00 20.00     0.014 C 
ENDROOT
BRANCH   6   8
HETATM    8  C3  UNL     1     -34.885  15.793  -3.987  1.00 20.00     0.127 C 
HETATM    9  C8  UNL     1     -34.728  14.331  -4.305  1.00 20.00     0.091 C 
HETATM   10  O10 UNL     1     -35.292  16.596  -4.825  1.00 20.00    -0.298 OA
ENDBRANCH   6   8
TORSDOF 1
ENDMDL
MODEL 8
REMARK VINA RESULT:      -4.3     11.627     12.429
REMARK  1 active torsions:
REMARK  status: ('A' for Active; 'I' for Inactive)
REMARK    1  A    between atoms: C3_3  and  C7_7 
ROOT
HETATM    1  C1  UNL     1     -35.476  17.152  -0.612  1.00 20.00    -0.029 C 
HETATM    2  C2  UNL     1     -34.686  18.063  -0.026  1.00 20.00    -0.026 C 
HETATM    3  C4  UNL     1     -35.250  16.638  -2.002  1.00 20.00     0.039 C 
HETATM    4  C5  UNL     1     -33.036  17.846  -1.931  1.00 20.00     0.020 C 
HETATM    5  C6  UNL     1     -33.462  18.645  -0.686  1.00 20.00     0.004 C 
HETATM    6  C7  UNL     1     -34.244  17.480  -2.795  1.00 20.00     0.059 C 
HETATM    7  C9  UNL     1     -32.300  18.734   0.303  1.00 20.00     0.014 C 
ENDROOT
BRANCH   6   8
HETATM    8  C3  UNL     1     -33.801  16.717  -4.006  1.00 20.00     0.127 C 
HETATM    9  C8  UNL     1     -33.924  15.219  -3.944  1.00 20.00     0.091 C 
HETATM   10  O10 UNL     1     -33.360  17.288  -5.002  1.00 20.00    -0.298 OA
ENDBRANCH   6   8
TORSDOF 1
ENDMDL
MODEL 9
REMARK VINA RESULT:      -4.3     11.605     12.437
REMARK  1 active torsions:
REMARK  status: ('A' for Active; 'I' for Inactive)
REMARK    1  A    between atoms: C3_3  and  C7_7 
ROOT
HETATM    1  C1  UNL     1     -32.199  18.481  -0.412  1.00 20.00    -0.029 C 
HETATM    2  C2  UNL     1     -33.031  18.134  -1.405  1.00 20.00    -0.026 C 
HETATM    3  C4  UNL     1     -32.649  18.691   1.003  1.00 20.00     0.039 C 
HETATM    4  C5  UNL     1     -34.870  17.732   0.285  1.00 20.00     0.020 C 
HETATM    5  C6  UNL     1     -34.503  17.883  -1.203  1.00 20.00     0.004 C 
HETATM    6  C7  UNL     1     -34.172  18.793   1.137  1.00 20.00     0.059 C 
HETATM    7  C9  UNL     1     -34.957  16.648  -1.982  1.00 20.00     0.014 C 
ENDROOT
BRANCH   6   8
HETATM    8  C3  UNL     1     -34.557  18.634   2.577  1.00 20.00     0.127 C 
HETATM    9  C8  UNL     1     -33.482  18.158   3.516  1.00 20.00     0.091 C 
HETATM   10  O10 UNL     1     -35.695  18.884   2.972  1.00 20.00    -0.298 OA
ENDBRANCH   6   8
TORSDOF 1
ENDMDL
