MODEL 1
REMARK VINA RESULT:      -4.6      0.000      0.000
REMARK  1 active torsions:
REMARK  status: ('A' for Active; 'I' for Inactive)
REMARK    1  A    between atoms: C5_5  and  C9_9 
ROOT
HETATM    1  C1  UNL     1     -33.883  15.067  -7.521  1.00 20.00    -0.021 C 
HETATM    2  C2  UNL     1     -35.184  15.395  -7.503  1.00 20.00    -0.024 C 
HETATM    3  C3  UNL     1     -33.810  14.933  -5.061  1.00 20.00    -0.065 C 
HETATM    4  C4  UNL     1     -33.091  14.195  -4.208  1.00 20.00     0.016 C 
HETATM    5  C6  UNL     1     -34.092  16.944  -6.202  1.00 20.00     0.023 C 
HETATM    6  C7  UNL     1     -33.259  15.661  -6.281  1.00 20.00     0.038 C 
HETATM    7  C8  UNL     1     -35.434  16.194  -6.233  1.00 20.00     0.028 C 
HETATM    8  C9  UNL     1     -35.305  15.270  -4.978  1.00 20.00     0.046 C 
HETATM    9  C11 UNL     1     -35.689  15.986  -3.681  1.00 20.00     0.029 C 
ENDROOT
BRANCH   8  10
HETATM   10  C5  UNL     1     -36.140  14.020  -5.113  1.00 20.00     0.136 C 
HETATM   11  C10 UNL     1     -37.632  14.205  -5.162  1.00 20.00     0.092 C 
HETATM   12  O12 UNL     1     -35.626  12.905  -5.183  1.00 20.00    -0.297 OA
ENDBRANCH   8  10
TORSDOF 1
ENDMDL
MODEL 2
REMARK VINA RESULT:      -4.5      1.606      2.926
REMARK  1 active torsions:
REMARK  status: ('A' for Active; 'I' for Inactive)
REMARK    1  A    between atoms: C5_5  and  C9_9 
ROOT
HETATM    1  C1  UNL     1     -33.769  16.503  -3.818  1.00 20.00    -0.021 C 
HETATM    2  C2  UNL     1     -34.680  15.648  -3.327  1.00 20.00    -0.024 C 
HETATM    3  C3  UNL     1     -34.106  15.658  -6.108  1.00 20.00    -0.065 C 
HETATM    4  C4  UNL     1     -34.016  16.229  -7.314  1.00 20.00     0.016 C 
HETATM    5  C6  UNL     1     -33.111  14.382  -4.432  1.00 20.00     0.023 C 
HETATM    6  C7  UNL     1     -33.094  15.813  -4.979  1.00 20.00     0.038 C 
HETATM    7  C8  UNL     1     -34.627  14.390  -4.179  1.00 20.00     0.028 C 
HETATM    8  C9  UNL     1     -35.182  14.682  -5.611  1.00 20.00     0.046 C 
HETATM    9  C11 UNL     1     -35.290  13.419  -6.468  1.00 20.00     0.029 C 
ENDROOT
BRANCH   8  10
HETATM   10  C5  UNL     1     -36.531  15.358  -5.563  1.00 20.00     0.136 C 
HETATM   11  C10 UNL     1     -37.697  14.511  -5.132  1.00 20.00     0.092 C 
HETATM   12  O12 UNL     1     -36.669  16.544  -5.859  1.00 20.00    -0.297 OA
ENDBRANCH   8  10
TORSDOF 1
ENDMDL
MODEL 3
REMARK VINA RESULT:      -4.5      1.237      2.726
REMARK  1 active torsions:
REMARK  status: ('A' for Active; 'I' for Inactive)
REMARK    1  A    between atoms: C5_5  and  C9_9 
ROOT
HETATM    1  C1  UNL     1     -33.714  15.254  -3.688  1.00 20.00    -0.021 C 
HETATM    2  C2  UNL     1     -33.233  14.868  -4.881  1.00 20.00    -0.024 C 
HETATM    3  C3  UNL     1     -35.978  15.542  -4.615  1.00 20.00    -0.065 C 
HETATM    4  C4  UNL     1     -37.202  15.412  -4.091  1.00 20.00     0.016 C 
HETATM    5  C6  UNL     1     -34.199  16.931  -5.191  1.00 20.00     0.023 C 
HETATM    6  C7  UNL     1     -34.807  16.260  -3.955  1.00 20.00     0.038 C 
HETATM    7  C8  UNL     1     -34.026  15.606  -5.950  1.00 20.00     0.028 C 
HETATM    8  C9  UNL     1     -35.496  15.076  -5.995  1.00 20.00     0.046 C 
HETATM    9  C11 UNL     1     -36.301  15.677  -7.149  1.00 20.00     0.029 C 
ENDROOT
BRANCH   8  10
HETATM   10  C5  UNL     1     -35.547  13.570  -6.095  1.00 20.00     0.136 C 
HETATM   11  C10 UNL     1     -35.100  12.963  -7.397  1.00 20.00     0.092 C 
HETATM   12  O12 UNL     1     -35.931  12.874  -5.157  1.00 20.00    -0.297 OA
ENDBRANCH   8  10
TORSDOF 1
ENDMDL
MODEL 4
REMARK VINA RESULT:      -4.3      1.418      3.116
REMARK  1 active torsions:
REMARK  status: ('A' for Active; 'I' for Inactive)
REMARK    1  A    between atoms: C5_5  and  C9_9 
ROOT
HETATM    1  C1  UNL     1     -37.654  14.341  -5.274  1.00 20.00    -0.021 C 
HETATM    2  C2  UNL     1     -37.225  15.348  -4.498  1.00 20.00    -0.024 C 
HETATM    3  C3  UNL     1     -35.513  14.272  -6.492  1.00 20.00    -0.065 C 
HETATM    4  C4  UNL     1     -34.833  13.286  -7.087  1.00 20.00     0.016 C 
HETATM    5  C6  UNL     1     -37.007  16.050  -6.677  1.00 20.00     0.023 C 
HETATM    6  C7  UNL     1     -37.011  14.519  -6.629  1.00 20.00     0.038 C 
HETATM    7  C8  UNL     1     -36.272  16.190  -5.334  1.00 20.00     0.028 C 
HETATM    8  C9  UNL     1     -34.953  15.399  -5.613  1.00 20.00     0.046 C 
HETATM    9  C11 UNL     1     -33.898  16.249  -6.325  1.00 20.00     0.029 C 
ENDROOT
BRANCH   8  10
HETATM   10  C5  UNL     1     -34.356  14.837  -4.346  1.00 20.00     0.136 C 
HETATM   11  C10 UNL     1     -33.729  15.824  -3.398  1.00 20.00     0.092 C 
HETATM   12  O12 UNL     1     -34.383  13.633  -4.098  1.00 20.00    -0.297 OA
ENDBRANCH   8  10
TORSDOF 1
ENDMDL
MODEL 5
REMARK VINA RESULT:      -4.3      1.373      2.793
REMARK  1 active torsions:
REMARK  status: ('A' for Active; 'I' for Inactive)
REMARK    1  A    between atoms: C5_5  and  C9_9 
ROOT
HETATM    1  C1  UNL     1     -35.685  16.590  -6.838  1.00 20.00    -0.021 C 
HETATM    2  C2  UNL     1     -34.748  17.274  -6.162  1.00 20.00    -0.024 C 
HETATM    3  C3  UNL     1     -35.191  14.530  -5.579  1.00 20.00    -0.065 C 
HETATM    4  C4  UNL     1     -35.940  13.487  -5.205  1.00 20.00     0.016 C 
HETATM    5  C6  UNL     1     -33.695  15.460  -7.103  1.00 20.00     0.023 C 
HETATM    6  C7  UNL     1     -35.192  15.168  -6.962  1.00 20.00     0.038 C 
HETATM    7  C8  UNL     1     -33.635  16.297  -5.815  1.00 20.00     0.028 C 
HETATM    8  C9  UNL     1     -34.131  15.267  -4.748  1.00 20.00     0.046 C 
HETATM    9  C11 UNL     1     -33.010  14.351  -4.253  1.00 20.00     0.029 C 
ENDROOT
BRANCH   8  10
HETATM   10  C5  UNL     1     -34.766  15.950  -3.562  1.00 20.00     0.136 C 
HETATM   11  C10 UNL     1     -33.837  16.654  -2.609  1.00 20.00     0.092 C 
HETATM   12  O12 UNL     1     -35.983  15.935  -3.383  1.00 20.00    -0.297 OA
ENDBRANCH   8  10
TORSDOF 1
ENDMDL
MODEL 6
REMARK VINA RESULT:      -4.2      2.472      3.880
REMARK  1 active torsions:
REMARK  status: ('A' for Active; 'I' for Inactive)
REMARK    1  A    between atoms: C5_5  and  C9_9 
ROOT
HETATM    1  C1  UNL     1     -33.615  15.539  -5.919  1.00 20.00    -0.021 C 
HETATM    2  C2  UNL     1     -32.968  15.280  -4.771  1.00 20.00    -0.024 C 
HETATM    3  C3  UNL     1     -35.358  16.813  -4.732  1.00 20.00    -0.065 C 
HETATM    4  C4  UNL     1     -36.124  17.854  -5.079  1.00 20.00     0.016 C 
HETATM    5  C6  UNL     1     -35.118  14.507  -4.511  1.00 20.00     0.023 C 
HETATM    6  C7  UNL     1     -35.089  15.588  -5.597  1.00 20.00     0.038 C 
HETATM    7  C8  UNL     1     -34.016  15.177  -3.674  1.00 20.00     0.028 C 
HETATM    8  C9  UNL     1     -34.646  16.580  -3.393  1.00 20.00     0.046 C 
HETATM    9  C11 UNL     1     -35.601  16.566  -2.197  1.00 20.00     0.029 C 
ENDROOT
BRANCH   8  10
HETATM   10  C5  UNL     1     -33.589  17.633  -3.162  1.00 20.00     0.136 C 
HETATM   11  C10 UNL     1     -33.017  17.724  -1.773  1.00 20.00     0.092 C 
HETATM   12  O12 UNL     1     -33.212  18.378  -4.065  1.00 20.00    -0.297 OA
ENDBRANCH   8  10
TORSDOF 1
ENDMDL
MODEL 7
REMARK VINA RESULT:      -4.2      2.061      3.493
REMARK  1 active torsions:
REMARK  status: ('A' for Active; 'I' for Inactive)
REMARK    1  A    between atoms: C5_5  and  C9_9 
ROOT
HETATM    1  C1  UNL     1     -34.331  14.823  -6.275  1.00 20.00    -0.021 C 
HETATM    2  C2  UNL     1     -33.272  15.590  -5.970  1.00 20.00    -0.024 C 
HETATM    3  C3  UNL     1     -35.522  15.535  -4.239  1.00 20.00    -0.065 C 
HETATM    4  C4  UNL     1     -36.818  15.693  -3.949  1.00 20.00     0.016 C 
HETATM    5  C6  UNL     1     -33.619  14.194  -4.176  1.00 20.00     0.023 C 
HETATM    6  C7  UNL     1     -34.920  14.342  -4.971  1.00 20.00     0.038 C 
HETATM    7  C8  UNL     1     -33.168  15.638  -4.453  1.00 20.00     0.028 C 
HETATM    8  C9  UNL     1     -34.357  16.458  -3.855  1.00 20.00     0.046 C 
HETATM    9  C11 UNL     1     -34.226  16.664  -2.344  1.00 20.00     0.029 C 
ENDROOT
BRANCH   8  10
HETATM   10  C5  UNL     1     -34.503  17.804  -4.522  1.00 20.00     0.136 C 
HETATM   11  C10 UNL     1     -33.430  18.820  -4.237  1.00 20.00     0.092 C 
HETATM   12  O12 UNL     1     -35.450  18.057  -5.266  1.00 20.00    -0.297 OA
ENDBRANCH   8  10
TORSDOF 1
ENDMDL
MODEL 8
REMARK VINA RESULT:      -4.1      1.561      3.241
REMARK  1 active torsions:
REMARK  status: ('A' for Active; 'I' for Inactive)
REMARK    1  A    between atoms: C5_5  and  C9_9 
ROOT
HETATM    1  C1  UNL     1     -36.179  14.057  -7.248  1.00 20.00    -0.021 C 
HETATM    2  C2  UNL     1     -35.510  13.286  -6.377  1.00 20.00    -0.024 C 
HETATM    3  C3  UNL     1     -35.866  16.050  -5.833  1.00 20.00    -0.065 C 
HETATM    4  C4  UNL     1     -35.745  17.353  -6.106  1.00 20.00     0.016 C 
HETATM    5  C6  UNL     1     -37.230  14.267  -5.209  1.00 20.00     0.023 C 
HETATM    6  C7  UNL     1     -36.900  15.112  -6.444  1.00 20.00     0.038 C 
HETATM    7  C8  UNL     1     -35.770  13.843  -4.986  1.00 20.00     0.028 C 
HETATM    8  C9  UNL     1     -35.063  15.227  -4.817  1.00 20.00     0.046 C 
HETATM    9  C11 UNL     1     -35.167  15.768  -3.389  1.00 20.00     0.029 C 
ENDROOT
BRANCH   8  10
HETATM   10  C5  UNL     1     -33.608  15.167  -5.213  1.00 20.00     0.136 C 
HETATM   11  C10 UNL     1     -32.697  14.366  -4.322  1.00 20.00     0.092 C 
HETATM   12  O12 UNL     1     -33.188  15.741  -6.216  1.00 20.00    -0.297 OA
ENDBRANCH   8  10
TORSDOF 1
ENDMDL
MODEL 9
REMARK VINA RESULT:      -4.1      1.659      2.850
REMARK  1 active torsions:
REMARK  status: ('A' for Active; 'I' for Inactive)
REMARK    1  A    between atoms: C5_5  and  C9_9 
ROOT
HETATM    1  C1  UNL     1     -33.692  17.577  -3.913  1.00 20.00    -0.021 C 
HETATM    2  C2  UNL     1     -34.843  17.659  -4.597  1.00 20.00    -0.024 C 
HETATM    3  C3  UNL     1     -33.638  15.126  -4.156  1.00 20.00    -0.065 C 
HETATM    4  C4  UNL     1     -32.641  14.239  -4.241  1.00 20.00     0.016 C 
HETATM    5  C6  UNL     1     -35.216  16.224  -2.840  1.00 20.00     0.023 C 
HETATM    6  C7  UNL     1     -33.717  16.272  -3.155  1.00 20.00     0.038 C 
HETATM    7  C8  UNL     1     -35.632  16.390  -4.311  1.00 20.00     0.028 C 
HETATM    8  C9  UNL     1     -34.935  15.158  -4.975  1.00 20.00     0.046 C 
HETATM    9  C11 UNL     1     -35.761  13.876  -4.844  1.00 20.00     0.029 C 
ENDROOT
BRANCH   8  10
HETATM   10  C5  UNL     1     -34.636  15.402  -6.434  1.00 20.00     0.136 C 
HETATM   11  C10 UNL     1     -35.808  15.378  -7.378  1.00 20.00     0.092 C 
HETATM   12  O12 UNL     1     -33.492  15.612  -6.833  1.00 20.00    -0.297 OA
ENDBRANCH   8  10
TORSDOF 1
ENDMDL
