MODEL 1
REMARK VINA RESULT:      -5.0      0.000      0.000
REMARK  1 active torsions:
REMARK  status: ('A' for Active; 'I' for Inactive)
REMARK    1  A    between atoms: C2_2  and  C3_3 
ROOT
HETATM    1  C1  UNL     1     -33.101   7.532   1.759  1.00 20.00    -0.007 C 
HETATM    2  C2  UNL     1     -33.049   6.894   2.930  1.00 20.00    -0.012 C 
HETATM    3  C4  UNL     1     -31.401   8.579   3.052  1.00 20.00     0.022 C 
HETATM    4  C5  UNL     1     -32.143   7.544   3.922  1.00 20.00     0.019 C 
HETATM    5  C6  UNL     1     -32.224   8.754   1.750  1.00 20.00    -0.029 C 
HETATM    6  C8  UNL     1     -32.899   8.186   5.080  1.00 20.00     0.015 C 
HETATM    7  C9  UNL     1     -33.074  10.029   1.783  1.00 20.00     0.019 C 
HETATM    8  C10 UNL     1     -31.308   8.771   0.522  1.00 20.00     0.019 C 
ENDROOT
BRANCH   2   9
HETATM    9  C3  UNL     1     -33.799   5.676   3.188  1.00 20.00     0.151 C 
HETATM   10  C7  UNL     1     -35.164   5.792   3.830  1.00 20.00     0.096 C 
HETATM   11  O11 UNL     1     -33.333   4.565   2.898  1.00 20.00    -0.293 OA
ENDBRANCH   2   9
TORSDOF 1
ENDMDL
MODEL 2
REMARK VINA RESULT:      -4.6      1.820      3.879
REMARK  1 active torsions:
REMARK  status: ('A' for Active; 'I' for Inactive)
REMARK    1  A    between atoms: C2_2  and  C3_3 
ROOT
HETATM    1  C1  UNL     1     -33.523   7.138   1.958  1.00 20.00    -0.007 C 
HETATM    2  C2  UNL     1     -32.726   8.185   2.184  1.00 20.00    -0.012 C 
HETATM    3  C4  UNL     1     -33.102   7.209   4.299  1.00 20.00     0.022 C 
HETATM    4  C5  UNL     1     -32.231   8.266   3.589  1.00 20.00     0.019 C 
HETATM    5  C6  UNL     1     -33.712   6.305   3.196  1.00 20.00    -0.029 C 
HETATM    6  C8  UNL     1     -30.740   7.971   3.708  1.00 20.00     0.015 C 
HETATM    7  C9  UNL     1     -32.959   4.976   3.072  1.00 20.00     0.019 C 
HETATM    8  C10 UNL     1     -35.196   6.039   3.466  1.00 20.00     0.019 C 
ENDROOT
BRANCH   2   9
HETATM    9  C3  UNL     1     -32.396   9.150   1.148  1.00 20.00     0.151 C 
HETATM   10  C7  UNL     1     -33.009  10.531   1.228  1.00 20.00     0.096 C 
HETATM   11  O11 UNL     1     -31.636   8.853   0.216  1.00 20.00    -0.293 OA
ENDBRANCH   2   9
TORSDOF 1
ENDMDL
MODEL 3
REMARK VINA RESULT:      -4.6      9.966     11.201
REMARK  1 active torsions:
REMARK  status: ('A' for Active; 'I' for Inactive)
REMARK    1  A    between atoms: C2_2  and  C3_3 
ROOT
HETATM    1  C1  UNL     1     -35.690  15.576  -4.355  1.00 20.00    -0.007 C 
HETATM    2  C2  UNL     1     -34.879  14.776  -5.051  1.00 20.00    -0.012 C 
HETATM    3  C4  UNL     1     -33.545  16.605  -4.383  1.00 20.00     0.022 C 
HETATM    4  C5  UNL     1     -33.448  15.202  -5.015  1.00 20.00     0.019 C 
HETATM    5  C6  UNL     1     -34.938  16.707  -3.710  1.00 20.00    -0.029 C 
HETATM    6  C8  UNL     1     -32.570  14.254  -4.206  1.00 20.00     0.015 C 
HETATM    7  C9  UNL     1     -34.851  16.501  -2.193  1.00 20.00     0.019 C 
HETATM    8  C10 UNL     1     -35.595  18.057  -4.014  1.00 20.00     0.019 C 
ENDROOT
BRANCH   2   9
HETATM    9  C3  UNL     1     -35.364  13.616  -5.778  1.00 20.00     0.151 C 
HETATM   10  C7  UNL     1     -35.098  13.533  -7.266  1.00 20.00     0.096 C 
HETATM   11  O11 UNL     1     -35.989  12.714  -5.201  1.00 20.00    -0.293 OA
ENDBRANCH   2   9
TORSDOF 1
ENDMDL
MODEL 4
REMARK VINA RESULT:      -4.5     10.433     11.244
REMARK  1 active torsions:
REMARK  status: ('A' for Active; 'I' for Inactive)
REMARK    1  A    between atoms: C2_2  and  C3_3 
ROOT
HETATM    1  C1  UNL     1     -33.513  17.035  -2.808  1.00 20.00    -0.007 C 
HETATM    2  C2  UNL     1     -34.287  16.039  -3.244  1.00 20.00    -0.012 C 
HETATM    3  C4  UNL     1     -35.505  17.073  -1.507  1.00 20.00     0.022 C 
HETATM    4  C5  UNL     1     -35.652  16.035  -2.639  1.00 20.00     0.019 C 
HETATM    5  C6  UNL     1     -34.231  17.903  -1.811  1.00 20.00    -0.029 C 
HETATM    6  C8  UNL     1     -36.741  16.409  -3.638  1.00 20.00     0.015 C 
HETATM    7  C9  UNL     1     -34.574  19.263  -2.429  1.00 20.00     0.019 C 
HETATM    8  C10 UNL     1     -33.394  18.104  -0.544  1.00 20.00     0.019 C 
ENDROOT
BRANCH   2   9
HETATM    9  C3  UNL     1     -33.821  15.053  -4.205  1.00 20.00     0.151 C 
HETATM   10  C7  UNL     1     -33.044  15.533  -5.411  1.00 20.00     0.096 C 
HETATM   11  O11 UNL     1     -34.058  13.847  -4.050  1.00 20.00    -0.293 OA
ENDBRANCH   2   9
TORSDOF 1
ENDMDL
MODEL 5
REMARK VINA RESULT:      -4.5      1.756      2.699
REMARK  1 active torsions:
REMARK  status: ('A' for Active; 'I' for Inactive)
REMARK    1  A    between atoms: C2_2  and  C3_3 
ROOT
HETATM    1  C1  UNL     1     -33.037   8.026   3.773  1.00 20.00    -0.007 C 
HETATM    2  C2  UNL     1     -33.660   6.869   4.006  1.00 20.00    -0.012 C 
HETATM    3  C4  UNL     1     -33.469   7.024   1.659  1.00 20.00     0.022 C 
HETATM    4  C5  UNL     1     -33.849   6.037   2.781  1.00 20.00     0.019 C 
HETATM    5  C6  UNL     1     -32.683   8.186   2.320  1.00 20.00    -0.029 C 
HETATM    6  C8  UNL     1     -32.979   4.784   2.779  1.00 20.00     0.015 C 
HETATM    7  C9  UNL     1     -31.171   8.038   2.113  1.00 20.00     0.019 C 
HETATM    8  C10 UNL     1     -33.151   9.540   1.779  1.00 20.00     0.019 C 
ENDROOT
BRANCH   2   9
HETATM    9  C3  UNL     1     -34.116   6.483   5.331  1.00 20.00     0.151 C 
HETATM   10  C7  UNL     1     -34.694   5.097   5.519  1.00 20.00     0.096 C 
HETATM   11  O11 UNL     1     -34.043   7.268   6.287  1.00 20.00    -0.293 OA
ENDBRANCH   2   9
TORSDOF 1
ENDMDL
MODEL 6
REMARK VINA RESULT:      -4.4     10.605     11.414
REMARK  1 active torsions:
REMARK  status: ('A' for Active; 'I' for Inactive)
REMARK    1  A    between atoms: C2_2  and  C3_3 
ROOT
HETATM    1  C1  UNL     1     -34.300  15.672  -4.340  1.00 20.00    -0.007 C 
HETATM    2  C2  UNL     1     -35.383  14.963  -4.662  1.00 20.00    -0.012 C 
HETATM    3  C4  UNL     1     -36.109  16.533  -3.057  1.00 20.00     0.022 C 
HETATM    4  C5  UNL     1     -36.643  15.494  -4.064  1.00 20.00     0.019 C 
HETATM    5  C6  UNL     1     -34.640  16.836  -3.450  1.00 20.00    -0.029 C 
HETATM    6  C8  UNL     1     -37.575  16.110  -5.102  1.00 20.00     0.015 C 
HETATM    7  C9  UNL     1     -34.520  18.156  -4.220  1.00 20.00     0.019 C 
HETATM    8  C10 UNL     1     -33.739  16.872  -2.212  1.00 20.00     0.019 C 
ENDROOT
BRANCH   2   9
HETATM    9  C3  UNL     1     -35.318  13.780  -5.504  1.00 20.00     0.151 C 
HETATM   10  C7  UNL     1     -34.500  13.843  -6.775  1.00 20.00     0.096 C 
HETATM   11  O11 UNL     1     -35.922  12.742  -5.197  1.00 20.00    -0.293 OA
ENDBRANCH   2   9
TORSDOF 1
ENDMDL
MODEL 7
REMARK VINA RESULT:      -4.4     10.244     11.300
REMARK  1 active torsions:
REMARK  status: ('A' for Active; 'I' for Inactive)
REMARK    1  A    between atoms: C2_2  and  C3_3 
ROOT
HETATM    1  C1  UNL     1     -36.133  16.082  -4.039  1.00 20.00    -0.007 C 
HETATM    2  C2  UNL     1     -34.996  15.795  -3.404  1.00 20.00    -0.012 C 
HETATM    3  C4  UNL     1     -35.441  13.930  -4.779  1.00 20.00     0.022 C 
HETATM    4  C5  UNL     1     -34.341  14.544  -3.888  1.00 20.00     0.019 C 
HETATM    5  C6  UNL     1     -36.458  15.057  -5.091  1.00 20.00    -0.029 C 
HETATM    6  C8  UNL     1     -33.050  14.811  -4.653  1.00 20.00     0.015 C 
HETATM    7  C9  UNL     1     -36.248  15.639  -6.494  1.00 20.00     0.019 C 
HETATM    8  C10 UNL     1     -37.897  14.551  -4.949  1.00 20.00     0.019 C 
ENDROOT
BRANCH   2   9
HETATM    9  C3  UNL     1     -34.469  16.626  -2.334  1.00 20.00     0.151 C 
HETATM   10  C7  UNL     1     -35.371  16.951  -1.163  1.00 20.00     0.096 C 
HETATM   11  O11 UNL     1     -33.312  17.068  -2.377  1.00 20.00    -0.293 OA
ENDBRANCH   2   9
TORSDOF 1
ENDMDL
MODEL 8
REMARK VINA RESULT:      -4.3     10.532     11.655
REMARK  1 active torsions:
REMARK  status: ('A' for Active; 'I' for Inactive)
REMARK    1  A    between atoms: C2_2  and  C3_3 
ROOT
HETATM    1  C1  UNL     1     -35.776  15.159  -6.515  1.00 20.00    -0.007 C 
HETATM    2  C2  UNL     1     -36.133  14.863  -5.264  1.00 20.00    -0.012 C 
HETATM    3  C4  UNL     1     -33.822  14.408  -5.387  1.00 20.00     0.022 C 
HETATM    4  C5  UNL     1     -34.980  14.536  -4.376  1.00 20.00     0.019 C 
HETATM    5  C6  UNL     1     -34.286  15.087  -6.701  1.00 20.00    -0.029 C 
HETATM    6  C8  UNL     1     -34.722  15.608  -3.323  1.00 20.00     0.015 C 
HETATM    7  C9  UNL     1     -33.692  16.492  -6.853  1.00 20.00     0.019 C 
HETATM    8  C10 UNL     1     -33.917  14.233  -7.918  1.00 20.00     0.019 C 
ENDROOT
BRANCH   2   9
HETATM    9  C3  UNL     1     -37.521  14.850  -4.832  1.00 20.00     0.151 C 
HETATM   10  C7  UNL     1     -38.120  16.130  -4.292  1.00 20.00     0.096 C 
HETATM   11  O11 UNL     1     -38.202  13.816  -4.896  1.00 20.00    -0.293 OA
ENDBRANCH   2   9
TORSDOF 1
ENDMDL
MODEL 9
REMARK VINA RESULT:      -4.3     10.539     11.336
REMARK  1 active torsions:
REMARK  status: ('A' for Active; 'I' for Inactive)
REMARK    1  A    between atoms: C2_2  and  C3_3 
ROOT
HETATM    1  C1  UNL     1     -35.836  16.301  -3.097  1.00 20.00    -0.007 C 
HETATM    2  C2  UNL     1     -35.260  16.969  -2.095  1.00 20.00    -0.012 C 
HETATM    3  C4  UNL     1     -33.488  15.965  -3.286  1.00 20.00     0.022 C 
HETATM    4  C5  UNL     1     -33.770  16.996  -2.174  1.00 20.00     0.019 C 
HETATM    5  C6  UNL     1     -34.816  15.748  -4.055  1.00 20.00    -0.029 C 
HETATM    6  C8  UNL     1     -33.222  18.380  -2.505  1.00 20.00     0.015 C 
HETATM    7  C9  UNL     1     -34.840  16.525  -5.377  1.00 20.00     0.019 C 
HETATM    8  C10 UNL     1     -35.056  14.259  -4.324  1.00 20.00     0.019 C 
ENDROOT
BRANCH   2   9
HETATM    9  C3  UNL     1     -36.030  17.590  -1.030  1.00 20.00     0.151 C 
HETATM   10  C7  UNL     1     -35.503  17.504   0.386  1.00 20.00     0.096 C 
HETATM   11  O11 UNL     1     -37.098  18.172  -1.268  1.00 20.00    -0.293 OA
ENDBRANCH   2   9
TORSDOF 1
ENDMDL
