MODEL 1
REMARK VINA RESULT:      -4.8      0.000      0.000
REMARK  0 active torsions:
REMARK  status: ('A' for Active; 'I' for Inactive)
ROOT
HETATM    1  C1  UNL     1     -33.274   5.751   3.019  1.00 20.00     0.223 C 
HETATM    2  C2  UNL     1     -33.879   7.938   3.690  1.00 20.00     0.130 C 
HETATM    3  C3  UNL     1     -34.516   5.639   3.889  1.00 20.00     0.079 C 
HETATM    4  C4  UNL     1     -34.506   6.961   4.684  1.00 20.00     0.012 C 
HETATM    5  C5  UNL     1     -34.551   4.361   4.706  1.00 20.00     0.020 C 
HETATM    6  C6  UNL     1     -33.700   6.911   5.985  1.00 20.00     0.012 C 
HETATM    7  C7  UNL     1     -31.931   7.684   2.103  1.00 20.00     0.152 C 
HETATM    8  N8  UNL     1     -32.970   7.109   2.931  1.00 20.00    -0.356 N 
HETATM    9  O9  UNL     1     -32.705   4.816   2.473  1.00 20.00    -0.273 OA
ENDROOT
TORSDOF 0
ENDMDL
MODEL 2
REMARK VINA RESULT:      -4.7      1.934      3.597
REMARK  0 active torsions:
REMARK  status: ('A' for Active; 'I' for Inactive)
ROOT
HETATM    1  C1  UNL     1     -33.512   7.091   4.811  1.00 20.00     0.223 C 
HETATM    2  C2  UNL     1     -34.975   5.564   3.749  1.00 20.00     0.130 C 
HETATM    3  C3  UNL     1     -33.461   7.366   3.316  1.00 20.00     0.079 C 
HETATM    4  C4  UNL     1     -33.975   6.049   2.700  1.00 20.00     0.012 C 
HETATM    5  C5  UNL     1     -32.096   7.841   2.851  1.00 20.00     0.020 C 
HETATM    6  C6  UNL     1     -32.888   4.998   2.453  1.00 20.00     0.012 C 
HETATM    7  C7  UNL     1     -34.868   5.540   6.271  1.00 20.00     0.152 C 
HETATM    8  N8  UNL     1     -34.420   6.049   4.993  1.00 20.00    -0.356 N 
HETATM    9  O9  UNL     1     -32.903   7.715   5.668  1.00 20.00    -0.273 OA
ENDROOT
TORSDOF 0
ENDMDL
MODEL 3
REMARK VINA RESULT:      -4.1      1.691      2.774
REMARK  0 active torsions:
REMARK  status: ('A' for Active; 'I' for Inactive)
ROOT
HETATM    1  C1  UNL     1     -33.226   6.872   3.896  1.00 20.00     0.223 C 
HETATM    2  C2  UNL     1     -34.918   5.991   5.297  1.00 20.00     0.130 C 
HETATM    3  C3  UNL     1     -34.020   5.863   3.082  1.00 20.00     0.079 C 
HETATM    4  C4  UNL     1     -34.692   4.991   4.162  1.00 20.00     0.012 C 
HETATM    5  C5  UNL     1     -33.171   5.132   2.058  1.00 20.00     0.020 C 
HETATM    6  C6  UNL     1     -33.846   3.807   4.637  1.00 20.00     0.012 C 
HETATM    7  C7  UNL     1     -33.447   7.820   6.226  1.00 20.00     0.152 C 
HETATM    8  N8  UNL     1     -33.810   6.909   5.162  1.00 20.00    -0.356 N 
HETATM    9  O9  UNL     1     -32.294   7.543   3.478  1.00 20.00    -0.273 OA
ENDROOT
TORSDOF 0
ENDMDL
MODEL 4
REMARK VINA RESULT:      -4.1     11.518     12.314
REMARK  0 active torsions:
REMARK  status: ('A' for Active; 'I' for Inactive)
ROOT
HETATM    1  C1  UNL     1     -35.678  13.909  -4.804  1.00 20.00     0.223 C 
HETATM    2  C2  UNL     1     -36.587  15.864  -3.828  1.00 20.00     0.130 C 
HETATM    3  C3  UNL     1     -34.595  14.542  -3.944  1.00 20.00     0.079 C 
HETATM    4  C4  UNL     1     -35.066  16.005  -3.811  1.00 20.00     0.012 C 
HETATM    5  C5  UNL     1     -33.200  14.331  -4.504  1.00 20.00     0.020 C 
HETATM    6  C6  UNL     1     -34.588  16.929  -4.934  1.00 20.00     0.012 C 
HETATM    7  C7  UNL     1     -38.113  14.423  -5.233  1.00 20.00     0.152 C 
HETATM    8  N8  UNL     1     -36.808  14.714  -4.677  1.00 20.00    -0.356 N 
HETATM    9  O9  UNL     1     -35.564  12.866  -5.431  1.00 20.00    -0.273 OA
ENDROOT
TORSDOF 0
ENDMDL
MODEL 5
REMARK VINA RESULT:      -3.8      1.528      2.499
REMARK  0 active torsions:
REMARK  status: ('A' for Active; 'I' for Inactive)
ROOT
HETATM    1  C1  UNL     1     -33.883   5.441   4.215  1.00 20.00     0.223 C 
HETATM    2  C2  UNL     1     -33.296   6.665   2.275  1.00 20.00     0.130 C 
HETATM    3  C3  UNL     1     -34.153   6.911   4.497  1.00 20.00     0.079 C 
HETATM    4  C4  UNL     1     -33.274   7.634   3.456  1.00 20.00     0.012 C 
HETATM    5  C5  UNL     1     -33.924   7.284   5.950  1.00 20.00     0.020 C 
HETATM    6  C6  UNL     1     -31.839   7.903   3.917  1.00 20.00     0.012 C 
HETATM    7  C7  UNL     1     -33.130   4.147   2.181  1.00 20.00     0.152 C 
HETATM    8  N8  UNL     1     -33.405   5.369   2.907  1.00 20.00    -0.356 N 
HETATM    9  O9  UNL     1     -34.102   4.520   4.987  1.00 20.00    -0.273 OA
ENDROOT
TORSDOF 0
ENDMDL
MODEL 6
REMARK VINA RESULT:      -3.7     11.973     12.621
REMARK  0 active torsions:
REMARK  status: ('A' for Active; 'I' for Inactive)
ROOT
HETATM    1  C1  UNL     1     -33.879  14.931  -5.520  1.00 20.00     0.223 C 
HETATM    2  C2  UNL     1     -35.589  13.389  -6.067  1.00 20.00     0.130 C 
HETATM    3  C3  UNL     1     -34.602  14.568  -4.233  1.00 20.00     0.079 C 
HETATM    4  C4  UNL     1     -35.961  14.034  -4.733  1.00 20.00     0.012 C 
HETATM    5  C5  UNL     1     -34.652  15.716  -3.241  1.00 20.00     0.020 C 
HETATM    6  C6  UNL     1     -37.032  15.111  -4.925  1.00 20.00     0.012 C 
HETATM    7  C7  UNL     1     -34.046  14.147  -7.915  1.00 20.00     0.152 C 
HETATM    8  N8  UNL     1     -34.489  14.200  -6.539  1.00 20.00    -0.356 N 
HETATM    9  O9  UNL     1     -32.918  15.681  -5.606  1.00 20.00    -0.273 OA
ENDROOT
TORSDOF 0
ENDMDL
MODEL 7
REMARK VINA RESULT:      -3.7     11.582     12.346
REMARK  0 active torsions:
REMARK  status: ('A' for Active; 'I' for Inactive)
ROOT
HETATM    1  C1  UNL     1     -34.560  14.650  -4.082  1.00 20.00     0.223 C 
HETATM    2  C2  UNL     1     -36.832  15.291  -4.261  1.00 20.00     0.130 C 
HETATM    3  C3  UNL     1     -34.801  15.777  -3.090  1.00 20.00     0.079 C 
HETATM    4  C4  UNL     1     -36.070  16.461  -3.639  1.00 20.00     0.012 C 
HETATM    5  C5  UNL     1     -33.585  16.665  -2.900  1.00 20.00     0.020 C 
HETATM    6  C6  UNL     1     -35.802  17.554  -4.677  1.00 20.00     0.012 C 
HETATM    7  C7  UNL     1     -36.042  13.337  -5.650  1.00 20.00     0.152 C 
HETATM    8  N8  UNL     1     -35.780  14.408  -4.713  1.00 20.00    -0.356 N 
HETATM    9  O9  UNL     1     -33.503  14.056  -4.237  1.00 20.00    -0.273 OA
ENDROOT
TORSDOF 0
ENDMDL
MODEL 8
REMARK VINA RESULT:      -3.6      1.709      2.382
REMARK  0 active torsions:
REMARK  status: ('A' for Active; 'I' for Inactive)
ROOT
HETATM    1  C1  UNL     1     -32.978   7.317   4.418  1.00 20.00     0.223 C 
HETATM    2  C2  UNL     1     -33.461   5.980   2.526  1.00 20.00     0.130 C 
HETATM    3  C3  UNL     1     -33.665   6.053   4.910  1.00 20.00     0.079 C 
HETATM    4  C4  UNL     1     -34.396   5.540   3.652  1.00 20.00     0.012 C 
HETATM    5  C5  UNL     1     -34.523   6.288   6.140  1.00 20.00     0.020 C 
HETATM    6  C6  UNL     1     -35.800   6.118   3.456  1.00 20.00     0.012 C 
HETATM    7  C7  UNL     1     -32.183   8.126   2.162  1.00 20.00     0.152 C 
HETATM    8  N8  UNL     1     -32.877   7.201   3.033  1.00 20.00    -0.356 N 
HETATM    9  O9  UNL     1     -32.560   8.219   5.130  1.00 20.00    -0.273 OA
ENDROOT
TORSDOF 0
ENDMDL
MODEL 9
REMARK VINA RESULT:      -3.6     11.938     13.087
REMARK  0 active torsions:
REMARK  status: ('A' for Active; 'I' for Inactive)
ROOT
HETATM    1  C1  UNL     1     -34.342  14.321  -5.012  1.00 20.00     0.223 C 
HETATM    2  C2  UNL     1     -33.420  16.313  -5.898  1.00 20.00     0.130 C 
HETATM    3  C3  UNL     1     -34.156  14.119  -6.508  1.00 20.00     0.079 C 
HETATM    4  C4  UNL     1     -34.085  15.561  -7.050  1.00 20.00     0.012 C 
HETATM    5  C5  UNL     1     -35.218  13.221  -7.117  1.00 20.00     0.020 C 
HETATM    6  C6  UNL     1     -35.445  16.176  -7.393  1.00 20.00     0.012 C 
HETATM    7  C7  UNL     1     -33.759  16.176  -3.400  1.00 20.00     0.152 C 
HETATM    8  N8  UNL     1     -33.880  15.605  -4.724  1.00 20.00    -0.356 N 
HETATM    9  O9  UNL     1     -34.767  13.483  -4.231  1.00 20.00    -0.273 OA
ENDROOT
TORSDOF 0
ENDMDL
