MODEL 1
REMARK VINA RESULT:      -4.5      0.000      0.000
REMARK  2 active torsions:
REMARK  status: ('A' for Active; 'I' for Inactive)
REMARK    1  A    between atoms: C2_2  and  C5_5 
REMARK    2  A    between atoms: C3_3  and  C6_6 
REMARK       I    between atoms: C3_3  and  N9_9 
ROOT
HETATM    1  C4  UNL     1     -31.258   8.568   3.285  1.00 20.00     0.024 A 
HETATM    2  C5  UNL     1     -31.803   8.336   1.903  1.00 20.00     0.021 A 
HETATM    3  C6  UNL     1     -31.992   7.316   2.973  1.00 20.00     0.086 A 
ENDROOT
BRANCH   3   4
HETATM    4  C3  UNL     1     -33.351   7.119   3.597  1.00 20.00     0.224 C 
HETATM    5  N9  UNL     1     -33.932   5.859   3.446  1.00 20.00    -0.360 N 
HETATM    6  C7  UNL     1     -35.240   5.534   3.999  1.00 20.00     0.152 C 
HETATM    7  C8  UNL     1     -33.271   4.776   2.724  1.00 20.00     0.152 C 
HETATM    8  O10 UNL     1     -33.878   8.058   4.199  1.00 20.00    -0.273 OA
ENDBRANCH   3   4
BRANCH   2   9
HETATM    9  C2  UNL     1     -32.897   9.170   1.430  1.00 20.00    -0.031 C 
HETATM   10  C1  UNL     1     -32.863   9.876   0.294  1.00 20.00     0.007 C 
ENDBRANCH   2   9
TORSDOF 2
ENDMDL
MODEL 2
REMARK VINA RESULT:      -4.0     10.438     11.228
REMARK  2 active torsions:
REMARK  status: ('A' for Active; 'I' for Inactive)
REMARK    1  A    between atoms: C2_2  and  C5_5 
REMARK    2  A    between atoms: C3_3  and  C6_6 
REMARK       I    between atoms: C3_3  and  N9_9 
ROOT
HETATM    1  C4  UNL     1     -32.970  14.464  -4.433  1.00 20.00     0.024 A 
HETATM    2  C5  UNL     1     -33.607  15.796  -4.151  1.00 20.00     0.021 A 
HETATM    3  C6  UNL     1     -34.076  14.961  -5.291  1.00 20.00     0.086 A 
ENDROOT
BRANCH   3   4
HETATM    4  C3  UNL     1     -35.405  14.251  -5.212  1.00 20.00     0.224 C 
HETATM    5  N9  UNL     1     -36.529  14.984  -5.593  1.00 20.00    -0.360 N 
HETATM    6  C7  UNL     1     -37.872  14.421  -5.565  1.00 20.00     0.152 C 
HETATM    7  C8  UNL     1     -36.441  16.369  -6.049  1.00 20.00     0.152 C 
HETATM    8  O10 UNL     1     -35.439  13.081  -4.821  1.00 20.00    -0.273 OA
ENDBRANCH   3   4
BRANCH   2   9
HETATM    9  C2  UNL     1     -34.392  15.957  -2.936  1.00 20.00    -0.031 C 
HETATM   10  C1  UNL     1     -34.207  16.940  -2.049  1.00 20.00     0.007 C 
ENDBRANCH   2   9
TORSDOF 2
ENDMDL
MODEL 3
REMARK VINA RESULT:      -3.9     10.822     11.669
REMARK  2 active torsions:
REMARK  status: ('A' for Active; 'I' for Inactive)
REMARK    1  A    between atoms: C2_2  and  C5_5 
REMARK    2  A    between atoms: C3_3  and  C6_6 
REMARK       I    between atoms: C3_3  and  N9_9 
ROOT
HETATM    1  C4  UNL     1     -35.657  17.181  -1.844  1.00 20.00     0.024 A 
HETATM    2  C5  UNL     1     -34.200  16.885  -1.621  1.00 20.00     0.021 A 
HETATM    3  C6  UNL     1     -34.941  16.241  -2.742  1.00 20.00     0.086 A 
ENDROOT
BRANCH   3   4
HETATM    4  C3  UNL     1     -34.687  16.677  -4.164  1.00 20.00     0.224 C 
HETATM    5  N9  UNL     1     -33.807  15.893  -4.911  1.00 20.00    -0.360 N 
HETATM    6  C7  UNL     1     -33.474  16.201  -6.296  1.00 20.00     0.152 C 
HETATM    7  C8  UNL     1     -33.155  14.708  -4.360  1.00 20.00     0.152 C 
HETATM    8  O10 UNL     1     -35.256  17.684  -4.594  1.00 20.00    -0.273 OA
ENDBRANCH   3   4
BRANCH   2   9
HETATM    9  C2  UNL     1     -33.226  17.942  -1.846  1.00 20.00    -0.031 C 
HETATM   10  C1  UNL     1     -32.376  18.387  -0.915  1.00 20.00     0.007 C 
ENDBRANCH   2   9
TORSDOF 2
ENDMDL
MODEL 4
REMARK VINA RESULT:      -3.9      1.838      4.327
REMARK  2 active torsions:
REMARK  status: ('A' for Active; 'I' for Inactive)
REMARK    1  A    between atoms: C2_2  and  C5_5 
REMARK    2  A    between atoms: C3_3  and  C6_6 
REMARK       I    between atoms: C3_3  and  N9_9 
ROOT
HETATM    1  C4  UNL     1     -33.411   7.391   5.079  1.00 20.00     0.024 A 
HETATM    2  C5  UNL     1     -34.430   6.694   4.220  1.00 20.00     0.021 A 
HETATM    3  C6  UNL     1     -33.671   7.864   3.695  1.00 20.00     0.086 A 
ENDROOT
BRANCH   3   4
HETATM    4  C3  UNL     1     -32.589   7.661   2.664  1.00 20.00     0.224 C 
HETATM    5  N9  UNL     1     -32.403   8.691   1.741  1.00 20.00    -0.360 N 
HETATM    6  C7  UNL     1     -31.393   8.624   0.693  1.00 20.00     0.152 C 
HETATM    7  C8  UNL     1     -33.206   9.910   1.759  1.00 20.00     0.152 C 
HETATM    8  O10 UNL     1     -31.930   6.617   2.681  1.00 20.00    -0.273 OA
ENDBRANCH   3   4
BRANCH   2   9
HETATM    9  C2  UNL     1     -34.162   5.336   3.774  1.00 20.00    -0.031 C 
HETATM   10  C1  UNL     1     -34.444   4.243   4.490  1.00 20.00     0.007 C 
ENDBRANCH   2   9
TORSDOF 2
ENDMDL
MODEL 5
REMARK VINA RESULT:      -3.9     10.560     11.242
REMARK  2 active torsions:
REMARK  status: ('A' for Active; 'I' for Inactive)
REMARK    1  A    between atoms: C2_2  and  C5_5 
REMARK    2  A    between atoms: C3_3  and  C6_6 
REMARK       I    between atoms: C3_3  and  N9_9 
ROOT
HETATM    1  C4  UNL     1     -33.676  16.387  -3.137  1.00 20.00     0.024 A 
HETATM    2  C5  UNL     1     -33.432  15.846  -4.518  1.00 20.00     0.021 A 
HETATM    3  C6  UNL     1     -34.489  15.256  -3.651  1.00 20.00     0.086 A 
ENDROOT
BRANCH   3   4
HETATM    4  C3  UNL     1     -35.945  15.512  -3.953  1.00 20.00     0.224 C 
HETATM    5  N9  UNL     1     -36.596  14.565  -4.744  1.00 20.00    -0.360 N 
HETATM    6  C7  UNL     1     -38.000  14.689  -5.112  1.00 20.00     0.152 C 
HETATM    7  C8  UNL     1     -35.917  13.380  -5.261  1.00 20.00     0.152 C 
HETATM    8  O10 UNL     1     -36.484  16.525  -3.499  1.00 20.00    -0.273 OA
ENDBRANCH   3   4
BRANCH   2   9
HETATM    9  C2  UNL     1     -33.751  16.680  -5.667  1.00 20.00    -0.031 C 
HETATM   10  C1  UNL     1     -33.778  16.239  -6.929  1.00 20.00     0.007 C 
ENDBRANCH   2   9
TORSDOF 2
ENDMDL
MODEL 6
REMARK VINA RESULT:      -3.8      1.234      1.580
REMARK  2 active torsions:
REMARK  status: ('A' for Active; 'I' for Inactive)
REMARK    1  A    between atoms: C2_2  and  C5_5 
REMARK    2  A    between atoms: C3_3  and  C6_6 
REMARK       I    between atoms: C3_3  and  N9_9 
ROOT
HETATM    1  C4  UNL     1     -31.855   8.603   3.583  1.00 20.00     0.024 A 
HETATM    2  C5  UNL     1     -31.773   8.471   2.087  1.00 20.00     0.021 A 
HETATM    3  C6  UNL     1     -31.922   7.264   2.947  1.00 20.00     0.086 A 
ENDROOT
BRANCH   3   4
HETATM    4  C3  UNL     1     -33.236   6.525   2.992  1.00 20.00     0.224 C 
HETATM    5  N9  UNL     1     -33.908   6.518   4.214  1.00 20.00    -0.360 N 
HETATM    6  C7  UNL     1     -35.187   5.843   4.397  1.00 20.00     0.152 C 
HETATM    7  C8  UNL     1     -33.380   7.187   5.400  1.00 20.00     0.152 C 
HETATM    8  O10 UNL     1     -33.650   5.972   1.969  1.00 20.00    -0.273 OA
ENDBRANCH   3   4
BRANCH   2   9
HETATM    9  C2  UNL     1     -32.868   8.981   1.276  1.00 20.00    -0.031 C 
HETATM   10  C1  UNL     1     -32.723   9.898   0.314  1.00 20.00     0.007 C 
ENDBRANCH   2   9
TORSDOF 2
ENDMDL
MODEL 7
REMARK VINA RESULT:      -3.8      1.658      4.072
REMARK  2 active torsions:
REMARK  status: ('A' for Active; 'I' for Inactive)
REMARK    1  A    between atoms: C2_2  and  C5_5 
REMARK    2  A    between atoms: C3_3  and  C6_6 
REMARK       I    between atoms: C3_3  and  N9_9 
ROOT
HETATM    1  C4  UNL     1     -35.005   5.559   5.383  1.00 20.00     0.024 A 
HETATM    2  C5  UNL     1     -34.657   5.208   3.963  1.00 20.00     0.021 A 
HETATM    3  C6  UNL     1     -34.624   6.625   4.422  1.00 20.00     0.086 A 
ENDROOT
BRANCH   3   4
HETATM    4  C3  UNL     1     -33.302   7.322   4.627  1.00 20.00     0.224 C 
HETATM    5  N9  UNL     1     -32.666   7.807   3.484  1.00 20.00    -0.360 N 
HETATM    6  C7  UNL     1     -31.386   8.499   3.539  1.00 20.00     0.152 C 
HETATM    7  C8  UNL     1     -33.238   7.655   2.148  1.00 20.00     0.152 C 
HETATM    8  O10 UNL     1     -32.851   7.431   5.771  1.00 20.00    -0.273 OA
ENDBRANCH   3   4
BRANCH   2   9
HETATM    9  C2  UNL     1     -33.441   4.451   3.704  1.00 20.00    -0.031 C 
HETATM   10  C1  UNL     1     -32.903   4.292   2.491  1.00 20.00     0.007 C 
ENDBRANCH   2   9
TORSDOF 2
ENDMDL
MODEL 8
REMARK VINA RESULT:      -3.6     10.785     11.696
REMARK  2 active torsions:
REMARK  status: ('A' for Active; 'I' for Inactive)
REMARK    1  A    between atoms: C2_2  and  C5_5 
REMARK    2  A    between atoms: C3_3  and  C6_6 
REMARK       I    between atoms: C3_3  and  N9_9 
ROOT
HETATM    1  C4  UNL     1     -33.677  16.073  -3.351  1.00 20.00     0.024 A 
HETATM    2  C5  UNL     1     -34.233  16.882  -4.489  1.00 20.00     0.021 A 
HETATM    3  C6  UNL     1     -33.491  15.617  -4.751  1.00 20.00     0.086 A 
ENDROOT
BRANCH   3   4
HETATM    4  C3  UNL     1     -34.235  14.383  -5.198  1.00 20.00     0.224 C 
HETATM    5  N9  UNL     1     -34.380  14.203  -6.574  1.00 20.00    -0.360 N 
HETATM    6  C7  UNL     1     -35.077  13.056  -7.140  1.00 20.00     0.152 C 
HETATM    7  C8  UNL     1     -33.845  15.152  -7.546  1.00 20.00     0.152 C 
HETATM    8  O10 UNL     1     -34.673  13.605  -4.346  1.00 20.00    -0.273 OA
ENDBRANCH   3   4
BRANCH   2   9
HETATM    9  C2  UNL     1     -35.676  16.977  -4.646  1.00 20.00    -0.031 C 
HETATM   10  C1  UNL     1     -36.281  17.487  -5.724  1.00 20.00     0.007 C 
ENDBRANCH   2   9
TORSDOF 2
ENDMDL
MODEL 9
REMARK VINA RESULT:      -3.6     10.635     11.733
REMARK  2 active torsions:
REMARK  status: ('A' for Active; 'I' for Inactive)
REMARK    1  A    between atoms: C2_2  and  C5_5 
REMARK    2  A    between atoms: C3_3  and  C6_6 
REMARK       I    between atoms: C3_3  and  N9_9 
ROOT
HETATM    1  C4  UNL     1     -35.160  12.947  -6.899  1.00 20.00     0.024 A 
HETATM    2  C5  UNL     1     -35.190  14.382  -7.346  1.00 20.00     0.021 A 
HETATM    3  C6  UNL     1     -35.862  13.968  -6.082  1.00 20.00     0.086 A 
ENDROOT
BRANCH   3   4
HETATM    4  C3  UNL     1     -35.263  14.341  -4.750  1.00 20.00     0.224 C 
HETATM    5  N9  UNL     1     -35.672  15.556  -4.198  1.00 20.00    -0.360 N 
HETATM    6  C7  UNL     1     -35.171  16.038  -2.917  1.00 20.00     0.152 C 
HETATM    7  C8  UNL     1     -36.632  16.432  -4.863  1.00 20.00     0.152 C 
HETATM    8  O10 UNL     1     -34.454  13.575  -4.218  1.00 20.00    -0.273 OA
ENDBRANCH   3   4
BRANCH   2   9
HETATM    9  C2  UNL     1     -33.951  15.144  -7.347  1.00 20.00    -0.031 C 
HETATM   10  C1  UNL     1     -33.891  16.476  -7.446  1.00 20.00     0.007 C 
ENDBRANCH   2   9
TORSDOF 2
ENDMDL
