MODEL 1
REMARK VINA RESULT:      -5.5      0.000      0.000
REMARK  2 active torsions:
REMARK  status: ('A' for Active; 'I' for Inactive)
REMARK    1  A    between atoms: C3_3  and  C4_4 
REMARK    2  A    between atoms: C3_3  and  O10_10 
ROOT
HETATM    1  C1  UNL     1     -33.469   6.808   3.709  1.00 20.00    -0.065 A 
HETATM    2  C2  UNL     1     -34.151   7.083   4.800  1.00 20.00    -0.027 C 
HETATM    3  C4  UNL     1     -33.003   7.287   2.463  1.00 20.00     0.122 A 
HETATM    4  C5  UNL     1     -32.724   5.838   3.009  1.00 20.00     0.029 A 
HETATM    5  C6  UNL     1     -34.371   6.123   5.937  1.00 20.00     0.036 C 
HETATM    6  C7  UNL     1     -33.384   4.663   2.380  1.00 20.00     0.016 C 
ENDROOT
BRANCH   3   7
HETATM    7  C3  UNL     1     -31.936   8.286   2.527  1.00 20.00     0.267 C 
HETATM    8  O9  UNL     1     -31.295   8.539   3.537  1.00 20.00    -0.265 OA
BRANCH   7   9
HETATM    9  O10 UNL     1     -31.786   8.871   1.305  1.00 20.00    -0.326 OA
HETATM   10  C8  UNL     1     -32.612  10.015   1.065  1.00 20.00     0.213 C 
ENDBRANCH   7   9
ENDBRANCH   3   7
TORSDOF 2
ENDMDL
MODEL 2
REMARK VINA RESULT:      -4.7      2.452      4.451
REMARK  2 active torsions:
REMARK  status: ('A' for Active; 'I' for Inactive)
REMARK    1  A    between atoms: C3_3  and  C4_4 
REMARK    2  A    between atoms: C3_3  and  O10_10 
ROOT
HETATM    1  C1  UNL     1     -33.219   7.211   3.222  1.00 20.00    -0.065 A 
HETATM    2  C2  UNL     1     -32.861   7.882   2.149  1.00 20.00    -0.027 C 
HETATM    3  C4  UNL     1     -34.049   6.196   3.751  1.00 20.00     0.122 A 
HETATM    4  C5  UNL     1     -33.030   7.035   4.608  1.00 20.00     0.029 A 
HETATM    5  C6  UNL     1     -31.826   8.973   2.126  1.00 20.00     0.036 C 
HETATM    6  C7  UNL     1     -33.527   8.037   5.589  1.00 20.00     0.016 C 
ENDROOT
BRANCH   3   7
HETATM    7  C3  UNL     1     -33.696   4.828   3.371  1.00 20.00     0.267 C 
HETATM    8  O9  UNL     1     -32.928   4.546   2.461  1.00 20.00    -0.265 OA
BRANCH   7   9
HETATM    9  O10 UNL     1     -34.354   3.947   4.178  1.00 20.00    -0.326 OA
HETATM   10  C8  UNL     1     -34.706   4.445   5.473  1.00 20.00     0.213 C 
ENDBRANCH   7   9
ENDBRANCH   3   7
TORSDOF 2
ENDMDL
MODEL 3
REMARK VINA RESULT:      -4.6      1.127      2.333
REMARK  2 active torsions:
REMARK  status: ('A' for Active; 'I' for Inactive)
REMARK    1  A    between atoms: C3_3  and  C4_4 
REMARK    2  A    between atoms: C3_3  and  O10_10 
ROOT
HETATM    1  C1  UNL     1     -33.113   6.372   3.537  1.00 20.00    -0.065 A 
HETATM    2  C2  UNL     1     -33.187   5.101   3.208  1.00 20.00    -0.027 C 
HETATM    3  C4  UNL     1     -32.432   7.597   3.351  1.00 20.00     0.122 A 
HETATM    4  C5  UNL     1     -33.661   7.412   4.315  1.00 20.00     0.029 A 
HETATM    5  C6  UNL     1     -34.203   4.132   3.750  1.00 20.00     0.036 C 
HETATM    6  C7  UNL     1     -33.467   7.458   5.790  1.00 20.00     0.016 C 
ENDROOT
BRANCH   3   7
HETATM    7  C3  UNL     1     -32.638   8.246   2.056  1.00 20.00     0.267 C 
HETATM    8  O9  UNL     1     -33.232   7.730   1.119  1.00 20.00    -0.265 OA
BRANCH   7   9
HETATM    9  O10 UNL     1     -32.071   9.485   2.073  1.00 20.00    -0.326 OA
HETATM   10  C8  UNL     1     -32.586  10.410   1.110  1.00 20.00     0.213 C 
ENDBRANCH   7   9
ENDBRANCH   3   7
TORSDOF 2
ENDMDL
MODEL 4
REMARK VINA RESULT:      -4.4      2.269      4.406
REMARK  2 active torsions:
REMARK  status: ('A' for Active; 'I' for Inactive)
REMARK    1  A    between atoms: C3_3  and  C4_4 
REMARK    2  A    between atoms: C3_3  and  O10_10 
ROOT
HETATM    1  C1  UNL     1     -32.775   7.914   2.483  1.00 20.00    -0.065 A 
HETATM    2  C2  UNL     1     -32.833   8.406   1.264  1.00 20.00    -0.027 C 
HETATM    3  C4  UNL     1     -33.476   7.254   3.518  1.00 20.00     0.122 A 
HETATM    4  C5  UNL     1     -31.973   7.704   3.622  1.00 20.00     0.029 A 
HETATM    5  C6  UNL     1     -31.688   9.075   0.554  1.00 20.00     0.036 C 
HETATM    6  C7  UNL     1     -31.590   8.830   4.515  1.00 20.00     0.016 C 
ENDROOT
BRANCH   3   7
HETATM    7  C3  UNL     1     -33.779   5.843   3.278  1.00 20.00     0.267 C 
HETATM    8  O9  UNL     1     -33.147   5.128   2.513  1.00 20.00    -0.265 OA
BRANCH   7   9
HETATM    9  O10 UNL     1     -34.855   5.474   4.029  1.00 20.00    -0.326 OA
HETATM   10  C8  UNL     1     -34.616   5.369   5.436  1.00 20.00     0.213 C 
ENDBRANCH   7   9
ENDBRANCH   3   7
TORSDOF 2
ENDMDL
MODEL 5
REMARK VINA RESULT:      -4.2      2.174      4.083
REMARK  2 active torsions:
REMARK  status: ('A' for Active; 'I' for Inactive)
REMARK    1  A    between atoms: C3_3  and  C4_4 
REMARK    2  A    between atoms: C3_3  and  O10_10 
ROOT
HETATM    1  C1  UNL     1     -33.324   6.225   3.122  1.00 20.00    -0.065 A 
HETATM    2  C2  UNL     1     -33.553   5.018   2.650  1.00 20.00    -0.027 C 
HETATM    3  C4  UNL     1     -33.833   7.307   3.875  1.00 20.00     0.122 A 
HETATM    4  C5  UNL     1     -32.410   7.294   3.205  1.00 20.00     0.029 A 
HETATM    5  C6  UNL     1     -32.580   4.225   1.820  1.00 20.00     0.036 C 
HETATM    6  C7  UNL     1     -32.129   8.163   2.031  1.00 20.00     0.016 C 
ENDROOT
BRANCH   3   7
HETATM    7  C3  UNL     1     -33.940   7.081   5.317  1.00 20.00     0.267 C 
HETATM    8  O9  UNL     1     -33.225   7.621   6.149  1.00 20.00    -0.265 OA
BRANCH   7   9
HETATM    9  O10 UNL     1     -34.942   6.191   5.565  1.00 20.00    -0.326 OA
HETATM   10  C8  UNL     1     -34.518   4.893   5.993  1.00 20.00     0.213 C 
ENDBRANCH   7   9
ENDBRANCH   3   7
TORSDOF 2
ENDMDL
MODEL 6
REMARK VINA RESULT:      -4.2      2.110      4.088
REMARK  2 active torsions:
REMARK  status: ('A' for Active; 'I' for Inactive)
REMARK    1  A    between atoms: C3_3  and  C4_4 
REMARK    2  A    between atoms: C3_3  and  O10_10 
ROOT
HETATM    1  C1  UNL     1     -32.842   7.280   3.281  1.00 20.00    -0.065 A 
HETATM    2  C2  UNL     1     -31.926   8.154   2.922  1.00 20.00    -0.027 C 
HETATM    3  C4  UNL     1     -33.262   6.355   4.264  1.00 20.00     0.122 A 
HETATM    4  C5  UNL     1     -34.051   6.644   2.934  1.00 20.00     0.029 A 
HETATM    5  C6  UNL     1     -31.955   8.949   1.645  1.00 20.00     0.036 C 
HETATM    6  C7  UNL     1     -34.103   5.617   1.858  1.00 20.00     0.016 C 
ENDROOT
BRANCH   3   7
HETATM    7  C3  UNL     1     -33.746   6.937   5.516  1.00 20.00     0.267 C 
HETATM    8  O9  UNL     1     -33.363   8.008   5.966  1.00 20.00    -0.265 OA
BRANCH   7   9
HETATM    9  O10 UNL     1     -34.667   6.105   6.079  1.00 20.00    -0.326 OA
HETATM   10  C8  UNL     1     -34.594   4.737   5.666  1.00 20.00     0.213 C 
ENDBRANCH   7   9
ENDBRANCH   3   7
TORSDOF 2
ENDMDL
MODEL 7
REMARK VINA RESULT:      -4.2     10.242     11.189
REMARK  2 active torsions:
REMARK  status: ('A' for Active; 'I' for Inactive)
REMARK    1  A    between atoms: C3_3  and  C4_4 
REMARK    2  A    between atoms: C3_3  and  O10_10 
ROOT
HETATM    1  C1  UNL     1     -34.645  16.110  -3.280  1.00 20.00    -0.065 A 
HETATM    2  C2  UNL     1     -33.697  16.710  -2.593  1.00 20.00    -0.027 C 
HETATM    3  C4  UNL     1     -34.961  15.350  -4.429  1.00 20.00     0.122 A 
HETATM    4  C5  UNL     1     -36.019  15.806  -3.358  1.00 20.00     0.029 A 
HETATM    5  C6  UNL     1     -33.914  17.454  -1.303  1.00 20.00     0.036 C 
HETATM    6  C7  UNL     1     -37.023  16.849  -3.697  1.00 20.00     0.016 C 
ENDROOT
BRANCH   3   7
HETATM    7  C3  UNL     1     -34.495  13.963  -4.420  1.00 20.00     0.267 C 
HETATM    8  O9  UNL     1     -33.392  13.614  -4.023  1.00 20.00    -0.265 OA
BRANCH   7   9
HETATM    9  O10 UNL     1     -35.471  13.151  -4.917  1.00 20.00    -0.326 OA
HETATM   10  C8  UNL     1     -35.870  13.423  -6.264  1.00 20.00     0.213 C 
ENDBRANCH   7   9
ENDBRANCH   3   7
TORSDOF 2
ENDMDL
MODEL 8
REMARK VINA RESULT:      -4.1     10.910     11.646
REMARK  2 active torsions:
REMARK  status: ('A' for Active; 'I' for Inactive)
REMARK    1  A    between atoms: C3_3  and  C4_4 
REMARK    2  A    between atoms: C3_3  and  O10_10 
ROOT
HETATM    1  C1  UNL     1     -35.411  15.641  -4.109  1.00 20.00    -0.065 A 
HETATM    2  C2  UNL     1     -34.408  16.124  -3.408  1.00 20.00    -0.027 C 
HETATM    3  C4  UNL     1     -35.815  15.050  -5.327  1.00 20.00     0.122 A 
HETATM    4  C5  UNL     1     -36.795  15.378  -4.141  1.00 20.00     0.029 A 
HETATM    5  C6  UNL     1     -34.528  16.692  -2.020  1.00 20.00     0.036 C 
HETATM    6  C7  UNL     1     -37.788  16.477  -4.275  1.00 20.00     0.016 C 
ENDROOT
BRANCH   3   7
HETATM    7  C3  UNL     1     -35.388  13.665  -5.531  1.00 20.00     0.267 C 
HETATM    8  O9  UNL     1     -36.028  12.690  -5.161  1.00 20.00    -0.265 OA
BRANCH   7   9
HETATM    9  O10 UNL     1     -34.191  13.649  -6.183  1.00 20.00    -0.326 OA
HETATM   10  C8  UNL     1     -34.255  13.885  -7.593  1.00 20.00     0.213 C 
ENDBRANCH   7   9
ENDBRANCH   3   7
TORSDOF 2
ENDMDL
MODEL 9
REMARK VINA RESULT:      -4.1     10.807     11.721
REMARK  2 active torsions:
REMARK  status: ('A' for Active; 'I' for Inactive)
REMARK    1  A    between atoms: C3_3  and  C4_4 
REMARK    2  A    between atoms: C3_3  and  O10_10 
ROOT
HETATM    1  C1  UNL     1     -35.511  15.620  -4.026  1.00 20.00    -0.065 A 
HETATM    2  C2  UNL     1     -36.272  16.304  -3.199  1.00 20.00    -0.027 C 
HETATM    3  C4  UNL     1     -35.070  14.339  -4.429  1.00 20.00     0.122 A 
HETATM    4  C5  UNL     1     -34.590  15.683  -5.090  1.00 20.00     0.029 A 
HETATM    5  C6  UNL     1     -36.391  17.804  -3.186  1.00 20.00     0.036 C 
HETATM    6  C7  UNL     1     -33.198  16.163  -4.880  1.00 20.00     0.016 C 
ENDROOT
BRANCH   3   7
HETATM    7  C3  UNL     1     -36.060  13.519  -5.128  1.00 20.00     0.267 C 
HETATM    8  O9  UNL     1     -37.270  13.655  -5.006  1.00 20.00    -0.265 OA
BRANCH   7   9
HETATM    9  O10 UNL     1     -35.422  12.604  -5.912  1.00 20.00    -0.326 OA
HETATM   10  C8  UNL     1     -35.231  12.991  -7.276  1.00 20.00     0.213 C 
ENDBRANCH   7   9
ENDBRANCH   3   7
TORSDOF 2
ENDMDL
