MODEL 1
REMARK VINA RESULT:      -5.4      0.000      0.000
REMARK  1 active torsions:
REMARK  status: ('A' for Active; 'I' for Inactive)
REMARK    1  A    between atoms: C1_1  and  C3_3 
ROOT
HETATM    1  C1  UNL     1     -33.215   6.742   3.332  1.00 20.00     0.163 C 
HETATM    2  C2  UNL     1     -33.859   6.532   4.492  1.00 20.00    -0.045 C 
HETATM    3  C4  UNL     1     -34.801   5.395   4.778  1.00 20.00     0.046 C 
HETATM    4  C5  UNL     1     -33.655   7.462   5.659  1.00 20.00     0.046 C 
HETATM    5  F8  UNL     1     -33.401   5.895   2.294  1.00 20.00    -0.202 F 
ENDROOT
BRANCH   1   6
HETATM    6  C3  UNL     1     -32.277   7.854   3.015  1.00 20.00     0.183 C 
HETATM    7  C6  UNL     1     -32.575   8.654   1.775  1.00 20.00     0.099 C 
HETATM    8  O7  UNL     1     -31.282   8.088   3.696  1.00 20.00    -0.290 OA
ENDBRANCH   1   6
TORSDOF 1
ENDMDL
MODEL 2
REMARK VINA RESULT:      -5.1      2.418      3.889
REMARK  1 active torsions:
REMARK  status: ('A' for Active; 'I' for Inactive)
REMARK    1  A    between atoms: C1_1  and  C3_3 
ROOT
HETATM    1  C1  UNL     1     -33.687   6.982   4.601  1.00 20.00     0.163 C 
HETATM    2  C2  UNL     1     -32.805   7.242   3.621  1.00 20.00    -0.045 C 
HETATM    3  C4  UNL     1     -31.757   8.320   3.647  1.00 20.00     0.046 C 
HETATM    4  C5  UNL     1     -32.791   6.409   2.365  1.00 20.00     0.046 C 
HETATM    5  F8  UNL     1     -33.684   7.733   5.726  1.00 20.00    -0.202 F 
ENDROOT
BRANCH   1   6
HETATM    6  C3  UNL     1     -34.734   5.924   4.609  1.00 20.00     0.183 C 
HETATM    7  C6  UNL     1     -34.563   4.815   5.613  1.00 20.00     0.099 C 
HETATM    8  O7  UNL     1     -35.669   5.919   3.813  1.00 20.00    -0.290 OA
ENDBRANCH   1   6
TORSDOF 1
ENDMDL
MODEL 3
REMARK VINA RESULT:      -5.1      2.037      3.335
REMARK  1 active torsions:
REMARK  status: ('A' for Active; 'I' for Inactive)
REMARK    1  A    between atoms: C1_1  and  C3_3 
ROOT
HETATM    1  C1  UNL     1     -33.572   6.367   3.391  1.00 20.00     0.163 C 
HETATM    2  C2  UNL     1     -32.901   7.325   4.053  1.00 20.00    -0.045 C 
HETATM    3  C4  UNL     1     -31.750   8.125   3.510  1.00 20.00     0.046 C 
HETATM    4  C5  UNL     1     -33.294   7.700   5.459  1.00 20.00     0.046 C 
HETATM    5  F8  UNL     1     -33.213   6.045   2.127  1.00 20.00    -0.202 F 
ENDROOT
BRANCH   1   6
HETATM    6  C3  UNL     1     -34.714   5.558   3.896  1.00 20.00     0.183 C 
HETATM    7  C6  UNL     1     -34.373   4.245   4.550  1.00 20.00     0.099 C 
HETATM    8  O7  UNL     1     -35.882   5.910   3.753  1.00 20.00    -0.290 OA
ENDBRANCH   1   6
TORSDOF 1
ENDMDL
MODEL 4
REMARK VINA RESULT:      -5.0      1.742      2.251
REMARK  1 active torsions:
REMARK  status: ('A' for Active; 'I' for Inactive)
REMARK    1  A    between atoms: C1_1  and  C3_3 
ROOT
HETATM    1  C1  UNL     1     -33.554   6.897   3.821  1.00 20.00     0.163 C 
HETATM    2  C2  UNL     1     -33.778   5.579   3.684  1.00 20.00    -0.045 C 
HETATM    3  C4  UNL     1     -34.684   4.748   4.549  1.00 20.00     0.046 C 
HETATM    4  C5  UNL     1     -33.113   4.803   2.577  1.00 20.00     0.046 C 
HETATM    5  F8  UNL     1     -34.163   7.583   4.815  1.00 20.00    -0.202 F 
ENDROOT
BRANCH   1   6
HETATM    6  C3  UNL     1     -32.666   7.749   2.984  1.00 20.00     0.183 C 
HETATM    7  C6  UNL     1     -31.389   8.224   3.624  1.00 20.00     0.099 C 
HETATM    8  O7  UNL     1     -32.969   8.093   1.844  1.00 20.00    -0.290 OA
ENDBRANCH   1   6
TORSDOF 1
ENDMDL
MODEL 5
REMARK VINA RESULT:      -4.6      1.582      3.275
REMARK  1 active torsions:
REMARK  status: ('A' for Active; 'I' for Inactive)
REMARK    1  A    between atoms: C1_1  and  C3_3 
ROOT
HETATM    1  C1  UNL     1     -33.817   6.796   3.760  1.00 20.00     0.163 C 
HETATM    2  C2  UNL     1     -32.821   7.536   3.244  1.00 20.00    -0.045 C 
HETATM    3  C4  UNL     1     -32.593   7.803   1.782  1.00 20.00     0.046 C 
HETATM    4  C5  UNL     1     -31.818   8.205   4.149  1.00 20.00     0.046 C 
HETATM    5  F8  UNL     1     -34.714   6.208   2.937  1.00 20.00    -0.202 F 
ENDROOT
BRANCH   1   6
HETATM    6  C3  UNL     1     -34.072   6.513   5.199  1.00 20.00     0.183 C 
HETATM    7  C6  UNL     1     -34.564   5.130   5.536  1.00 20.00     0.099 C 
HETATM    8  O7  UNL     1     -33.937   7.367   6.071  1.00 20.00    -0.290 OA
ENDBRANCH   1   6
TORSDOF 1
ENDMDL
MODEL 6
REMARK VINA RESULT:      -4.5      2.201      2.795
REMARK  1 active torsions:
REMARK  status: ('A' for Active; 'I' for Inactive)
REMARK    1  A    between atoms: C1_1  and  C3_3 
ROOT
HETATM    1  C1  UNL     1     -33.573   6.783   3.814  1.00 20.00     0.163 C 
HETATM    2  C2  UNL     1     -33.930   6.625   5.100  1.00 20.00    -0.045 C 
HETATM    3  C4  UNL     1     -33.657   7.599   6.213  1.00 20.00     0.046 C 
HETATM    4  C5  UNL     1     -34.691   5.400   5.537  1.00 20.00     0.046 C 
HETATM    5  F8  UNL     1     -32.897   7.890   3.435  1.00 20.00    -0.202 F 
ENDROOT
BRANCH   1   6
HETATM    6  C3  UNL     1     -33.829   5.842   2.690  1.00 20.00     0.183 C 
HETATM    7  C6  UNL     1     -32.895   4.666   2.571  1.00 20.00     0.099 C 
HETATM    8  O7  UNL     1     -34.722   6.026   1.868  1.00 20.00    -0.290 OA
ENDBRANCH   1   6
TORSDOF 1
ENDMDL
MODEL 7
REMARK VINA RESULT:      -4.5      2.441      3.705
REMARK  1 active torsions:
REMARK  status: ('A' for Active; 'I' for Inactive)
REMARK    1  A    between atoms: C1_1  and  C3_3 
ROOT
HETATM    1  C1  UNL     1     -33.466   7.059   4.778  1.00 20.00     0.163 C 
HETATM    2  C2  UNL     1     -32.704   7.303   3.699  1.00 20.00    -0.045 C 
HETATM    3  C4  UNL     1     -31.697   8.412   3.569  1.00 20.00     0.046 C 
HETATM    4  C5  UNL     1     -32.796   6.419   2.482  1.00 20.00     0.046 C 
HETATM    5  F8  UNL     1     -33.367   7.856   5.866  1.00 20.00    -0.202 F 
ENDROOT
BRANCH   1   6
HETATM    6  C3  UNL     1     -34.469   5.971   4.941  1.00 20.00     0.183 C 
HETATM    7  C6  UNL     1     -35.509   5.847   3.858  1.00 20.00     0.099 C 
HETATM    8  O7  UNL     1     -34.488   5.236   5.924  1.00 20.00    -0.290 OA
ENDBRANCH   1   6
TORSDOF 1
ENDMDL
MODEL 8
REMARK VINA RESULT:      -4.3      1.773      2.106
REMARK  1 active torsions:
REMARK  status: ('A' for Active; 'I' for Inactive)
REMARK    1  A    between atoms: C1_1  and  C3_3 
ROOT
HETATM    1  C1  UNL     1     -32.891   7.417   4.073  1.00 20.00     0.163 C 
HETATM    2  C2  UNL     1     -33.860   6.878   4.833  1.00 20.00    -0.045 C 
HETATM    3  C4  UNL     1     -34.056   7.115   6.304  1.00 20.00     0.046 C 
HETATM    4  C5  UNL     1     -34.888   5.961   4.222  1.00 20.00     0.046 C 
HETATM    5  F8  UNL     1     -31.979   8.244   4.632  1.00 20.00    -0.202 F 
ENDROOT
BRANCH   1   6
HETATM    6  C3  UNL     1     -32.670   7.204   2.617  1.00 20.00     0.183 C 
HETATM    7  C6  UNL     1     -32.411   8.435   1.788  1.00 20.00     0.099 C 
HETATM    8  O7  UNL     1     -32.738   6.094   2.097  1.00 20.00    -0.290 OA
ENDBRANCH   1   6
TORSDOF 1
ENDMDL
MODEL 9
REMARK VINA RESULT:      -4.3      1.996      3.340
REMARK  1 active torsions:
REMARK  status: ('A' for Active; 'I' for Inactive)
REMARK    1  A    between atoms: C1_1  and  C3_3 
ROOT
HETATM    1  C1  UNL     1     -33.712   6.102   3.285  1.00 20.00     0.163 C 
HETATM    2  C2  UNL     1     -33.012   7.243   3.413  1.00 20.00    -0.045 C 
HETATM    3  C4  UNL     1     -32.514   8.098   2.282  1.00 20.00     0.046 C 
HETATM    4  C5  UNL     1     -32.676   7.784   4.779  1.00 20.00     0.046 C 
HETATM    5  F8  UNL     1     -34.011   5.631   2.054  1.00 20.00    -0.202 F 
ENDROOT
BRANCH   1   6
HETATM    6  C3  UNL     1     -34.220   5.234   4.381  1.00 20.00     0.183 C 
HETATM    7  C6  UNL     1     -34.639   5.927   5.651  1.00 20.00     0.099 C 
HETATM    8  O7  UNL     1     -34.258   4.010   4.286  1.00 20.00    -0.290 OA
ENDBRANCH   1   6
TORSDOF 1
ENDMDL
