MODEL 1
REMARK VINA RESULT:      -5.0      0.000      0.000
REMARK  1 active torsions:
REMARK  status: ('A' for Active; 'I' for Inactive)
REMARK    1  A    between atoms: C1_1  and  C6_6 
ROOT
HETATM    1  C2  UNL     1     -33.583  14.545  -4.208  1.00 20.00     0.010 C 
HETATM    2  C3  UNL     1     -33.552  17.067  -4.058  1.00 20.00     0.010 C 
HETATM    3  C4  UNL     1     -35.563  15.988  -3.605  1.00 20.00     0.010 C 
HETATM    4  C5  UNL     1     -33.449  15.982  -6.270  1.00 20.00     0.010 C 
HETATM    5  C6  UNL     1     -35.474  14.918  -5.881  1.00 20.00     0.081 C 
HETATM    6  C7  UNL     1     -34.062  15.785  -3.397  1.00 20.00    -0.013 C 
HETATM    7  C8  UNL     1     -33.973  14.653  -5.716  1.00 20.00    -0.001 C 
HETATM    8  C9  UNL     1     -34.253  16.983  -5.422  1.00 20.00    -0.009 C 
HETATM    9  C10 UNL     1     -35.615  16.247  -5.121  1.00 20.00     0.003 C 
ENDROOT
BRANCH   5  10
HETATM   10  C1  UNL     1     -36.350  13.796  -5.417  1.00 20.00     0.223 C 
HETATM   11  O11 UNL     1     -35.900  12.676  -5.198  1.00 20.00    -0.279 OA
HETATM   12 CL12 UNL     1     -38.008  14.288  -5.246  1.00 20.00    -0.043 Cl
ENDBRANCH   5  10
TORSDOF 1
ENDMDL
MODEL 2
REMARK VINA RESULT:      -4.9      0.769      2.276
REMARK  1 active torsions:
REMARK  status: ('A' for Active; 'I' for Inactive)
REMARK    1  A    between atoms: C1_1  and  C6_6 
ROOT
HETATM    1  C2  UNL     1     -35.794  16.650  -5.171  1.00 20.00     0.010 C 
HETATM    2  C3  UNL     1     -33.382  17.196  -4.651  1.00 20.00     0.010 C 
HETATM    3  C4  UNL     1     -33.795  15.400  -6.071  1.00 20.00     0.010 C 
HETATM    4  C5  UNL     1     -34.796  16.168  -2.911  1.00 20.00     0.010 C 
HETATM    5  C6  UNL     1     -35.202  14.335  -4.276  1.00 20.00     0.081 C 
HETATM    6  C7  UNL     1     -34.357  16.787  -5.757  1.00 20.00    -0.013 C 
HETATM    7  C8  UNL     1     -35.829  15.693  -3.939  1.00 20.00    -0.001 C 
HETATM    8  C9  UNL     1     -33.493  15.987  -3.710  1.00 20.00    -0.009 C 
HETATM    9  C10 UNL     1     -33.779  14.767  -4.669  1.00 20.00     0.003 C 
ENDROOT
BRANCH   5  10
HETATM   10  C1  UNL     1     -35.958  13.547  -5.299  1.00 20.00     0.223 C 
HETATM   11  O11 UNL     1     -35.434  12.629  -5.923  1.00 20.00    -0.279 OA
HETATM   12 CL12 UNL     1     -37.600  14.094  -5.464  1.00 20.00    -0.043 Cl
ENDBRANCH   5  10
TORSDOF 1
ENDMDL
MODEL 3
REMARK VINA RESULT:      -4.8      1.085      2.276
REMARK  1 active torsions:
REMARK  status: ('A' for Active; 'I' for Inactive)
REMARK    1  A    between atoms: C1_1  and  C6_6 
ROOT
HETATM    1  C2  UNL     1     -34.888  16.547  -5.851  1.00 20.00     0.010 C 
HETATM    2  C3  UNL     1     -33.563  16.673  -3.703  1.00 20.00     0.010 C 
HETATM    3  C4  UNL     1     -33.414  14.711  -4.944  1.00 20.00     0.010 C 
HETATM    4  C5  UNL     1     -36.017  16.444  -3.604  1.00 20.00     0.010 C 
HETATM    5  C6  UNL     1     -35.914  14.459  -4.802  1.00 20.00     0.081 C 
HETATM    6  C7  UNL     1     -33.529  16.220  -5.164  1.00 20.00    -0.013 C 
HETATM    7  C8  UNL     1     -36.096  15.960  -5.056  1.00 20.00    -0.001 C 
HETATM    8  C9  UNL     1     -34.697  15.792  -3.156  1.00 20.00    -0.009 C 
HETATM    9  C10 UNL     1     -34.602  14.462  -3.999  1.00 20.00     0.003 C 
ENDROOT
BRANCH   5  10
HETATM   10  C1  UNL     1     -35.927  13.621  -6.042  1.00 20.00     0.223 C 
HETATM   11  O11 UNL     1     -35.363  12.533  -6.091  1.00 20.00    -0.279 OA
HETATM   12 CL12 UNL     1     -36.811  14.378  -7.333  1.00 20.00    -0.043 Cl
ENDBRANCH   5  10
TORSDOF 1
ENDMDL
MODEL 4
REMARK VINA RESULT:      -4.6      1.259      1.858
REMARK  1 active torsions:
REMARK  status: ('A' for Active; 'I' for Inactive)
REMARK    1  A    between atoms: C1_1  and  C6_6 
ROOT
HETATM    1  C2  UNL     1     -35.289  15.581  -3.694  1.00 20.00     0.010 C 
HETATM    2  C3  UNL     1     -33.385  16.984  -4.586  1.00 20.00     0.010 C 
HETATM    3  C4  UNL     1     -35.214  16.640  -5.983  1.00 20.00     0.010 C 
HETATM    4  C5  UNL     1     -33.089  14.547  -4.347  1.00 20.00     0.010 C 
HETATM    5  C6  UNL     1     -34.880  14.155  -5.770  1.00 20.00     0.081 C 
HETATM    6  C7  UNL     1     -34.908  16.858  -4.501  1.00 20.00    -0.013 C 
HETATM    7  C8  UNL     1     -34.601  14.305  -4.270  1.00 20.00    -0.001 C 
HETATM    8  C9  UNL     1     -33.036  15.704  -5.360  1.00 20.00    -0.009 C 
HETATM    9  C10 UNL     1     -34.277  15.464  -6.305  1.00 20.00     0.003 C 
ENDROOT
BRANCH   5  10
HETATM   10  C1  UNL     1     -36.318  13.906  -6.104  1.00 20.00     0.223 C 
HETATM   11  O11 UNL     1     -37.133  13.583  -5.246  1.00 20.00    -0.279 OA
HETATM   12 CL12 UNL     1     -36.644  14.131  -7.797  1.00 20.00    -0.043 Cl
ENDBRANCH   5  10
TORSDOF 1
ENDMDL
MODEL 5
REMARK VINA RESULT:      -4.5      1.461      2.273
REMARK  1 active torsions:
REMARK  status: ('A' for Active; 'I' for Inactive)
REMARK    1  A    between atoms: C1_1  and  C6_6 
ROOT
HETATM    1  C2  UNL     1     -36.125  15.755  -3.965  1.00 20.00     0.010 C 
HETATM    2  C3  UNL     1     -34.850  17.828  -4.645  1.00 20.00     0.010 C 
HETATM    3  C4  UNL     1     -35.514  16.372  -6.334  1.00 20.00     0.010 C 
HETATM    4  C5  UNL     1     -33.661  15.991  -3.506  1.00 20.00     0.010 C 
HETATM    5  C6  UNL     1     -34.263  14.512  -5.190  1.00 20.00     0.081 C 
HETATM    6  C7  UNL     1     -36.025  16.915  -4.999  1.00 20.00    -0.013 C 
HETATM    7  C8  UNL     1     -34.774  14.986  -3.825  1.00 20.00    -0.001 C 
HETATM    8  C9  UNL     1     -33.675  16.848  -4.784  1.00 20.00    -0.009 C 
HETATM    9  C10 UNL     1     -34.124  15.855  -5.925  1.00 20.00     0.003 C 
ENDROOT
BRANCH   5  10
HETATM   10  C1  UNL     1     -35.133  13.486  -5.848  1.00 20.00     0.223 C 
HETATM   11  O11 UNL     1     -35.963  12.842  -5.214  1.00 20.00    -0.279 OA
HETATM   12 CL12 UNL     1     -34.810  13.350  -7.550  1.00 20.00    -0.043 Cl
ENDBRANCH   5  10
TORSDOF 1
ENDMDL
MODEL 6
REMARK VINA RESULT:      -4.5      1.311      2.532
REMARK  1 active torsions:
REMARK  status: ('A' for Active; 'I' for Inactive)
REMARK    1  A    between atoms: C1_1  and  C6_6 
ROOT
HETATM    1  C2  UNL     1     -35.080  16.851  -5.510  1.00 20.00     0.010 C 
HETATM    2  C3  UNL     1     -32.949  15.509  -5.305  1.00 20.00     0.010 C 
HETATM    3  C4  UNL     1     -34.859  14.390  -6.020  1.00 20.00     0.010 C 
HETATM    4  C5  UNL     1     -34.122  16.242  -3.263  1.00 20.00     0.010 C 
HETATM    5  C6  UNL     1     -36.037  15.105  -3.914  1.00 20.00     0.081 C 
HETATM    6  C7  UNL     1     -34.188  15.756  -6.167  1.00 20.00    -0.013 C 
HETATM    7  C8  UNL     1     -35.424  16.505  -4.027  1.00 20.00    -0.001 C 
HETATM    8  C9  UNL     1     -33.599  15.002  -4.009  1.00 20.00    -0.009 C 
HETATM    9  C10 UNL     1     -34.898  14.247  -4.489  1.00 20.00     0.003 C 
ENDROOT
BRANCH   5  10
HETATM   10  C1  UNL     1     -37.371  14.964  -4.581  1.00 20.00     0.223 C 
HETATM   11  O11 UNL     1     -37.787  13.876  -4.966  1.00 20.00    -0.279 OA
HETATM   12 CL12 UNL     1     -38.197  16.486  -4.720  1.00 20.00    -0.043 Cl
ENDBRANCH   5  10
TORSDOF 1
ENDMDL
MODEL 7
REMARK VINA RESULT:      -4.4      1.531      2.009
REMARK  1 active torsions:
REMARK  status: ('A' for Active; 'I' for Inactive)
REMARK    1  A    between atoms: C1_1  and  C6_6 
ROOT
HETATM    1  C2  UNL     1     -35.053  13.964  -4.587  1.00 20.00     0.010 C 
HETATM    2  C3  UNL     1     -33.373  15.460  -5.738  1.00 20.00     0.010 C 
HETATM    3  C4  UNL     1     -35.454  16.370  -5.233  1.00 20.00     0.010 C 
HETATM    4  C5  UNL     1     -34.457  13.647  -7.012  1.00 20.00     0.010 C 
HETATM    5  C6  UNL     1     -36.552  14.542  -6.570  1.00 20.00     0.081 C 
HETATM    6  C7  UNL     1     -34.437  15.394  -4.641  1.00 20.00    -0.013 C 
HETATM    7  C8  UNL     1     -35.584  13.509  -5.982  1.00 20.00    -0.001 C 
HETATM    8  C9  UNL     1     -34.227  15.168  -6.982  1.00 20.00    -0.009 C 
HETATM    9  C10 UNL     1     -35.641  15.779  -6.641  1.00 20.00     0.003 C 
ENDROOT
BRANCH   5  10
HETATM   10  C1  UNL     1     -37.823  14.702  -5.795  1.00 20.00     0.223 C 
HETATM   11  O11 UNL     1     -38.138  13.919  -4.904  1.00 20.00    -0.279 OA
HETATM   12 CL12 UNL     1     -38.737  16.085  -6.317  1.00 20.00    -0.043 Cl
ENDBRANCH   5  10
TORSDOF 1
ENDMDL
MODEL 8
REMARK VINA RESULT:      -4.3      2.606      3.543
REMARK  1 active torsions:
REMARK  status: ('A' for Active; 'I' for Inactive)
REMARK    1  A    between atoms: C1_1  and  C6_6 
ROOT
HETATM    1  C2  UNL     1     -33.042  15.160  -4.647  1.00 20.00     0.010 C 
HETATM    2  C3  UNL     1     -34.203  14.630  -6.827  1.00 20.00     0.010 C 
HETATM    3  C4  UNL     1     -34.182  16.850  -6.133  1.00 20.00     0.010 C 
HETATM    4  C5  UNL     1     -35.252  13.957  -4.698  1.00 20.00     0.010 C 
HETATM    5  C6  UNL     1     -35.291  16.164  -3.981  1.00 20.00     0.081 C 
HETATM    6  C7  UNL     1     -33.276  15.618  -6.117  1.00 20.00    -0.013 C 
HETATM    7  C8  UNL     1     -34.387  14.930  -3.889  1.00 20.00    -0.001 C 
HETATM    8  C9  UNL     1     -35.478  14.775  -5.982  1.00 20.00    -0.009 C 
HETATM    9  C10 UNL     1     -35.464  16.279  -5.504  1.00 20.00     0.003 C 
ENDROOT
BRANCH   5  10
HETATM   10  C1  UNL     1     -34.750  17.374  -3.285  1.00 20.00     0.223 C 
HETATM   11  O11 UNL     1     -34.983  18.508  -3.690  1.00 20.00    -0.279 OA
HETATM   12 CL12 UNL     1     -33.794  16.956  -1.894  1.00 20.00    -0.043 Cl
ENDBRANCH   5  10
TORSDOF 1
ENDMDL
MODEL 9
REMARK VINA RESULT:      -4.3      2.092      3.493
REMARK  1 active torsions:
REMARK  status: ('A' for Active; 'I' for Inactive)
REMARK    1  A    between atoms: C1_1  and  C6_6 
ROOT
HETATM    1  C2  UNL     1     -35.636  18.345  -3.162  1.00 20.00     0.010 C 
HETATM    2  C3  UNL     1     -33.214  18.685  -2.527  1.00 20.00     0.010 C 
HETATM    3  C4  UNL     1     -33.665  17.307  -4.346  1.00 20.00     0.010 C 
HETATM    4  C5  UNL     1     -34.660  17.294  -1.093  1.00 20.00     0.010 C 
HETATM    5  C6  UNL     1     -35.104  15.866  -2.868  1.00 20.00     0.081 C 
HETATM    6  C7  UNL     1     -34.194  18.587  -3.698  1.00 20.00    -0.013 C 
HETATM    7  C8  UNL     1     -35.699  17.113  -2.205  1.00 20.00    -0.001 C 
HETATM    8  C9  UNL     1     -33.359  17.284  -1.914  1.00 20.00    -0.009 C 
HETATM    9  C10 UNL     1     -33.670  16.347  -3.145  1.00 20.00     0.003 C 
ENDROOT
BRANCH   5  10
HETATM   10  C1  UNL     1     -35.875  15.374  -4.053  1.00 20.00     0.223 C 
HETATM   11  O11 UNL     1     -36.943  15.880  -4.383  1.00 20.00    -0.279 OA
HETATM   12 CL12 UNL     1     -35.077  14.051  -4.850  1.00 20.00    -0.043 Cl
ENDBRANCH   5  10
TORSDOF 1
ENDMDL
