MODEL 1
REMARK VINA RESULT:      -4.8      0.000      0.000
REMARK  0 active torsions:
REMARK  status: ('A' for Active; 'I' for Inactive)
ROOT
HETATM    1  C1  UNL     1     -34.137   6.159   5.236  1.00 20.00    -0.056 A 
HETATM    2  C2  UNL     1     -33.175   6.994   3.298  1.00 20.00     0.087 A 
HETATM    3  C3  UNL     1     -34.855   5.466   6.128  1.00 20.00     0.017 C 
HETATM    4  C4  UNL     1     -33.189   7.288   5.607  1.00 20.00     0.158 A 
HETATM    5  C5  UNL     1     -31.763   8.685   3.850  1.00 20.00     0.144 A 
HETATM    6  C6  UNL     1     -31.778   8.458   2.313  1.00 20.00     0.141 A 
HETATM    7  C7  UNL     1     -34.129   5.959   3.711  1.00 20.00     0.035 A 
HETATM    8  C8  UNL     1     -35.505   6.226   3.096  1.00 20.00     0.028 C 
HETATM    9  C9  UNL     1     -33.611   4.572   3.325  1.00 20.00     0.028 C 
HETATM   10  N10 UNL     1     -32.695   7.677   4.305  1.00 20.00    -0.365 N 
HETATM   11  N11 UNL     1     -32.732   7.344   2.114  1.00 20.00    -0.377 N 
HETATM   12  H26 UNL     1     -33.037   6.881   1.266  1.00 20.00     0.160 HD
ENDROOT
TORSDOF 0
ENDMDL
MODEL 2
REMARK VINA RESULT:      -4.3     11.299     12.456
REMARK  0 active torsions:
REMARK  status: ('A' for Active; 'I' for Inactive)
ROOT
HETATM    1  C1  UNL     1     -34.888  15.525  -3.792  1.00 20.00    -0.056 A 
HETATM    2  C2  UNL     1     -34.478  14.307  -5.722  1.00 20.00     0.087 A 
HETATM    3  C3  UNL     1     -34.776  16.267  -2.683  1.00 20.00     0.017 C 
HETATM    4  C4  UNL     1     -36.208  14.993  -4.324  1.00 20.00     0.158 A 
HETATM    5  C5  UNL     1     -36.449  13.506  -6.515  1.00 20.00     0.144 A 
HETATM    6  C6  UNL     1     -35.269  13.070  -7.427  1.00 20.00     0.141 A 
HETATM    7  C7  UNL     1     -33.741  15.077  -4.714  1.00 20.00     0.035 A 
HETATM    8  C8  UNL     1     -32.742  14.178  -3.982  1.00 20.00     0.028 C 
HETATM    9  C9  UNL     1     -33.038  16.271  -5.364  1.00 20.00     0.028 C 
HETATM   10  N10 UNL     1     -35.766  14.276  -5.500  1.00 20.00    -0.365 N 
HETATM   11  N11 UNL     1     -34.071  13.658  -6.786  1.00 20.00    -0.377 N 
HETATM   12  H26 UNL     1     -33.094  13.616  -7.053  1.00 20.00     0.160 HD
ENDROOT
TORSDOF 0
ENDMDL
MODEL 3
REMARK VINA RESULT:      -4.2     11.514     12.536
REMARK  0 active torsions:
REMARK  status: ('A' for Active; 'I' for Inactive)
ROOT
HETATM    1  C1  UNL     1     -34.392  16.357  -3.164  1.00 20.00    -0.056 A 
HETATM    2  C2  UNL     1     -35.402  15.144  -4.864  1.00 20.00     0.087 A 
HETATM    3  C3  UNL     1     -33.519  16.980  -2.364  1.00 20.00     0.017 C 
HETATM    4  C4  UNL     1     -35.889  16.306  -2.906  1.00 20.00     0.158 A 
HETATM    5  C5  UNL     1     -37.638  15.062  -4.476  1.00 20.00     0.144 A 
HETATM    6  C6  UNL     1     -37.276  14.298  -5.779  1.00 20.00     0.141 A 
HETATM    7  C7  UNL     1     -34.065  15.593  -4.459  1.00 20.00     0.035 A 
HETATM    8  C8  UNL     1     -33.157  14.390  -4.195  1.00 20.00     0.028 C 
HETATM    9  C9  UNL     1     -33.467  16.515  -5.525  1.00 20.00     0.028 C 
HETATM   10  N10 UNL     1     -36.341  15.529  -4.038  1.00 20.00    -0.365 N 
HETATM   11  N11 UNL     1     -35.806  14.438  -5.891  1.00 20.00    -0.377 N 
HETATM   12  H26 UNL     1     -35.163  14.089  -6.593  1.00 20.00     0.160 HD
ENDROOT
TORSDOF 0
ENDMDL
MODEL 4
REMARK VINA RESULT:      -4.1     11.704     12.555
REMARK  0 active torsions:
REMARK  status: ('A' for Active; 'I' for Inactive)
ROOT
HETATM    1  C1  UNL     1     -33.721  17.400  -1.970  1.00 20.00    -0.056 A 
HETATM    2  C2  UNL     1     -35.807  16.729  -2.730  1.00 20.00     0.087 A 
HETATM    3  C3  UNL     1     -32.710  17.996  -1.327  1.00 20.00     0.017 C 
HETATM    4  C4  UNL     1     -33.533  16.346  -3.049  1.00 20.00     0.158 A 
HETATM    5  C5  UNL     1     -35.527  15.159  -4.346  1.00 20.00     0.144 A 
HETATM    6  C6  UNL     1     -37.036  15.438  -4.104  1.00 20.00     0.141 A 
HETATM    7  C7  UNL     1     -35.223  17.654  -1.753  1.00 20.00     0.035 A 
HETATM    8  C8  UNL     1     -35.608  19.096  -2.088  1.00 20.00     0.028 C 
HETATM    9  C9  UNL     1     -35.661  17.279  -0.335  1.00 20.00     0.028 C 
HETATM   10  N10 UNL     1     -34.906  16.054  -3.396  1.00 20.00    -0.365 N 
HETATM   11  N11 UNL     1     -37.054  16.469  -3.041  1.00 20.00    -0.377 N 
HETATM   12  H26 UNL     1     -37.832  16.934  -2.587  1.00 20.00     0.160 HD
ENDROOT
TORSDOF 0
ENDMDL
MODEL 5
REMARK VINA RESULT:      -4.1     11.581     12.690
REMARK  0 active torsions:
REMARK  status: ('A' for Active; 'I' for Inactive)
ROOT
HETATM    1  C1  UNL     1     -34.541  14.836  -4.306  1.00 20.00    -0.056 A 
HETATM    2  C2  UNL     1     -36.619  15.845  -4.096  1.00 20.00     0.087 A 
HETATM    3  C3  UNL     1     -33.234  14.551  -4.279  1.00 20.00     0.017 C 
HETATM    4  C4  UNL     1     -35.598  13.902  -4.874  1.00 20.00     0.158 A 
HETATM    5  C5  UNL     1     -38.198  14.455  -4.949  1.00 20.00     0.144 A 
HETATM    6  C6  UNL     1     -38.845  15.763  -4.417  1.00 20.00     0.141 A 
HETATM    7  C7  UNL     1     -35.211  16.120  -3.788  1.00 20.00     0.035 A 
HETATM    8  C8  UNL     1     -34.731  17.357  -4.549  1.00 20.00     0.028 C 
HETATM    9  C9  UNL     1     -35.019  16.290  -2.279  1.00 20.00     0.028 C 
HETATM   10  N10 UNL     1     -36.799  14.680  -4.663  1.00 20.00    -0.365 N 
HETATM   11  N11 UNL     1     -37.704  16.556  -3.904  1.00 20.00    -0.377 N 
HETATM   12  H26 UNL     1     -37.680  17.472  -3.473  1.00 20.00     0.160 HD
ENDROOT
TORSDOF 0
ENDMDL
MODEL 6
REMARK VINA RESULT:      -4.0      1.422      3.437
REMARK  0 active torsions:
REMARK  status: ('A' for Active; 'I' for Inactive)
ROOT
HETATM    1  C1  UNL     1     -32.701   7.343   2.774  1.00 20.00    -0.056 A 
HETATM    2  C2  UNL     1     -34.041   6.008   4.116  1.00 20.00     0.087 A 
HETATM    3  C3  UNL     1     -32.021   7.882   1.755  1.00 20.00     0.017 C 
HETATM    4  C4  UNL     1     -32.694   7.905   4.187  1.00 20.00     0.158 A 
HETATM    5  C5  UNL     1     -34.027   6.842   6.227  1.00 20.00     0.144 A 
HETATM    6  C6  UNL     1     -34.921   5.575   6.141  1.00 20.00     0.141 A 
HETATM    7  C7  UNL     1     -33.592   6.091   2.721  1.00 20.00     0.035 A 
HETATM    8  C8  UNL     1     -32.794   4.841   2.344  1.00 20.00     0.028 C 
HETATM    9  C9  UNL     1     -34.789   6.287   1.787  1.00 20.00     0.028 C 
HETATM   10  N10 UNL     1     -33.560   6.967   4.864  1.00 20.00    -0.365 N 
HETATM   11  N11 UNL     1     -34.826   5.153   4.725  1.00 20.00    -0.377 N 
HETATM   12  H26 UNL     1     -35.253   4.372   4.241  1.00 20.00     0.160 HD
ENDROOT
TORSDOF 0
ENDMDL
MODEL 7
REMARK VINA RESULT:      -4.0     11.452     12.269
REMARK  0 active torsions:
REMARK  status: ('A' for Active; 'I' for Inactive)
ROOT
HETATM    1  C1  UNL     1     -35.419  15.105  -4.823  1.00 20.00    -0.056 A 
HETATM    2  C2  UNL     1     -34.203  16.250  -3.214  1.00 20.00     0.087 A 
HETATM    3  C3  UNL     1     -35.807  14.414  -5.902  1.00 20.00     0.017 C 
HETATM    4  C4  UNL     1     -36.370  15.578  -3.735  1.00 20.00     0.158 A 
HETATM    5  C5  UNL     1     -35.622  16.962  -1.591  1.00 20.00     0.144 A 
HETATM    6  C6  UNL     1     -34.163  17.391  -1.275  1.00 20.00     0.141 A 
HETATM    7  C7  UNL     1     -33.985  15.544  -4.482  1.00 20.00     0.035 A 
HETATM    8  C8  UNL     1     -33.419  16.500  -5.533  1.00 20.00     0.028 C 
HETATM    9  C9  UNL     1     -33.060  14.343  -4.271  1.00 20.00     0.028 C 
HETATM   10  N10 UNL     1     -35.457  16.255  -2.842  1.00 20.00    -0.365 N 
HETATM   11  N11 UNL     1     -33.370  16.864  -2.409  1.00 20.00    -0.377 N 
HETATM   12  H26 UNL     1     -32.377  16.920  -2.600  1.00 20.00     0.160 HD
ENDROOT
TORSDOF 0
ENDMDL
MODEL 8
REMARK VINA RESULT:      -3.9     11.748     12.747
REMARK  0 active torsions:
REMARK  status: ('A' for Active; 'I' for Inactive)
ROOT
HETATM    1  C1  UNL     1     -34.289  15.041  -6.179  1.00 20.00    -0.056 A 
HETATM    2  C2  UNL     1     -35.338  15.659  -4.206  1.00 20.00     0.087 A 
HETATM    3  C3  UNL     1     -34.002  14.561  -7.395  1.00 20.00     0.017 C 
HETATM    4  C4  UNL     1     -33.271  15.717  -5.275  1.00 20.00     0.158 A 
HETATM    5  C5  UNL     1     -33.818  16.665  -2.851  1.00 20.00     0.144 A 
HETATM    6  C6  UNL     1     -35.213  16.611  -2.170  1.00 20.00     0.141 A 
HETATM    7  C7  UNL     1     -35.658  15.003  -5.478  1.00 20.00     0.035 A 
HETATM    8  C8  UNL     1     -36.131  13.569  -5.233  1.00 20.00     0.028 C 
HETATM    9  C9  UNL     1     -36.708  15.809  -6.245  1.00 20.00     0.028 C 
HETATM   10  N10 UNL     1     -34.085  16.026  -4.120  1.00 20.00    -0.365 N 
HETATM   11  N11 UNL     1     -36.081  15.935  -3.161  1.00 20.00    -0.377 N 
HETATM   12  H26 UNL     1     -37.065  15.697  -3.120  1.00 20.00     0.160 HD
ENDROOT
TORSDOF 0
ENDMDL
MODEL 9
REMARK VINA RESULT:      -3.8     11.457     13.114
REMARK  0 active torsions:
REMARK  status: ('A' for Active; 'I' for Inactive)
ROOT
HETATM    1  C1  UNL     1     -33.870  15.446  -6.207  1.00 20.00    -0.056 A 
HETATM    2  C2  UNL     1     -33.644  16.416  -4.113  1.00 20.00     0.087 A 
HETATM    3  C3  UNL     1     -34.015  14.591  -7.227  1.00 20.00     0.017 C 
HETATM    4  C4  UNL     1     -33.722  16.949  -6.378  1.00 20.00     0.158 A 
HETATM    5  C5  UNL     1     -33.418  18.662  -4.367  1.00 20.00     0.144 A 
HETATM    6  C6  UNL     1     -33.373  18.269  -2.864  1.00 20.00     0.141 A 
HETATM    7  C7  UNL     1     -33.822  15.089  -4.712  1.00 20.00     0.035 A 
HETATM    8  C8  UNL     1     -32.628  14.191  -4.380  1.00 20.00     0.028 C 
HETATM    9  C9  UNL     1     -35.134  14.462  -4.237  1.00 20.00     0.028 C 
HETATM   10  N10 UNL     1     -33.596  17.375  -5.002  1.00 20.00    -0.365 N 
HETATM   11  N11 UNL     1     -33.528  16.797  -2.864  1.00 20.00    -0.377 N 
HETATM   12  H26 UNL     1     -33.553  16.138  -2.094  1.00 20.00     0.160 HD
ENDROOT
TORSDOF 0
ENDMDL
