MODEL 1
REMARK VINA RESULT:      -6.1      0.000      0.000
REMARK  2 active torsions:
REMARK  status: ('A' for Active; 'I' for Inactive)
REMARK    1  A    between atoms: C5_5  and  C7_7 
REMARK    2  A    between atoms: C7_7  and  O8_8 
ROOT
HETATM    1  C1  UNL     1     -33.176   6.184   2.613  1.00 20.00     0.013 C 
HETATM    2  C2  UNL     1     -33.553   7.610   4.670  1.00 20.00     0.013 C 
HETATM    3  C3  UNL     1     -33.725   4.968   3.356  1.00 20.00     0.079 C 
HETATM    4  C4  UNL     1     -34.101   6.394   5.412  1.00 20.00     0.079 C 
HETATM    5  C5  UNL     1     -32.552   7.203   3.579  1.00 20.00     0.009 C 
HETATM    6  C6  UNL     1     -34.693   5.376   4.453  1.00 20.00     0.243 C 
HETATM    7  F9  UNL     1     -35.816   5.894   3.889  1.00 20.00    -0.206 F 
HETATM    8  F10 UNL     1     -35.083   4.276   5.144  1.00 20.00    -0.206 F 
ENDROOT
BRANCH   5   9
HETATM    9  C7  UNL     1     -32.055   8.430   2.817  1.00 20.00     0.168 C 
BRANCH   9  10
HETATM   10  O8  UNL     1     -32.656   8.437   1.536  1.00 20.00    -0.400 OA
HETATM   11  H22 UNL     1     -33.606   8.601   1.667  1.00 20.00     0.209 HD
ENDBRANCH   9  10
ENDBRANCH   5   9
TORSDOF 2
ENDMDL
MODEL 2
REMARK VINA RESULT:      -5.7      1.383      2.156
REMARK  2 active torsions:
REMARK  status: ('A' for Active; 'I' for Inactive)
REMARK    1  A    between atoms: C5_5  and  C7_7 
REMARK    2  A    between atoms: C7_7  and  O8_8 
ROOT
HETATM    1  C1  UNL     1     -32.979   7.467   4.883  1.00 20.00     0.013 C 
HETATM    2  C2  UNL     1     -33.994   5.950   3.130  1.00 20.00     0.013 C 
HETATM    3  C3  UNL     1     -34.005   6.976   5.902  1.00 20.00     0.079 C 
HETATM    4  C4  UNL     1     -35.021   5.460   4.148  1.00 20.00     0.079 C 
HETATM    5  C5  UNL     1     -33.518   7.375   3.447  1.00 20.00     0.009 C 
HETATM    6  C6  UNL     1     -34.495   5.577   5.568  1.00 20.00     0.243 C 
HETATM    7  F9  UNL     1     -33.477   4.693   5.742  1.00 20.00    -0.206 F 
HETATM    8  F10 UNL     1     -35.468   5.218   6.442  1.00 20.00    -0.206 F 
ENDROOT
BRANCH   5   9
HETATM    9  C7  UNL     1     -32.457   7.825   2.444  1.00 20.00     0.168 C 
BRANCH   9  10
HETATM   10  O8  UNL     1     -31.342   8.316   3.163  1.00 20.00    -0.400 OA
HETATM   11  H22 UNL     1     -31.602   8.363   4.099  1.00 20.00     0.209 HD
ENDBRANCH   9  10
ENDBRANCH   5   9
TORSDOF 2
ENDMDL
MODEL 3
REMARK VINA RESULT:      -5.1      2.958      4.124
REMARK  2 active torsions:
REMARK  status: ('A' for Active; 'I' for Inactive)
REMARK    1  A    between atoms: C5_5  and  C7_7 
REMARK    2  A    between atoms: C7_7  and  O8_8 
ROOT
HETATM    1  C1  UNL     1     -33.284   7.505   4.961  1.00 20.00     0.013 C 
HETATM    2  C2  UNL     1     -33.961   5.959   3.074  1.00 20.00     0.013 C 
HETATM    3  C3  UNL     1     -32.133   8.038   4.110  1.00 20.00     0.079 C 
HETATM    4  C4  UNL     1     -32.810   6.491   2.225  1.00 20.00     0.079 C 
HETATM    5  C5  UNL     1     -33.653   6.064   4.575  1.00 20.00     0.009 C 
HETATM    6  C6  UNL     1     -32.430   7.906   2.626  1.00 20.00     0.243 C 
HETATM    7  F9  UNL     1     -33.442   8.751   2.295  1.00 20.00    -0.206 F 
HETATM    8  F10 UNL     1     -31.349   8.304   1.912  1.00 20.00    -0.206 F 
ENDROOT
BRANCH   5   9
HETATM    9  C7  UNL     1     -34.837   5.571   5.405  1.00 20.00     0.168 C 
BRANCH   9  10
HETATM   10  O8  UNL     1     -35.239   4.309   4.907  1.00 20.00    -0.400 OA
HETATM   11  H22 UNL     1     -34.949   3.641   5.552  1.00 20.00     0.209 HD
ENDBRANCH   9  10
ENDBRANCH   5   9
TORSDOF 2
ENDMDL
MODEL 4
REMARK VINA RESULT:      -5.0      2.971      3.884
REMARK  2 active torsions:
REMARK  status: ('A' for Active; 'I' for Inactive)
REMARK    1  A    between atoms: C5_5  and  C7_7 
REMARK    2  A    between atoms: C7_7  and  O8_8 
ROOT
HETATM    1  C1  UNL     1     -33.565   5.532   3.075  1.00 20.00     0.013 C 
HETATM    2  C2  UNL     1     -33.744   7.017   5.116  1.00 20.00     0.013 C 
HETATM    3  C3  UNL     1     -33.239   6.752   2.216  1.00 20.00     0.079 C 
HETATM    4  C4  UNL     1     -33.420   8.237   4.258  1.00 20.00     0.079 C 
HETATM    5  C5  UNL     1     -34.420   5.910   4.294  1.00 20.00     0.009 C 
HETATM    6  C6  UNL     1     -32.597   7.856   3.039  1.00 20.00     0.243 C 
HETATM    7  F9  UNL     1     -31.362   7.455   3.441  1.00 20.00    -0.206 F 
HETATM    8  F10 UNL     1     -32.410   8.950   2.260  1.00 20.00    -0.206 F 
ENDROOT
BRANCH   5   9
HETATM    9  C7  UNL     1     -34.690   4.682   5.162  1.00 20.00     0.168 C 
BRANCH   9  10
HETATM   10  O8  UNL     1     -34.215   3.537   4.480  1.00 20.00    -0.400 OA
HETATM   11  H22 UNL     1     -33.889   2.917   5.154  1.00 20.00     0.209 HD
ENDBRANCH   9  10
ENDBRANCH   5   9
TORSDOF 2
ENDMDL
MODEL 5
REMARK VINA RESULT:      -4.4      2.395      3.165
REMARK  2 active torsions:
REMARK  status: ('A' for Active; 'I' for Inactive)
REMARK    1  A    between atoms: C5_5  and  C7_7 
REMARK    2  A    between atoms: C7_7  and  O8_8 
ROOT
HETATM    1  C1  UNL     1     -34.085   5.005   5.195  1.00 20.00     0.013 C 
HETATM    2  C2  UNL     1     -33.333   6.980   3.802  1.00 20.00     0.013 C 
HETATM    3  C3  UNL     1     -34.236   4.169   3.926  1.00 20.00     0.079 C 
HETATM    4  C4  UNL     1     -33.485   6.144   2.534  1.00 20.00     0.079 C 
HETATM    5  C5  UNL     1     -34.281   6.503   4.912  1.00 20.00     0.009 C 
HETATM    6  C6  UNL     1     -33.317   4.662   2.822  1.00 20.00     0.243 C 
HETATM    7  F9  UNL     1     -32.027   4.417   3.170  1.00 20.00    -0.206 F 
HETATM    8  F10 UNL     1     -33.550   3.952   1.690  1.00 20.00    -0.206 F 
ENDROOT
BRANCH   5   9
HETATM    9  C7  UNL     1     -34.077   7.322   6.185  1.00 20.00     0.168 C 
BRANCH   9  10
HETATM   10  O8  UNL     1     -32.770   7.865   6.164  1.00 20.00    -0.400 OA
HETATM   11  H22 UNL     1     -32.849   8.809   6.382  1.00 20.00     0.209 HD
ENDBRANCH   9  10
ENDBRANCH   5   9
TORSDOF 2
ENDMDL
MODEL 6
REMARK VINA RESULT:      -4.3     11.480     12.440
REMARK  2 active torsions:
REMARK  status: ('A' for Active; 'I' for Inactive)
REMARK    1  A    between atoms: C5_5  and  C7_7 
REMARK    2  A    between atoms: C7_7  and  O8_8 
ROOT
HETATM    1  C1  UNL     1     -34.421  14.474  -4.172  1.00 20.00     0.013 C 
HETATM    2  C2  UNL     1     -36.347  16.116  -4.142  1.00 20.00     0.013 C 
HETATM    3  C3  UNL     1     -33.455  15.600  -3.813  1.00 20.00     0.079 C 
HETATM    4  C4  UNL     1     -35.381  17.242  -3.785  1.00 20.00     0.079 C 
HETATM    5  C5  UNL     1     -35.648  15.000  -4.933  1.00 20.00     0.009 C 
HETATM    6  C6  UNL     1     -34.156  16.715  -3.056  1.00 20.00     0.243 C 
HETATM    7  F9  UNL     1     -34.528  16.260  -1.831  1.00 20.00    -0.206 F 
HETATM    8  F10 UNL     1     -33.286  17.732  -2.840  1.00 20.00    -0.206 F 
ENDROOT
BRANCH   5   9
HETATM    9  C7  UNL     1     -36.621  13.863  -5.236  1.00 20.00     0.168 C 
BRANCH   9  10
HETATM   10  O8  UNL     1     -35.944  12.633  -5.059  1.00 20.00    -0.400 OA
HETATM   11  H22 UNL     1     -36.602  11.925  -5.168  1.00 20.00     0.209 HD
ENDBRANCH   9  10
ENDBRANCH   5   9
TORSDOF 2
ENDMDL
MODEL 7
REMARK VINA RESULT:      -4.3     11.646     12.633
REMARK  2 active torsions:
REMARK  status: ('A' for Active; 'I' for Inactive)
REMARK    1  A    between atoms: C5_5  and  C7_7 
REMARK    2  A    between atoms: C7_7  and  O8_8 
ROOT
HETATM    1  C1  UNL     1     -33.696  15.057  -6.659  1.00 20.00     0.013 C 
HETATM    2  C2  UNL     1     -35.209  13.765  -5.094  1.00 20.00     0.013 C 
HETATM    3  C3  UNL     1     -33.333  16.009  -5.522  1.00 20.00     0.079 C 
HETATM    4  C4  UNL     1     -34.847  14.718  -3.958  1.00 20.00     0.079 C 
HETATM    5  C5  UNL     1     -35.093  14.449  -6.464  1.00 20.00     0.009 C 
HETATM    6  C6  UNL     1     -33.476  15.338  -4.167  1.00 20.00     0.243 C 
HETATM    7  F9  UNL     1     -32.526  14.373  -4.042  1.00 20.00    -0.206 F 
HETATM    8  F10 UNL     1     -33.234  16.243  -3.186  1.00 20.00    -0.206 F 
ENDROOT
BRANCH   5   9
HETATM    9  C7  UNL     1     -35.413  13.464  -7.587  1.00 20.00     0.168 C 
BRANCH   9  10
HETATM   10  O8  UNL     1     -35.105  12.158  -7.139  1.00 20.00    -0.400 OA
HETATM   11  H22 UNL     1     -34.286  11.886  -7.587  1.00 20.00     0.209 HD
ENDBRANCH   9  10
ENDBRANCH   5   9
TORSDOF 2
ENDMDL
MODEL 8
REMARK VINA RESULT:      -4.1     12.112     13.061
REMARK  2 active torsions:
REMARK  status: ('A' for Active; 'I' for Inactive)
REMARK    1  A    between atoms: C5_5  and  C7_7 
REMARK    2  A    between atoms: C7_7  and  O8_8 
ROOT
HETATM    1  C1  UNL     1     -35.846  16.223  -5.503  1.00 20.00     0.013 C 
HETATM    2  C2  UNL     1     -34.515  14.567  -4.127  1.00 20.00     0.013 C 
HETATM    3  C3  UNL     1     -35.126  17.377  -4.809  1.00 20.00     0.079 C 
HETATM    4  C4  UNL     1     -33.797  15.721  -3.432  1.00 20.00     0.079 C 
HETATM    5  C5  UNL     1     -35.916  14.978  -4.605  1.00 20.00     0.009 C 
HETATM    6  C6  UNL     1     -33.753  16.958  -4.312  1.00 20.00     0.243 C 
HETATM    7  F9  UNL     1     -32.944  16.721  -5.378  1.00 20.00    -0.206 F 
HETATM    8  F10 UNL     1     -33.190  17.982  -3.624  1.00 20.00    -0.206 F 
ENDROOT
BRANCH   5   9
HETATM    9  C7  UNL     1     -36.595  13.823  -5.339  1.00 20.00     0.168 C 
BRANCH   9  10
HETATM   10  O8  UNL     1     -35.924  12.623  -5.005  1.00 20.00    -0.400 OA
HETATM   11  H22 UNL     1     -35.867  12.587  -4.035  1.00 20.00     0.209 HD
ENDBRANCH   9  10
ENDBRANCH   5   9
TORSDOF 2
ENDMDL
MODEL 9
REMARK VINA RESULT:      -3.9     12.249     12.866
REMARK  2 active torsions:
REMARK  status: ('A' for Active; 'I' for Inactive)
REMARK    1  A    between atoms: C5_5  and  C7_7 
REMARK    2  A    between atoms: C7_7  and  O8_8 
ROOT
HETATM    1  C1  UNL     1     -33.728  18.375   1.330  1.00 20.00     0.013 C 
HETATM    2  C2  UNL     1     -31.903  18.361  -0.424  1.00 20.00     0.013 C 
HETATM    3  C3  UNL     1     -34.768  18.645   0.245  1.00 20.00     0.079 C 
HETATM    4  C4  UNL     1     -32.944  18.631  -1.508  1.00 20.00     0.079 C 
HETATM    5  C5  UNL     1     -32.346  18.919   0.936  1.00 20.00     0.009 C 
HETATM    6  C6  UNL     1     -34.315  18.116  -1.104  1.00 20.00     0.243 C 
HETATM    7  F9  UNL     1     -34.289  16.758  -1.068  1.00 20.00    -0.206 F 
HETATM    8  F10 UNL     1     -35.223  18.457  -2.052  1.00 20.00    -0.206 F 
ENDROOT
BRANCH   5   9
HETATM    9  C7  UNL     1     -31.313  18.594   2.014  1.00 20.00     0.168 C 
BRANCH   9  10
HETATM   10  O8  UNL     1     -30.105  19.258   1.692  1.00 20.00    -0.400 OA
HETATM   11  H22 UNL     1     -29.381  18.629   1.854  1.00 20.00     0.209 HD
ENDBRANCH   9  10
ENDBRANCH   5   9
TORSDOF 2
ENDMDL
