MODEL 1
REMARK VINA RESULT:      -5.8      0.000      0.000
REMARK  1 active torsions:
REMARK  status: ('A' for Active; 'I' for Inactive)
REMARK    1  A    between atoms: C1_1  and  C6_6 
ROOT
HETATM    1  C1  UNL     1     -32.624   8.144   2.314  1.00 20.00    -0.100 C 
HETATM    2  C2  UNL     1     -32.548   9.110   1.604  1.00 20.00    -0.111 C 
HETATM    3  C7  UNL     1     -32.457  10.286   0.742  1.00 20.00     0.112 C 
ENDROOT
BRANCH   1   4
HETATM    4  C6  UNL     1     -32.716   6.966   3.178  1.00 20.00     0.090 C 
HETATM    5  C4  UNL     1     -33.624   7.183   4.371  1.00 20.00     0.072 C 
HETATM    6  C3  UNL     1     -34.107   5.780   4.566  1.00 20.00     0.004 C 
HETATM    7  C8  UNL     1     -34.737   5.366   5.855  1.00 20.00     0.065 C 
HETATM    8  N9  UNL     1     -33.983   4.970   3.560  1.00 20.00    -0.297 NA
HETATM    9  C5  UNL     1     -33.367   5.775   2.485  1.00 20.00     0.166 C 
ENDBRANCH   1   4
TORSDOF 1
ENDMDL
MODEL 2
REMARK VINA RESULT:      -4.5      1.834      4.754
REMARK  1 active torsions:
REMARK  status: ('A' for Active; 'I' for Inactive)
REMARK    1  A    between atoms: C1_1  and  C6_6 
ROOT
HETATM    1  C1  UNL     1     -33.438   6.340   3.692  1.00 20.00    -0.100 C 
HETATM    2  C2  UNL     1     -34.103   5.709   4.468  1.00 20.00    -0.111 C 
HETATM    3  C7  UNL     1     -34.913   4.943   5.413  1.00 20.00     0.112 C 
ENDROOT
BRANCH   1   4
HETATM    4  C6  UNL     1     -32.627   7.107   2.746  1.00 20.00     0.090 C 
HETATM    5  C4  UNL     1     -33.455   8.037   1.883  1.00 20.00     0.072 C 
HETATM    6  C3  UNL     1     -32.444   9.117   1.654  1.00 20.00     0.004 C 
HETATM    7  C8  UNL     1     -32.623  10.102   0.545  1.00 20.00     0.065 C 
HETATM    8  N9  UNL     1     -31.444   9.173   2.478  1.00 20.00    -0.297 NA
HETATM    9  C5  UNL     1     -31.667   8.070   3.436  1.00 20.00     0.166 C 
ENDBRANCH   1   4
TORSDOF 1
ENDMDL
MODEL 3
REMARK VINA RESULT:      -4.1     11.362     12.053
REMARK  1 active torsions:
REMARK  status: ('A' for Active; 'I' for Inactive)
REMARK    1  A    between atoms: C1_1  and  C6_6 
ROOT
HETATM    1  C1  UNL     1     -34.297  16.151  -2.849  1.00 20.00    -0.100 C 
HETATM    2  C2  UNL     1     -34.794  16.676  -1.891  1.00 20.00    -0.111 C 
HETATM    3  C7  UNL     1     -35.399  17.315  -0.723  1.00 20.00     0.112 C 
ENDROOT
BRANCH   1   4
HETATM    4  C6  UNL     1     -33.692  15.511  -4.018  1.00 20.00     0.090 C 
HETATM    5  C4  UNL     1     -34.621  14.524  -4.693  1.00 20.00     0.072 C 
HETATM    6  C3  UNL     1     -34.124  14.647  -6.100  1.00 20.00     0.004 C 
HETATM    7  C8  UNL     1     -34.449  13.600  -7.114  1.00 20.00     0.065 C 
HETATM    8  N9  UNL     1     -33.440  15.710  -6.392  1.00 20.00    -0.297 NA
HETATM    9  C5  UNL     1     -33.389  16.496  -5.141  1.00 20.00     0.166 C 
ENDBRANCH   1   4
TORSDOF 1
ENDMDL
MODEL 4
REMARK VINA RESULT:      -4.1     10.620     11.990
REMARK  1 active torsions:
REMARK  status: ('A' for Active; 'I' for Inactive)
REMARK    1  A    between atoms: C1_1  and  C6_6 
ROOT
HETATM    1  C1  UNL     1     -34.033  16.430  -3.246  1.00 20.00    -0.100 C 
HETATM    2  C2  UNL     1     -33.551  17.064  -2.347  1.00 20.00    -0.111 C 
HETATM    3  C7  UNL     1     -32.964  17.836  -1.253  1.00 20.00     0.112 C 
ENDROOT
BRANCH   1   4
HETATM    4  C6  UNL     1     -34.620  15.657  -4.342  1.00 20.00     0.090 C 
HETATM    5  C4  UNL     1     -33.946  15.920  -5.672  1.00 20.00     0.072 C 
HETATM    6  C3  UNL     1     -34.162  14.589  -6.320  1.00 20.00     0.004 C 
HETATM    7  C8  UNL     1     -34.023  14.431  -7.799  1.00 20.00     0.065 C 
HETATM    8  N9  UNL     1     -34.434  13.590  -5.537  1.00 20.00    -0.297 NA
HETATM    9  C5  UNL     1     -34.432  14.154  -4.171  1.00 20.00     0.166 C 
ENDBRANCH   1   4
TORSDOF 1
ENDMDL
MODEL 5
REMARK VINA RESULT:      -4.0     11.259     11.817
REMARK  1 active torsions:
REMARK  status: ('A' for Active; 'I' for Inactive)
REMARK    1  A    between atoms: C1_1  and  C6_6 
ROOT
HETATM    1  C1  UNL     1     -32.638  18.577  -0.016  1.00 20.00    -0.100 C 
HETATM    2  C2  UNL     1     -31.771  18.832   0.774  1.00 20.00    -0.111 C 
HETATM    3  C7  UNL     1     -30.715  19.142   1.736  1.00 20.00     0.112 C 
ENDROOT
BRANCH   1   4
HETATM    4  C6  UNL     1     -33.696  18.267  -0.980  1.00 20.00     0.090 C 
HETATM    5  C4  UNL     1     -33.279  17.222  -1.993  1.00 20.00     0.072 C 
HETATM    6  C3  UNL     1     -34.614  16.601  -2.265  1.00 20.00     0.004 C 
HETATM    7  C8  UNL     1     -34.829  15.763  -3.482  1.00 20.00     0.065 C 
HETATM    8  N9  UNL     1     -35.545  16.798  -1.382  1.00 20.00    -0.297 NA
HETATM    9  C5  UNL     1     -34.916  17.624  -0.330  1.00 20.00     0.166 C 
ENDBRANCH   1   4
TORSDOF 1
ENDMDL
MODEL 6
REMARK VINA RESULT:      -3.8     11.372     12.243
REMARK  1 active torsions:
REMARK  status: ('A' for Active; 'I' for Inactive)
REMARK    1  A    between atoms: C1_1  and  C6_6 
ROOT
HETATM    1  C1  UNL     1     -34.472  17.025  -1.540  1.00 20.00    -0.100 C 
HETATM    2  C2  UNL     1     -35.112  17.287  -0.559  1.00 20.00    -0.111 C 
HETATM    3  C7  UNL     1     -35.891  17.606   0.636  1.00 20.00     0.112 C 
ENDROOT
BRANCH   1   4
HETATM    4  C6  UNL     1     -33.692  16.705  -2.737  1.00 20.00     0.090 C 
HETATM    5  C4  UNL     1     -34.325  15.615  -3.576  1.00 20.00     0.072 C 
HETATM    6  C3  UNL     1     -33.833  16.032  -4.926  1.00 20.00     0.004 C 
HETATM    7  C8  UNL     1     -33.856  15.075  -6.073  1.00 20.00     0.065 C 
HETATM    8  N9  UNL     1     -33.428  17.259  -5.052  1.00 20.00    -0.297 NA
HETATM    9  C5  UNL     1     -33.612  17.868  -3.718  1.00 20.00     0.166 C 
ENDBRANCH   1   4
TORSDOF 1
ENDMDL
MODEL 7
REMARK VINA RESULT:      -3.8     11.017     11.531
REMARK  1 active torsions:
REMARK  status: ('A' for Active; 'I' for Inactive)
REMARK    1  A    between atoms: C1_1  and  C6_6 
ROOT
HETATM    1  C1  UNL     1     -34.538  16.269  -2.852  1.00 20.00    -0.100 C 
HETATM    2  C2  UNL     1     -34.586  15.317  -3.582  1.00 20.00    -0.111 C 
HETATM    3  C7  UNL     1     -34.646  14.158  -4.472  1.00 20.00     0.112 C 
ENDROOT
BRANCH   1   4
HETATM    4  C6  UNL     1     -34.478  17.429  -1.961  1.00 20.00     0.090 C 
HETATM    5  C4  UNL     1     -35.186  17.192  -0.643  1.00 20.00     0.072 C 
HETATM    6  C3  UNL     1     -34.366  18.084   0.235  1.00 20.00     0.004 C 
HETATM    7  C8  UNL     1     -34.879  18.516   1.570  1.00 20.00     0.065 C 
HETATM    8  N9  UNL     1     -33.193  18.425  -0.203  1.00 20.00    -0.297 NA
HETATM    9  C5  UNL     1     -33.059  17.759  -1.515  1.00 20.00     0.166 C 
ENDBRANCH   1   4
TORSDOF 1
ENDMDL
MODEL 8
REMARK VINA RESULT:      -3.7     11.084     11.650
REMARK  1 active torsions:
REMARK  status: ('A' for Active; 'I' for Inactive)
REMARK    1  A    between atoms: C1_1  and  C6_6 
ROOT
HETATM    1  C1  UNL     1     -33.668  17.403  -2.348  1.00 20.00    -0.100 C 
HETATM    2  C2  UNL     1     -32.984  17.861  -1.474  1.00 20.00    -0.111 C 
HETATM    3  C7  UNL     1     -32.152  18.419  -0.410  1.00 20.00     0.112 C 
ENDROOT
BRANCH   1   4
HETATM    4  C6  UNL     1     -34.501  16.843  -3.414  1.00 20.00     0.090 C 
HETATM    5  C4  UNL     1     -34.149  15.407  -3.740  1.00 20.00     0.072 C 
HETATM    6  C3  UNL     1     -35.494  14.924  -4.187  1.00 20.00     0.004 C 
HETATM    7  C8  UNL     1     -35.624  13.667  -4.983  1.00 20.00     0.065 C 
HETATM    8  N9  UNL     1     -36.522  15.626  -3.821  1.00 20.00    -0.297 NA
HETATM    9  C5  UNL     1     -35.970  16.740  -3.024  1.00 20.00     0.166 C 
ENDBRANCH   1   4
TORSDOF 1
ENDMDL
MODEL 9
REMARK VINA RESULT:      -3.7     11.573     11.937
REMARK  1 active torsions:
REMARK  status: ('A' for Active; 'I' for Inactive)
REMARK    1  A    between atoms: C1_1  and  C6_6 
ROOT
HETATM    1  C1  UNL     1     -33.290  18.102  -0.583  1.00 20.00    -0.100 C 
HETATM    2  C2  UNL     1     -33.690  17.434  -1.497  1.00 20.00    -0.111 C 
HETATM    3  C7  UNL     1     -34.179  16.622  -2.610  1.00 20.00     0.112 C 
ENDROOT
BRANCH   1   4
HETATM    4  C6  UNL     1     -32.801  18.915   0.532  1.00 20.00     0.090 C 
HETATM    5  C4  UNL     1     -33.447  18.548   1.852  1.00 20.00     0.072 C 
HETATM    6  C3  UNL     1     -32.324  18.901   2.777  1.00 20.00     0.004 C 
HETATM    7  C8  UNL     1     -32.572  19.089   4.237  1.00 20.00     0.065 C 
HETATM    8  N9  UNL     1     -31.139  18.996   2.255  1.00 20.00    -0.297 NA
HETATM    9  C5  UNL     1     -31.321  18.694   0.820  1.00 20.00     0.166 C 
ENDBRANCH   1   4
TORSDOF 1
ENDMDL
