MODEL 1
REMARK VINA RESULT:      -6.5      0.000      0.000
REMARK  0 active torsions:
REMARK  status: ('A' for Active; 'I' for Inactive)
ROOT
HETATM    1  C1  UNL     1     -33.365   7.180   4.951  1.00 20.00     0.185 C 
HETATM    2  C2  UNL     1     -33.483   7.340   3.439  1.00 20.00     0.087 C 
HETATM    3  C3  UNL     1     -33.770   5.914   3.036  1.00 20.00     0.340 C 
HETATM    4  C4  UNL     1     -34.718   5.491   4.119  1.00 20.00     0.420 C 
HETATM    5  C5  UNL     1     -32.257   7.947   2.786  1.00 20.00     0.019 C 
HETATM    6  O6  UNL     1     -34.259   6.109   5.325  1.00 20.00    -0.321 OA
HETATM    7  F7  UNL     1     -34.287   5.796   1.806  1.00 20.00    -0.196 F 
HETATM    8  F8  UNL     1     -32.643   5.166   3.096  1.00 20.00    -0.196 F 
HETATM    9  F9  UNL     1     -35.968   5.950   3.877  1.00 20.00    -0.169 F 
HETATM   10  F10 UNL     1     -34.783   4.155   4.264  1.00 20.00    -0.169 F 
ENDROOT
TORSDOF 0
ENDMDL
MODEL 2
REMARK VINA RESULT:      -5.7      1.193      2.804
REMARK  0 active torsions:
REMARK  status: ('A' for Active; 'I' for Inactive)
ROOT
HETATM    1  C1  UNL     1     -33.313   7.504   4.120  1.00 20.00     0.185 C 
HETATM    2  C2  UNL     1     -33.690   6.254   4.909  1.00 20.00     0.087 C 
HETATM    3  C3  UNL     1     -34.513   5.521   3.879  1.00 20.00     0.340 C 
HETATM    4  C4  UNL     1     -33.712   5.769   2.636  1.00 20.00     0.420 C 
HETATM    5  C5  UNL     1     -34.414   6.541   6.210  1.00 20.00     0.019 C 
HETATM    6  O6  UNL     1     -33.209   7.104   2.737  1.00 20.00    -0.321 OA
HETATM    7  F7  UNL     1     -34.679   4.219   4.149  1.00 20.00    -0.196 F 
HETATM    8  F8  UNL     1     -35.737   6.087   3.756  1.00 20.00    -0.196 F 
HETATM    9  F9  UNL     1     -32.647   4.937   2.570  1.00 20.00    -0.169 F 
HETATM   10  F10 UNL     1     -34.434   5.617   1.510  1.00 20.00    -0.169 F 
ENDROOT
TORSDOF 0
ENDMDL
MODEL 3
REMARK VINA RESULT:      -5.3      1.459      3.002
REMARK  0 active torsions:
REMARK  status: ('A' for Active; 'I' for Inactive)
ROOT
HETATM    1  C1  UNL     1     -33.984   6.957   5.249  1.00 20.00     0.185 C 
HETATM    2  C2  UNL     1     -33.713   5.573   4.667  1.00 20.00     0.087 C 
HETATM    3  C3  UNL     1     -33.757   5.885   3.191  1.00 20.00     0.340 C 
HETATM    4  C4  UNL     1     -33.031   7.197   3.150  1.00 20.00     0.420 C 
HETATM    5  C5  UNL     1     -34.696   4.510   5.118  1.00 20.00     0.019 C 
HETATM    6  O6  UNL     1     -33.415   7.912   4.328  1.00 20.00    -0.321 OA
HETATM    7  F7  UNL     1     -33.192   4.944   2.424  1.00 20.00    -0.196 F 
HETATM    8  F8  UNL     1     -35.035   6.057   2.779  1.00 20.00    -0.196 F 
HETATM    9  F9  UNL     1     -31.691   7.012   3.205  1.00 20.00    -0.169 F 
HETATM   10  F10 UNL     1     -33.311   7.915   2.046  1.00 20.00    -0.169 F 
ENDROOT
TORSDOF 0
ENDMDL
MODEL 4
REMARK VINA RESULT:      -5.2      1.455      2.131
REMARK  0 active torsions:
REMARK  status: ('A' for Active; 'I' for Inactive)
ROOT
HETATM    1  C1  UNL     1     -34.213   5.357   5.580  1.00 20.00     0.185 C 
HETATM    2  C2  UNL     1     -34.237   6.865   5.346  1.00 20.00     0.087 C 
HETATM    3  C3  UNL     1     -33.799   6.923   3.903  1.00 20.00     0.340 C 
HETATM    4  C4  UNL     1     -34.554   5.763   3.324  1.00 20.00     0.420 C 
HETATM    5  C5  UNL     1     -33.363   7.652   6.304  1.00 20.00     0.019 C 
HETATM    6  O6  UNL     1     -34.552   4.738   4.321  1.00 20.00    -0.321 OA
HETATM    7  F7  UNL     1     -34.078   8.087   3.303  1.00 20.00    -0.196 F 
HETATM    8  F8  UNL     1     -32.468   6.700   3.800  1.00 20.00    -0.196 F 
HETATM    9  F9  UNL     1     -35.844   6.095   3.084  1.00 20.00    -0.169 F 
HETATM   10  F10 UNL     1     -34.016   5.312   2.176  1.00 20.00    -0.169 F 
ENDROOT
TORSDOF 0
ENDMDL
MODEL 5
REMARK VINA RESULT:      -5.1      2.219      3.437
REMARK  0 active torsions:
REMARK  status: ('A' for Active; 'I' for Inactive)
ROOT
HETATM    1  C1  UNL     1     -33.203   5.357   2.992  1.00 20.00     0.185 C 
HETATM    2  C2  UNL     1     -34.365   6.019   3.726  1.00 20.00     0.087 C 
HETATM    3  C3  UNL     1     -33.636   7.124   4.449  1.00 20.00     0.340 C 
HETATM    4  C4  UNL     1     -32.674   7.578   3.391  1.00 20.00     0.420 C 
HETATM    5  C5  UNL     1     -35.141   5.078   4.627  1.00 20.00     0.019 C 
HETATM    6  O6  UNL     1     -32.253   6.403   2.693  1.00 20.00    -0.321 OA
HETATM    7  F7  UNL     1     -34.439   8.103   4.888  1.00 20.00    -0.196 F 
HETATM    8  F8  UNL     1     -32.952   6.630   5.508  1.00 20.00    -0.196 F 
HETATM    9  F9  UNL     1     -33.284   8.388   2.495  1.00 20.00    -0.169 F 
HETATM   10  F10 UNL     1     -31.614   8.236   3.898  1.00 20.00    -0.169 F 
ENDROOT
TORSDOF 0
ENDMDL
MODEL 6
REMARK VINA RESULT:      -5.1      1.714      2.444
REMARK  0 active torsions:
REMARK  status: ('A' for Active; 'I' for Inactive)
ROOT
HETATM    1  C1  UNL     1     -32.850   6.162   2.437  1.00 20.00     0.185 C 
HETATM    2  C2  UNL     1     -32.491   6.941   3.698  1.00 20.00     0.087 C 
HETATM    3  C3  UNL     1     -33.863   7.143   4.293  1.00 20.00     0.340 C 
HETATM    4  C4  UNL     1     -34.491   5.805   4.034  1.00 20.00     0.420 C 
HETATM    5  C5  UNL     1     -31.721   8.221   3.435  1.00 20.00     0.019 C 
HETATM    6  O6  UNL     1     -34.018   5.374   2.756  1.00 20.00    -0.321 OA
HETATM    7  F7  UNL     1     -33.844   7.475   5.590  1.00 20.00    -0.196 F 
HETATM    8  F8  UNL     1     -34.537   8.104   3.619  1.00 20.00    -0.196 F 
HETATM    9  F9  UNL     1     -34.085   4.893   4.948  1.00 20.00    -0.169 F 
HETATM   10  F10 UNL     1     -35.837   5.848   4.054  1.00 20.00    -0.169 F 
ENDROOT
TORSDOF 0
ENDMDL
MODEL 7
REMARK VINA RESULT:      -4.5      2.071      2.896
REMARK  0 active torsions:
REMARK  status: ('A' for Active; 'I' for Inactive)
ROOT
HETATM    1  C1  UNL     1     -34.812   5.262   4.328  1.00 20.00     0.185 C 
HETATM    2  C2  UNL     1     -33.492   5.690   3.695  1.00 20.00     0.087 C 
HETATM    3  C3  UNL     1     -33.404   7.115   4.185  1.00 20.00     0.340 C 
HETATM    4  C4  UNL     1     -33.886   6.966   5.598  1.00 20.00     0.420 C 
HETATM    5  C5  UNL     1     -33.452   5.536   2.187  1.00 20.00     0.019 C 
HETATM    6  O6  UNL     1     -34.929   5.988   5.571  1.00 20.00    -0.321 OA
HETATM    7  F7  UNL     1     -32.175   7.639   4.099  1.00 20.00    -0.196 F 
HETATM    8  F8  UNL     1     -34.254   7.909   3.493  1.00 20.00    -0.196 F 
HETATM    9  F9  UNL     1     -32.904   6.492   6.399  1.00 20.00    -0.169 F 
HETATM   10  F10 UNL     1     -34.333   8.123   6.122  1.00 20.00    -0.169 F 
ENDROOT
TORSDOF 0
ENDMDL
MODEL 8
REMARK VINA RESULT:      -4.4      1.709      2.480
REMARK  0 active torsions:
REMARK  status: ('A' for Active; 'I' for Inactive)
ROOT
HETATM    1  C1  UNL     1     -32.334   6.678   3.271  1.00 20.00     0.185 C 
HETATM    2  C2  UNL     1     -33.593   5.916   2.870  1.00 20.00     0.087 C 
HETATM    3  C3  UNL     1     -34.299   5.836   4.201  1.00 20.00     0.340 C 
HETATM    4  C4  UNL     1     -34.038   7.208   4.751  1.00 20.00     0.420 C 
HETATM    5  C5  UNL     1     -33.320   4.574   2.217  1.00 20.00     0.019 C 
HETATM    6  O6  UNL     1     -32.711   7.560   4.350  1.00 20.00    -0.321 OA
HETATM    7  F7  UNL     1     -35.602   5.546   4.103  1.00 20.00    -0.196 F 
HETATM    8  F8  UNL     1     -33.715   4.907   4.994  1.00 20.00    -0.196 F 
HETATM    9  F9  UNL     1     -34.882   8.116   4.209  1.00 20.00    -0.169 F 
HETATM   10  F10 UNL     1     -34.162   7.265   6.090  1.00 20.00    -0.169 F 
ENDROOT
TORSDOF 0
ENDMDL
MODEL 9
REMARK VINA RESULT:      -4.2     11.512     12.723
REMARK  0 active torsions:
REMARK  status: ('A' for Active; 'I' for Inactive)
ROOT
HETATM    1  C1  UNL     1     -35.403  13.394  -5.560  1.00 20.00     0.185 C 
HETATM    2  C2  UNL     1     -34.395  13.993  -6.536  1.00 20.00     0.087 C 
HETATM    3  C3  UNL     1     -33.894  15.163  -5.727  1.00 20.00     0.340 C 
HETATM    4  C4  UNL     1     -33.790  14.550  -4.362  1.00 20.00     0.420 C 
HETATM    5  C5  UNL     1     -34.985  14.361  -7.884  1.00 20.00     0.019 C 
HETATM    6  O6  UNL     1     -34.898  13.656  -4.232  1.00 20.00    -0.321 OA
HETATM    7  F7  UNL     1     -32.735  15.667  -6.169  1.00 20.00    -0.196 F 
HETATM    8  F8  UNL     1     -34.812  16.159  -5.712  1.00 20.00    -0.196 F 
HETATM    9  F9  UNL     1     -32.659  13.816  -4.244  1.00 20.00    -0.169 F 
HETATM   10  F10 UNL     1     -33.800  15.466  -3.376  1.00 20.00    -0.169 F 
ENDROOT
TORSDOF 0
ENDMDL
