MODEL 1
REMARK VINA RESULT:      -5.3      0.000      0.000
REMARK  1 active torsions:
REMARK  status: ('A' for Active; 'I' for Inactive)
REMARK    1  A    between atoms: C10_10  and  O11_11 
ROOT
HETATM    1  C1  UNL     1     -32.559   4.235   2.463  1.00 20.00     0.012 C 
HETATM    2  C2  UNL     1     -31.802   8.295   1.757  1.00 20.00     0.015 C 
HETATM    3  C3  UNL     1     -33.345   5.097   2.745  1.00 20.00    -0.108 C 
HETATM    4  C4  UNL     1     -32.616   7.924   2.557  1.00 20.00    -0.078 C 
HETATM    5  C5  UNL     1     -34.632   5.518   5.546  1.00 20.00     0.002 C 
HETATM    6  C6  UNL     1     -33.953   6.813   5.980  1.00 20.00     0.004 C 
HETATM    7  C7  UNL     1     -35.288   5.650   4.171  1.00 20.00     0.021 C 
HETATM    8  C8  UNL     1     -32.966   7.322   4.927  1.00 20.00     0.053 C 
HETATM    9  C9  UNL     1     -34.313   6.160   3.092  1.00 20.00     0.111 C 
HETATM   10  C10 UNL     1     -33.618   7.470   3.541  1.00 20.00     0.134 C 
ENDROOT
BRANCH  10  11
HETATM   11  O11 UNL     1     -34.616   8.494   3.653  1.00 20.00    -0.376 OA
HETATM   12  H23 UNL     1     -35.466   8.035   3.732  1.00 20.00     0.211 HD
ENDBRANCH  10  11
TORSDOF 1
ENDMDL
MODEL 2
REMARK VINA RESULT:      -4.8     11.533     12.545
REMARK  1 active torsions:
REMARK  status: ('A' for Active; 'I' for Inactive)
REMARK    1  A    between atoms: C10_10  and  O11_11 
ROOT
HETATM    1  C1  UNL     1     -37.435  15.836  -4.351  1.00 20.00     0.012 C 
HETATM    2  C2  UNL     1     -33.645  16.598  -2.735  1.00 20.00     0.015 C 
HETATM    3  C3  UNL     1     -36.513  15.077  -4.478  1.00 20.00    -0.108 C 
HETATM    4  C4  UNL     1     -33.814  15.825  -3.638  1.00 20.00    -0.078 C 
HETATM    5  C5  UNL     1     -35.463  13.952  -7.182  1.00 20.00     0.002 C 
HETATM    6  C6  UNL     1     -34.121  14.668  -7.286  1.00 20.00     0.004 C 
HETATM    7  C7  UNL     1     -35.618  13.222  -5.846  1.00 20.00     0.021 C 
HETATM    8  C8  UNL     1     -33.876  15.601  -6.098  1.00 20.00     0.053 C 
HETATM    9  C9  UNL     1     -35.378  14.141  -4.633  1.00 20.00     0.111 C 
HETATM   10  C10 UNL     1     -34.019  14.874  -4.748  1.00 20.00     0.134 C 
ENDROOT
BRANCH  10  11
HETATM   11  O11 UNL     1     -32.973  13.896  -4.685  1.00 20.00    -0.376 OA
HETATM   12  H23 UNL     1     -32.502  14.057  -3.854  1.00 20.00     0.211 HD
ENDBRANCH  10  11
TORSDOF 1
ENDMDL
MODEL 3
REMARK VINA RESULT:      -4.6     11.384     12.982
REMARK  1 active torsions:
REMARK  status: ('A' for Active; 'I' for Inactive)
REMARK    1  A    between atoms: C10_10  and  O11_11 
ROOT
HETATM    1  C1  UNL     1     -35.183  16.784  -1.713  1.00 20.00     0.012 C 
HETATM    2  C2  UNL     1     -33.179  19.191  -4.495  1.00 20.00     0.015 C 
HETATM    3  C3  UNL     1     -34.557  16.327  -2.631  1.00 20.00    -0.108 C 
HETATM    4  C4  UNL     1     -33.483  18.054  -4.733  1.00 20.00    -0.078 C 
HETATM    5  C5  UNL     1     -35.647  14.299  -4.723  1.00 20.00     0.002 C 
HETATM    6  C6  UNL     1     -35.705  15.177  -5.968  1.00 20.00     0.004 C 
HETATM    7  C7  UNL     1     -34.267  14.334  -4.063  1.00 20.00     0.021 C 
HETATM    8  C8  UNL     1     -35.249  16.609  -5.680  1.00 20.00     0.053 C 
HETATM    9  C9  UNL     1     -33.786  15.765  -3.761  1.00 20.00     0.111 C 
HETATM   10  C10 UNL     1     -33.856  16.657  -5.026  1.00 20.00     0.134 C 
ENDROOT
BRANCH  10  11
HETATM   11  O11 UNL     1     -32.923  16.148  -5.988  1.00 20.00    -0.376 OA
HETATM   12  H23 UNL     1     -32.332  16.883  -6.206  1.00 20.00     0.211 HD
ENDBRANCH  10  11
TORSDOF 1
ENDMDL
MODEL 4
REMARK VINA RESULT:      -4.6     11.418     13.030
REMARK  1 active torsions:
REMARK  status: ('A' for Active; 'I' for Inactive)
REMARK    1  A    between atoms: C10_10  and  O11_11 
ROOT
HETATM    1  C1  UNL     1     -36.219  17.067  -7.324  1.00 20.00     0.012 C 
HETATM    2  C2  UNL     1     -38.802  14.634  -5.095  1.00 20.00     0.015 C 
HETATM    3  C3  UNL     1     -35.940  15.941  -7.014  1.00 20.00    -0.108 C 
HETATM    4  C4  UNL     1     -37.622  14.422  -5.165  1.00 20.00    -0.078 C 
HETATM    5  C5  UNL     1     -33.351  15.069  -5.525  1.00 20.00     0.002 C 
HETATM    6  C6  UNL     1     -33.923  14.673  -4.168  1.00 20.00     0.004 C 
HETATM    7  C7  UNL     1     -34.069  14.360  -6.676  1.00 20.00     0.021 C 
HETATM    8  C8  UNL     1     -35.438  14.877  -4.104  1.00 20.00     0.053 C 
HETATM    9  C9  UNL     1     -35.597  14.553  -6.634  1.00 20.00     0.111 C 
HETATM   10  C10 UNL     1     -36.172  14.160  -5.250  1.00 20.00     0.134 C 
ENDROOT
BRANCH  10  11
HETATM   11  O11 UNL     1     -35.970  12.753  -5.063  1.00 20.00    -0.376 OA
HETATM   12  H23 UNL     1     -36.650  12.464  -4.436  1.00 20.00     0.211 HD
ENDBRANCH  10  11
TORSDOF 1
ENDMDL
MODEL 5
REMARK VINA RESULT:      -4.3     11.212     12.746
REMARK  1 active torsions:
REMARK  status: ('A' for Active; 'I' for Inactive)
REMARK    1  A    between atoms: C10_10  and  O11_11 
ROOT
HETATM    1  C1  UNL     1     -35.719  17.512  -4.013  1.00 20.00     0.012 C 
HETATM    2  C2  UNL     1     -32.994  14.334  -4.188  1.00 20.00     0.015 C 
HETATM    3  C3  UNL     1     -36.066  16.369  -4.136  1.00 20.00    -0.108 C 
HETATM    4  C4  UNL     1     -34.115  14.242  -4.608  1.00 20.00    -0.078 C 
HETATM    5  C5  UNL     1     -37.933  15.284  -6.375  1.00 20.00     0.002 C 
HETATM    6  C6  UNL     1     -36.947  14.455  -7.191  1.00 20.00     0.004 C 
HETATM    7  C7  UNL     1     -37.908  14.904  -4.893  1.00 20.00     0.021 C 
HETATM    8  C8  UNL     1     -35.532  14.517  -6.613  1.00 20.00     0.053 C 
HETATM    9  C9  UNL     1     -36.493  14.961  -4.287  1.00 20.00     0.111 C 
HETATM   10  C10 UNL     1     -35.493  14.126  -5.125  1.00 20.00     0.134 C 
ENDROOT
BRANCH  10  11
HETATM   11  O11 UNL     1     -35.877  12.747  -5.042  1.00 20.00    -0.376 OA
HETATM   12  H23 UNL     1     -35.193  12.248  -5.512  1.00 20.00     0.211 HD
ENDBRANCH  10  11
TORSDOF 1
ENDMDL
MODEL 6
REMARK VINA RESULT:      -4.3     11.752     12.668
REMARK  1 active torsions:
REMARK  status: ('A' for Active; 'I' for Inactive)
REMARK    1  A    between atoms: C10_10  and  O11_11 
ROOT
HETATM    1  C1  UNL     1     -33.706  16.986  -7.094  1.00 20.00     0.012 C 
HETATM    2  C2  UNL     1     -35.319  13.134  -7.439  1.00 20.00     0.015 C 
HETATM    3  C3  UNL     1     -33.703  16.200  -6.186  1.00 20.00    -0.108 C 
HETATM    4  C4  UNL     1     -35.153  13.667  -6.376  1.00 20.00    -0.078 C 
HETATM    5  C5  UNL     1     -34.820  16.736  -3.333  1.00 20.00     0.002 C 
HETATM    6  C6  UNL     1     -36.048  15.831  -3.333  1.00 20.00     0.004 C 
HETATM    7  C7  UNL     1     -33.552  15.977  -3.729  1.00 20.00     0.021 C 
HETATM    8  C8  UNL     1     -36.217  15.097  -4.665  1.00 20.00     0.053 C 
HETATM    9  C9  UNL     1     -33.697  15.231  -5.068  1.00 20.00     0.111 C 
HETATM   10  C10 UNL     1     -34.951  14.321  -5.068  1.00 20.00     0.134 C 
ENDROOT
BRANCH  10  11
HETATM   11  O11 UNL     1     -34.760  13.291  -4.089  1.00 20.00    -0.376 OA
HETATM   12  H23 UNL     1     -33.848  12.983  -4.197  1.00 20.00     0.211 HD
ENDBRANCH  10  11
TORSDOF 1
ENDMDL
MODEL 7
REMARK VINA RESULT:      -4.2     11.274     13.381
REMARK  1 active torsions:
REMARK  status: ('A' for Active; 'I' for Inactive)
REMARK    1  A    between atoms: C10_10  and  O11_11 
ROOT
HETATM    1  C1  UNL     1     -33.849  17.801  -3.728  1.00 20.00     0.012 C 
HETATM    2  C2  UNL     1     -33.905  17.904  -7.917  1.00 20.00     0.015 C 
HETATM    3  C3  UNL     1     -33.513  16.866  -4.402  1.00 20.00    -0.108 C 
HETATM    4  C4  UNL     1     -33.910  16.873  -7.300  1.00 20.00    -0.078 C 
HETATM    5  C5  UNL     1     -34.634  13.975  -4.160  1.00 20.00     0.002 C 
HETATM    6  C6  UNL     1     -35.429  13.868  -5.456  1.00 20.00     0.004 C 
HETATM    7  C7  UNL     1     -33.191  14.415  -4.411  1.00 20.00     0.021 C 
HETATM    8  C8  UNL     1     -35.364  15.159  -6.276  1.00 20.00     0.053 C 
HETATM    9  C9  UNL     1     -33.098  15.715  -5.233  1.00 20.00     0.111 C 
HETATM   10  C10 UNL     1     -33.916  15.606  -6.544  1.00 20.00     0.134 C 
ENDROOT
BRANCH  10  11
HETATM   11  O11 UNL     1     -33.312  14.601  -7.369  1.00 20.00    -0.376 OA
HETATM   12  H23 UNL     1     -33.607  13.749  -7.017  1.00 20.00     0.211 HD
ENDBRANCH  10  11
TORSDOF 1
ENDMDL
MODEL 8
REMARK VINA RESULT:      -4.2     11.486     12.691
REMARK  1 active torsions:
REMARK  status: ('A' for Active; 'I' for Inactive)
REMARK    1  A    between atoms: C10_10  and  O11_11 
ROOT
HETATM    1  C1  UNL     1     -33.741  17.144  -5.807  1.00 20.00     0.012 C 
HETATM    2  C2  UNL     1     -34.354  13.576  -7.918  1.00 20.00     0.015 C 
HETATM    3  C3  UNL     1     -34.164  16.149  -5.285  1.00 20.00    -0.108 C 
HETATM    4  C4  UNL     1     -34.904  13.808  -6.875  1.00 20.00    -0.078 C 
HETATM    5  C5  UNL     1     -36.784  15.962  -3.618  1.00 20.00     0.002 C 
HETATM    6  C6  UNL     1     -37.658  15.134  -4.553  1.00 20.00     0.004 C 
HETATM    7  C7  UNL     1     -35.437  15.287  -3.349  1.00 20.00     0.021 C 
HETATM    8  C8  UNL     1     -36.931  14.779  -5.852  1.00 20.00     0.053 C 
HETATM    9  C9  UNL     1     -34.685  14.922  -4.643  1.00 20.00     0.111 C 
HETATM   10  C10 UNL     1     -35.580  14.090  -5.594  1.00 20.00     0.134 C 
ENDROOT
BRANCH  10  11
HETATM   11  O11 UNL     1     -35.863  12.834  -4.963  1.00 20.00    -0.376 OA
HETATM   12  H23 UNL     1     -36.539  13.015  -4.293  1.00 20.00     0.211 HD
ENDBRANCH  10  11
TORSDOF 1
ENDMDL
MODEL 9
REMARK VINA RESULT:      -4.2     11.764     13.379
REMARK  1 active torsions:
REMARK  status: ('A' for Active; 'I' for Inactive)
REMARK    1  A    between atoms: C10_10  and  O11_11 
ROOT
HETATM    1  C1  UNL     1     -36.542  17.133  -6.623  1.00 20.00     0.012 C 
HETATM    2  C2  UNL     1     -34.627  13.450  -7.189  1.00 20.00     0.015 C 
HETATM    3  C3  UNL     1     -35.391  16.953  -6.336  1.00 20.00    -0.108 C 
HETATM    4  C4  UNL     1     -34.215  14.276  -6.422  1.00 20.00    -0.078 C 
HETATM    5  C5  UNL     1     -34.114  17.528  -3.558  1.00 20.00     0.002 C 
HETATM    6  C6  UNL     1     -33.845  16.109  -3.069  1.00 20.00     0.004 C 
HETATM    7  C7  UNL     1     -33.519  17.776  -4.945  1.00 20.00     0.021 C 
HETATM    8  C8  UNL     1     -34.307  15.058  -4.080  1.00 20.00     0.053 C 
HETATM    9  C9  UNL     1     -33.971  16.731  -5.983  1.00 20.00     0.111 C 
HETATM   10  C10 UNL     1     -33.706  15.290  -5.477  1.00 20.00     0.134 C 
ENDROOT
BRANCH  10  11
HETATM   11  O11 UNL     1     -32.289  15.108  -5.361  1.00 20.00    -0.376 OA
HETATM   12  H23 UNL     1     -32.002  14.690  -6.186  1.00 20.00     0.211 HD
ENDBRANCH  10  11
TORSDOF 1
ENDMDL
