MODEL 1
REMARK VINA RESULT:      -6.0      0.000      0.000
REMARK  4 active torsions:
REMARK  status: ('A' for Active; 'I' for Inactive)
REMARK    1  A    between atoms: C2_2  and  C5_5 
REMARK    2  A    between atoms: C4_4  and  C8_8 
REMARK    3  A    between atoms: C7_7  and  C9_9 
REMARK    4  A    between atoms: C8_8  and  C9_9 
ROOT
HETATM    1  C1  UNL     1     -33.752   7.326   6.075  1.00 20.00     0.012 C 
HETATM    2  C3  UNL     1     -34.211   6.542   5.290  1.00 20.00    -0.117 C 
HETATM    3  C7  UNL     1     -34.774   5.580   4.331  1.00 20.00     0.094 C 
ENDROOT
BRANCH   3   4
HETATM    4  C9  UNL     1     -34.025   5.630   2.996  1.00 20.00     0.024 C 
BRANCH   4   5
HETATM    5  C8  UNL     1     -32.696   6.381   3.086  1.00 20.00     0.095 C 
BRANCH   5   6
HETATM    6  C4  UNL     1     -32.705   7.624   2.301  1.00 20.00    -0.098 C 
HETATM    7  C2  UNL     1     -32.713   8.637   1.658  1.00 20.00    -0.029 C 
BRANCH   7   8
HETATM    8  C5  UNL     1     -32.727   9.854   0.881  1.00 20.00     0.198 C 
HETATM    9  C6  UNL     1     -33.069   9.709  -0.572  1.00 20.00     0.106 C 
HETATM   10  O10 UNL     1     -32.470  10.923   1.418  1.00 20.00    -0.284 OA
ENDBRANCH   7   8
ENDBRANCH   5   6
ENDBRANCH   4   5
ENDBRANCH   3   4
TORSDOF 4
ENDMDL
MODEL 2
REMARK VINA RESULT:      -6.0      1.109      1.595
REMARK  4 active torsions:
REMARK  status: ('A' for Active; 'I' for Inactive)
REMARK    1  A    between atoms: C2_2  and  C5_5 
REMARK    2  A    between atoms: C4_4  and  C8_8 
REMARK    3  A    between atoms: C7_7  and  C9_9 
REMARK    4  A    between atoms: C8_8  and  C9_9 
ROOT
HETATM    1  C1  UNL     1     -33.679   7.634   6.131  1.00 20.00     0.012 C 
HETATM    2  C3  UNL     1     -34.083   6.533   5.874  1.00 20.00    -0.117 C 
HETATM    3  C7  UNL     1     -34.575   5.183   5.563  1.00 20.00     0.094 C 
ENDROOT
BRANCH   3   4
HETATM    4  C9  UNL     1     -34.948   5.060   4.082  1.00 20.00     0.024 C 
BRANCH   4   5
HETATM    5  C8  UNL     1     -33.728   4.912   3.172  1.00 20.00     0.095 C 
BRANCH   5   6
HETATM    6  C4  UNL     1     -33.154   6.212   2.796  1.00 20.00    -0.098 C 
HETATM    7  C2  UNL     1     -32.686   7.274   2.490  1.00 20.00    -0.029 C 
BRANCH   7   8
HETATM    8  C5  UNL     1     -32.122   8.553   2.129  1.00 20.00     0.198 C 
HETATM    9  C6  UNL     1     -32.456   9.062   0.758  1.00 20.00     0.106 C 
HETATM   10  O10 UNL     1     -31.418   9.157   2.928  1.00 20.00    -0.284 OA
ENDBRANCH   7   8
ENDBRANCH   5   6
ENDBRANCH   4   5
ENDBRANCH   3   4
TORSDOF 4
ENDMDL
MODEL 3
REMARK VINA RESULT:      -5.9      0.854      1.639
REMARK  4 active torsions:
REMARK  status: ('A' for Active; 'I' for Inactive)
REMARK    1  A    between atoms: C2_2  and  C5_5 
REMARK    2  A    between atoms: C4_4  and  C8_8 
REMARK    3  A    between atoms: C7_7  and  C9_9 
REMARK    4  A    between atoms: C8_8  and  C9_9 
ROOT
HETATM    1  C1  UNL     1     -34.794   4.586   4.812  1.00 20.00     0.012 C 
HETATM    2  C3  UNL     1     -34.460   5.620   5.323  1.00 20.00    -0.117 C 
HETATM    3  C7  UNL     1     -34.053   6.885   5.951  1.00 20.00     0.094 C 
ENDROOT
BRANCH   3   4
HETATM    4  C9  UNL     1     -33.040   7.633   5.078  1.00 20.00     0.024 C 
BRANCH   4   5
HETATM    5  C8  UNL     1     -32.840   6.984   3.708  1.00 20.00     0.095 C 
BRANCH   5   6
HETATM    6  C4  UNL     1     -32.768   7.978   2.628  1.00 20.00    -0.098 C 
HETATM    7  C2  UNL     1     -32.707   8.789   1.745  1.00 20.00    -0.029 C 
BRANCH   7   8
HETATM    8  C5  UNL     1     -32.629   9.761   0.681  1.00 20.00     0.198 C 
HETATM    9  C6  UNL     1     -33.047   9.290  -0.680  1.00 20.00     0.106 C 
HETATM   10  O10 UNL     1     -32.239  10.897   0.920  1.00 20.00    -0.284 OA
ENDBRANCH   7   8
ENDBRANCH   5   6
ENDBRANCH   4   5
ENDBRANCH   3   4
TORSDOF 4
ENDMDL
MODEL 4
REMARK VINA RESULT:      -5.7      2.375      5.351
REMARK  4 active torsions:
REMARK  status: ('A' for Active; 'I' for Inactive)
REMARK    1  A    between atoms: C2_2  and  C5_5 
REMARK    2  A    between atoms: C4_4  and  C8_8 
REMARK    3  A    between atoms: C7_7  and  C9_9 
REMARK    4  A    between atoms: C8_8  and  C9_9 
ROOT
HETATM    1  C1  UNL     1     -33.331   9.479  -0.895  1.00 20.00     0.012 C 
HETATM    2  C3  UNL     1     -32.865   9.639   0.200  1.00 20.00    -0.117 C 
HETATM    3  C7  UNL     1     -32.296   9.838   1.541  1.00 20.00     0.094 C 
ENDROOT
BRANCH   3   4
HETATM    4  C9  UNL     1     -31.450   8.634   1.965  1.00 20.00     0.024 C 
BRANCH   4   5
HETATM    5  C8  UNL     1     -31.634   8.265   3.438  1.00 20.00     0.095 C 
BRANCH   5   6
HETATM    6  C4  UNL     1     -32.762   7.344   3.643  1.00 20.00    -0.098 C 
HETATM    7  C2  UNL     1     -33.682   6.591   3.809  1.00 20.00    -0.029 C 
BRANCH   7   8
HETATM    8  C5  UNL     1     -34.785   5.681   4.006  1.00 20.00     0.198 C 
HETATM    9  C6  UNL     1     -34.465   4.391   4.701  1.00 20.00     0.106 C 
HETATM   10  O10 UNL     1     -35.905   5.986   3.615  1.00 20.00    -0.284 OA
ENDBRANCH   7   8
ENDBRANCH   5   6
ENDBRANCH   4   5
ENDBRANCH   3   4
TORSDOF 4
ENDMDL
MODEL 5
REMARK VINA RESULT:      -5.6      2.316      5.482
REMARK  4 active torsions:
REMARK  status: ('A' for Active; 'I' for Inactive)
REMARK    1  A    between atoms: C2_2  and  C5_5 
REMARK    2  A    between atoms: C4_4  and  C8_8 
REMARK    3  A    between atoms: C7_7  and  C9_9 
REMARK    4  A    between atoms: C8_8  and  C9_9 
ROOT
HETATM    1  C1  UNL     1     -33.256   9.386  -0.870  1.00 20.00     0.012 C 
HETATM    2  C3  UNL     1     -32.883   9.777   0.202  1.00 20.00    -0.117 C 
HETATM    3  C7  UNL     1     -32.428  10.259   1.514  1.00 20.00     0.094 C 
ENDROOT
BRANCH   3   4
HETATM    4  C9  UNL     1     -31.753   9.137   2.309  1.00 20.00     0.024 C 
BRANCH   4   5
HETATM    5  C8  UNL     1     -32.377   7.765   2.051  1.00 20.00     0.095 C 
BRANCH   5   6
HETATM    6  C4  UNL     1     -33.026   7.215   3.251  1.00 20.00    -0.098 C 
HETATM    7  C2  UNL     1     -33.558   6.767   4.229  1.00 20.00    -0.029 C 
BRANCH   7   8
HETATM    8  C5  UNL     1     -34.202   6.226   5.402  1.00 20.00     0.198 C 
HETATM    9  C6  UNL     1     -34.634   4.792   5.320  1.00 20.00     0.106 C 
HETATM   10  O10 UNL     1     -34.365   6.932   6.388  1.00 20.00    -0.284 OA
ENDBRANCH   7   8
ENDBRANCH   5   6
ENDBRANCH   4   5
ENDBRANCH   3   4
TORSDOF 4
ENDMDL
MODEL 6
REMARK VINA RESULT:      -5.5      1.251      1.986
REMARK  4 active torsions:
REMARK  status: ('A' for Active; 'I' for Inactive)
REMARK    1  A    between atoms: C2_2  and  C5_5 
REMARK    2  A    between atoms: C4_4  and  C8_8 
REMARK    3  A    between atoms: C7_7  and  C9_9 
REMARK    4  A    between atoms: C8_8  and  C9_9 
ROOT
HETATM    1  C1  UNL     1     -34.438   3.958   4.530  1.00 20.00     0.012 C 
HETATM    2  C3  UNL     1     -34.426   5.012   5.105  1.00 20.00    -0.117 C 
HETATM    3  C7  UNL     1     -34.413   6.301   5.811  1.00 20.00     0.094 C 
ENDROOT
BRANCH   3   4
HETATM    4  C9  UNL     1     -33.650   7.361   5.011  1.00 20.00     0.024 C 
BRANCH   4   5
HETATM    5  C8  UNL     1     -32.907   6.778   3.807  1.00 20.00     0.095 C 
BRANCH   5   6
HETATM    6  C4  UNL     1     -32.764   7.754   2.718  1.00 20.00    -0.098 C 
HETATM    7  C2  UNL     1     -32.647   8.550   1.826  1.00 20.00    -0.029 C 
BRANCH   7   8
HETATM    8  C5  UNL     1     -32.509   9.503   0.750  1.00 20.00     0.198 C 
HETATM    9  C6  UNL     1     -32.339  10.938   1.153  1.00 20.00     0.106 C 
HETATM   10  O10 UNL     1     -32.533   9.118  -0.412  1.00 20.00    -0.284 OA
ENDBRANCH   7   8
ENDBRANCH   5   6
ENDBRANCH   4   5
ENDBRANCH   3   4
TORSDOF 4
ENDMDL
MODEL 7
REMARK VINA RESULT:      -5.4      2.710      5.649
REMARK  4 active torsions:
REMARK  status: ('A' for Active; 'I' for Inactive)
REMARK    1  A    between atoms: C2_2  and  C5_5 
REMARK    2  A    between atoms: C4_4  and  C8_8 
REMARK    3  A    between atoms: C7_7  and  C9_9 
REMARK    4  A    between atoms: C8_8  and  C9_9 
ROOT
HETATM    1  C1  UNL     1     -33.175   9.619  -0.734  1.00 20.00     0.012 C 
HETATM    2  C3  UNL     1     -32.724   9.767   0.369  1.00 20.00    -0.117 C 
HETATM    3  C7  UNL     1     -32.173   9.952   1.719  1.00 20.00     0.094 C 
ENDROOT
BRANCH   3   4
HETATM    4  C9  UNL     1     -31.944   8.604   2.410  1.00 20.00     0.024 C 
BRANCH   4   5
HETATM    5  C8  UNL     1     -32.732   7.463   1.766  1.00 20.00     0.095 C 
BRANCH   5   6
HETATM    6  C4  UNL     1     -33.302   6.548   2.765  1.00 20.00    -0.098 C 
HETATM    7  C2  UNL     1     -33.770   5.803   3.582  1.00 20.00    -0.029 C 
BRANCH   7   8
HETATM    8  C5  UNL     1     -34.337   4.908   4.563  1.00 20.00     0.198 C 
HETATM    9  C6  UNL     1     -34.711   5.520   5.881  1.00 20.00     0.106 C 
HETATM   10  O10 UNL     1     -34.489   3.724   4.293  1.00 20.00    -0.284 OA
ENDBRANCH   7   8
ENDBRANCH   5   6
ENDBRANCH   4   5
ENDBRANCH   3   4
TORSDOF 4
ENDMDL
MODEL 8
REMARK VINA RESULT:      -5.3      1.391      2.373
REMARK  4 active torsions:
REMARK  status: ('A' for Active; 'I' for Inactive)
REMARK    1  A    between atoms: C2_2  and  C5_5 
REMARK    2  A    between atoms: C4_4  and  C8_8 
REMARK    3  A    between atoms: C7_7  and  C9_9 
REMARK    4  A    between atoms: C8_8  and  C9_9 
ROOT
HETATM    1  C1  UNL     1     -32.919   4.347   2.324  1.00 20.00     0.012 C 
HETATM    2  C3  UNL     1     -33.605   4.560   3.286  1.00 20.00    -0.117 C 
HETATM    3  C7  UNL     1     -34.445   4.817   4.465  1.00 20.00     0.094 C 
ENDROOT
BRANCH   3   4
HETATM    4  C9  UNL     1     -34.705   6.317   4.639  1.00 20.00     0.024 C 
BRANCH   4   5
HETATM    5  C8  UNL     1     -33.424   7.121   4.868  1.00 20.00     0.095 C 
BRANCH   5   6
HETATM    6  C4  UNL     1     -32.952   7.775   3.638  1.00 20.00    -0.098 C 
HETATM    7  C2  UNL     1     -32.569   8.308   2.634  1.00 20.00    -0.029 C 
BRANCH   7   8
HETATM    8  C5  UNL     1     -32.113   8.950   1.423  1.00 20.00     0.198 C 
HETATM    9  C6  UNL     1     -32.764  10.257   1.080  1.00 20.00     0.106 C 
HETATM   10  O10 UNL     1     -31.240   8.423   0.746  1.00 20.00    -0.284 OA
ENDBRANCH   7   8
ENDBRANCH   5   6
ENDBRANCH   4   5
ENDBRANCH   3   4
TORSDOF 4
ENDMDL
MODEL 9
REMARK VINA RESULT:      -4.5     10.256     10.636
REMARK  4 active torsions:
REMARK  status: ('A' for Active; 'I' for Inactive)
REMARK    1  A    between atoms: C2_2  and  C5_5 
REMARK    2  A    between atoms: C4_4  and  C8_8 
REMARK    3  A    between atoms: C7_7  and  C9_9 
REMARK    4  A    between atoms: C8_8  and  C9_9 
ROOT
HETATM    1  C1  UNL     1     -33.118  18.627   0.064  1.00 20.00     0.012 C 
HETATM    2  C3  UNL     1     -34.153  18.044  -0.111  1.00 20.00    -0.117 C 
HETATM    3  C7  UNL     1     -35.421  17.330  -0.322  1.00 20.00     0.094 C 
ENDROOT
BRANCH   3   4
HETATM    4  C9  UNL     1     -35.624  16.993  -1.803  1.00 20.00     0.024 C 
BRANCH   4   5
HETATM    5  C8  UNL     1     -34.355  16.466  -2.473  1.00 20.00     0.095 C 
BRANCH   5   6
HETATM    6  C4  UNL     1     -34.650  15.484  -3.527  1.00 20.00    -0.098 C 
HETATM    7  C2  UNL     1     -34.889  14.683  -4.388  1.00 20.00    -0.029 C 
BRANCH   7   8
HETATM    8  C5  UNL     1     -35.170  13.718  -5.424  1.00 20.00     0.198 C 
HETATM    9  C6  UNL     1     -34.529  13.969  -6.756  1.00 20.00     0.106 C 
HETATM   10  O10 UNL     1     -35.896  12.761  -5.185  1.00 20.00    -0.284 OA
ENDBRANCH   7   8
ENDBRANCH   5   6
ENDBRANCH   4   5
ENDBRANCH   3   4
TORSDOF 4
ENDMDL
