MODEL 1
REMARK VINA RESULT:      -5.0      0.000      0.000
REMARK  1 active torsions:
REMARK  status: ('A' for Active; 'I' for Inactive)
REMARK    1  A    between atoms: C1_1  and  C5_5 
ROOT
HETATM    1  C2  UNL     1     -33.874   8.174   2.936  1.00 20.00     0.026 C 
HETATM    2  C3  UNL     1     -32.725   6.396   2.743  1.00 20.00     0.026 C 
HETATM    3  C4  UNL     1     -32.014   7.996   3.950  1.00 20.00     0.026 C 
HETATM    4  C5  UNL     1     -33.314   7.155   3.957  1.00 20.00     0.022 C 
HETATM    5  C6  UNL     1     -32.401   7.911   2.416  1.00 20.00    -0.041 C 
HETATM    6  C8  UNL     1     -31.706   8.487   1.245  1.00 20.00     0.015 C 
ENDROOT
BRANCH   4   7
HETATM    7  C1  UNL     1     -34.015   6.574   5.133  1.00 20.00     0.131 C 
HETATM    8  C7  UNL     1     -34.669   5.234   4.937  1.00 20.00     0.091 C 
HETATM    9  O9  UNL     1     -34.055   7.161   6.214  1.00 20.00    -0.298 OA
ENDBRANCH   4   7
TORSDOF 1
ENDMDL
MODEL 2
REMARK VINA RESULT:      -4.9      0.111      1.246
REMARK  1 active torsions:
REMARK  status: ('A' for Active; 'I' for Inactive)
REMARK    1  A    between atoms: C1_1  and  C5_5 
ROOT
HETATM    1  C2  UNL     1     -31.933   8.022   3.910  1.00 20.00     0.026 C 
HETATM    2  C3  UNL     1     -33.803   8.279   2.931  1.00 20.00     0.026 C 
HETATM    3  C4  UNL     1     -32.734   6.453   2.720  1.00 20.00     0.026 C 
HETATM    4  C5  UNL     1     -33.266   7.237   3.943  1.00 20.00     0.022 C 
HETATM    5  C6  UNL     1     -32.353   7.954   2.384  1.00 20.00    -0.041 C 
HETATM    6  C8  UNL     1     -31.658   8.497   1.198  1.00 20.00     0.015 C 
ENDROOT
BRANCH   4   7
HETATM    7  C1  UNL     1     -33.966   6.692   5.137  1.00 20.00     0.131 C 
HETATM    8  C7  UNL     1     -34.682   5.381   4.962  1.00 20.00     0.091 C 
HETATM    9  O9  UNL     1     -33.958   7.285   6.215  1.00 20.00    -0.298 OA
ENDBRANCH   4   7
TORSDOF 1
ENDMDL
MODEL 3
REMARK VINA RESULT:      -4.9      1.654      2.238
REMARK  1 active torsions:
REMARK  status: ('A' for Active; 'I' for Inactive)
REMARK    1  A    between atoms: C1_1  and  C5_5 
ROOT
HETATM    1  C2  UNL     1     -32.541   5.850   2.833  1.00 20.00     0.026 C 
HETATM    2  C3  UNL     1     -33.260   7.281   4.232  1.00 20.00     0.026 C 
HETATM    3  C4  UNL     1     -34.493   6.664   2.612  1.00 20.00     0.026 C 
HETATM    4  C5  UNL     1     -33.782   5.902   3.757  1.00 20.00     0.022 C 
HETATM    5  C6  UNL     1     -33.059   7.337   2.662  1.00 20.00    -0.041 C 
HETATM    6  C8  UNL     1     -32.511   8.428   1.829  1.00 20.00     0.015 C 
ENDROOT
BRANCH   4   7
HETATM    7  C1  UNL     1     -34.332   4.805   4.597  1.00 20.00     0.131 C 
HETATM    8  C7  UNL     1     -34.755   5.169   5.994  1.00 20.00     0.091 C 
HETATM    9  O9  UNL     1     -34.436   3.656   4.170  1.00 20.00    -0.298 OA
ENDBRANCH   4   7
TORSDOF 1
ENDMDL
MODEL 4
REMARK VINA RESULT:      -4.7      1.759      3.718
REMARK  1 active torsions:
REMARK  status: ('A' for Active; 'I' for Inactive)
REMARK    1  A    between atoms: C1_1  and  C5_5 
ROOT
HETATM    1  C2  UNL     1     -33.365   6.934   4.661  1.00 20.00     0.026 C 
HETATM    2  C3  UNL     1     -32.832   5.587   3.105  1.00 20.00     0.026 C 
HETATM    3  C4  UNL     1     -34.519   6.861   2.878  1.00 20.00     0.026 C 
HETATM    4  C5  UNL     1     -33.021   7.123   3.164  1.00 20.00     0.022 C 
HETATM    5  C6  UNL     1     -34.156   5.758   3.956  1.00 20.00    -0.041 C 
HETATM    6  C8  UNL     1     -35.021   4.721   4.557  1.00 20.00     0.015 C 
ENDROOT
BRANCH   4   7
HETATM    7  C1  UNL     1     -32.148   8.165   2.560  1.00 20.00     0.131 C 
HETATM    8  C7  UNL     1     -32.613   8.767   1.262  1.00 20.00     0.091 C 
HETATM    9  O9  UNL     1     -31.100   8.519   3.097  1.00 20.00    -0.298 OA
ENDBRANCH   4   7
TORSDOF 1
ENDMDL
MODEL 5
REMARK VINA RESULT:      -4.7      1.758      3.707
REMARK  1 active torsions:
REMARK  status: ('A' for Active; 'I' for Inactive)
REMARK    1  A    between atoms: C1_1  and  C5_5 
ROOT
HETATM    1  C2  UNL     1     -34.527   6.886   2.944  1.00 20.00     0.026 C 
HETATM    2  C3  UNL     1     -33.342   6.939   4.708  1.00 20.00     0.026 C 
HETATM    3  C4  UNL     1     -32.851   5.593   3.137  1.00 20.00     0.026 C 
HETATM    4  C5  UNL     1     -33.021   7.129   3.205  1.00 20.00     0.022 C 
HETATM    5  C6  UNL     1     -34.160   5.776   4.012  1.00 20.00    -0.041 C 
HETATM    6  C8  UNL     1     -35.025   4.746   4.624  1.00 20.00     0.015 C 
ENDROOT
BRANCH   4   7
HETATM    7  C1  UNL     1     -32.152   8.168   2.590  1.00 20.00     0.131 C 
HETATM    8  C7  UNL     1     -32.637   8.782   1.305  1.00 20.00     0.091 C 
HETATM    9  O9  UNL     1     -31.090   8.510   3.108  1.00 20.00    -0.298 OA
ENDBRANCH   4   7
TORSDOF 1
ENDMDL
MODEL 6
REMARK VINA RESULT:      -4.5      2.223      4.054
REMARK  1 active torsions:
REMARK  status: ('A' for Active; 'I' for Inactive)
REMARK    1  A    between atoms: C1_1  and  C5_5 
ROOT
HETATM    1  C2  UNL     1     -34.034   8.261   3.201  1.00 20.00     0.026 C 
HETATM    2  C3  UNL     1     -32.077   8.064   4.008  1.00 20.00     0.026 C 
HETATM    3  C4  UNL     1     -32.845   6.571   2.702  1.00 20.00     0.026 C 
HETATM    4  C5  UNL     1     -32.633   8.098   2.563  1.00 20.00     0.022 C 
HETATM    5  C6  UNL     1     -33.359   7.138   4.090  1.00 20.00    -0.041 C 
HETATM    6  C8  UNL     1     -33.910   6.406   5.250  1.00 20.00     0.015 C 
ENDROOT
BRANCH   4   7
HETATM    7  C1  UNL     1     -32.078   8.836   1.397  1.00 20.00     0.131 C 
HETATM    8  C7  UNL     1     -32.708  10.163   1.075  1.00 20.00     0.091 C 
HETATM    9  O9  UNL     1     -31.147   8.384   0.731  1.00 20.00    -0.298 OA
ENDBRANCH   4   7
TORSDOF 1
ENDMDL
MODEL 7
REMARK VINA RESULT:      -4.2     11.113     12.147
REMARK  1 active torsions:
REMARK  status: ('A' for Active; 'I' for Inactive)
REMARK    1  A    between atoms: C1_1  and  C5_5 
ROOT
HETATM    1  C2  UNL     1     -33.912  16.066  -5.451  1.00 20.00     0.026 C 
HETATM    2  C3  UNL     1     -33.162  14.414  -4.342  1.00 20.00     0.026 C 
HETATM    3  C4  UNL     1     -35.227  14.913  -4.241  1.00 20.00     0.026 C 
HETATM    4  C5  UNL     1     -34.275  14.561  -5.410  1.00 20.00     0.022 C 
HETATM    5  C6  UNL     1     -33.915  15.735  -3.902  1.00 20.00    -0.041 C 
HETATM    6  C8  UNL     1     -33.644  16.628  -2.755  1.00 20.00     0.015 C 
ENDROOT
BRANCH   4   7
HETATM    7  C1  UNL     1     -34.545  13.663  -6.564  1.00 20.00     0.131 C 
HETATM    8  C7  UNL     1     -34.105  14.150  -7.917  1.00 20.00     0.091 C 
HETATM    9  O9  UNL     1     -35.100  12.575  -6.418  1.00 20.00    -0.298 OA
ENDBRANCH   4   7
TORSDOF 1
ENDMDL
MODEL 8
REMARK VINA RESULT:      -4.0     10.806     11.842
REMARK  1 active torsions:
REMARK  status: ('A' for Active; 'I' for Inactive)
REMARK    1  A    between atoms: C1_1  and  C5_5 
ROOT
HETATM    1  C2  UNL     1     -34.562  16.159  -5.109  1.00 20.00     0.026 C 
HETATM    2  C3  UNL     1     -33.941  14.576  -3.833  1.00 20.00     0.026 C 
HETATM    3  C4  UNL     1     -35.754  15.615  -3.435  1.00 20.00     0.026 C 
HETATM    4  C5  UNL     1     -35.224  14.833  -4.661  1.00 20.00     0.022 C 
HETATM    5  C6  UNL     1     -34.251  16.104  -3.557  1.00 20.00    -0.041 C 
HETATM    6  C8  UNL     1     -33.513  17.070  -2.716  1.00 20.00     0.015 C 
ENDROOT
BRANCH   4   7
HETATM    7  C1  UNL     1     -35.965  13.861  -5.509  1.00 20.00     0.131 C 
HETATM    8  C7  UNL     1     -36.770  14.429  -6.645  1.00 20.00     0.091 C 
HETATM    9  O9  UNL     1     -35.919  12.651  -5.291  1.00 20.00    -0.298 OA
ENDBRANCH   4   7
TORSDOF 1
ENDMDL
MODEL 9
REMARK VINA RESULT:      -3.8     11.427     12.148
REMARK  1 active torsions:
REMARK  status: ('A' for Active; 'I' for Inactive)
REMARK    1  A    between atoms: C1_1  and  C5_5 
ROOT
HETATM    1  C2  UNL     1     -34.890  17.410  -0.516  1.00 20.00     0.026 C 
HETATM    2  C3  UNL     1     -33.572  16.947  -2.119  1.00 20.00     0.026 C 
HETATM    3  C4  UNL     1     -34.434  18.886  -1.977  1.00 20.00     0.026 C 
HETATM    4  C5  UNL     1     -33.566  18.036  -1.018  1.00 20.00     0.022 C 
HETATM    5  C6  UNL     1     -35.076  17.442  -2.088  1.00 20.00    -0.041 C 
HETATM    6  C8  UNL     1     -36.224  16.992  -2.903  1.00 20.00     0.015 C 
ENDROOT
BRANCH   4   7
HETATM    7  C1  UNL     1     -32.410  18.486  -0.197  1.00 20.00     0.131 C 
HETATM    8  C7  UNL     1     -32.729  19.139   1.120  1.00 20.00     0.091 C 
HETATM    9  O9  UNL     1     -31.250  18.329  -0.577  1.00 20.00    -0.298 OA
ENDBRANCH   4   7
TORSDOF 1
ENDMDL
