MODEL 1
REMARK VINA RESULT:      -5.1      0.000      0.000
REMARK  1 active torsions:
REMARK  status: ('A' for Active; 'I' for Inactive)
REMARK    1  A    between atoms: C1_1  and  C3_3 
REMARK       I    between atoms: C3_3  and  N8_8 
ROOT
HETATM    1  C3  UNL     1     -32.228   7.874   2.828  1.00 20.00     0.223 C 
HETATM    2  C4  UNL     1     -31.153   8.734   0.779  1.00 20.00     0.119 A 
HETATM    3  C5  UNL     1     -32.364   9.548   1.025  1.00 20.00     0.075 A 
HETATM    4  C7  UNL     1     -33.310   9.869  -0.078  1.00 20.00     0.028 C 
HETATM    5  N8  UNL     1     -32.283   8.195   1.485  1.00 20.00    -0.243 NA
HETATM    6  O9  UNL     1     -31.539   8.400   3.694  1.00 20.00    -0.275 OA
ENDROOT
BRANCH   1   7
HETATM    7  C1  UNL     1     -33.136   6.760   3.150  1.00 20.00     0.064 C 
HETATM    8  C2  UNL     1     -33.952   6.754   4.213  1.00 20.00    -0.026 C 
HETATM    9  C6  UNL     1     -34.872   5.627   4.546  1.00 20.00     0.036 C 
ENDBRANCH   1   7
TORSDOF 1
ENDMDL
MODEL 2
REMARK VINA RESULT:      -4.9      1.294      4.425
REMARK  1 active torsions:
REMARK  status: ('A' for Active; 'I' for Inactive)
REMARK    1  A    between atoms: C1_1  and  C3_3 
REMARK       I    between atoms: C3_3  and  N8_8 
ROOT
HETATM    1  C3  UNL     1     -32.547   7.766   3.310  1.00 20.00     0.223 C 
HETATM    2  C4  UNL     1     -33.849   7.360   5.368  1.00 20.00     0.119 A 
HETATM    3  C5  UNL     1     -33.643   6.054   4.703  1.00 20.00     0.075 A 
HETATM    4  C7  UNL     1     -34.765   5.091   4.541  1.00 20.00     0.028 C 
HETATM    5  N8  UNL     1     -33.669   7.269   3.945  1.00 20.00    -0.243 NA
HETATM    6  O9  UNL     1     -31.413   7.862   3.764  1.00 20.00    -0.275 OA
ENDROOT
BRANCH   1   7
HETATM    7  C1  UNL     1     -32.858   8.206   1.939  1.00 20.00     0.064 C 
HETATM    8  C2  UNL     1     -32.467   9.384   1.434  1.00 20.00    -0.026 C 
HETATM    9  C6  UNL     1     -32.782   9.837   0.047  1.00 20.00     0.036 C 
ENDBRANCH   1   7
TORSDOF 1
ENDMDL
MODEL 3
REMARK VINA RESULT:      -3.9      9.970     10.734
REMARK  1 active torsions:
REMARK  status: ('A' for Active; 'I' for Inactive)
REMARK    1  A    between atoms: C1_1  and  C3_3 
REMARK       I    between atoms: C3_3  and  N8_8 
ROOT
HETATM    1  C3  UNL     1     -36.145  13.832  -5.173  1.00 20.00     0.223 C 
HETATM    2  C4  UNL     1     -33.928  14.873  -5.483  1.00 20.00     0.119 A 
HETATM    3  C5  UNL     1     -34.228  14.880  -4.034  1.00 20.00     0.075 A 
HETATM    4  C7  UNL     1     -33.999  16.096  -3.209  1.00 20.00     0.028 C 
HETATM    5  N8  UNL     1     -35.282  14.897  -5.002  1.00 20.00    -0.243 NA
HETATM    6  O9  UNL     1     -35.858  12.642  -5.241  1.00 20.00    -0.275 OA
ENDROOT
BRANCH   1   7
HETATM    7  C1  UNL     1     -37.543  14.285  -5.276  1.00 20.00     0.064 C 
HETATM    8  C2  UNL     1     -38.068  15.245  -4.503  1.00 20.00    -0.026 C 
HETATM    9  C6  UNL     1     -39.485  15.705  -4.600  1.00 20.00     0.036 C 
ENDBRANCH   1   7
TORSDOF 1
ENDMDL
MODEL 4
REMARK VINA RESULT:      -3.9      9.999     11.038
REMARK  1 active torsions:
REMARK  status: ('A' for Active; 'I' for Inactive)
REMARK    1  A    between atoms: C1_1  and  C3_3 
REMARK       I    between atoms: C3_3  and  N8_8 
ROOT
HETATM    1  C3  UNL     1     -35.723  14.009  -4.826  1.00 20.00     0.223 C 
HETATM    2  C4  UNL     1     -38.128  14.411  -5.214  1.00 20.00     0.119 A 
HETATM    3  C5  UNL     1     -37.392  14.920  -6.393  1.00 20.00     0.075 A 
HETATM    4  C7  UNL     1     -37.707  16.251  -6.978  1.00 20.00     0.028 C 
HETATM    5  N8  UNL     1     -36.769  14.867  -5.105  1.00 20.00    -0.243 NA
HETATM    6  O9  UNL     1     -35.633  12.822  -5.118  1.00 20.00    -0.275 OA
ENDROOT
BRANCH   1   7
HETATM    7  C1  UNL     1     -34.648  14.696  -4.090  1.00 20.00     0.064 C 
HETATM    8  C2  UNL     1     -34.823  15.848  -3.429  1.00 20.00    -0.026 C 
HETATM    9  C6  UNL     1     -33.735  16.550  -2.685  1.00 20.00     0.036 C 
ENDBRANCH   1   7
TORSDOF 1
ENDMDL
MODEL 5
REMARK VINA RESULT:      -3.8      9.790     10.461
REMARK  1 active torsions:
REMARK  status: ('A' for Active; 'I' for Inactive)
REMARK    1  A    between atoms: C1_1  and  C3_3 
REMARK       I    between atoms: C3_3  and  N8_8 
ROOT
HETATM    1  C3  UNL     1     -34.034  14.593  -4.309  1.00 20.00     0.223 C 
HETATM    2  C4  UNL     1     -36.010  13.431  -5.228  1.00 20.00     0.119 A 
HETATM    3  C5  UNL     1     -35.454  14.286  -6.300  1.00 20.00     0.075 A 
HETATM    4  C7  UNL     1     -36.339  15.142  -7.134  1.00 20.00     0.028 C 
HETATM    5  N8  UNL     1     -35.273  14.626  -4.921  1.00 20.00    -0.243 NA
HETATM    6  O9  UNL     1     -33.184  13.713  -4.391  1.00 20.00    -0.275 OA
ENDROOT
BRANCH   1   7
HETATM    7  C1  UNL     1     -33.809  15.795  -3.489  1.00 20.00     0.064 C 
HETATM    8  C2  UNL     1     -34.694  16.256  -2.594  1.00 20.00    -0.026 C 
HETATM    9  C6  UNL     1     -34.472  17.476  -1.762  1.00 20.00     0.036 C 
ENDBRANCH   1   7
TORSDOF 1
ENDMDL
MODEL 6
REMARK VINA RESULT:      -3.8      9.881     10.476
REMARK  1 active torsions:
REMARK  status: ('A' for Active; 'I' for Inactive)
REMARK    1  A    between atoms: C1_1  and  C3_3 
REMARK       I    between atoms: C3_3  and  N8_8 
ROOT
HETATM    1  C3  UNL     1     -33.866  16.055  -3.845  1.00 20.00     0.223 C 
HETATM    2  C4  UNL     1     -35.010  13.967  -4.497  1.00 20.00     0.119 A 
HETATM    3  C5  UNL     1     -35.912  15.094  -4.826  1.00 20.00     0.075 A 
HETATM    4  C7  UNL     1     -37.356  15.049  -4.474  1.00 20.00     0.028 C 
HETATM    5  N8  UNL     1     -34.952  15.205  -3.769  1.00 20.00    -0.243 NA
HETATM    6  O9  UNL     1     -33.107  16.214  -4.794  1.00 20.00    -0.275 OA
ENDROOT
BRANCH   1   7
HETATM    7  C1  UNL     1     -33.685  16.807  -2.591  1.00 20.00     0.064 C 
HETATM    8  C2  UNL     1     -34.647  16.950  -1.669  1.00 20.00    -0.026 C 
HETATM    9  C6  UNL     1     -34.470  17.714  -0.398  1.00 20.00     0.036 C 
ENDBRANCH   1   7
TORSDOF 1
ENDMDL
MODEL 7
REMARK VINA RESULT:      -3.8     10.511     11.265
REMARK  1 active torsions:
REMARK  status: ('A' for Active; 'I' for Inactive)
REMARK    1  A    between atoms: C1_1  and  C3_3 
REMARK       I    between atoms: C3_3  and  N8_8 
ROOT
HETATM    1  C3  UNL     1     -36.821  14.529  -5.179  1.00 20.00     0.223 C 
HETATM    2  C4  UNL     1     -36.737  14.551  -7.647  1.00 20.00     0.119 A 
HETATM    3  C5  UNL     1     -35.614  13.715  -7.167  1.00 20.00     0.075 A 
HETATM    4  C7  UNL     1     -34.248  13.868  -7.735  1.00 20.00     0.028 C 
HETATM    5  N8  UNL     1     -36.141  14.771  -6.357  1.00 20.00    -0.243 NA
HETATM    6  O9  UNL     1     -37.698  13.696  -4.981  1.00 20.00    -0.275 OA
ENDROOT
BRANCH   1   7
HETATM    7  C1  UNL     1     -36.367  15.428  -4.104  1.00 20.00     0.064 C 
HETATM    8  C2  UNL     1     -35.097  15.494  -3.682  1.00 20.00    -0.026 C 
HETATM    9  C6  UNL     1     -34.633  16.400  -2.590  1.00 20.00     0.036 C 
ENDBRANCH   1   7
TORSDOF 1
ENDMDL
MODEL 8
REMARK VINA RESULT:      -3.8     10.208     10.623
REMARK  1 active torsions:
REMARK  status: ('A' for Active; 'I' for Inactive)
REMARK    1  A    between atoms: C1_1  and  C3_3 
REMARK       I    between atoms: C3_3  and  N8_8 
ROOT
HETATM    1  C3  UNL     1     -34.442  15.223  -4.720  1.00 20.00     0.223 C 
HETATM    2  C4  UNL     1     -35.926  13.325  -5.262  1.00 20.00     0.119 A 
HETATM    3  C5  UNL     1     -36.714  14.568  -5.414  1.00 20.00     0.075 A 
HETATM    4  C7  UNL     1     -38.086  14.680  -4.851  1.00 20.00     0.028 C 
HETATM    5  N8  UNL     1     -35.606  14.508  -4.510  1.00 20.00    -0.243 NA
HETATM    6  O9  UNL     1     -33.815  15.337  -5.767  1.00 20.00    -0.275 OA
ENDROOT
BRANCH   1   7
HETATM    7  C1  UNL     1     -33.988  15.882  -3.484  1.00 20.00     0.064 C 
HETATM    8  C2  UNL     1     -34.820  16.436  -2.592  1.00 20.00    -0.026 C 
HETATM    9  C6  UNL     1     -34.364  17.109  -1.340  1.00 20.00     0.036 C 
ENDBRANCH   1   7
TORSDOF 1
ENDMDL
MODEL 9
REMARK VINA RESULT:      -3.7      9.822     10.620
REMARK  1 active torsions:
REMARK  status: ('A' for Active; 'I' for Inactive)
REMARK    1  A    between atoms: C1_1  and  C3_3 
REMARK       I    between atoms: C3_3  and  N8_8 
ROOT
HETATM    1  C3  UNL     1     -34.846  16.751  -2.288  1.00 20.00     0.223 C 
HETATM    2  C4  UNL     1     -34.501  16.397  -4.706  1.00 20.00     0.119 A 
HETATM    3  C5  UNL     1     -34.185  15.125  -4.018  1.00 20.00     0.075 A 
HETATM    4  C7  UNL     1     -32.961  14.352  -4.358  1.00 20.00     0.028 C 
HETATM    5  N8  UNL     1     -34.038  16.381  -3.346  1.00 20.00    -0.243 NA
HETATM    6  O9  UNL     1     -36.064  16.645  -2.205  1.00 20.00    -0.275 OA
ENDROOT
BRANCH   1   7
HETATM    7  C1  UNL     1     -34.056  17.328  -1.187  1.00 20.00     0.064 C 
HETATM    8  C2  UNL     1     -32.903  17.987  -1.369  1.00 20.00    -0.026 C 
HETATM    9  C6  UNL     1     -32.097  18.571  -0.257  1.00 20.00     0.036 C 
ENDBRANCH   1   7
TORSDOF 1
ENDMDL
