MODEL 1
REMARK VINA RESULT:      -5.0      0.000      0.000
REMARK  0 active torsions:
REMARK  status: ('A' for Active; 'I' for Inactive)
ROOT
HETATM    1  C1  UNL     1     -31.914   8.365   1.992  1.00 20.00     0.089 C 
HETATM    2  C2  UNL     1     -33.173   7.032   3.554  1.00 20.00     0.017 C 
HETATM    3  C3  UNL     1     -32.428   8.113   3.289  1.00 20.00     0.118 C 
HETATM    4  C4  UNL     1     -33.521   6.008   2.501  1.00 20.00     0.059 C 
HETATM    5  C5  UNL     1     -33.931   4.793   3.340  1.00 20.00     0.026 C 
HETATM    6  C6  UNL     1     -34.477   5.385   4.640  1.00 20.00     0.122 C 
HETATM    7  C7  UNL     1     -33.785   7.391   5.983  1.00 20.00     0.149 C 
HETATM    8  N8  UNL     1     -31.491   8.576   0.932  1.00 20.00    -0.192 NA
HETATM    9  N9  UNL     1     -33.735   6.633   4.753  1.00 20.00    -0.388 N 
ENDROOT
TORSDOF 0
ENDMDL
MODEL 2
REMARK VINA RESULT:      -4.7      0.958      2.222
REMARK  0 active torsions:
REMARK  status: ('A' for Active; 'I' for Inactive)
ROOT
HETATM    1  C1  UNL     1     -32.460   7.972   2.123  1.00 20.00     0.089 C 
HETATM    2  C2  UNL     1     -33.421   6.646   3.890  1.00 20.00     0.017 C 
HETATM    3  C3  UNL     1     -33.105   6.802   2.598  1.00 20.00     0.118 C 
HETATM    4  C4  UNL     1     -33.115   7.694   4.933  1.00 20.00     0.059 C 
HETATM    5  C5  UNL     1     -34.051   7.305   6.082  1.00 20.00     0.026 C 
HETATM    6  C6  UNL     1     -34.228   5.792   5.942  1.00 20.00     0.122 C 
HETATM    7  C7  UNL     1     -34.387   4.308   3.923  1.00 20.00     0.149 C 
HETATM    8  N8  UNL     1     -31.931   8.928   1.730  1.00 20.00    -0.192 NA
HETATM    9  N9  UNL     1     -34.057   5.586   4.511  1.00 20.00    -0.388 N 
ENDROOT
TORSDOF 0
ENDMDL
MODEL 3
REMARK VINA RESULT:      -3.9     11.417     11.981
REMARK  0 active torsions:
REMARK  status: ('A' for Active; 'I' for Inactive)
ROOT
HETATM    1  C1  UNL     1     -37.243  14.264  -4.940  1.00 20.00     0.089 C 
HETATM    2  C2  UNL     1     -35.260  15.289  -4.033  1.00 20.00     0.017 C 
HETATM    3  C3  UNL     1     -35.834  14.395  -4.850  1.00 20.00     0.118 C 
HETATM    4  C4  UNL     1     -36.061  16.217  -3.154  1.00 20.00     0.059 C 
HETATM    5  C5  UNL     1     -35.030  16.663  -2.113  1.00 20.00     0.026 C 
HETATM    6  C6  UNL     1     -33.686  16.589  -2.840  1.00 20.00     0.122 C 
HETATM    7  C7  UNL     1     -32.803  14.986  -4.558  1.00 20.00     0.149 C 
HETATM    8  N8  UNL     1     -38.395  14.152  -5.017  1.00 20.00    -0.192 NA
HETATM    9  N9  UNL     1     -33.916  15.535  -3.817  1.00 20.00    -0.388 N 
ENDROOT
TORSDOF 0
ENDMDL
MODEL 4
REMARK VINA RESULT:      -3.8     11.337     12.783
REMARK  0 active torsions:
REMARK  status: ('A' for Active; 'I' for Inactive)
ROOT
HETATM    1  C1  UNL     1     -35.480  13.903  -5.474  1.00 20.00     0.089 C 
HETATM    2  C2  UNL     1     -34.600  16.044  -4.808  1.00 20.00     0.017 C 
HETATM    3  C3  UNL     1     -34.994  15.201  -5.772  1.00 20.00     0.118 C 
HETATM    4  C4  UNL     1     -34.643  15.681  -3.344  1.00 20.00     0.059 C 
HETATM    5  C5  UNL     1     -33.690  16.704  -2.718  1.00 20.00     0.026 C 
HETATM    6  C6  UNL     1     -33.771  17.924  -3.637  1.00 20.00     0.122 C 
HETATM    7  C7  UNL     1     -34.024  18.126  -6.127  1.00 20.00     0.149 C 
HETATM    8  N8  UNL     1     -35.878  12.839  -5.236  1.00 20.00    -0.192 NA
HETATM    9  N9  UNL     1     -34.094  17.326  -4.925  1.00 20.00    -0.388 N 
ENDROOT
TORSDOF 0
ENDMDL
MODEL 5
REMARK VINA RESULT:      -3.7     11.591     11.942
REMARK  0 active torsions:
REMARK  status: ('A' for Active; 'I' for Inactive)
ROOT
HETATM    1  C1  UNL     1     -32.216  18.409  -0.051  1.00 20.00     0.089 C 
HETATM    2  C2  UNL     1     -34.281  17.740  -1.096  1.00 20.00     0.017 C 
HETATM    3  C3  UNL     1     -33.632  18.351  -0.096  1.00 20.00     0.118 C 
HETATM    4  C4  UNL     1     -33.562  17.074  -2.244  1.00 20.00     0.059 C 
HETATM    5  C5  UNL     1     -34.638  16.150  -2.822  1.00 20.00     0.026 C 
HETATM    6  C6  UNL     1     -35.961  16.847  -2.500  1.00 20.00     0.122 C 
HETATM    7  C7  UNL     1     -36.702  18.191  -0.513  1.00 20.00     0.149 C 
HETATM    8  N8  UNL     1     -31.058  18.461  -0.010  1.00 20.00    -0.192 NA
HETATM    9  N9  UNL     1     -35.642  17.581  -1.284  1.00 20.00    -0.388 N 
ENDROOT
TORSDOF 0
ENDMDL
MODEL 6
REMARK VINA RESULT:      -3.7     11.412     12.892
REMARK  0 active torsions:
REMARK  status: ('A' for Active; 'I' for Inactive)
ROOT
HETATM    1  C1  UNL     1     -37.507  14.532  -5.537  1.00 20.00     0.089 C 
HETATM    2  C2  UNL     1     -35.201  15.218  -5.652  1.00 20.00     0.017 C 
HETATM    3  C3  UNL     1     -36.429  15.187  -6.185  1.00 20.00     0.118 C 
HETATM    4  C4  UNL     1     -34.872  14.565  -4.331  1.00 20.00     0.059 C 
HETATM    5  C5  UNL     1     -33.346  14.446  -4.388  1.00 20.00     0.026 C 
HETATM    6  C6  UNL     1     -32.899  15.608  -5.277  1.00 20.00     0.122 C 
HETATM    7  C7  UNL     1     -33.937  16.651  -7.311  1.00 20.00     0.149 C 
HETATM    8  N8  UNL     1     -38.393  13.998  -5.011  1.00 20.00    -0.192 NA
HETATM    9  N9  UNL     1     -34.047  15.794  -6.152  1.00 20.00    -0.388 N 
ENDROOT
TORSDOF 0
ENDMDL
MODEL 7
REMARK VINA RESULT:      -3.7     11.331     11.734
REMARK  0 active torsions:
REMARK  status: ('A' for Active; 'I' for Inactive)
ROOT
HETATM    1  C1  UNL     1     -34.470  15.824  -3.348  1.00 20.00     0.089 C 
HETATM    2  C2  UNL     1     -34.179  17.238  -1.419  1.00 20.00     0.017 C 
HETATM    3  C3  UNL     1     -33.673  16.641  -2.506  1.00 20.00     0.118 C 
HETATM    4  C4  UNL     1     -35.624  17.088  -1.009  1.00 20.00     0.059 C 
HETATM    5  C5  UNL     1     -35.599  17.512   0.463  1.00 20.00     0.026 C 
HETATM    6  C6  UNL     1     -34.438  18.503   0.562  1.00 20.00     0.122 C 
HETATM    7  C7  UNL     1     -32.203  18.577  -0.580  1.00 20.00     0.149 C 
HETATM    8  N8  UNL     1     -35.118  15.155  -4.040  1.00 20.00    -0.192 NA
HETATM    9  N9  UNL     1     -33.545  18.047  -0.494  1.00 20.00    -0.388 N 
ENDROOT
TORSDOF 0
ENDMDL
MODEL 8
REMARK VINA RESULT:      -3.7     11.238     12.183
REMARK  0 active torsions:
REMARK  status: ('A' for Active; 'I' for Inactive)
ROOT
HETATM    1  C1  UNL     1     -36.209  13.826  -4.989  1.00 20.00     0.089 C 
HETATM    2  C2  UNL     1     -35.857  15.866  -3.756  1.00 20.00     0.017 C 
HETATM    3  C3  UNL     1     -36.656  15.073  -4.484  1.00 20.00     0.118 C 
HETATM    4  C4  UNL     1     -34.434  15.495  -3.420  1.00 20.00     0.059 C 
HETATM    5  C5  UNL     1     -33.821  16.844  -3.031  1.00 20.00     0.026 C 
HETATM    6  C6  UNL     1     -34.993  17.659  -2.482  1.00 20.00     0.122 C 
HETATM    7  C7  UNL     1     -37.410  17.769  -3.149  1.00 20.00     0.149 C 
HETATM    8  N8  UNL     1     -35.848  12.804  -5.405  1.00 20.00    -0.192 NA
HETATM    9  N9  UNL     1     -36.128  17.105  -3.205  1.00 20.00    -0.388 N 
ENDROOT
TORSDOF 0
ENDMDL
MODEL 9
REMARK VINA RESULT:      -3.6     11.333     11.724
REMARK  0 active torsions:
REMARK  status: ('A' for Active; 'I' for Inactive)
ROOT
HETATM    1  C1  UNL     1     -34.428  17.265  -1.434  1.00 20.00     0.089 C 
HETATM    2  C2  UNL     1     -34.981  15.878  -3.324  1.00 20.00     0.017 C 
HETATM    3  C3  UNL     1     -35.366  16.602  -2.265  1.00 20.00     0.118 C 
HETATM    4  C4  UNL     1     -33.532  15.714  -3.712  1.00 20.00     0.059 C 
HETATM    5  C5  UNL     1     -33.567  14.480  -4.619  1.00 20.00     0.026 C 
HETATM    6  C6  UNL     1     -34.964  14.495  -5.242  1.00 20.00     0.122 C 
HETATM    7  C7  UNL     1     -37.198  15.169  -4.317  1.00 20.00     0.149 C 
HETATM    8  N8  UNL     1     -33.665  17.810  -0.751  1.00 20.00    -0.192 NA
HETATM    9  N9  UNL     1     -35.756  15.164  -4.220  1.00 20.00    -0.388 N 
ENDROOT
TORSDOF 0
ENDMDL
