MODEL 1
REMARK VINA RESULT:      -5.0      0.000      0.000
REMARK  0 active torsions:
REMARK  status: ('A' for Active; 'I' for Inactive)
ROOT
HETATM    1  C1  UNL     1     -34.061  17.403  -1.137  1.00 20.00     0.013 C 
HETATM    2  C2  UNL     1     -34.360  16.948  -2.207  1.00 20.00    -0.104 C 
HETATM    3  C3  UNL     1     -34.156  14.076  -4.372  1.00 20.00     0.048 C 
HETATM    4  C4  UNL     1     -33.787  15.246  -3.838  1.00 20.00    -0.001 C 
HETATM    5  C5  UNL     1     -35.567  13.841  -4.764  1.00 20.00     0.149 C 
HETATM    6  C6  UNL     1     -36.554  14.977  -4.623  1.00 20.00     0.085 C 
HETATM    7  C7  UNL     1     -36.187  15.885  -3.455  1.00 20.00     0.034 C 
HETATM    8  C8  UNL     1     -34.729  16.386  -3.525  1.00 20.00     0.037 C 
HETATM    9  C9  UNL     1     -34.569  17.480  -4.592  1.00 20.00     0.034 C 
HETATM   10  O10 UNL     1     -35.893  12.758  -5.247  1.00 20.00    -0.293 OA
ENDROOT
TORSDOF 0
ENDMDL
MODEL 2
REMARK VINA RESULT:      -5.0     10.587     11.458
REMARK  0 active torsions:
REMARK  status: ('A' for Active; 'I' for Inactive)
ROOT
HETATM    1  C1  UNL     1     -33.075   9.673   1.178  1.00 20.00     0.013 C 
HETATM    2  C2  UNL     1     -32.912   8.756   1.936  1.00 20.00    -0.104 C 
HETATM    3  C3  UNL     1     -34.464   6.612   4.380  1.00 20.00     0.048 C 
HETATM    4  C4  UNL     1     -33.796   7.677   3.920  1.00 20.00    -0.001 C 
HETATM    5  C5  UNL     1     -34.122   5.249   3.907  1.00 20.00     0.149 C 
HETATM    6  C6  UNL     1     -32.951   5.085   2.963  1.00 20.00     0.085 C 
HETATM    7  C7  UNL     1     -32.789   6.308   2.069  1.00 20.00     0.034 C 
HETATM    8  C8  UNL     1     -32.711   7.625   2.869  1.00 20.00     0.037 C 
HETATM    9  C9  UNL     1     -31.342   7.782   3.548  1.00 20.00     0.034 C 
HETATM   10  O10 UNL     1     -34.749   4.281   4.332  1.00 20.00    -0.293 OA
ENDROOT
TORSDOF 0
ENDMDL
MODEL 3
REMARK VINA RESULT:      -4.4      0.745      2.317
REMARK  0 active torsions:
REMARK  status: ('A' for Active; 'I' for Inactive)
ROOT
HETATM    1  C1  UNL     1     -33.438  18.765  -4.735  1.00 20.00     0.013 C 
HETATM    2  C2  UNL     1     -33.882  17.731  -4.315  1.00 20.00    -0.104 C 
HETATM    3  C3  UNL     1     -36.297  15.109  -4.838  1.00 20.00     0.048 C 
HETATM    4  C4  UNL     1     -35.816  16.268  -4.371  1.00 20.00    -0.001 C 
HETATM    5  C5  UNL     1     -35.482  13.873  -4.763  1.00 20.00     0.149 C 
HETATM    6  C6  UNL     1     -34.137  13.935  -4.074  1.00 20.00     0.085 C 
HETATM    7  C7  UNL     1     -33.497  15.308  -4.239  1.00 20.00     0.034 C 
HETATM    8  C8  UNL     1     -34.429  16.457  -3.799  1.00 20.00     0.037 C 
HETATM    9  C9  UNL     1     -34.521  16.542  -2.268  1.00 20.00     0.034 C 
HETATM   10  O10 UNL     1     -35.934  12.817  -5.202  1.00 20.00    -0.293 OA
ENDROOT
TORSDOF 0
ENDMDL
MODEL 4
REMARK VINA RESULT:      -4.4      1.683      2.569
REMARK  0 active torsions:
REMARK  status: ('A' for Active; 'I' for Inactive)
ROOT
HETATM    1  C1  UNL     1     -34.152  16.714  -2.470  1.00 20.00     0.013 C 
HETATM    2  C2  UNL     1     -34.035  15.920  -3.363  1.00 20.00    -0.104 C 
HETATM    3  C3  UNL     1     -35.752  13.582  -5.500  1.00 20.00     0.048 C 
HETATM    4  C4  UNL     1     -35.075  14.003  -4.424  1.00 20.00    -0.001 C 
HETATM    5  C5  UNL     1     -35.325  13.984  -6.861  1.00 20.00     0.149 C 
HETATM    6  C6  UNL     1     -34.064  14.805  -7.009  1.00 20.00     0.085 C 
HETATM    7  C7  UNL     1     -33.852  15.712  -5.802  1.00 20.00     0.034 C 
HETATM    8  C8  UNL     1     -33.892  14.943  -4.465  1.00 20.00     0.037 C 
HETATM    9  C9  UNL     1     -32.601  14.139  -4.248  1.00 20.00     0.034 C 
HETATM   10  O10 UNL     1     -35.960  13.596  -7.839  1.00 20.00    -0.293 OA
ENDROOT
TORSDOF 0
ENDMDL
MODEL 5
REMARK VINA RESULT:      -4.4      3.324      5.021
REMARK  0 active torsions:
REMARK  status: ('A' for Active; 'I' for Inactive)
ROOT
HETATM    1  C1  UNL     1     -33.681  15.258  -3.864  1.00 20.00     0.013 C 
HETATM    2  C2  UNL     1     -33.936  16.208  -3.175  1.00 20.00    -0.104 C 
HETATM    3  C3  UNL     1     -35.463  17.325  -0.109  1.00 20.00     0.048 C 
HETATM    4  C4  UNL     1     -35.393  17.007  -1.408  1.00 20.00    -0.001 C 
HETATM    5  C5  UNL     1     -34.405  18.150   0.520  1.00 20.00     0.149 C 
HETATM    6  C6  UNL     1     -33.294  18.690  -0.353  1.00 20.00     0.085 C 
HETATM    7  C7  UNL     1     -32.992  17.742  -1.508  1.00 20.00     0.034 C 
HETATM    8  C8  UNL     1     -34.249  17.377  -2.325  1.00 20.00     0.037 C 
HETATM    9  C9  UNL     1     -34.683  18.543  -3.227  1.00 20.00     0.034 C 
HETATM   10  O10 UNL     1     -34.479  18.429   1.715  1.00 20.00    -0.293 OA
ENDROOT
TORSDOF 0
ENDMDL
MODEL 6
REMARK VINA RESULT:      -4.3      2.769      4.448
REMARK  0 active torsions:
REMARK  status: ('A' for Active; 'I' for Inactive)
ROOT
HETATM    1  C1  UNL     1     -34.966  14.117  -4.451  1.00 20.00     0.013 C 
HETATM    2  C2  UNL     1     -34.874  15.196  -3.934  1.00 20.00    -0.104 C 
HETATM    3  C3  UNL     1     -35.412  17.101  -0.923  1.00 20.00     0.048 C 
HETATM    4  C4  UNL     1     -35.706  16.572  -2.118  1.00 20.00    -0.001 C 
HETATM    5  C5  UNL     1     -34.103  17.756  -0.694  1.00 20.00     0.149 C 
HETATM    6  C6  UNL     1     -33.147  17.888  -1.858  1.00 20.00     0.085 C 
HETATM    7  C7  UNL     1     -33.301  16.726  -2.832  1.00 20.00     0.034 C 
HETATM    8  C8  UNL     1     -34.760  16.526  -3.296  1.00 20.00     0.037 C 
HETATM    9  C9  UNL     1     -35.169  17.601  -4.315  1.00 20.00     0.034 C 
HETATM   10  O10 UNL     1     -33.844  18.231   0.410  1.00 20.00    -0.293 OA
ENDROOT
TORSDOF 0
ENDMDL
MODEL 7
REMARK VINA RESULT:      -4.3      1.435      1.577
REMARK  0 active torsions:
REMARK  status: ('A' for Active; 'I' for Inactive)
ROOT
HETATM    1  C1  UNL     1     -33.255  17.402  -1.789  1.00 20.00     0.013 C 
HETATM    2  C2  UNL     1     -33.815  16.973  -2.760  1.00 20.00    -0.104 C 
HETATM    3  C3  UNL     1     -33.394  15.461  -6.003  1.00 20.00     0.048 C 
HETATM    4  C4  UNL     1     -33.529  16.451  -5.112  1.00 20.00    -0.001 C 
HETATM    5  C5  UNL     1     -34.276  14.271  -5.944  1.00 20.00     0.149 C 
HETATM    6  C6  UNL     1     -35.380  14.241  -4.911  1.00 20.00     0.085 C 
HETATM    7  C7  UNL     1     -34.979  15.006  -3.654  1.00 20.00     0.034 C 
HETATM    8  C8  UNL     1     -34.505  16.442  -3.957  1.00 20.00     0.037 C 
HETATM    9  C9  UNL     1     -35.691  17.360  -4.292  1.00 20.00     0.034 C 
HETATM   10  O10 UNL     1     -34.136  13.367  -6.765  1.00 20.00    -0.293 OA
ENDROOT
TORSDOF 0
ENDMDL
MODEL 8
REMARK VINA RESULT:      -4.2     11.393     12.088
REMARK  0 active torsions:
REMARK  status: ('A' for Active; 'I' for Inactive)
ROOT
HETATM    1  C1  UNL     1     -30.947   8.633   3.365  1.00 20.00     0.013 C 
HETATM    2  C2  UNL     1     -31.973   8.008   3.387  1.00 20.00    -0.104 C 
HETATM    3  C3  UNL     1     -33.467   4.744   3.084  1.00 20.00     0.048 C 
HETATM    4  C4  UNL     1     -33.017   5.937   2.676  1.00 20.00    -0.001 C 
HETATM    5  C5  UNL     1     -34.297   4.632   4.307  1.00 20.00     0.149 C 
HETATM    6  C6  UNL     1     -34.691   5.900   5.031  1.00 20.00     0.085 C 
HETATM    7  C7  UNL     1     -33.618   6.973   4.886  1.00 20.00     0.034 C 
HETATM    8  C8  UNL     1     -33.236   7.239   3.414  1.00 20.00     0.037 C 
HETATM    9  C9  UNL     1     -34.325   8.049   2.696  1.00 20.00     0.034 C 
HETATM   10  O10 UNL     1     -34.699   3.529   4.673  1.00 20.00    -0.293 OA
ENDROOT
TORSDOF 0
ENDMDL
MODEL 9
REMARK VINA RESULT:      -4.1      2.575      4.181
REMARK  0 active torsions:
REMARK  status: ('A' for Active; 'I' for Inactive)
ROOT
HETATM    1  C1  UNL     1     -37.150  14.873  -4.653  1.00 20.00     0.013 C 
HETATM    2  C2  UNL     1     -36.057  15.251  -4.329  1.00 20.00    -0.104 C 
HETATM    3  C3  UNL     1     -33.645  17.916  -4.568  1.00 20.00     0.048 C 
HETATM    4  C4  UNL     1     -34.263  16.779  -4.907  1.00 20.00    -0.001 C 
HETATM    5  C5  UNL     1     -33.291  18.186  -3.154  1.00 20.00     0.149 C 
HETATM    6  C6  UNL     1     -33.567  17.115  -2.123  1.00 20.00     0.085 C 
HETATM    7  C7  UNL     1     -34.794  16.292  -2.500  1.00 20.00     0.034 C 
HETATM    8  C8  UNL     1     -34.711  15.716  -3.929  1.00 20.00     0.037 C 
HETATM    9  C9  UNL     1     -33.737  14.529  -3.993  1.00 20.00     0.034 C 
HETATM   10  O10 UNL     1     -32.728  19.238  -2.856  1.00 20.00    -0.293 OA
ENDROOT
TORSDOF 0
ENDMDL
