MODEL 1
REMARK VINA RESULT:      -4.8      0.000      0.000
REMARK  1 active torsions:
REMARK  status: ('A' for Active; 'I' for Inactive)
REMARK    1  A    between atoms: C3_3  and  C6_6 
ROOT
HETATM    1  C1  UNL     1     -34.393  18.082   0.319  1.00 20.00    -0.024 C 
HETATM    2  C2  UNL     1     -33.323  18.169  -0.494  1.00 20.00    -0.083 C 
HETATM    3  C4  UNL     1     -35.692  17.423  -0.049  1.00 20.00     0.032 C 
HETATM    4  C5  UNL     1     -33.306  17.566  -1.893  1.00 20.00     0.021 C 
HETATM    5  C6  UNL     1     -34.529  16.642  -2.124  1.00 20.00     0.066 C 
HETATM    6  C7  UNL     1     -35.858  17.182  -1.560  1.00 20.00    -0.003 C 
HETATM    7  C8  UNL     1     -32.054  18.824  -0.019  1.00 20.00     0.043 C 
HETATM    8  C10 UNL     1     -33.112  18.647  -2.967  1.00 20.00     0.015 C 
HETATM    9  C11 UNL     1     -36.397  18.448  -2.236  1.00 20.00     0.011 C 
ENDROOT
BRANCH   5  10
HETATM   10  C3  UNL     1     -34.651  16.171  -3.545  1.00 20.00     0.128 C 
HETATM   11  C9  UNL     1     -33.568  15.257  -4.050  1.00 20.00     0.091 C 
HETATM   12  O12 UNL     1     -35.591  16.514  -4.260  1.00 20.00    -0.298 OA
ENDBRANCH   5  10
TORSDOF 1
ENDMDL
MODEL 2
REMARK VINA RESULT:      -4.6      2.040      4.871
REMARK  1 active torsions:
REMARK  status: ('A' for Active; 'I' for Inactive)
REMARK    1  A    between atoms: C3_3  and  C6_6 
ROOT
HETATM    1  C1  UNL     1     -35.565  13.992  -4.936  1.00 20.00    -0.024 C 
HETATM    2  C2  UNL     1     -36.469  14.887  -4.495  1.00 20.00    -0.083 C 
HETATM    3  C4  UNL     1     -34.101  14.022  -4.600  1.00 20.00     0.032 C 
HETATM    4  C5  UNL     1     -36.099  16.033  -3.561  1.00 20.00     0.021 C 
HETATM    5  C6  UNL     1     -34.666  15.861  -2.997  1.00 20.00     0.066 C 
HETATM    6  C7  UNL     1     -33.626  15.367  -4.022  1.00 20.00    -0.003 C 
HETATM    7  C8  UNL     1     -37.922  14.752  -4.864  1.00 20.00     0.043 C 
HETATM    8  C10 UNL     1     -36.366  17.397  -4.215  1.00 20.00     0.015 C 
HETATM    9  C11 UNL     1     -33.307  16.343  -5.161  1.00 20.00     0.011 C 
ENDROOT
BRANCH   5  10
HETATM   10  C3  UNL     1     -34.192  17.055  -2.219  1.00 20.00     0.128 C 
HETATM   11  C9  UNL     1     -34.867  17.314  -0.900  1.00 20.00     0.091 C 
HETATM   12  O12 UNL     1     -33.294  17.784  -2.638  1.00 20.00    -0.298 OA
ENDBRANCH   5  10
TORSDOF 1
ENDMDL
MODEL 3
REMARK VINA RESULT:      -4.6      2.575      4.416
REMARK  1 active torsions:
REMARK  status: ('A' for Active; 'I' for Inactive)
REMARK    1  A    between atoms: C3_3  and  C6_6 
ROOT
HETATM    1  C1  UNL     1     -34.918  17.592  -4.382  1.00 20.00    -0.024 C 
HETATM    2  C2  UNL     1     -34.522  16.557  -3.616  1.00 20.00    -0.083 C 
HETATM    3  C4  UNL     1     -35.511  17.458  -5.755  1.00 20.00     0.032 C 
HETATM    4  C5  UNL     1     -34.666  15.107  -4.062  1.00 20.00     0.021 C 
HETATM    5  C6  UNL     1     -35.548  14.991  -5.331  1.00 20.00     0.066 C 
HETATM    6  C7  UNL     1     -35.289  16.076  -6.395  1.00 20.00    -0.003 C 
HETATM    7  C8  UNL     1     -33.967  16.794  -2.238  1.00 20.00     0.043 C 
HETATM    8  C10 UNL     1     -33.299  14.415  -4.170  1.00 20.00     0.015 C 
HETATM    9  C11 UNL     1     -33.912  16.026  -7.068  1.00 20.00     0.011 C 
ENDROOT
BRANCH   5  10
HETATM   10  C3  UNL     1     -35.569  13.605  -5.909  1.00 20.00     0.128 C 
HETATM   11  C9  UNL     1     -35.212  13.475  -7.365  1.00 20.00     0.091 C 
HETATM   12  O12 UNL     1     -35.860  12.625  -5.226  1.00 20.00    -0.298 OA
ENDBRANCH   5  10
TORSDOF 1
ENDMDL
MODEL 4
REMARK VINA RESULT:      -4.3      3.349      4.889
REMARK  1 active torsions:
REMARK  status: ('A' for Active; 'I' for Inactive)
REMARK    1  A    between atoms: C3_3  and  C6_6 
ROOT
HETATM    1  C1  UNL     1     -33.684  17.251  -5.621  1.00 20.00    -0.024 C 
HETATM    2  C2  UNL     1     -34.852  17.468  -4.987  1.00 20.00    -0.083 C 
HETATM    3  C4  UNL     1     -33.249  15.926  -6.178  1.00 20.00     0.032 C 
HETATM    4  C5  UNL     1     -35.893  16.372  -4.791  1.00 20.00     0.021 C 
HETATM    5  C6  UNL     1     -35.554  15.115  -5.631  1.00 20.00     0.066 C 
HETATM    6  C7  UNL     1     -34.060  14.732  -5.643  1.00 20.00    -0.003 C 
HETATM    7  C8  UNL     1     -35.209  18.843  -4.492  1.00 20.00     0.043 C 
HETATM    8  C10 UNL     1     -36.140  16.095  -3.301  1.00 20.00     0.015 C 
HETATM    9  C11 UNL     1     -33.487  14.270  -4.298  1.00 20.00     0.011 C 
ENDROOT
BRANCH   5  10
HETATM   10  C3  UNL     1     -36.449  13.947  -5.331  1.00 20.00     0.128 C 
HETATM   11  C9  UNL     1     -37.923  14.233  -5.232  1.00 20.00     0.091 C 
HETATM   12  O12 UNL     1     -36.000  12.812  -5.177  1.00 20.00    -0.298 OA
ENDBRANCH   5  10
TORSDOF 1
ENDMDL
MODEL 5
REMARK VINA RESULT:      -4.3      3.200      4.749
REMARK  1 active torsions:
REMARK  status: ('A' for Active; 'I' for Inactive)
REMARK    1  A    between atoms: C3_3  and  C6_6 
ROOT
HETATM    1  C1  UNL     1     -33.620  17.274  -4.713  1.00 20.00    -0.024 C 
HETATM    2  C2  UNL     1     -34.077  17.180  -5.977  1.00 20.00    -0.083 C 
HETATM    3  C4  UNL     1     -33.709  16.178  -3.690  1.00 20.00     0.032 C 
HETATM    4  C5  UNL     1     -34.720  15.910  -6.522  1.00 20.00     0.021 C 
HETATM    5  C6  UNL     1     -34.523  14.716  -5.553  1.00 20.00     0.066 C 
HETATM    6  C7  UNL     1     -34.702  15.063  -4.061  1.00 20.00    -0.003 C 
HETATM    7  C8  UNL     1     -33.912  18.326  -6.937  1.00 20.00     0.043 C 
HETATM    8  C10 UNL     1     -36.177  16.155  -6.943  1.00 20.00     0.015 C 
HETATM    9  C11 UNL     1     -36.121  15.464  -3.643  1.00 20.00     0.011 C 
ENDROOT
BRANCH   5  10
HETATM   10  C3  UNL     1     -35.292  13.493  -5.961  1.00 20.00     0.128 C 
HETATM   11  C9  UNL     1     -35.147  13.049  -7.391  1.00 20.00     0.091 C 
HETATM   12  O12 UNL     1     -36.005  12.883  -5.166  1.00 20.00    -0.298 OA
ENDBRANCH   5  10
TORSDOF 1
ENDMDL
MODEL 6
REMARK VINA RESULT:      -4.2      2.455      3.811
REMARK  1 active torsions:
REMARK  status: ('A' for Active; 'I' for Inactive)
REMARK    1  A    between atoms: C3_3  and  C6_6 
ROOT
HETATM    1  C1  UNL     1     -35.996  17.643  -3.297  1.00 20.00    -0.024 C 
HETATM    2  C2  UNL     1     -35.121  16.696  -2.906  1.00 20.00    -0.083 C 
HETATM    3  C4  UNL     1     -36.917  17.518  -4.477  1.00 20.00     0.032 C 
HETATM    4  C5  UNL     1     -34.995  15.354  -3.619  1.00 20.00     0.021 C 
HETATM    5  C6  UNL     1     -36.153  15.138  -4.626  1.00 20.00     0.066 C 
HETATM    6  C7  UNL     1     -36.532  16.387  -5.447  1.00 20.00    -0.003 C 
HETATM    7  C8  UNL     1     -34.262  16.904  -1.689  1.00 20.00     0.043 C 
HETATM    8  C10 UNL     1     -33.590  15.166  -4.212  1.00 20.00     0.015 C 
HETATM    9  C11 UNL     1     -35.464  16.880  -6.430  1.00 20.00     0.011 C 
ENDROOT
BRANCH   5  10
HETATM   10  C3  UNL     1     -35.970  13.916  -5.479  1.00 20.00     0.128 C 
HETATM   11  C9  UNL     1     -36.339  14.045  -6.932  1.00 20.00     0.091 C 
HETATM   12  O12 UNL     1     -35.537  12.863  -5.014  1.00 20.00    -0.298 OA
ENDBRANCH   5  10
TORSDOF 1
ENDMDL
MODEL 7
REMARK VINA RESULT:      -4.2      1.344      2.507
REMARK  1 active torsions:
REMARK  status: ('A' for Active; 'I' for Inactive)
REMARK    1  A    between atoms: C3_3  and  C6_6 
ROOT
HETATM    1  C1  UNL     1     -36.742  17.873  -1.945  1.00 20.00    -0.024 C 
HETATM    2  C2  UNL     1     -35.653  17.383  -1.323  1.00 20.00    -0.083 C 
HETATM    3  C4  UNL     1     -36.962  17.843  -3.431  1.00 20.00     0.032 C 
HETATM    4  C5  UNL     1     -34.517  16.701  -2.077  1.00 20.00     0.021 C 
HETATM    5  C6  UNL     1     -34.908  16.417  -3.550  1.00 20.00     0.066 C 
HETATM    6  C7  UNL     1     -35.685  17.555  -4.240  1.00 20.00    -0.003 C 
HETATM    7  C8  UNL     1     -35.541  17.433   0.177  1.00 20.00     0.043 C 
HETATM    8  C10 UNL     1     -33.194  17.463  -1.904  1.00 20.00     0.015 C 
HETATM    9  C11 UNL     1     -34.899  18.854  -4.459  1.00 20.00     0.011 C 
ENDROOT
BRANCH   5  10
HETATM   10  C3  UNL     1     -33.759  15.914  -4.377  1.00 20.00     0.128 C 
HETATM   11  C9  UNL     1     -33.352  14.481  -4.168  1.00 20.00     0.091 C 
HETATM   12  O12 UNL     1     -33.181  16.637  -5.186  1.00 20.00    -0.298 OA
ENDBRANCH   5  10
TORSDOF 1
ENDMDL
MODEL 8
REMARK VINA RESULT:      -4.1      2.561      4.180
REMARK  1 active torsions:
REMARK  status: ('A' for Active; 'I' for Inactive)
REMARK    1  A    between atoms: C3_3  and  C6_6 
ROOT
HETATM    1  C1  UNL     1     -34.084  16.191  -3.077  1.00 20.00    -0.024 C 
HETATM    2  C2  UNL     1     -34.149  15.196  -3.983  1.00 20.00    -0.083 C 
HETATM    3  C4  UNL     1     -35.269  16.966  -2.575  1.00 20.00     0.032 C 
HETATM    4  C5  UNL     1     -35.467  14.722  -4.584  1.00 20.00     0.021 C 
HETATM    5  C6  UNL     1     -36.681  15.324  -3.831  1.00 20.00     0.066 C 
HETATM    6  C7  UNL     1     -36.527  16.809  -3.447  1.00 20.00    -0.003 C 
HETATM    7  C8  UNL     1     -32.906  14.458  -4.398  1.00 20.00     0.043 C 
HETATM    8  C10 UNL     1     -35.495  14.929  -6.106  1.00 20.00     0.015 C 
HETATM    9  C11 UNL     1     -36.476  17.793  -4.622  1.00 20.00     0.011 C 
ENDROOT
BRANCH   5  10
HETATM   10  C3  UNL     1     -37.993  15.031  -4.500  1.00 20.00     0.128 C 
HETATM   11  C9  UNL     1     -39.027  16.123  -4.469  1.00 20.00     0.091 C 
HETATM   12  O12 UNL     1     -38.211  13.952  -5.048  1.00 20.00    -0.298 OA
ENDBRANCH   5  10
TORSDOF 1
ENDMDL
MODEL 9
REMARK VINA RESULT:      -3.9      2.585      4.656
REMARK  1 active torsions:
REMARK  status: ('A' for Active; 'I' for Inactive)
REMARK    1  A    between atoms: C3_3  and  C6_6 
ROOT
HETATM    1  C1  UNL     1     -33.742  15.170  -3.700  1.00 20.00    -0.024 C 
HETATM    2  C2  UNL     1     -34.690  16.076  -3.395  1.00 20.00    -0.083 C 
HETATM    3  C4  UNL     1     -33.659  14.429  -5.005  1.00 20.00     0.032 C 
HETATM    4  C5  UNL     1     -35.785  16.478  -4.376  1.00 20.00     0.021 C 
HETATM    5  C6  UNL     1     -35.497  15.933  -5.798  1.00 20.00     0.066 C 
HETATM    6  C7  UNL     1     -34.953  14.491  -5.836  1.00 20.00    -0.003 C 
HETATM    7  C8  UNL     1     -34.667  16.789  -2.070  1.00 20.00     0.043 C 
HETATM    8  C10 UNL     1     -37.179  16.133  -3.831  1.00 20.00     0.015 C 
HETATM    9  C11 UNL     1     -35.928  13.405  -5.368  1.00 20.00     0.011 C 
ENDROOT
BRANCH   5  10
HETATM   10  C3  UNL     1     -36.636  16.149  -6.753  1.00 20.00     0.128 C 
HETATM   11  C9  UNL     1     -36.951  17.573  -7.118  1.00 20.00     0.091 C 
HETATM   12  O12 UNL     1     -37.278  15.207  -7.215  1.00 20.00    -0.298 OA
ENDBRANCH   5  10
TORSDOF 1
ENDMDL
