MODEL 1
REMARK VINA RESULT:      -5.0      0.000      0.000
REMARK  2 active torsions:
REMARK  status: ('A' for Active; 'I' for Inactive)
REMARK    1  A    between atoms: C2_2  and  C7_7 
REMARK    2  A    between atoms: C3_3  and  C6_6 
ROOT
HETATM    1  C4  UNL     1     -33.946   6.170   2.615  1.00 20.00     0.014 C 
HETATM    2  C5  UNL     1     -32.419   6.235   2.446  1.00 20.00     0.015 C 
HETATM    3  C6  UNL     1     -33.855   7.378   3.583  1.00 20.00     0.067 C 
HETATM    4  C7  UNL     1     -32.458   7.712   2.938  1.00 20.00    -0.011 C 
HETATM    5  C10 UNL     1     -31.323   8.073   3.891  1.00 20.00     0.021 C 
ENDROOT
BRANCH   4   6
HETATM    6  C2  UNL     1     -32.547   8.707   1.828  1.00 20.00    -0.084 C 
HETATM    7  C1  UNL     1     -33.488   9.663   1.807  1.00 20.00     0.015 C 
HETATM    8  C8  UNL     1     -31.524   8.577   0.739  1.00 20.00     0.043 C 
ENDBRANCH   4   6
BRANCH   3   9
HETATM    9  C3  UNL     1     -33.914   7.067   5.087  1.00 20.00     0.128 C 
HETATM   10  C9  UNL     1     -34.486   5.732   5.481  1.00 20.00     0.091 C 
HETATM   11  O11 UNL     1     -33.509   7.868   5.929  1.00 20.00    -0.298 OA
ENDBRANCH   3   9
TORSDOF 2
ENDMDL
MODEL 2
REMARK VINA RESULT:      -5.0      1.423      4.133
REMARK  2 active torsions:
REMARK  status: ('A' for Active; 'I' for Inactive)
REMARK    1  A    between atoms: C2_2  and  C7_7 
REMARK    2  A    between atoms: C3_3  and  C6_6 
ROOT
HETATM    1  C4  UNL     1     -34.065   6.147   2.031  1.00 20.00     0.014 C 
HETATM    2  C5  UNL     1     -35.101   6.614   3.067  1.00 20.00     0.015 C 
HETATM    3  C6  UNL     1     -32.953   6.401   3.081  1.00 20.00     0.067 C 
HETATM    4  C7  UNL     1     -34.066   6.316   4.191  1.00 20.00    -0.011 C 
HETATM    5  C10 UNL     1     -34.030   7.372   5.291  1.00 20.00     0.021 C 
ENDROOT
BRANCH   4   6
HETATM    6  C2  UNL     1     -34.204   4.951   4.781  1.00 20.00    -0.084 C 
HETATM    7  C1  UNL     1     -33.918   3.843   4.080  1.00 20.00     0.015 C 
HETATM    8  C8  UNL     1     -34.680   4.889   6.202  1.00 20.00     0.043 C 
ENDBRANCH   4   6
BRANCH   3   9
HETATM    9  C3  UNL     1     -32.152   7.705   2.942  1.00 20.00     0.128 C 
HETATM   10  C9  UNL     1     -32.447   8.556   1.736  1.00 20.00     0.091 C 
HETATM   11  O11 UNL     1     -31.313   8.040   3.778  1.00 20.00    -0.298 OA
ENDBRANCH   3   9
TORSDOF 2
ENDMDL
MODEL 3
REMARK VINA RESULT:      -4.8      1.422      4.021
REMARK  2 active torsions:
REMARK  status: ('A' for Active; 'I' for Inactive)
REMARK    1  A    between atoms: C2_2  and  C7_7 
REMARK    2  A    between atoms: C3_3  and  C6_6 
ROOT
HETATM    1  C4  UNL     1     -34.169   6.186   2.148  1.00 20.00     0.014 C 
HETATM    2  C5  UNL     1     -35.148   6.698   3.217  1.00 20.00     0.015 C 
HETATM    3  C6  UNL     1     -33.009   6.413   3.153  1.00 20.00     0.067 C 
HETATM    4  C7  UNL     1     -34.082   6.376   4.305  1.00 20.00    -0.011 C 
HETATM    5  C10 UNL     1     -33.969   7.441   5.391  1.00 20.00     0.021 C 
ENDROOT
BRANCH   4   6
HETATM    6  C2  UNL     1     -34.243   5.022   4.914  1.00 20.00    -0.084 C 
HETATM    7  C1  UNL     1     -34.660   4.858   6.179  1.00 20.00     0.015 C 
HETATM    8  C8  UNL     1     -33.910   3.856   4.032  1.00 20.00     0.043 C 
ENDBRANCH   4   6
BRANCH   3   9
HETATM    9  C3  UNL     1     -32.171   7.687   2.970  1.00 20.00     0.128 C 
HETATM   10  C9  UNL     1     -32.445   8.507   1.738  1.00 20.00     0.091 C 
HETATM   11  O11 UNL     1     -31.321   8.025   3.792  1.00 20.00    -0.298 OA
ENDBRANCH   3   9
TORSDOF 2
ENDMDL
MODEL 4
REMARK VINA RESULT:      -4.6     10.331     11.641
REMARK  2 active torsions:
REMARK  status: ('A' for Active; 'I' for Inactive)
REMARK    1  A    between atoms: C2_2  and  C7_7 
REMARK    2  A    between atoms: C3_3  and  C6_6 
ROOT
HETATM    1  C4  UNL     1     -35.345  16.329  -5.957  1.00 20.00     0.014 C 
HETATM    2  C5  UNL     1     -33.861  16.388  -5.555  1.00 20.00     0.015 C 
HETATM    3  C6  UNL     1     -35.498  15.064  -5.073  1.00 20.00     0.067 C 
HETATM    4  C7  UNL     1     -34.196  15.515  -4.310  1.00 20.00    -0.011 C 
HETATM    5  C10 UNL     1     -33.157  14.437  -4.017  1.00 20.00     0.021 C 
ENDROOT
BRANCH   4   6
HETATM    6  C2  UNL     1     -34.482  16.313  -3.081  1.00 20.00    -0.084 C 
HETATM    7  C1  UNL     1     -35.708  16.366  -2.539  1.00 20.00     0.015 C 
HETATM    8  C8  UNL     1     -33.321  17.054  -2.488  1.00 20.00     0.043 C 
ENDBRANCH   4   6
BRANCH   3   9
HETATM    9  C3  UNL     1     -35.494  13.708  -5.796  1.00 20.00     0.128 C 
HETATM   10  C9  UNL     1     -34.974  13.695  -7.208  1.00 20.00     0.091 C 
HETATM   11  O11 UNL     1     -35.892  12.682  -5.245  1.00 20.00    -0.298 OA
ENDBRANCH   3   9
TORSDOF 2
ENDMDL
MODEL 5
REMARK VINA RESULT:      -4.6     10.739     11.597
REMARK  2 active torsions:
REMARK  status: ('A' for Active; 'I' for Inactive)
REMARK    1  A    between atoms: C2_2  and  C7_7 
REMARK    2  A    between atoms: C3_3  and  C6_6 
ROOT
HETATM    1  C4  UNL     1     -32.827  14.770  -4.338  1.00 20.00     0.014 C 
HETATM    2  C5  UNL     1     -33.097  15.466  -5.682  1.00 20.00     0.015 C 
HETATM    3  C6  UNL     1     -34.224  15.240  -3.854  1.00 20.00     0.067 C 
HETATM    4  C7  UNL     1     -34.621  15.414  -5.368  1.00 20.00    -0.011 C 
HETATM    5  C10 UNL     1     -35.371  16.688  -5.745  1.00 20.00     0.021 C 
ENDROOT
BRANCH   4   6
HETATM    6  C2  UNL     1     -35.307  14.215  -5.937  1.00 20.00    -0.084 C 
HETATM    7  C1  UNL     1     -36.291  13.583  -5.280  1.00 20.00     0.015 C 
HETATM    8  C8  UNL     1     -34.831  13.759  -7.284  1.00 20.00     0.043 C 
ENDBRANCH   4   6
BRANCH   3   9
HETATM    9  C3  UNL     1     -34.262  16.472  -2.938  1.00 20.00     0.128 C 
HETATM   10  C9  UNL     1     -35.455  16.605  -2.030  1.00 20.00     0.091 C 
HETATM   11  O11 UNL     1     -33.360  17.309  -2.943  1.00 20.00    -0.298 OA
ENDBRANCH   3   9
TORSDOF 2
ENDMDL
MODEL 6
REMARK VINA RESULT:      -4.6     10.574     12.166
REMARK  2 active torsions:
REMARK  status: ('A' for Active; 'I' for Inactive)
REMARK    1  A    between atoms: C2_2  and  C7_7 
REMARK    2  A    between atoms: C3_3  and  C6_6 
ROOT
HETATM    1  C4  UNL     1     -33.521  14.358  -4.452  1.00 20.00     0.014 C 
HETATM    2  C5  UNL     1     -34.467  15.348  -3.752  1.00 20.00     0.015 C 
HETATM    3  C6  UNL     1     -34.332  14.561  -5.758  1.00 20.00     0.067 C 
HETATM    4  C7  UNL     1     -34.858  15.914  -5.148  1.00 20.00    -0.011 C 
HETATM    5  C10 UNL     1     -36.347  16.209  -5.298  1.00 20.00     0.021 C 
ENDROOT
BRANCH   4   6
HETATM    6  C2  UNL     1     -34.046  17.098  -5.560  1.00 20.00    -0.084 C 
HETATM    7  C1  UNL     1     -33.516  17.942  -4.662  1.00 20.00     0.015 C 
HETATM    8  C8  UNL     1     -33.858  17.290  -7.036  1.00 20.00     0.043 C 
ENDBRANCH   4   6
BRANCH   3   9
HETATM    9  C3  UNL     1     -35.353  13.471  -6.117  1.00 20.00     0.128 C 
HETATM   10  C9  UNL     1     -35.691  13.311  -7.574  1.00 20.00     0.091 C 
HETATM   11  O11 UNL     1     -35.868  12.759  -5.255  1.00 20.00    -0.298 OA
ENDBRANCH   3   9
TORSDOF 2
ENDMDL
MODEL 7
REMARK VINA RESULT:      -4.4     10.731     12.365
REMARK  2 active torsions:
REMARK  status: ('A' for Active; 'I' for Inactive)
REMARK    1  A    between atoms: C2_2  and  C7_7 
REMARK    2  A    between atoms: C3_3  and  C6_6 
ROOT
HETATM    1  C4  UNL     1     -32.991  14.737  -4.449  1.00 20.00     0.014 C 
HETATM    2  C5  UNL     1     -34.423  14.553  -3.920  1.00 20.00     0.015 C 
HETATM    3  C6  UNL     1     -33.440  16.074  -5.095  1.00 20.00     0.067 C 
HETATM    4  C7  UNL     1     -34.649  16.084  -4.087  1.00 20.00    -0.011 C 
HETATM    5  C10 UNL     1     -36.019  16.446  -4.652  1.00 20.00     0.021 C 
ENDROOT
BRANCH   4   6
HETATM    6  C2  UNL     1     -34.371  16.867  -2.846  1.00 20.00    -0.084 C 
HETATM    7  C1  UNL     1     -33.329  17.706  -2.754  1.00 20.00     0.015 C 
HETATM    8  C8  UNL     1     -35.325  16.661  -1.706  1.00 20.00     0.043 C 
ENDBRANCH   4   6
BRANCH   3   9
HETATM    9  C3  UNL     1     -33.740  16.050  -6.602  1.00 20.00     0.128 C 
HETATM   10  C9  UNL     1     -33.817  17.381  -7.299  1.00 20.00     0.091 C 
HETATM   11  O11 UNL     1     -33.905  14.993  -7.211  1.00 20.00    -0.298 OA
ENDBRANCH   3   9
TORSDOF 2
ENDMDL
MODEL 8
REMARK VINA RESULT:      -4.4     10.879     12.313
REMARK  2 active torsions:
REMARK  status: ('A' for Active; 'I' for Inactive)
REMARK    1  A    between atoms: C2_2  and  C7_7 
REMARK    2  A    between atoms: C3_3  and  C6_6 
ROOT
HETATM    1  C4  UNL     1     -34.528  16.919  -6.412  1.00 20.00     0.014 C 
HETATM    2  C5  UNL     1     -33.403  16.765  -5.375  1.00 20.00     0.015 C 
HETATM    3  C6  UNL     1     -34.940  15.451  -6.130  1.00 20.00     0.067 C 
HETATM    4  C7  UNL     1     -34.178  15.564  -4.757  1.00 20.00    -0.011 C 
HETATM    5  C10 UNL     1     -33.285  14.393  -4.362  1.00 20.00     0.021 C 
ENDROOT
BRANCH   4   6
HETATM    6  C2  UNL     1     -35.068  15.951  -3.622  1.00 20.00    -0.084 C 
HETATM    7  C1  UNL     1     -36.397  15.769  -3.669  1.00 20.00     0.015 C 
HETATM    8  C8  UNL     1     -34.392  16.553  -2.426  1.00 20.00     0.043 C 
ENDBRANCH   4   6
BRANCH   3   9
HETATM    9  C3  UNL     1     -34.475  14.393  -7.143  1.00 20.00     0.128 C 
HETATM   10  C9  UNL     1     -35.218  13.085  -7.147  1.00 20.00     0.091 C 
HETATM   11  O11 UNL     1     -33.543  14.607  -7.918  1.00 20.00    -0.298 OA
ENDBRANCH   3   9
TORSDOF 2
ENDMDL
MODEL 9
REMARK VINA RESULT:      -4.4     10.870     11.992
REMARK  2 active torsions:
REMARK  status: ('A' for Active; 'I' for Inactive)
REMARK    1  A    between atoms: C2_2  and  C7_7 
REMARK    2  A    between atoms: C3_3  and  C6_6 
ROOT
HETATM    1  C4  UNL     1     -35.108  17.442  -5.430  1.00 20.00     0.014 C 
HETATM    2  C5  UNL     1     -33.636  17.246  -5.030  1.00 20.00     0.015 C 
HETATM    3  C6  UNL     1     -35.418  16.043  -4.837  1.00 20.00     0.067 C 
HETATM    4  C7  UNL     1     -34.091  16.170  -4.000  1.00 20.00    -0.011 C 
HETATM    5  C10 UNL     1     -33.184  14.944  -3.949  1.00 20.00     0.021 C 
ENDROOT
BRANCH   4   6
HETATM    6  C2  UNL     1     -34.313  16.715  -2.627  1.00 20.00    -0.084 C 
HETATM    7  C1  UNL     1     -35.481  16.567  -1.986  1.00 20.00     0.015 C 
HETATM    8  C8  UNL     1     -33.154  17.438  -2.008  1.00 20.00     0.043 C 
ENDBRANCH   4   6
BRANCH   3   9
HETATM    9  C3  UNL     1     -35.550  14.881  -5.834  1.00 20.00     0.128 C 
HETATM   10  C9  UNL     1     -36.292  13.661  -5.359  1.00 20.00     0.091 C 
HETATM   11  O11 UNL     1     -35.075  14.946  -6.967  1.00 20.00    -0.298 OA
ENDBRANCH   3   9
TORSDOF 2
ENDMDL
