MODEL 1
REMARK VINA RESULT:      -5.4      0.000      0.000
REMARK  0 active torsions:
REMARK  status: ('A' for Active; 'I' for Inactive)
ROOT
HETATM    1  C1  UNL     1     -34.605   5.208   4.043  1.00 20.00     0.251 C 
HETATM    2  C2  UNL     1     -34.006   5.825   5.290  1.00 20.00     0.251 C 
HETATM    3  C3  UNL     1     -33.678   5.584   2.906  1.00 20.00     0.271 C 
HETATM    4  C4  UNL     1     -33.772   7.288   4.969  1.00 20.00     0.271 C 
HETATM    5  F5  UNL     1     -34.653   3.859   4.171  1.00 20.00    -0.242 F 
HETATM    6  F6  UNL     1     -34.891   5.725   6.316  1.00 20.00    -0.242 F 
HETATM    7  F7  UNL     1     -32.539   4.846   2.997  1.00 20.00    -0.235 F 
HETATM    8  F8  UNL     1     -32.796   7.781   5.772  1.00 20.00    -0.235 F 
HETATM    9  S9  UNL     1     -33.272   7.323   3.229  1.00 20.00    -0.089 SA
ENDROOT
TORSDOF 0
ENDMDL
MODEL 2
REMARK VINA RESULT:      -5.4      1.230      1.752
REMARK  0 active torsions:
REMARK  status: ('A' for Active; 'I' for Inactive)
ROOT
HETATM    1  C1  UNL     1     -34.839   5.764   5.183  1.00 20.00     0.251 C 
HETATM    2  C2  UNL     1     -33.643   6.679   5.348  1.00 20.00     0.251 C 
HETATM    3  C3  UNL     1     -34.497   4.833   4.040  1.00 20.00     0.271 C 
HETATM    4  C4  UNL     1     -33.356   7.254   3.975  1.00 20.00     0.271 C 
HETATM    5  F5  UNL     1     -35.035   5.049   6.318  1.00 20.00    -0.242 F 
HETATM    6  F6  UNL     1     -33.958   7.687   6.203  1.00 20.00    -0.242 F 
HETATM    7  F7  UNL     1     -33.578   3.925   4.465  1.00 20.00    -0.235 F 
HETATM    8  F8  UNL     1     -32.056   7.633   3.902  1.00 20.00    -0.235 F 
HETATM    9  S9  UNL     1     -33.718   5.916   2.810  1.00 20.00    -0.089 SA
ENDROOT
TORSDOF 0
ENDMDL
MODEL 3
REMARK VINA RESULT:      -5.3      1.902      2.655
REMARK  0 active torsions:
REMARK  status: ('A' for Active; 'I' for Inactive)
ROOT
HETATM    1  C1  UNL     1     -33.688   5.930   3.340  1.00 20.00     0.251 C 
HETATM    2  C2  UNL     1     -33.500   7.253   4.055  1.00 20.00     0.251 C 
HETATM    3  C3  UNL     1     -34.869   5.259   4.010  1.00 20.00     0.271 C 
HETATM    4  C4  UNL     1     -33.437   6.930   5.534  1.00 20.00     0.271 C 
HETATM    5  F5  UNL     1     -33.962   6.146   2.030  1.00 20.00    -0.242 F 
HETATM    6  F6  UNL     1     -32.326   7.815   3.665  1.00 20.00    -0.242 F 
HETATM    7  F7  UNL     1     -36.013   5.885   3.626  1.00 20.00    -0.235 F 
HETATM    8  F8  UNL     1     -33.798   8.022   6.254  1.00 20.00    -0.235 F 
HETATM    9  S9  UNL     1     -34.602   5.566   5.778  1.00 20.00    -0.089 SA
ENDROOT
TORSDOF 0
ENDMDL
MODEL 4
REMARK VINA RESULT:      -5.1      1.680      3.408
REMARK  0 active torsions:
REMARK  status: ('A' for Active; 'I' for Inactive)
ROOT
HETATM    1  C1  UNL     1     -33.477   6.477   2.848  1.00 20.00     0.251 C 
HETATM    2  C2  UNL     1     -33.073   5.055   3.178  1.00 20.00     0.251 C 
HETATM    3  C3  UNL     1     -33.829   7.128   4.170  1.00 20.00     0.271 C 
HETATM    4  C4  UNL     1     -34.195   4.480   4.020  1.00 20.00     0.271 C 
HETATM    5  F5  UNL     1     -32.439   7.133   2.274  1.00 20.00    -0.242 F 
HETATM    6  F6  UNL     1     -32.959   4.339   2.030  1.00 20.00    -0.242 F 
HETATM    7  F7  UNL     1     -32.685   7.375   4.862  1.00 20.00    -0.235 F 
HETATM    8  F8  UNL     1     -33.718   3.463   4.781  1.00 20.00    -0.235 F 
HETATM    9  S9  UNL     1     -34.776   5.853   5.048  1.00 20.00    -0.089 SA
ENDROOT
TORSDOF 0
ENDMDL
MODEL 5
REMARK VINA RESULT:      -5.0      1.743      2.816
REMARK  0 active torsions:
REMARK  status: ('A' for Active; 'I' for Inactive)
ROOT
HETATM    1  C1  UNL     1     -33.789   4.667   4.142  1.00 20.00     0.251 C 
HETATM    2  C2  UNL     1     -33.387   5.252   2.804  1.00 20.00     0.251 C 
HETATM    3  C3  UNL     1     -34.637   5.722   4.820  1.00 20.00     0.271 C 
HETATM    4  C4  UNL     1     -32.793   6.615   3.098  1.00 20.00     0.271 C 
HETATM    5  F5  UNL     1     -34.518   3.540   3.955  1.00 20.00    -0.242 F 
HETATM    6  F6  UNL     1     -32.443   4.462   2.229  1.00 20.00    -0.242 F 
HETATM    7  F7  UNL     1     -35.857   5.766   4.220  1.00 20.00    -0.235 F 
HETATM    8  F8  UNL     1     -32.896   7.404   1.999  1.00 20.00    -0.235 F 
HETATM    9  S9  UNL     1     -33.763   7.275   4.476  1.00 20.00    -0.089 SA
ENDROOT
TORSDOF 0
ENDMDL
MODEL 6
REMARK VINA RESULT:      -4.9      1.784      2.700
REMARK  0 active torsions:
REMARK  status: ('A' for Active; 'I' for Inactive)
ROOT
HETATM    1  C1  UNL     1     -33.191   6.794   3.775  1.00 20.00     0.251 C 
HETATM    2  C2  UNL     1     -34.075   6.909   5.000  1.00 20.00     0.251 C 
HETATM    3  C3  UNL     1     -33.753   5.647   2.962  1.00 20.00     0.271 C 
HETATM    4  C4  UNL     1     -34.140   5.523   5.608  1.00 20.00     0.271 C 
HETATM    5  F5  UNL     1     -33.246   7.941   3.054  1.00 20.00    -0.242 F 
HETATM    6  F6  UNL     1     -33.507   7.766   5.889  1.00 20.00    -0.242 F 
HETATM    7  F7  UNL     1     -34.908   6.048   2.367  1.00 20.00    -0.235 F 
HETATM    8  F8  UNL     1     -35.271   5.401   6.346  1.00 20.00    -0.235 F 
HETATM    9  S9  UNL     1     -34.145   4.382   4.202  1.00 20.00    -0.089 SA
ENDROOT
TORSDOF 0
ENDMDL
MODEL 7
REMARK VINA RESULT:      -4.8      1.317      2.127
REMARK  0 active torsions:
REMARK  status: ('A' for Active; 'I' for Inactive)
ROOT
HETATM    1  C1  UNL     1     -33.697   5.217   2.755  1.00 20.00     0.251 C 
HETATM    2  C2  UNL     1     -33.806   4.715   4.180  1.00 20.00     0.251 C 
HETATM    3  C3  UNL     1     -33.250   6.661   2.855  1.00 20.00     0.271 C 
HETATM    4  C4  UNL     1     -34.672   5.716   4.917  1.00 20.00     0.271 C 
HETATM    5  F5  UNL     1     -32.771   4.495   2.078  1.00 20.00    -0.242 F 
HETATM    6  F6  UNL     1     -34.415   3.500   4.186  1.00 20.00    -0.242 F 
HETATM    7  F7  UNL     1     -31.937   6.697   3.207  1.00 20.00    -0.235 F 
HETATM    8  F8  UNL     1     -34.402   5.661   6.246  1.00 20.00    -0.235 F 
HETATM    9  S9  UNL     1     -34.237   7.330   4.223  1.00 20.00    -0.089 SA
ENDROOT
TORSDOF 0
ENDMDL
MODEL 8
REMARK VINA RESULT:      -4.8      1.524      3.317
REMARK  0 active torsions:
REMARK  status: ('A' for Active; 'I' for Inactive)
ROOT
HETATM    1  C1  UNL     1     -33.861   7.262   5.342  1.00 20.00     0.251 C 
HETATM    2  C2  UNL     1     -32.887   6.916   4.234  1.00 20.00     0.251 C 
HETATM    3  C3  UNL     1     -34.696   6.019   5.567  1.00 20.00     0.271 C 
HETATM    4  C4  UNL     1     -33.720   6.358   3.097  1.00 20.00     0.271 C 
HETATM    5  F5  UNL     1     -33.183   7.573   6.474  1.00 20.00    -0.242 F 
HETATM    6  F6  UNL     1     -32.253   8.044   3.819  1.00 20.00    -0.242 F 
HETATM    7  F7  UNL     1     -33.944   5.088   6.212  1.00 20.00    -0.235 F 
HETATM    8  F8  UNL     1     -32.950   5.559   2.317  1.00 20.00    -0.235 F 
HETATM    9  S9  UNL     1     -35.050   5.420   3.891  1.00 20.00    -0.089 SA
ENDROOT
TORSDOF 0
ENDMDL
MODEL 9
REMARK VINA RESULT:      -4.7      1.779      2.973
REMARK  0 active torsions:
REMARK  status: ('A' for Active; 'I' for Inactive)
ROOT
HETATM    1  C1  UNL     1     -32.675   7.303   4.583  1.00 20.00     0.251 C 
HETATM    2  C2  UNL     1     -34.137   7.075   4.906  1.00 20.00     0.251 C 
HETATM    3  C3  UNL     1     -32.563   7.220   3.075  1.00 20.00     0.271 C 
HETATM    4  C4  UNL     1     -34.534   5.797   4.195  1.00 20.00     0.271 C 
HETATM    5  F5  UNL     1     -32.293   8.533   5.006  1.00 20.00    -0.242 F 
HETATM    6  F6  UNL     1     -34.285   6.912   6.246  1.00 20.00    -0.242 F 
HETATM    7  F7  UNL     1     -33.091   8.347   2.527  1.00 20.00    -0.235 F 
HETATM    8  F8  UNL     1     -35.874   5.792   3.980  1.00 20.00    -0.235 F 
HETATM    9  S9  UNL     1     -33.617   5.810   2.635  1.00 20.00    -0.089 SA
ENDROOT
TORSDOF 0
ENDMDL
