MODEL 1
REMARK VINA RESULT:      -7.1      0.000      0.000
REMARK  1 active torsions:
REMARK  status: ('A' for Active; 'I' for Inactive)
REMARK    1  A    between atoms: C1_1  and  C6_6 
ROOT
HETATM    1  C2  UNL     1     -33.138   7.341   4.828  1.00 20.00     0.019 C 
HETATM    2  C3  UNL     1     -33.174   5.916   2.728  1.00 20.00     0.019 C 
HETATM    3  C4  UNL     1     -34.229   6.506   5.501  1.00 20.00     0.080 C 
HETATM    4  C5  UNL     1     -33.710   4.837   3.672  1.00 20.00     0.080 C 
HETATM    5  C6  UNL     1     -33.253   7.337   3.305  1.00 20.00     0.072 C 
HETATM    6  C7  UNL     1     -34.761   5.387   4.616  1.00 20.00     0.243 C 
HETATM    7  F9  UNL     1     -35.808   5.851   3.885  1.00 20.00    -0.206 F 
HETATM    8  F10 UNL     1     -35.251   4.391   5.393  1.00 20.00    -0.206 F 
ENDROOT
BRANCH   5   9
HETATM    9  C1  UNL     1     -32.182   8.197   2.702  1.00 20.00     0.223 C 
HETATM   10  O8  UNL     1     -31.113   8.390   3.272  1.00 20.00    -0.279 OA
HETATM   11 CL11 UNL     1     -32.653   8.843   1.159  1.00 20.00    -0.043 Cl
ENDBRANCH   5   9
TORSDOF 1
ENDMDL
MODEL 2
REMARK VINA RESULT:      -5.9      3.362      4.398
REMARK  1 active torsions:
REMARK  status: ('A' for Active; 'I' for Inactive)
REMARK    1  A    between atoms: C1_1  and  C6_6 
ROOT
HETATM    1  C2  UNL     1     -33.353   6.138   2.949  1.00 20.00     0.019 C 
HETATM    2  C3  UNL     1     -32.532   7.944   4.532  1.00 20.00     0.019 C 
HETATM    3  C4  UNL     1     -32.833   6.879   1.716  1.00 20.00     0.080 C 
HETATM    4  C5  UNL     1     -31.533   8.238   3.409  1.00 20.00     0.080 C 
HETATM    5  C6  UNL     1     -33.724   7.084   4.089  1.00 20.00     0.072 C 
HETATM    6  C7  UNL     1     -32.199   8.223   2.048  1.00 20.00     0.243 C 
HETATM    7  F9  UNL     1     -33.153   9.191   2.014  1.00 20.00    -0.206 F 
HETATM    8  F10 UNL     1     -31.297   8.545   1.088  1.00 20.00    -0.206 F 
ENDROOT
BRANCH   5   9
HETATM    9  C1  UNL     1     -34.259   6.306   5.256  1.00 20.00     0.223 C 
HETATM   10  O8  UNL     1     -34.365   6.808   6.371  1.00 20.00    -0.279 OA
HETATM   11 CL11 UNL     1     -34.683   4.679   4.818  1.00 20.00    -0.043 Cl
ENDBRANCH   5   9
TORSDOF 1
ENDMDL
MODEL 3
REMARK VINA RESULT:      -5.5      1.598      2.196
REMARK  1 active torsions:
REMARK  status: ('A' for Active; 'I' for Inactive)
REMARK    1  A    between atoms: C1_1  and  C6_6 
ROOT
HETATM    1  C2  UNL     1     -34.521   6.396   3.206  1.00 20.00     0.019 C 
HETATM    2  C3  UNL     1     -33.072   7.367   5.051  1.00 20.00     0.019 C 
HETATM    3  C4  UNL     1     -35.127   5.343   4.136  1.00 20.00     0.080 C 
HETATM    4  C5  UNL     1     -34.147   6.783   5.971  1.00 20.00     0.080 C 
HETATM    5  C6  UNL     1     -33.109   6.803   3.623  1.00 20.00     0.072 C 
HETATM    6  C7  UNL     1     -34.553   5.386   5.545  1.00 20.00     0.243 C 
HETATM    7  F9  UNL     1     -33.467   4.572   5.615  1.00 20.00    -0.206 F 
HETATM    8  F10 UNL     1     -35.461   4.882   6.417  1.00 20.00    -0.206 F 
ENDROOT
BRANCH   5   9
HETATM    9  C1  UNL     1     -32.554   7.810   2.659  1.00 20.00     0.223 C 
HETATM   10  O8  UNL     1     -33.089   8.029   1.576  1.00 20.00    -0.279 OA
HETATM   11 CL11 UNL     1     -31.120   8.579   3.269  1.00 20.00    -0.043 Cl
ENDBRANCH   5   9
TORSDOF 1
ENDMDL
MODEL 4
REMARK VINA RESULT:      -4.7     11.888     12.457
REMARK  1 active torsions:
REMARK  status: ('A' for Active; 'I' for Inactive)
REMARK    1  A    between atoms: C1_1  and  C6_6 
ROOT
HETATM    1  C2  UNL     1     -34.156  14.394  -4.242  1.00 20.00     0.019 C 
HETATM    2  C3  UNL     1     -36.186  15.734  -3.516  1.00 20.00     0.019 C 
HETATM    3  C4  UNL     1     -33.183  15.484  -3.788  1.00 20.00     0.080 C 
HETATM    4  C5  UNL     1     -35.196  16.396  -2.554  1.00 20.00     0.080 C 
HETATM    5  C6  UNL     1     -35.514  14.957  -4.657  1.00 20.00     0.072 C 
HETATM    6  C7  UNL     1     -33.882  16.720  -3.237  1.00 20.00     0.243 C 
HETATM    7  F9  UNL     1     -34.117  17.593  -4.251  1.00 20.00    -0.206 F 
HETATM    8  F10 UNL     1     -33.056  17.356  -2.371  1.00 20.00    -0.206 F 
ENDROOT
BRANCH   5   9
HETATM    9  C1  UNL     1     -36.414  13.849  -5.124  1.00 20.00     0.223 C 
HETATM   10  O8  UNL     1     -35.991  12.713  -5.313  1.00 20.00    -0.279 OA
HETATM   11 CL11 UNL     1     -38.052  14.385  -5.343  1.00 20.00    -0.043 Cl
ENDBRANCH   5   9
TORSDOF 1
ENDMDL
MODEL 5
REMARK VINA RESULT:      -4.6      3.580      4.302
REMARK  1 active torsions:
REMARK  status: ('A' for Active; 'I' for Inactive)
REMARK    1  A    between atoms: C1_1  and  C6_6 
ROOT
HETATM    1  C2  UNL     1     -33.526   7.122   4.978  1.00 20.00     0.019 C 
HETATM    2  C3  UNL     1     -33.637   6.052   2.679  1.00 20.00     0.019 C 
HETATM    3  C4  UNL     1     -32.588   8.231   4.497  1.00 20.00     0.080 C 
HETATM    4  C5  UNL     1     -33.292   7.462   2.192  1.00 20.00     0.080 C 
HETATM    5  C6  UNL     1     -33.369   5.832   4.174  1.00 20.00     0.072 C 
HETATM    6  C7  UNL     1     -32.200   8.094   3.032  1.00 20.00     0.243 C 
HETATM    7  F9  UNL     1     -31.075   7.338   2.933  1.00 20.00    -0.206 F 
HETATM    8  F10 UNL     1     -31.882   9.314   2.534  1.00 20.00    -0.206 F 
ENDROOT
BRANCH   5   9
HETATM    9  C1  UNL     1     -34.287   4.772   4.710  1.00 20.00     0.223 C 
HETATM   10  O8  UNL     1     -34.502   3.734   4.093  1.00 20.00    -0.279 OA
HETATM   11 CL11 UNL     1     -34.961   5.209   6.251  1.00 20.00    -0.043 Cl
ENDBRANCH   5   9
TORSDOF 1
ENDMDL
MODEL 6
REMARK VINA RESULT:      -4.6     11.628     12.511
REMARK  1 active torsions:
REMARK  status: ('A' for Active; 'I' for Inactive)
REMARK    1  A    between atoms: C1_1  and  C6_6 
ROOT
HETATM    1  C2  UNL     1     -35.903  16.205  -4.771  1.00 20.00     0.019 C 
HETATM    2  C3  UNL     1     -34.168  14.443  -4.198  1.00 20.00     0.019 C 
HETATM    3  C4  UNL     1     -35.191  17.279  -3.947  1.00 20.00     0.080 C 
HETATM    4  C5  UNL     1     -33.253  15.653  -3.992  1.00 20.00     0.080 C 
HETATM    5  C6  UNL     1     -35.661  14.797  -4.231  1.00 20.00     0.072 C 
HETATM    6  C7  UNL     1     -33.951  16.762  -3.231  1.00 20.00     0.243 C 
HETATM    7  F9  UNL     1     -34.302  16.299  -2.002  1.00 20.00    -0.206 F 
HETATM    8  F10 UNL     1     -33.092  17.789  -3.017  1.00 20.00    -0.206 F 
ENDROOT
BRANCH   5   9
HETATM    9  C1  UNL     1     -36.409  13.790  -5.056  1.00 20.00     0.223 C 
HETATM   10  O8  UNL     1     -35.933  12.690  -5.319  1.00 20.00    -0.279 OA
HETATM   11 CL11 UNL     1     -37.966  14.379  -5.554  1.00 20.00    -0.043 Cl
ENDBRANCH   5   9
TORSDOF 1
ENDMDL
MODEL 7
REMARK VINA RESULT:      -4.5     11.765     12.294
REMARK  1 active torsions:
REMARK  status: ('A' for Active; 'I' for Inactive)
REMARK    1  A    between atoms: C1_1  and  C6_6 
ROOT
HETATM    1  C2  UNL     1     -33.418  16.876  -4.190  1.00 20.00     0.019 C 
HETATM    2  C3  UNL     1     -35.272  16.336  -2.543  1.00 20.00     0.019 C 
HETATM    3  C4  UNL     1     -33.769  15.689  -5.088  1.00 20.00     0.080 C 
HETATM    4  C5  UNL     1     -35.918  15.655  -3.752  1.00 20.00     0.080 C 
HETATM    5  C6  UNL     1     -33.777  16.630  -2.726  1.00 20.00     0.072 C 
HETATM    6  C7  UNL     1     -34.912  14.843  -4.544  1.00 20.00     0.243 C 
HETATM    7  F9  UNL     1     -34.409  13.867  -3.744  1.00 20.00    -0.206 F 
HETATM    8  F10 UNL     1     -35.533  14.210  -5.569  1.00 20.00    -0.206 F 
ENDROOT
BRANCH   5   9
HETATM    9  C1  UNL     1     -33.379  17.811  -1.889  1.00 20.00     0.223 C 
HETATM   10  O8  UNL     1     -32.587  18.654  -2.298  1.00 20.00    -0.279 OA
HETATM   11 CL11 UNL     1     -34.165  17.809  -0.339  1.00 20.00    -0.043 Cl
ENDBRANCH   5   9
TORSDOF 1
ENDMDL
MODEL 8
REMARK VINA RESULT:      -4.5     11.688     12.407
REMARK  1 active torsions:
REMARK  status: ('A' for Active; 'I' for Inactive)
REMARK    1  A    between atoms: C1_1  and  C6_6 
ROOT
HETATM    1  C2  UNL     1     -36.146  16.038  -4.587  1.00 20.00     0.019 C 
HETATM    2  C3  UNL     1     -33.861  15.241  -3.821  1.00 20.00     0.019 C 
HETATM    3  C4  UNL     1     -36.217  17.112  -3.500  1.00 20.00     0.080 C 
HETATM    4  C5  UNL     1     -33.738  16.662  -3.266  1.00 20.00     0.080 C 
HETATM    5  C6  UNL     1     -35.300  14.836  -4.170  1.00 20.00     0.072 C 
HETATM    6  C7  UNL     1     -35.010  17.106  -2.572  1.00 20.00     0.243 C 
HETATM    7  F9  UNL     1     -35.253  16.275  -1.524  1.00 20.00    -0.206 F 
HETATM    8  F10 UNL     1     -34.842  18.343  -2.044  1.00 20.00    -0.206 F 
ENDROOT
BRANCH   5   9
HETATM    9  C1  UNL     1     -35.294  13.803  -5.258  1.00 20.00     0.223 C 
HETATM   10  O8  UNL     1     -35.957  12.774  -5.174  1.00 20.00    -0.279 OA
HETATM   11 CL11 UNL     1     -34.267  14.256  -6.584  1.00 20.00    -0.043 Cl
ENDBRANCH   5   9
TORSDOF 1
ENDMDL
MODEL 9
REMARK VINA RESULT:      -4.4     11.638     12.157
REMARK  1 active torsions:
REMARK  status: ('A' for Active; 'I' for Inactive)
REMARK    1  A    between atoms: C1_1  and  C6_6 
ROOT
HETATM    1  C2  UNL     1     -33.690  16.414  -3.214  1.00 20.00     0.019 C 
HETATM    2  C3  UNL     1     -36.171  16.014  -3.568  1.00 20.00     0.019 C 
HETATM    3  C4  UNL     1     -33.297  15.300  -4.186  1.00 20.00     0.080 C 
HETATM    4  C5  UNL     1     -35.716  15.445  -4.914  1.00 20.00     0.080 C 
HETATM    5  C6  UNL     1     -35.038  16.158  -2.543  1.00 20.00     0.072 C 
HETATM    6  C7  UNL     1     -34.495  14.560  -4.765  1.00 20.00     0.243 C 
HETATM    7  F9  UNL     1     -34.808  13.511  -3.961  1.00 20.00    -0.206 F 
HETATM    8  F10 UNL     1     -34.159  14.030  -5.967  1.00 20.00    -0.206 F 
ENDROOT
BRANCH   5   9
HETATM    9  C1  UNL     1     -35.355  17.263  -1.577  1.00 20.00     0.223 C 
HETATM   10  O8  UNL     1     -36.484  17.734  -1.485  1.00 20.00    -0.279 OA
HETATM   11 CL11 UNL     1     -33.962  17.749  -0.659  1.00 20.00    -0.043 Cl
ENDBRANCH   5   9
TORSDOF 1
ENDMDL
