MODEL 1
REMARK VINA RESULT:      -4.8      0.000      0.000
REMARK  1 active torsions:
REMARK  status: ('A' for Active; 'I' for Inactive)
REMARK    1  A    between atoms: C3_3  and  C7_7 
ROOT
HETATM    1  C1  UNL     1     -33.686  16.131  -3.285  1.00 20.00    -0.020 C 
HETATM    2  C2  UNL     1     -34.930  16.212  -2.783  1.00 20.00    -0.086 C 
HETATM    3  C4  UNL     1     -36.114  15.567  -3.460  1.00 20.00     0.045 C 
HETATM    4  C5  UNL     1     -34.582  15.107  -5.416  1.00 20.00     0.020 C 
HETATM    5  C6  UNL     1     -33.338  15.428  -4.572  1.00 20.00     0.005 C 
HETATM    6  C7  UNL     1     -35.730  14.569  -4.560  1.00 20.00     0.059 C 
HETATM    7  C8  UNL     1     -35.223  16.958  -1.514  1.00 20.00     0.043 C 
HETATM    8  C10 UNL     1     -32.520  14.170  -4.272  1.00 20.00     0.014 C 
ENDROOT
BRANCH   6   9
HETATM    9  C3  UNL     1     -36.924  14.274  -5.421  1.00 20.00     0.127 C 
HETATM   10  C9  UNL     1     -36.739  14.422  -6.907  1.00 20.00     0.091 C 
HETATM   11  O11 UNL     1     -37.998  13.925  -4.936  1.00 20.00    -0.298 OA
ENDBRANCH   6   9
TORSDOF 1
ENDMDL
MODEL 2
REMARK VINA RESULT:      -4.8     10.468     11.598
REMARK  1 active torsions:
REMARK  status: ('A' for Active; 'I' for Inactive)
REMARK    1  A    between atoms: C3_3  and  C7_7 
ROOT
HETATM    1  C1  UNL     1     -34.031   5.769   4.006  1.00 20.00    -0.020 C 
HETATM    2  C2  UNL     1     -33.298   5.404   2.941  1.00 20.00    -0.086 C 
HETATM    3  C4  UNL     1     -32.569   6.409   2.084  1.00 20.00     0.045 C 
HETATM    4  C5  UNL     1     -33.800   8.204   3.367  1.00 20.00     0.020 C 
HETATM    5  C6  UNL     1     -34.233   7.196   4.445  1.00 20.00     0.005 C 
HETATM    6  C7  UNL     1     -32.476   7.806   2.711  1.00 20.00     0.059 C 
HETATM    7  C8  UNL     1     -33.163   3.967   2.530  1.00 20.00     0.043 C 
HETATM    8  C10 UNL     1     -33.506   7.441   5.769  1.00 20.00     0.014 C 
ENDROOT
BRANCH   6   9
HETATM    9  C3  UNL     1     -32.095   8.812   1.664  1.00 20.00     0.127 C 
HETATM   10  C9  UNL     1     -32.851  10.112   1.668  1.00 20.00     0.091 C 
HETATM   11  O11 UNL     1     -31.205   8.584   0.846  1.00 20.00    -0.298 OA
ENDBRANCH   6   9
TORSDOF 1
ENDMDL
MODEL 3
REMARK VINA RESULT:      -4.7      2.909      4.520
REMARK  1 active torsions:
REMARK  status: ('A' for Active; 'I' for Inactive)
REMARK    1  A    between atoms: C3_3  and  C7_7 
ROOT
HETATM    1  C1  UNL     1     -33.951  18.707   0.355  1.00 20.00    -0.020 C 
HETATM    2  C2  UNL     1     -34.941  17.846   0.062  1.00 20.00    -0.086 C 
HETATM    3  C4  UNL     1     -34.960  17.049  -1.218  1.00 20.00     0.045 C 
HETATM    4  C5  UNL     1     -33.013  18.467  -1.981  1.00 20.00     0.020 C 
HETATM    5  C6  UNL     1     -32.785  18.996  -0.554  1.00 20.00     0.005 C 
HETATM    6  C7  UNL     1     -33.628  17.067  -1.980  1.00 20.00     0.059 C 
HETATM    7  C8  UNL     1     -36.098  17.626   0.992  1.00 20.00     0.043 C 
HETATM    8  C10 UNL     1     -31.499  18.435   0.055  1.00 20.00     0.014 C 
ENDROOT
BRANCH   6   9
HETATM    9  C3  UNL     1     -33.838  16.593  -3.388  1.00 20.00     0.127 C 
HETATM   10  C9  UNL     1     -34.762  15.420  -3.576  1.00 20.00     0.091 C 
HETATM   11  O11 UNL     1     -33.285  17.138  -4.341  1.00 20.00    -0.298 OA
ENDBRANCH   6   9
TORSDOF 1
ENDMDL
MODEL 4
REMARK VINA RESULT:      -4.6      1.834      2.776
REMARK  1 active torsions:
REMARK  status: ('A' for Active; 'I' for Inactive)
REMARK    1  A    between atoms: C3_3  and  C7_7 
ROOT
HETATM    1  C1  UNL     1     -33.708  17.363  -4.349  1.00 20.00    -0.020 C 
HETATM    2  C2  UNL     1     -34.142  17.285  -5.619  1.00 20.00    -0.086 C 
HETATM    3  C4  UNL     1     -34.738  16.023  -6.189  1.00 20.00     0.045 C 
HETATM    4  C5  UNL     1     -33.996  14.867  -4.068  1.00 20.00     0.020 C 
HETATM    5  C6  UNL     1     -33.737  16.215  -3.374  1.00 20.00     0.005 C 
HETATM    6  C7  UNL     1     -35.093  14.972  -5.129  1.00 20.00     0.059 C 
HETATM    7  C8  UNL     1     -34.053  18.454  -6.557  1.00 20.00     0.043 C 
HETATM    8  C10 UNL     1     -34.768  16.490  -2.277  1.00 20.00     0.014 C 
ENDROOT
BRANCH   6   9
HETATM    9  C3  UNL     1     -35.309  13.639  -5.784  1.00 20.00     0.127 C 
HETATM   10  C9  UNL     1     -34.685  13.441  -7.139  1.00 20.00     0.091 C 
HETATM   11  O11 UNL     1     -35.960  12.750  -5.238  1.00 20.00    -0.298 OA
ENDBRANCH   6   9
TORSDOF 1
ENDMDL
MODEL 5
REMARK VINA RESULT:      -4.6      2.708      4.680
REMARK  1 active torsions:
REMARK  status: ('A' for Active; 'I' for Inactive)
REMARK    1  A    between atoms: C3_3  and  C7_7 
ROOT
HETATM    1  C1  UNL     1     -34.446  18.061   0.260  1.00 20.00    -0.020 C 
HETATM    2  C2  UNL     1     -33.246  18.260  -0.312  1.00 20.00    -0.086 C 
HETATM    3  C4  UNL     1     -32.956  17.853  -1.735  1.00 20.00     0.045 C 
HETATM    4  C5  UNL     1     -35.189  16.670  -1.717  1.00 20.00     0.020 C 
HETATM    5  C6  UNL     1     -35.610  17.396  -0.428  1.00 20.00     0.005 C 
HETATM    6  C7  UNL     1     -34.210  17.503  -2.547  1.00 20.00     0.059 C 
HETATM    7  C8  UNL     1     -32.111  18.896   0.436  1.00 20.00     0.043 C 
HETATM    8  C10 UNL     1     -36.713  18.422  -0.694  1.00 20.00     0.014 C 
ENDROOT
BRANCH   6   9
HETATM    9  C3  UNL     1     -33.821  16.757  -3.790  1.00 20.00     0.127 C 
HETATM   10  C9  UNL     1     -34.105  15.280  -3.809  1.00 20.00     0.091 C 
HETATM   11  O11 UNL     1     -33.301  17.327  -4.747  1.00 20.00    -0.298 OA
ENDBRANCH   6   9
TORSDOF 1
ENDMDL
MODEL 6
REMARK VINA RESULT:      -4.5      1.672      2.837
REMARK  1 active torsions:
REMARK  status: ('A' for Active; 'I' for Inactive)
REMARK    1  A    between atoms: C3_3  and  C7_7 
ROOT
HETATM    1  C1  UNL     1     -36.091  16.957  -2.923  1.00 20.00    -0.020 C 
HETATM    2  C2  UNL     1     -34.866  16.407  -2.972  1.00 20.00    -0.086 C 
HETATM    3  C4  UNL     1     -34.526  15.282  -3.918  1.00 20.00     0.045 C 
HETATM    4  C5  UNL     1     -36.995  15.148  -4.442  1.00 20.00     0.020 C 
HETATM    5  C6  UNL     1     -37.254  16.506  -3.769  1.00 20.00     0.005 C 
HETATM    6  C7  UNL     1     -35.578  15.054  -5.012  1.00 20.00     0.059 C 
HETATM    7  C8  UNL     1     -33.755  16.873  -2.078  1.00 20.00     0.043 C 
HETATM    8  C10 UNL     1     -37.600  17.586  -4.796  1.00 20.00     0.014 C 
ENDROOT
BRANCH   6   9
HETATM    9  C3  UNL     1     -35.366  13.713  -5.652  1.00 20.00     0.127 C 
HETATM   10  C9  UNL     1     -34.502  13.681  -6.884  1.00 20.00     0.091 C 
HETATM   11  O11 UNL     1     -35.871  12.691  -5.191  1.00 20.00    -0.298 OA
ENDBRANCH   6   9
TORSDOF 1
ENDMDL
MODEL 7
REMARK VINA RESULT:      -4.3      3.052      4.780
REMARK  1 active torsions:
REMARK  status: ('A' for Active; 'I' for Inactive)
REMARK    1  A    between atoms: C3_3  and  C7_7 
ROOT
HETATM    1  C1  UNL     1     -34.914  16.372  -5.173  1.00 20.00    -0.020 C 
HETATM    2  C2  UNL     1     -34.227  17.527  -5.170  1.00 20.00    -0.086 C 
HETATM    3  C4  UNL     1     -33.583  18.076  -3.922  1.00 20.00     0.045 C 
HETATM    4  C5  UNL     1     -34.807  16.268  -2.649  1.00 20.00     0.020 C 
HETATM    5  C6  UNL     1     -35.144  15.522  -3.951  1.00 20.00     0.005 C 
HETATM    6  C7  UNL     1     -33.508  17.067  -2.768  1.00 20.00     0.059 C 
HETATM    7  C8  UNL     1     -34.063  18.352  -6.413  1.00 20.00     0.043 C 
HETATM    8  C10 UNL     1     -34.356  14.216  -4.071  1.00 20.00     0.014 C 
ENDROOT
BRANCH   6   9
HETATM    9  C3  UNL     1     -33.221  17.783  -1.481  1.00 20.00     0.127 C 
HETATM   10  C9  UNL     1     -34.314  17.781  -0.447  1.00 20.00     0.091 C 
HETATM   11  O11 UNL     1     -32.143  18.341  -1.280  1.00 20.00    -0.298 OA
ENDBRANCH   6   9
TORSDOF 1
ENDMDL
MODEL 8
REMARK VINA RESULT:      -4.3      2.304      3.960
REMARK  1 active torsions:
REMARK  status: ('A' for Active; 'I' for Inactive)
REMARK    1  A    between atoms: C3_3  and  C7_7 
ROOT
HETATM    1  C1  UNL     1     -35.337  14.508  -5.341  1.00 20.00    -0.020 C 
HETATM    2  C2  UNL     1     -36.301  15.005  -4.548  1.00 20.00    -0.086 C 
HETATM    3  C4  UNL     1     -35.994  15.900  -3.373  1.00 20.00     0.045 C 
HETATM    4  C5  UNL     1     -33.558  15.348  -3.753  1.00 20.00     0.020 C 
HETATM    5  C6  UNL     1     -33.865  14.755  -5.139  1.00 20.00     0.005 C 
HETATM    6  C7  UNL     1     -34.557  16.438  -3.363  1.00 20.00     0.059 C 
HETATM    7  C8  UNL     1     -37.751  14.693  -4.776  1.00 20.00     0.043 C 
HETATM    8  C10 UNL     1     -33.328  15.644  -6.262  1.00 20.00     0.014 C 
ENDROOT
BRANCH   6   9
HETATM    9  C3  UNL     1     -34.225  16.984  -2.005  1.00 20.00     0.127 C 
HETATM   10  C9  UNL     1     -35.351  17.050  -1.009  1.00 20.00     0.091 C 
HETATM   11  O11 UNL     1     -33.088  17.355  -1.720  1.00 20.00    -0.298 OA
ENDBRANCH   6   9
TORSDOF 1
ENDMDL
MODEL 9
REMARK VINA RESULT:      -4.2      1.749      2.147
REMARK  1 active torsions:
REMARK  status: ('A' for Active; 'I' for Inactive)
REMARK    1  A    between atoms: C3_3  and  C7_7 
ROOT
HETATM    1  C1  UNL     1     -34.406  17.682  -4.346  1.00 20.00    -0.020 C 
HETATM    2  C2  UNL     1     -34.410  16.734  -3.393  1.00 20.00    -0.086 C 
HETATM    3  C4  UNL     1     -35.036  15.378  -3.612  1.00 20.00     0.045 C 
HETATM    4  C5  UNL     1     -35.972  16.299  -5.771  1.00 20.00     0.020 C 
HETATM    5  C6  UNL     1     -35.037  17.519  -5.704  1.00 20.00     0.005 C 
HETATM    6  C7  UNL     1     -35.365  15.077  -5.080  1.00 20.00     0.059 C 
HETATM    7  C8  UNL     1     -33.797  16.966  -2.044  1.00 20.00     0.043 C 
HETATM    8  C10 UNL     1     -33.950  17.455  -6.779  1.00 20.00     0.014 C 
ENDROOT
BRANCH   6   9
HETATM    9  C3  UNL     1     -36.309  13.914  -5.163  1.00 20.00     0.127 C 
HETATM   10  C9  UNL     1     -37.778  14.237  -5.205  1.00 20.00     0.091 C 
HETATM   11  O11 UNL     1     -35.902  12.754  -5.198  1.00 20.00    -0.298 OA
ENDBRANCH   6   9
TORSDOF 1
ENDMDL
