MODEL 1
REMARK VINA RESULT:      -4.6      0.000      0.000
REMARK  1 active torsions:
REMARK  status: ('A' for Active; 'I' for Inactive)
REMARK    1  A    between atoms: C1_1  and  C4_4 
ROOT
HETATM    1  C2  UNL     1     -34.709   4.707   5.077  1.00 20.00     0.014 A 
HETATM    2  C3  UNL     1     -34.350   6.070   5.584  1.00 20.00     0.014 A 
HETATM    3  C4  UNL     1     -34.595   5.857   4.115  1.00 20.00     0.066 A 
ENDROOT
BRANCH   3   4
HETATM    4  C1  UNL     1     -33.464   5.908   3.183  1.00 20.00     0.193 C 
HETATM    5  O5  UNL     1     -33.036   4.908   2.623  1.00 20.00    -0.286 OA
HETATM    6  I6  UNL     1     -32.529   7.712   2.770  1.00 20.00    -0.001 I 
ENDBRANCH   3   4
TORSDOF 1
ENDMDL
MODEL 2
REMARK VINA RESULT:      -4.4      1.949      2.006
REMARK  1 active torsions:
REMARK  status: ('A' for Active; 'I' for Inactive)
REMARK    1  A    between atoms: C1_1  and  C4_4 
ROOT
HETATM    1  C2  UNL     1     -34.387   4.567   4.218  1.00 20.00     0.014 A 
HETATM    2  C3  UNL     1     -34.593   4.773   5.688  1.00 20.00     0.014 A 
HETATM    3  C4  UNL     1     -34.738   5.934   4.740  1.00 20.00     0.066 A 
ENDROOT
BRANCH   3   4
HETATM    4  C1  UNL     1     -33.720   6.990   4.737  1.00 20.00     0.193 C 
HETATM    5  O5  UNL     1     -33.445   7.631   5.741  1.00 20.00    -0.286 OA
HETATM    6  I6  UNL     1     -32.689   7.443   2.996  1.00 20.00    -0.001 I 
ENDBRANCH   3   4
TORSDOF 1
ENDMDL
MODEL 3
REMARK VINA RESULT:      -3.9      2.793      3.551
REMARK  1 active torsions:
REMARK  status: ('A' for Active; 'I' for Inactive)
REMARK    1  A    between atoms: C1_1  and  C4_4 
ROOT
HETATM    1  C2  UNL     1     -32.044   7.968   3.376  1.00 20.00     0.014 A 
HETATM    2  C3  UNL     1     -32.547   6.752   2.659  1.00 20.00     0.014 A 
HETATM    3  C4  UNL     1     -33.451   7.489   3.609  1.00 20.00     0.066 A 
ENDROOT
BRANCH   3   4
HETATM    4  C1  UNL     1     -33.800   6.874   4.894  1.00 20.00     0.193 C 
HETATM    5  O5  UNL     1     -33.598   7.435   5.961  1.00 20.00    -0.286 OA
HETATM    6  I6  UNL     1     -34.665   4.990   4.949  1.00 20.00    -0.001 I 
ENDBRANCH   3   4
TORSDOF 1
ENDMDL
MODEL 4
REMARK VINA RESULT:      -3.8      3.764      4.720
REMARK  1 active torsions:
REMARK  status: ('A' for Active; 'I' for Inactive)
REMARK    1  A    between atoms: C1_1  and  C4_4 
ROOT
HETATM    1  C2  UNL     1     -32.946   8.959   0.404  1.00 20.00     0.014 A 
HETATM    2  C3  UNL     1     -32.534  10.190   1.152  1.00 20.00     0.014 A 
HETATM    3  C4  UNL     1     -31.798   8.896   1.373  1.00 20.00     0.066 A 
ENDROOT
BRANCH   3   4
HETATM    4  C1  UNL     1     -31.964   8.182   2.644  1.00 20.00     0.193 C 
HETATM    5  O5  UNL     1     -31.315   8.466   3.640  1.00 20.00    -0.286 OA
HETATM    6  I6  UNL     1     -33.334   6.634   2.801  1.00 20.00    -0.001 I 
ENDBRANCH   3   4
TORSDOF 1
ENDMDL
MODEL 5
REMARK VINA RESULT:      -3.7      1.923      2.020
REMARK  1 active torsions:
REMARK  status: ('A' for Active; 'I' for Inactive)
REMARK    1  A    between atoms: C1_1  and  C4_4 
ROOT
HETATM    1  C2  UNL     1     -34.432   6.143   5.607  1.00 20.00     0.014 A 
HETATM    2  C3  UNL     1     -33.557   7.305   5.965  1.00 20.00     0.014 A 
HETATM    3  C4  UNL     1     -34.169   7.222   4.593  1.00 20.00     0.066 A 
ENDROOT
BRANCH   3   4
HETATM    4  C1  UNL     1     -33.312   6.934   3.439  1.00 20.00     0.193 C 
HETATM    5  O5  UNL     1     -32.627   7.795   2.906  1.00 20.00    -0.286 OA
HETATM    6  I6  UNL     1     -33.226   5.017   2.652  1.00 20.00    -0.001 I 
ENDBRANCH   3   4
TORSDOF 1
ENDMDL
MODEL 6
REMARK VINA RESULT:      -3.7      2.016      2.853
REMARK  1 active torsions:
REMARK  status: ('A' for Active; 'I' for Inactive)
REMARK    1  A    between atoms: C1_1  and  C4_4 
ROOT
HETATM    1  C2  UNL     1     -33.159   6.455   2.558  1.00 20.00     0.014 A 
HETATM    2  C3  UNL     1     -33.033   4.964   2.614  1.00 20.00     0.014 A 
HETATM    3  C4  UNL     1     -34.240   5.637   3.209  1.00 20.00     0.066 A 
ENDROOT
BRANCH   3   4
HETATM    4  C1  UNL     1     -34.395   5.676   4.667  1.00 20.00     0.193 C 
HETATM    5  O5  UNL     1     -34.937   4.773   5.288  1.00 20.00    -0.286 OA
HETATM    6  I6  UNL     1     -33.686   7.295   5.751  1.00 20.00    -0.001 I 
ENDBRANCH   3   4
TORSDOF 1
ENDMDL
MODEL 7
REMARK VINA RESULT:      -3.7      2.180      2.608
REMARK  1 active torsions:
REMARK  status: ('A' for Active; 'I' for Inactive)
REMARK    1  A    between atoms: C1_1  and  C4_4 
ROOT
HETATM    1  C2  UNL     1     -33.202   5.621   2.966  1.00 20.00     0.014 A 
HETATM    2  C3  UNL     1     -34.008   6.524   3.849  1.00 20.00     0.014 A 
HETATM    3  C4  UNL     1     -33.508   7.025   2.521  1.00 20.00     0.066 A 
ENDROOT
BRANCH   3   4
HETATM    4  C1  UNL     1     -32.433   8.021   2.486  1.00 20.00     0.193 C 
HETATM    5  O5  UNL     1     -31.544   8.049   3.325  1.00 20.00    -0.286 OA
HETATM    6  I6  UNL     1     -32.378   9.448   0.983  1.00 20.00    -0.001 I 
ENDBRANCH   3   4
TORSDOF 1
ENDMDL
MODEL 8
REMARK VINA RESULT:      -3.7      2.304      3.244
REMARK  1 active torsions:
REMARK  status: ('A' for Active; 'I' for Inactive)
REMARK    1  A    between atoms: C1_1  and  C4_4 
ROOT
HETATM    1  C2  UNL     1     -31.751   8.031   3.351  1.00 20.00     0.014 A 
HETATM    2  C3  UNL     1     -32.478   8.094   2.042  1.00 20.00     0.014 A 
HETATM    3  C4  UNL     1     -33.160   7.512   3.251  1.00 20.00     0.066 A 
ENDROOT
BRANCH   3   4
HETATM    4  C1  UNL     1     -33.402   6.067   3.313  1.00 20.00     0.193 C 
HETATM    5  O5  UNL     1     -32.865   5.283   2.544  1.00 20.00    -0.286 OA
HETATM    6  I6  UNL     1     -34.691   5.282   4.736  1.00 20.00    -0.001 I 
ENDBRANCH   3   4
TORSDOF 1
ENDMDL
MODEL 9
REMARK VINA RESULT:      -3.3      2.184      2.472
REMARK  1 active torsions:
REMARK  status: ('A' for Active; 'I' for Inactive)
REMARK    1  A    between atoms: C1_1  and  C4_4 
ROOT
HETATM    1  C2  UNL     1     -33.003   4.660   2.625  1.00 20.00     0.014 A 
HETATM    2  C3  UNL     1     -34.002   4.517   3.733  1.00 20.00     0.014 A 
HETATM    3  C4  UNL     1     -33.903   5.814   2.976  1.00 20.00     0.066 A 
ENDROOT
BRANCH   3   4
HETATM    4  C1  UNL     1     -33.338   6.992   3.641  1.00 20.00     0.193 C 
HETATM    5  O5  UNL     1     -32.658   7.814   3.044  1.00 20.00    -0.286 OA
HETATM    6  I6  UNL     1     -33.678   7.317   5.661  1.00 20.00    -0.001 I 
ENDBRANCH   3   4
TORSDOF 1
ENDMDL
