MODEL 1
REMARK VINA RESULT:      -4.6      0.000      0.000
REMARK  1 active torsions:
REMARK  status: ('A' for Active; 'I' for Inactive)
REMARK    1  A    between atoms: C1_1  and  C4_4 
ROOT
HETATM    1  C1  UNL     1     -32.871   6.942   2.865  1.00 20.00    -0.068 C 
HETATM    2  C2  UNL     1     -32.163   7.859   2.547  1.00 20.00    -0.108 C 
HETATM    3  C6  UNL     1     -31.303   8.976   2.160  1.00 20.00     0.112 C 
ENDROOT
BRANCH   1   4
HETATM    4  C4  UNL     1     -33.726   5.834   3.248  1.00 20.00     0.129 C 
HETATM    5  C5  UNL     1     -34.241   5.835   4.737  1.00 20.00     0.016 C 
HETATM    6  C3  UNL     1     -35.629   5.706   4.072  1.00 20.00     0.182 C 
HETATM    7  C8  UNL     1     -34.101   7.148   5.518  1.00 20.00     0.021 C 
HETATM    8  C9  UNL     1     -33.851   4.648   5.613  1.00 20.00     0.021 C 
HETATM    9  O10 UNL     1     -35.086   6.089   2.783  1.00 20.00    -0.366 OA
HETATM   10  C7  UNL     1     -33.217   4.527   2.644  1.00 20.00     0.061 C 
ENDBRANCH   1   4
TORSDOF 1
ENDMDL
MODEL 2
REMARK VINA RESULT:      -4.1     11.754     12.435
REMARK  1 active torsions:
REMARK  status: ('A' for Active; 'I' for Inactive)
REMARK    1  A    between atoms: C1_1  and  C4_4 
ROOT
HETATM    1  C1  UNL     1     -34.782  16.072  -3.049  1.00 20.00    -0.068 C 
HETATM    2  C2  UNL     1     -34.908  16.607  -1.980  1.00 20.00    -0.108 C 
HETATM    3  C6  UNL     1     -35.062  17.256  -0.679  1.00 20.00     0.112 C 
ENDROOT
BRANCH   1   4
HETATM    4  C4  UNL     1     -34.631  15.428  -4.340  1.00 20.00     0.129 C 
HETATM    5  C5  UNL     1     -35.940  14.815  -4.968  1.00 20.00     0.016 C 
HETATM    6  C3  UNL     1     -35.549  15.679  -6.187  1.00 20.00     0.182 C 
HETATM    7  C8  UNL     1     -37.275  15.258  -4.358  1.00 20.00     0.021 C 
HETATM    8  C9  UNL     1     -35.948  13.313  -5.240  1.00 20.00     0.021 C 
HETATM    9  O10 UNL     1     -34.610  16.443  -5.388  1.00 20.00    -0.366 OA
HETATM   10  C7  UNL     1     -33.339  14.617  -4.388  1.00 20.00     0.061 C 
ENDBRANCH   1   4
TORSDOF 1
ENDMDL
MODEL 3
REMARK VINA RESULT:      -4.1     11.887     12.839
REMARK  1 active torsions:
REMARK  status: ('A' for Active; 'I' for Inactive)
REMARK    1  A    between atoms: C1_1  and  C4_4 
ROOT
HETATM    1  C1  UNL     1     -35.404  15.086  -4.322  1.00 20.00    -0.068 C 
HETATM    2  C2  UNL     1     -34.874  15.738  -3.463  1.00 20.00    -0.108 C 
HETATM    3  C6  UNL     1     -34.230  16.532  -2.418  1.00 20.00     0.112 C 
ENDROOT
BRANCH   1   4
HETATM    4  C4  UNL     1     -36.045  14.298  -5.358  1.00 20.00     0.129 C 
HETATM    5  C5  UNL     1     -35.464  14.460  -6.814  1.00 20.00     0.016 C 
HETATM    6  C3  UNL     1     -35.352  12.921  -6.751  1.00 20.00     0.182 C 
HETATM    7  C8  UNL     1     -34.089  15.128  -6.941  1.00 20.00     0.021 C 
HETATM    8  C9  UNL     1     -36.412  14.977  -7.892  1.00 20.00     0.021 C 
HETATM    9  O10 UNL     1     -35.535  12.931  -5.312  1.00 20.00    -0.366 OA
HETATM   10  C7  UNL     1     -37.559  14.285  -5.165  1.00 20.00     0.061 C 
ENDBRANCH   1   4
TORSDOF 1
ENDMDL
MODEL 4
REMARK VINA RESULT:      -4.0     11.873     12.742
REMARK  1 active torsions:
REMARK  status: ('A' for Active; 'I' for Inactive)
REMARK    1  A    between atoms: C1_1  and  C4_4 
ROOT
HETATM    1  C1  UNL     1     -35.034  15.883  -3.297  1.00 20.00    -0.068 C 
HETATM    2  C2  UNL     1     -34.727  16.512  -2.320  1.00 20.00    -0.108 C 
HETATM    3  C6  UNL     1     -34.355  17.277  -1.131  1.00 20.00     0.112 C 
ENDROOT
BRANCH   1   4
HETATM    4  C4  UNL     1     -35.404  15.126  -4.478  1.00 20.00     0.129 C 
HETATM    5  C5  UNL     1     -34.637  15.489  -5.806  1.00 20.00     0.016 C 
HETATM    6  C3  UNL     1     -34.337  13.975  -5.839  1.00 20.00     0.182 C 
HETATM    7  C8  UNL     1     -33.358  16.322  -5.661  1.00 20.00     0.021 C 
HETATM    8  C9  UNL     1     -35.472  15.989  -6.981  1.00 20.00     0.021 C 
HETATM    9  O10 UNL     1     -34.733  13.830  -4.451  1.00 20.00    -0.366 OA
HETATM   10  C7  UNL     1     -36.916  14.917  -4.532  1.00 20.00     0.061 C 
ENDBRANCH   1   4
TORSDOF 1
ENDMDL
MODEL 5
REMARK VINA RESULT:      -3.9     11.376     13.013
REMARK  1 active torsions:
REMARK  status: ('A' for Active; 'I' for Inactive)
REMARK    1  A    between atoms: C1_1  and  C4_4 
ROOT
HETATM    1  C1  UNL     1     -34.512  16.148  -3.046  1.00 20.00    -0.068 C 
HETATM    2  C2  UNL     1     -34.661  16.718  -1.999  1.00 20.00    -0.108 C 
HETATM    3  C6  UNL     1     -34.843  17.411  -0.725  1.00 20.00     0.112 C 
ENDROOT
BRANCH   1   4
HETATM    4  C4  UNL     1     -34.332  15.462  -4.312  1.00 20.00     0.129 C 
HETATM    5  C5  UNL     1     -34.723  16.273  -5.605  1.00 20.00     0.016 C 
HETATM    6  C3  UNL     1     -33.291  15.908  -6.053  1.00 20.00     0.182 C 
HETATM    7  C8  UNL     1     -34.902  17.788  -5.444  1.00 20.00     0.021 C 
HETATM    8  C9  UNL     1     -35.824  15.695  -6.488  1.00 20.00     0.021 C 
HETATM    9  O10 UNL     1     -32.927  15.526  -4.702  1.00 20.00    -0.366 OA
HETATM   10  C7  UNL     1     -34.764  14.002  -4.198  1.00 20.00     0.061 C 
ENDBRANCH   1   4
TORSDOF 1
ENDMDL
MODEL 6
REMARK VINA RESULT:      -3.9      1.578      2.651
REMARK  1 active torsions:
REMARK  status: ('A' for Active; 'I' for Inactive)
REMARK    1  A    between atoms: C1_1  and  C4_4 
ROOT
HETATM    1  C1  UNL     1     -32.844   8.177   2.346  1.00 20.00    -0.068 C 
HETATM    2  C2  UNL     1     -32.679   9.101   1.596  1.00 20.00    -0.108 C 
HETATM    3  C6  UNL     1     -32.477  10.225   0.683  1.00 20.00     0.112 C 
ENDROOT
BRANCH   1   4
HETATM    4  C4  UNL     1     -33.043   7.063   3.253  1.00 20.00     0.129 C 
HETATM    5  C5  UNL     1     -34.206   6.065   2.885  1.00 20.00     0.016 C 
HETATM    6  C3  UNL     1     -33.093   5.000   3.006  1.00 20.00     0.182 C 
HETATM    7  C8  UNL     1     -34.764   6.148   1.459  1.00 20.00     0.021 C 
HETATM    8  C9  UNL     1     -35.339   5.907   3.895  1.00 20.00     0.021 C 
HETATM    9  O10 UNL     1     -32.063   6.021   2.962  1.00 20.00    -0.366 OA
HETATM   10  C7  UNL     1     -32.891   7.515   4.704  1.00 20.00     0.061 C 
ENDBRANCH   1   4
TORSDOF 1
ENDMDL
MODEL 7
REMARK VINA RESULT:      -3.7     11.412     12.878
REMARK  1 active torsions:
REMARK  status: ('A' for Active; 'I' for Inactive)
REMARK    1  A    between atoms: C1_1  and  C4_4 
ROOT
HETATM    1  C1  UNL     1     -36.647  14.401  -5.470  1.00 20.00    -0.068 C 
HETATM    2  C2  UNL     1     -37.827  14.593  -5.354  1.00 20.00    -0.108 C 
HETATM    3  C6  UNL     1     -39.263  14.826  -5.212  1.00 20.00     0.112 C 
ENDROOT
BRANCH   1   4
HETATM    4  C4  UNL     1     -35.221  14.169  -5.610  1.00 20.00     0.129 C 
HETATM    5  C5  UNL     1     -34.280  15.381  -5.253  1.00 20.00     0.016 C 
HETATM    6  C3  UNL     1     -33.602  14.352  -4.321  1.00 20.00     0.182 C 
HETATM    7  C8  UNL     1     -34.909  16.537  -4.465  1.00 20.00     0.021 C 
HETATM    8  C9  UNL     1     -33.377  15.916  -6.360  1.00 20.00     0.021 C 
HETATM    9  O10 UNL     1     -34.731  13.449  -4.439  1.00 20.00    -0.366 OA
HETATM   10  C7  UNL     1     -34.931  13.354  -6.868  1.00 20.00     0.061 C 
ENDBRANCH   1   4
TORSDOF 1
ENDMDL
MODEL 8
REMARK VINA RESULT:      -3.6     12.032     13.294
REMARK  1 active torsions:
REMARK  status: ('A' for Active; 'I' for Inactive)
REMARK    1  A    between atoms: C1_1  and  C4_4 
ROOT
HETATM    1  C1  UNL     1     -34.908  16.090  -4.528  1.00 20.00    -0.068 C 
HETATM    2  C2  UNL     1     -34.859  16.324  -3.351  1.00 20.00    -0.108 C 
HETATM    3  C6  UNL     1     -34.799  16.608  -1.918  1.00 20.00     0.112 C 
ENDROOT
BRANCH   1   4
HETATM    4  C4  UNL     1     -34.969  15.809  -5.951  1.00 20.00     0.129 C 
HETATM    5  C5  UNL     1     -35.440  14.361  -6.354  1.00 20.00     0.016 C 
HETATM    6  C3  UNL     1     -36.467  15.126  -7.218  1.00 20.00     0.182 C 
HETATM    7  C8  UNL     1     -36.122  13.525  -5.264  1.00 20.00     0.021 C 
HETATM    8  C9  UNL     1     -34.463  13.504  -7.153  1.00 20.00     0.021 C 
HETATM    9  O10 UNL     1     -36.204  16.359  -6.500  1.00 20.00    -0.366 OA
HETATM   10  C7  UNL     1     -33.771  16.424  -6.672  1.00 20.00     0.061 C 
ENDBRANCH   1   4
TORSDOF 1
ENDMDL
MODEL 9
REMARK VINA RESULT:      -3.5     11.641     13.006
REMARK  1 active torsions:
REMARK  status: ('A' for Active; 'I' for Inactive)
REMARK    1  A    between atoms: C1_1  and  C4_4 
ROOT
HETATM    1  C1  UNL     1     -36.327  15.438  -4.540  1.00 20.00    -0.068 C 
HETATM    2  C2  UNL     1     -37.465  15.109  -4.744  1.00 20.00    -0.108 C 
HETATM    3  C6  UNL     1     -38.849  14.709  -4.992  1.00 20.00     0.112 C 
ENDROOT
BRANCH   1   4
HETATM    4  C4  UNL     1     -34.953  15.834  -4.295  1.00 20.00     0.129 C 
HETATM    5  C5  UNL     1     -33.846  15.021  -5.066  1.00 20.00     0.016 C 
HETATM    6  C3  UNL     1     -33.385  16.422  -5.525  1.00 20.00     0.182 C 
HETATM    7  C8  UNL     1     -34.315  14.160  -6.246  1.00 20.00     0.021 C 
HETATM    8  C9  UNL     1     -32.820  14.266  -4.227  1.00 20.00     0.021 C 
HETATM    9  O10 UNL     1     -34.639  17.013  -5.096  1.00 20.00    -0.366 OA
HETATM   10  C7  UNL     1     -34.741  16.150  -2.816  1.00 20.00     0.061 C 
ENDBRANCH   1   4
TORSDOF 1
ENDMDL
