MODEL 1
REMARK VINA RESULT:      -5.6      0.000      0.000
REMARK  2 active torsions:
REMARK  status: ('A' for Active; 'I' for Inactive)
REMARK    1  A    between atoms: C6_6  and  C9_9 
REMARK    2  A    between atoms: C9_9  and  N10_10 
ROOT
HETATM    1  C1  UNL     1     -34.341   5.969   4.328  1.00 20.00     0.006 C 
HETATM    2  C2  UNL     1     -34.156   5.666   3.034  1.00 20.00     0.004 C 
HETATM    3  C3  UNL     1     -33.615   7.060   4.953  1.00 20.00    -0.040 C 
HETATM    4  C4  UNL     1     -33.891   7.468   6.200  1.00 20.00     0.020 C 
HETATM    5  C7  UNL     1     -33.237   6.463   2.146  1.00 20.00     0.300 C 
HETATM    6  C8  UNL     1     -32.529   7.699   4.110  1.00 20.00     0.310 C 
HETATM    7  N10 UNL     1     -32.927   7.796   2.695  1.00 20.00     0.099 N 
ENDROOT
BRANCH   7   8
HETATM    8  C9  UNL     1     -31.892   8.455   1.901  1.00 20.00     0.299 C 
BRANCH   8   9
HETATM    9  C6  UNL     1     -32.516   9.570   1.130  1.00 20.00    -0.007 C 
HETATM   10  C5  UNL     1     -32.929   9.462  -0.138  1.00 20.00     0.008 C 
ENDBRANCH   8   9
ENDBRANCH   7   8
TORSDOF 2
ENDMDL
MODEL 2
REMARK VINA RESULT:      -5.5      1.068      2.283
REMARK  2 active torsions:
REMARK  status: ('A' for Active; 'I' for Inactive)
REMARK    1  A    between atoms: C6_6  and  C9_9 
REMARK    2  A    between atoms: C9_9  and  N10_10 
ROOT
HETATM    1  C1  UNL     1     -34.314   6.071   5.594  1.00 20.00     0.006 C 
HETATM    2  C2  UNL     1     -33.851   7.278   5.951  1.00 20.00     0.004 C 
HETATM    3  C3  UNL     1     -34.047   5.526   4.275  1.00 20.00    -0.040 C 
HETATM    4  C4  UNL     1     -34.377   4.268   3.951  1.00 20.00     0.020 C 
HETATM    5  C7  UNL     1     -32.990   8.110   5.038  1.00 20.00     0.300 C 
HETATM    6  C8  UNL     1     -33.380   6.469   3.294  1.00 20.00     0.310 C 
HETATM    7  N10 UNL     1     -32.375   7.319   3.955  1.00 20.00     0.099 N 
ENDROOT
BRANCH   7   8
HETATM    8  C9  UNL     1     -31.707   8.192   2.992  1.00 20.00     0.299 C 
BRANCH   8   9
HETATM    9  C6  UNL     1     -32.646   8.473   1.867  1.00 20.00    -0.007 C 
HETATM   10  C5  UNL     1     -32.530   9.520   1.042  1.00 20.00     0.008 C 
ENDBRANCH   8   9
ENDBRANCH   7   8
TORSDOF 2
ENDMDL
MODEL 3
REMARK VINA RESULT:      -4.8      1.252      4.405
REMARK  2 active torsions:
REMARK  status: ('A' for Active; 'I' for Inactive)
REMARK    1  A    between atoms: C6_6  and  C9_9 
REMARK    2  A    between atoms: C9_9  and  N10_10 
ROOT
HETATM    1  C1  UNL     1     -31.738   8.546   3.752  1.00 20.00     0.006 C 
HETATM    2  C2  UNL     1     -32.299   8.196   4.919  1.00 20.00     0.004 C 
HETATM    3  C3  UNL     1     -32.188   7.966   2.500  1.00 20.00    -0.040 C 
HETATM    4  C4  UNL     1     -31.740   8.407   1.316  1.00 20.00     0.020 C 
HETATM    5  C7  UNL     1     -33.455   7.234   4.997  1.00 20.00     0.300 C 
HETATM    6  C8  UNL     1     -33.189   6.833   2.619  1.00 20.00     0.310 C 
HETATM    7  N10 UNL     1     -34.152   7.072   3.707  1.00 20.00     0.099 N 
ENDROOT
BRANCH   7   8
HETATM    8  C9  UNL     1     -35.139   5.997   3.783  1.00 20.00     0.299 C 
BRANCH   8   9
HETATM    9  C6  UNL     1     -34.676   4.991   4.784  1.00 20.00    -0.007 C 
HETATM   10  C5  UNL     1     -34.100   3.827   4.463  1.00 20.00     0.008 C 
ENDBRANCH   8   9
ENDBRANCH   7   8
TORSDOF 2
ENDMDL
MODEL 4
REMARK VINA RESULT:      -4.4      1.058      4.545
REMARK  2 active torsions:
REMARK  status: ('A' for Active; 'I' for Inactive)
REMARK    1  A    between atoms: C6_6  and  C9_9 
REMARK    2  A    between atoms: C9_9  and  N10_10 
ROOT
HETATM    1  C1  UNL     1     -31.500   8.923   2.652  1.00 20.00     0.006 C 
HETATM    2  C2  UNL     1     -31.557   8.363   3.870  1.00 20.00     0.004 C 
HETATM    3  C3  UNL     1     -32.415   8.521   1.599  1.00 20.00    -0.040 C 
HETATM    4  C4  UNL     1     -32.468   9.166   0.425  1.00 20.00     0.020 C 
HETATM    5  C7  UNL     1     -32.596   7.336   4.233  1.00 20.00     0.300 C 
HETATM    6  C8  UNL     1     -33.296   7.327   1.911  1.00 20.00     0.310 C 
HETATM    7  N10 UNL     1     -33.748   7.337   3.312  1.00 20.00     0.099 N 
ENDROOT
BRANCH   7   8
HETATM    8  C9  UNL     1     -34.633   6.208   3.589  1.00 20.00     0.299 C 
BRANCH   8   9
HETATM    9  C6  UNL     1     -34.564   5.889   5.045  1.00 20.00    -0.007 C 
HETATM   10  C5  UNL     1     -34.625   4.648   5.542  1.00 20.00     0.008 C 
ENDBRANCH   8   9
ENDBRANCH   7   8
TORSDOF 2
ENDMDL
MODEL 5
REMARK VINA RESULT:      -4.1     10.745     11.497
REMARK  2 active torsions:
REMARK  status: ('A' for Active; 'I' for Inactive)
REMARK    1  A    between atoms: C6_6  and  C9_9 
REMARK    2  A    between atoms: C9_9  and  N10_10 
ROOT
HETATM    1  C1  UNL     1     -35.273  16.707  -1.663  1.00 20.00     0.006 C 
HETATM    2  C2  UNL     1     -35.541  17.373  -0.530  1.00 20.00     0.004 C 
HETATM    3  C3  UNL     1     -34.013  16.891  -2.361  1.00 20.00    -0.040 C 
HETATM    4  C4  UNL     1     -33.670  16.133  -3.411  1.00 20.00     0.020 C 
HETATM    5  C7  UNL     1     -34.542  18.299   0.112  1.00 20.00     0.300 C 
HETATM    6  C8  UNL     1     -33.119  17.995  -1.830  1.00 20.00     0.310 C 
HETATM    7  N10 UNL     1     -33.163  18.069  -0.359  1.00 20.00     0.099 N 
ENDROOT
BRANCH   7   8
HETATM    8  C9  UNL     1     -32.264  19.104   0.143  1.00 20.00     0.299 C 
BRANCH   8   9
HETATM    9  C6  UNL     1     -31.943  18.810   1.571  1.00 20.00    -0.007 C 
HETATM   10  C5  UNL     1     -30.698  18.704   2.050  1.00 20.00     0.008 C 
ENDBRANCH   8   9
ENDBRANCH   7   8
TORSDOF 2
ENDMDL
MODEL 6
REMARK VINA RESULT:      -4.0     10.238     10.920
REMARK  2 active torsions:
REMARK  status: ('A' for Active; 'I' for Inactive)
REMARK    1  A    between atoms: C6_6  and  C9_9 
REMARK    2  A    between atoms: C9_9  and  N10_10 
ROOT
HETATM    1  C1  UNL     1     -33.788  18.353   0.108  1.00 20.00     0.006 C 
HETATM    2  C2  UNL     1     -32.947  18.294  -0.935  1.00 20.00     0.004 C 
HETATM    3  C3  UNL     1     -35.097  17.727   0.051  1.00 20.00    -0.040 C 
HETATM    4  C4  UNL     1     -35.890  17.652   1.129  1.00 20.00     0.020 C 
HETATM    5  C7  UNL     1     -33.281  17.538  -2.194  1.00 20.00     0.300 C 
HETATM    6  C8  UNL     1     -35.506  17.173  -1.299  1.00 20.00     0.310 C 
HETATM    7  N10 UNL     1     -34.367  16.559  -2.002  1.00 20.00     0.099 N 
ENDROOT
BRANCH   7   8
HETATM    8  C9  UNL     1     -34.782  15.988  -3.281  1.00 20.00     0.299 C 
BRANCH   8   9
HETATM    9  C6  UNL     1     -33.564  15.685  -4.090  1.00 20.00    -0.007 C 
HETATM   10  C5  UNL     1     -33.157  14.447  -4.392  1.00 20.00     0.008 C 
ENDBRANCH   8   9
ENDBRANCH   7   8
TORSDOF 2
ENDMDL
MODEL 7
REMARK VINA RESULT:      -4.0     10.646     11.129
REMARK  2 active torsions:
REMARK  status: ('A' for Active; 'I' for Inactive)
REMARK    1  A    between atoms: C6_6  and  C9_9 
REMARK    2  A    between atoms: C9_9  and  N10_10 
ROOT
HETATM    1  C1  UNL     1     -33.632  16.181  -3.282  1.00 20.00     0.006 C 
HETATM    2  C2  UNL     1     -33.088  15.437  -4.256  1.00 20.00     0.004 C 
HETATM    3  C3  UNL     1     -35.062  16.156  -3.030  1.00 20.00    -0.040 C 
HETATM    4  C4  UNL     1     -35.603  16.780  -1.974  1.00 20.00     0.020 C 
HETATM    5  C7  UNL     1     -33.908  14.499  -5.103  1.00 20.00     0.300 C 
HETATM    6  C8  UNL     1     -35.897  15.389  -4.036  1.00 20.00     0.310 C 
HETATM    7  N10 UNL     1     -35.210  14.170  -4.494  1.00 20.00     0.099 N 
ENDROOT
BRANCH   7   8
HETATM    8  C9  UNL     1     -36.043  13.415  -5.428  1.00 20.00     0.299 C 
BRANCH   8   9
HETATM    9  C6  UNL     1     -35.388  13.424  -6.770  1.00 20.00    -0.007 C 
HETATM   10  C5  UNL     1     -36.021  13.733  -7.907  1.00 20.00     0.008 C 
ENDBRANCH   8   9
ENDBRANCH   7   8
TORSDOF 2
ENDMDL
MODEL 8
REMARK VINA RESULT:      -4.0     10.324     11.122
REMARK  2 active torsions:
REMARK  status: ('A' for Active; 'I' for Inactive)
REMARK    1  A    between atoms: C6_6  and  C9_9 
REMARK    2  A    between atoms: C9_9  and  N10_10 
ROOT
HETATM    1  C1  UNL     1     -34.479  17.990   0.138  1.00 20.00     0.006 C 
HETATM    2  C2  UNL     1     -35.598  17.436  -0.352  1.00 20.00     0.004 C 
HETATM    3  C3  UNL     1     -33.268  18.063  -0.660  1.00 20.00    -0.040 C 
HETATM    4  C4  UNL     1     -32.188  18.737  -0.241  1.00 20.00     0.020 C 
HETATM    5  C7  UNL     1     -35.684  16.913  -1.762  1.00 20.00     0.300 C 
HETATM    6  C8  UNL     1     -33.304  17.327  -1.984  1.00 20.00     0.310 C 
HETATM    7  N10 UNL     1     -34.620  17.444  -2.635  1.00 20.00     0.099 N 
ENDROOT
BRANCH   7   8
HETATM    8  C9  UNL     1     -34.629  16.770  -3.931  1.00 20.00     0.299 C 
BRANCH   8   9
HETATM    9  C6  UNL     1     -33.905  15.470  -3.802  1.00 20.00    -0.007 C 
HETATM   10  C5  UNL     1     -34.413  14.292  -4.180  1.00 20.00     0.008 C 
ENDBRANCH   8   9
ENDBRANCH   7   8
TORSDOF 2
ENDMDL
MODEL 9
REMARK VINA RESULT:      -3.9     10.450     11.174
REMARK  2 active torsions:
REMARK  status: ('A' for Active; 'I' for Inactive)
REMARK    1  A    between atoms: C6_6  and  C9_9 
REMARK    2  A    between atoms: C9_9  and  N10_10 
ROOT
HETATM    1  C1  UNL     1     -35.381  15.131  -4.233  1.00 20.00     0.006 C 
HETATM    2  C2  UNL     1     -36.332  15.842  -3.608  1.00 20.00     0.004 C 
HETATM    3  C3  UNL     1     -33.977  15.310  -3.909  1.00 20.00    -0.040 C 
HETATM    4  C4  UNL     1     -33.029  14.511  -4.418  1.00 20.00     0.020 C 
HETATM    5  C7  UNL     1     -36.011  16.817  -2.506  1.00 20.00     0.300 C 
HETATM    6  C8  UNL     1     -33.657  16.454  -2.968  1.00 20.00     0.310 C 
HETATM    7  N10 UNL     1     -34.677  16.593  -1.915  1.00 20.00     0.099 N 
ENDROOT
BRANCH   7   8
HETATM    8  C9  UNL     1     -34.335  17.669  -0.988  1.00 20.00     0.299 C 
BRANCH   8   9
HETATM    9  C6  UNL     1     -32.902  18.038  -1.189  1.00 20.00    -0.007 C 
HETATM   10  C5  UNL     1     -32.157  18.665  -0.271  1.00 20.00     0.008 C 
ENDBRANCH   8   9
ENDBRANCH   7   8
TORSDOF 2
ENDMDL
