MODEL 1
REMARK VINA RESULT:      -6.1      0.000      0.000
REMARK  1 active torsions:
REMARK  status: ('A' for Active; 'I' for Inactive)
REMARK    1  A    between atoms: C3_3  and  C6_6 
ROOT
HETATM    1  C1  UNL     1     -32.473   8.382   1.961  1.00 20.00    -0.154 C 
HETATM    2  C5  UNL     1     -32.757   9.091   0.911  1.00 20.00     0.096 C 
HETATM    3  C6  UNL     1     -32.183   7.674   3.011  1.00 20.00     0.061 C 
ENDROOT
BRANCH   3   4
HETATM    4  C3  UNL     1     -33.133   6.792   3.621  1.00 20.00    -0.010 A 
HETATM    5  C2  UNL     1     -33.371   5.517   3.307  1.00 20.00     0.023 A 
HETATM    6  C4  UNL     1     -34.465   5.071   4.185  1.00 20.00     0.290 A 
HETATM    7  C8  UNL     1     -32.764   4.613   2.300  1.00 20.00     0.055 C 
HETATM    8  O10 UNL     1     -34.955   3.955   4.194  1.00 20.00    -0.260 OA
HETATM    9  O11 UNL     1     -34.850   6.110   4.982  1.00 20.00    -0.308 OA
HETATM   10  C7  UNL     1     -34.028   7.256   4.713  1.00 20.00     0.162 A 
HETATM   11  C9  UNL     1     -33.308   7.640   5.998  1.00 20.00     0.045 C 
ENDBRANCH   3   4
TORSDOF 1
ENDMDL
MODEL 2
REMARK VINA RESULT:      -5.2      0.917      2.452
REMARK  1 active torsions:
REMARK  status: ('A' for Active; 'I' for Inactive)
REMARK    1  A    between atoms: C3_3  and  C6_6 
ROOT
HETATM    1  C1  UNL     1     -32.307   8.616   2.150  1.00 20.00    -0.154 C 
HETATM    2  C5  UNL     1     -32.562   9.369   1.124  1.00 20.00     0.096 C 
HETATM    3  C6  UNL     1     -32.046   7.865   3.178  1.00 20.00     0.061 C 
ENDROOT
BRANCH   3   4
HETATM    4  C3  UNL     1     -32.967   6.875   3.652  1.00 20.00    -0.010 A 
HETATM    5  C2  UNL     1     -33.548   6.819   4.852  1.00 20.00     0.023 A 
HETATM    6  C4  UNL     1     -34.363   5.594   4.861  1.00 20.00     0.290 A 
HETATM    7  C8  UNL     1     -33.470   7.710   6.035  1.00 20.00     0.055 C 
HETATM    8  O10 UNL     1     -35.048   5.206   5.792  1.00 20.00    -0.260 OA
HETATM    9  O11 UNL     1     -34.222   4.955   3.664  1.00 20.00    -0.308 OA
HETATM   10  C7  UNL     1     -33.364   5.721   2.805  1.00 20.00     0.162 A 
HETATM   11  C9  UNL     1     -34.149   6.096   1.555  1.00 20.00     0.045 C 
ENDBRANCH   3   4
TORSDOF 1
ENDMDL
MODEL 3
REMARK VINA RESULT:      -5.0     11.312     12.006
REMARK  1 active torsions:
REMARK  status: ('A' for Active; 'I' for Inactive)
REMARK    1  A    between atoms: C3_3  and  C6_6 
ROOT
HETATM    1  C1  UNL     1     -35.343  17.026  -2.012  1.00 20.00    -0.154 C 
HETATM    2  C5  UNL     1     -35.209  17.182  -0.730  1.00 20.00     0.096 C 
HETATM    3  C6  UNL     1     -35.479  16.874  -3.296  1.00 20.00     0.061 C 
ENDROOT
BRANCH   3   4
HETATM    4  C3  UNL     1     -35.270  15.613  -3.940  1.00 20.00    -0.010 A 
HETATM    5  C2  UNL     1     -36.199  14.792  -4.433  1.00 20.00     0.023 A 
HETATM    6  C4  UNL     1     -35.482  13.612  -4.944  1.00 20.00     0.290 A 
HETATM    7  C8  UNL     1     -37.677  14.895  -4.505  1.00 20.00     0.055 C 
HETATM    8  O10 UNL     1     -35.998  12.645  -5.476  1.00 20.00    -0.260 OA
HETATM    9  O11 UNL     1     -34.145  13.770  -4.718  1.00 20.00    -0.308 OA
HETATM   10  C7  UNL     1     -33.906  15.045  -4.102  1.00 20.00     0.162 A 
HETATM   11  C9  UNL     1     -32.990  15.852  -5.012  1.00 20.00     0.045 C 
ENDBRANCH   3   4
TORSDOF 1
ENDMDL
MODEL 4
REMARK VINA RESULT:      -4.4     11.934     12.791
REMARK  1 active torsions:
REMARK  status: ('A' for Active; 'I' for Inactive)
REMARK    1  A    between atoms: C3_3  and  C6_6 
ROOT
HETATM    1  C1  UNL     1     -34.280  16.660  -2.353  1.00 20.00    -0.154 C 
HETATM    2  C5  UNL     1     -33.591  17.386  -1.527  1.00 20.00     0.096 C 
HETATM    3  C6  UNL     1     -34.975  15.932  -3.177  1.00 20.00     0.061 C 
ENDROOT
BRANCH   3   4
HETATM    4  C3  UNL     1     -34.492  15.585  -4.480  1.00 20.00    -0.010 A 
HETATM    5  C2  UNL     1     -34.882  14.560  -5.240  1.00 20.00     0.023 A 
HETATM    6  C4  UNL     1     -34.055  14.609  -6.457  1.00 20.00     0.290 A 
HETATM    7  C8  UNL     1     -35.898  13.500  -5.032  1.00 20.00     0.055 C 
HETATM    8  O10 UNL     1     -34.127  13.832  -7.393  1.00 20.00    -0.260 OA
HETATM    9  O11 UNL     1     -33.188  15.659  -6.366  1.00 20.00    -0.308 OA
HETATM   10  C7  UNL     1     -33.414  16.368  -5.138  1.00 20.00     0.162 A 
HETATM   11  C9  UNL     1     -33.794  17.803  -5.477  1.00 20.00     0.045 C 
ENDBRANCH   3   4
TORSDOF 1
ENDMDL
MODEL 5
REMARK VINA RESULT:      -4.4     11.536     12.375
REMARK  1 active torsions:
REMARK  status: ('A' for Active; 'I' for Inactive)
REMARK    1  A    between atoms: C3_3  and  C6_6 
ROOT
HETATM    1  C1  UNL     1     -34.269  16.599  -2.854  1.00 20.00    -0.154 C 
HETATM    2  C5  UNL     1     -34.140  17.008  -1.629  1.00 20.00     0.096 C 
HETATM    3  C6  UNL     1     -34.394  16.193  -4.083  1.00 20.00     0.061 C 
ENDROOT
BRANCH   3   4
HETATM    4  C3  UNL     1     -35.435  15.297  -4.487  1.00 20.00    -0.010 A 
HETATM    5  C2  UNL     1     -36.751  15.514  -4.441  1.00 20.00     0.023 A 
HETATM    6  C4  UNL     1     -37.392  14.278  -4.918  1.00 20.00     0.290 A 
HETATM    7  C8  UNL     1     -37.550  16.686  -4.008  1.00 20.00     0.055 C 
HETATM    8  O10 UNL     1     -38.593  14.098  -5.023  1.00 20.00    -0.260 OA
HETATM    9  O11 UNL     1     -36.427  13.360  -5.215  1.00 20.00    -0.308 OA
HETATM   10  C7  UNL     1     -35.129  13.936  -4.998  1.00 20.00     0.162 A 
HETATM   11  C9  UNL     1     -34.369  13.914  -6.317  1.00 20.00     0.045 C 
ENDBRANCH   3   4
TORSDOF 1
ENDMDL
MODEL 6
REMARK VINA RESULT:      -4.3     11.114     12.211
REMARK  1 active torsions:
REMARK  status: ('A' for Active; 'I' for Inactive)
REMARK    1  A    between atoms: C3_3  and  C6_6 
ROOT
HETATM    1  C1  UNL     1     -35.517  16.943  -2.454  1.00 20.00    -0.154 C 
HETATM    2  C5  UNL     1     -35.392  17.013  -1.164  1.00 20.00     0.096 C 
HETATM    3  C6  UNL     1     -35.642  16.879  -3.747  1.00 20.00     0.061 C 
ENDROOT
BRANCH   3   4
HETATM    4  C3  UNL     1     -35.957  15.656  -4.422  1.00 20.00    -0.010 A 
HETATM    5  C2  UNL     1     -35.172  14.586  -4.564  1.00 20.00     0.023 A 
HETATM    6  C4  UNL     1     -35.933  13.619  -5.373  1.00 20.00     0.290 A 
HETATM    7  C8  UNL     1     -33.799  14.292  -4.089  1.00 20.00     0.055 C 
HETATM    8  O10 UNL     1     -35.543  12.514  -5.708  1.00 20.00    -0.260 OA
HETATM    9  O11 UNL     1     -37.142  14.162  -5.697  1.00 20.00    -0.308 OA
HETATM   10  C7  UNL     1     -37.263  15.463  -5.103  1.00 20.00     0.162 A 
HETATM   11  C9  UNL     1     -38.465  15.453  -4.168  1.00 20.00     0.045 C 
ENDBRANCH   3   4
TORSDOF 1
ENDMDL
MODEL 7
REMARK VINA RESULT:      -4.2     11.356     12.415
REMARK  1 active torsions:
REMARK  status: ('A' for Active; 'I' for Inactive)
REMARK    1  A    between atoms: C3_3  and  C6_6 
ROOT
HETATM    1  C1  UNL     1     -36.035  18.008  -4.024  1.00 20.00    -0.154 C 
HETATM    2  C5  UNL     1     -36.165  19.087  -4.734  1.00 20.00     0.096 C 
HETATM    3  C6  UNL     1     -35.905  16.931  -3.308  1.00 20.00     0.061 C 
ENDROOT
BRANCH   3   4
HETATM    4  C3  UNL     1     -35.564  15.667  -3.889  1.00 20.00    -0.010 A 
HETATM    5  C2  UNL     1     -36.391  14.798  -4.474  1.00 20.00     0.023 A 
HETATM    6  C4  UNL     1     -35.568  13.639  -4.860  1.00 20.00     0.290 A 
HETATM    7  C8  UNL     1     -37.850  14.836  -4.735  1.00 20.00     0.055 C 
HETATM    8  O10 UNL     1     -35.973  12.640  -5.428  1.00 20.00    -0.260 OA
HETATM    9  O11 UNL     1     -34.278  13.859  -4.471  1.00 20.00    -0.308 OA
HETATM   10  C7  UNL     1     -34.170  15.155  -3.862  1.00 20.00     0.162 A 
HETATM   11  C9  UNL     1     -33.179  15.982  -4.670  1.00 20.00     0.045 C 
ENDBRANCH   3   4
TORSDOF 1
ENDMDL
MODEL 8
REMARK VINA RESULT:      -4.2      2.330      4.359
REMARK  1 active torsions:
REMARK  status: ('A' for Active; 'I' for Inactive)
REMARK    1  A    between atoms: C3_3  and  C6_6 
ROOT
HETATM    1  C1  UNL     1     -34.233   5.950   5.665  1.00 20.00    -0.154 C 
HETATM    2  C5  UNL     1     -34.829   4.861   6.044  1.00 20.00     0.096 C 
HETATM    3  C6  UNL     1     -33.636   7.043   5.291  1.00 20.00     0.061 C 
ENDROOT
BRANCH   3   4
HETATM    4  C3  UNL     1     -33.173   7.238   3.950  1.00 20.00    -0.010 A 
HETATM    5  C2  UNL     1     -32.240   8.096   3.533  1.00 20.00     0.023 A 
HETATM    6  C4  UNL     1     -32.164   7.947   2.071  1.00 20.00     0.290 A 
HETATM    7  C8  UNL     1     -31.392   9.071   4.260  1.00 20.00     0.055 C 
HETATM    8  O10 UNL     1     -31.415   8.565   1.334  1.00 20.00    -0.260 OA
HETATM    9  O11 UNL     1     -33.072   7.011   1.669  1.00 20.00    -0.308 OA
HETATM   10  C7  UNL     1     -33.752   6.474   2.815  1.00 20.00     0.162 A 
HETATM   11  C9  UNL     1     -33.492   4.975   2.866  1.00 20.00     0.045 C 
ENDBRANCH   3   4
TORSDOF 1
ENDMDL
MODEL 9
REMARK VINA RESULT:      -4.2     11.605     12.960
REMARK  1 active torsions:
REMARK  status: ('A' for Active; 'I' for Inactive)
REMARK    1  A    between atoms: C3_3  and  C6_6 
ROOT
HETATM    1  C1  UNL     1     -34.130  17.807  -6.868  1.00 20.00    -0.154 C 
HETATM    2  C5  UNL     1     -34.621  18.984  -7.111  1.00 20.00     0.096 C 
HETATM    3  C6  UNL     1     -33.633  16.630  -6.628  1.00 20.00     0.061 C 
ENDROOT
BRANCH   3   4
HETATM    4  C3  UNL     1     -34.352  15.636  -5.890  1.00 20.00    -0.010 A 
HETATM    5  C2  UNL     1     -34.686  14.410  -6.297  1.00 20.00     0.023 A 
HETATM    6  C4  UNL     1     -35.455  13.803  -5.198  1.00 20.00     0.290 A 
HETATM    7  C8  UNL     1     -34.432  13.681  -7.563  1.00 20.00     0.055 C 
HETATM    8  O10 UNL     1     -35.927  12.679  -5.200  1.00 20.00    -0.260 OA
HETATM    9  O11 UNL     1     -35.564  14.704  -4.179  1.00 20.00    -0.308 OA
HETATM   10  C7  UNL     1     -34.858  15.907  -4.519  1.00 20.00     0.162 A 
HETATM   11  C9  UNL     1     -33.769  16.133  -3.479  1.00 20.00     0.045 C 
ENDBRANCH   3   4
TORSDOF 1
ENDMDL
