MODEL 1
REMARK VINA RESULT:      -4.5      0.000      0.000
REMARK  1 active torsions:
REMARK  status: ('A' for Active; 'I' for Inactive)
REMARK    1  A    between atoms: C6_6  and  N7_7 
ROOT
HETATM    1  C1  UNL     1     -33.131   7.344   4.884  1.00 20.00     0.284 C 
HETATM    2  C2  UNL     1     -34.149   6.687   5.807  1.00 20.00     0.106 C 
HETATM    3  C3  UNL     1     -34.118   5.895   3.279  1.00 20.00     0.280 C 
HETATM    4  C4  UNL     1     -33.047   4.929   2.767  1.00 20.00     0.055 C 
HETATM    5  N7  UNL     1     -33.689   7.278   3.531  1.00 20.00     0.102 N 
HETATM    6  S8  UNL     1     -34.747   5.258   4.877  1.00 20.00    -0.132 SA
ENDROOT
BRANCH   5   7
HETATM    7  C6  UNL     1     -32.796   7.844   2.532  1.00 20.00     0.269 C 
HETATM    8  C5  UNL     1     -31.527   8.321   3.154  1.00 20.00     0.037 C 
ENDBRANCH   5   7
TORSDOF 1
ENDMDL
MODEL 2
REMARK VINA RESULT:      -3.4      1.863      3.521
REMARK  1 active torsions:
REMARK  status: ('A' for Active; 'I' for Inactive)
REMARK    1  A    between atoms: C6_6  and  N7_7 
ROOT
HETATM    1  C1  UNL     1     -33.060   5.789   3.032  1.00 20.00     0.284 C 
HETATM    2  C2  UNL     1     -32.167   6.870   2.437  1.00 20.00     0.106 C 
HETATM    3  C3  UNL     1     -33.789   7.587   4.406  1.00 20.00     0.280 C 
HETATM    4  C4  UNL     1     -33.456   7.256   5.862  1.00 20.00     0.055 C 
HETATM    5  N7  UNL     1     -34.242   6.469   3.566  1.00 20.00     0.102 N 
HETATM    6  S8  UNL     1     -32.276   8.242   3.607  1.00 20.00    -0.132 SA
ENDROOT
BRANCH   5   7
HETATM    7  C6  UNL     1     -35.173   5.550   4.202  1.00 20.00     0.269 C 
HETATM    8  C5  UNL     1     -34.513   4.252   4.521  1.00 20.00     0.037 C 
ENDBRANCH   5   7
TORSDOF 1
ENDMDL
MODEL 3
REMARK VINA RESULT:      -3.0     11.794     12.385
REMARK  1 active torsions:
REMARK  status: ('A' for Active; 'I' for Inactive)
REMARK    1  A    between atoms: C6_6  and  N7_7 
ROOT
HETATM    1  C1  UNL     1     -33.585  16.634  -4.645  1.00 20.00     0.284 C 
HETATM    2  C2  UNL     1     -33.089  15.709  -5.749  1.00 20.00     0.106 C 
HETATM    3  C3  UNL     1     -34.981  14.775  -4.146  1.00 20.00     0.280 C 
HETATM    4  C4  UNL     1     -36.441  15.200  -4.318  1.00 20.00     0.055 C 
HETATM    5  N7  UNL     1     -34.072  15.772  -3.564  1.00 20.00     0.102 N 
HETATM    6  S8  UNL     1     -34.303  14.371  -5.799  1.00 20.00    -0.132 SA
ENDROOT
BRANCH   5   7
HETATM    7  C6  UNL     1     -34.613  16.532  -2.449  1.00 20.00     0.269 C 
HETATM    8  C5  UNL     1     -33.538  17.283  -1.738  1.00 20.00     0.037 C 
ENDBRANCH   5   7
TORSDOF 1
ENDMDL
MODEL 4
REMARK VINA RESULT:      -3.0     11.658     12.540
REMARK  1 active torsions:
REMARK  status: ('A' for Active; 'I' for Inactive)
REMARK    1  A    between atoms: C6_6  and  N7_7 
ROOT
HETATM    1  C1  UNL     1     -34.803  14.016  -4.296  1.00 20.00     0.284 C 
HETATM    2  C2  UNL     1     -35.921  13.557  -5.223  1.00 20.00     0.106 C 
HETATM    3  C3  UNL     1     -34.815  15.911  -5.731  1.00 20.00     0.280 C 
HETATM    4  C4  UNL     1     -33.453  16.010  -6.422  1.00 20.00     0.055 C 
HETATM    5  N7  UNL     1     -34.808  15.481  -4.326  1.00 20.00     0.102 N 
HETATM    6  S8  UNL     1     -35.827  14.682  -6.635  1.00 20.00    -0.132 SA
ENDROOT
BRANCH   5   7
HETATM    7  C6  UNL     1     -33.756  16.057  -3.503  1.00 20.00     0.269 C 
HETATM    8  C5  UNL     1     -34.320  16.692  -2.277  1.00 20.00     0.037 C 
ENDBRANCH   5   7
TORSDOF 1
ENDMDL
MODEL 5
REMARK VINA RESULT:      -2.9     11.940     12.605
REMARK  1 active torsions:
REMARK  status: ('A' for Active; 'I' for Inactive)
REMARK    1  A    between atoms: C6_6  and  N7_7 
ROOT
HETATM    1  C1  UNL     1     -34.309  15.548  -6.059  1.00 20.00     0.284 C 
HETATM    2  C2  UNL     1     -34.041  14.655  -7.264  1.00 20.00     0.106 C 
HETATM    3  C3  UNL     1     -35.612  13.685  -5.363  1.00 20.00     0.280 C 
HETATM    4  C4  UNL     1     -37.072  14.127  -5.245  1.00 20.00     0.055 C 
HETATM    5  N7  UNL     1     -34.596  14.656  -4.933  1.00 20.00     0.102 N 
HETATM    6  S8  UNL     1     -35.262  13.330  -7.125  1.00 20.00    -0.132 SA
ENDROOT
BRANCH   5   7
HETATM    7  C6  UNL     1     -34.907  15.383  -3.713  1.00 20.00     0.269 C 
HETATM    8  C5  UNL     1     -33.760  16.235  -3.286  1.00 20.00     0.037 C 
ENDBRANCH   5   7
TORSDOF 1
ENDMDL
MODEL 6
REMARK VINA RESULT:      -2.9     12.044     13.018
REMARK  1 active torsions:
REMARK  status: ('A' for Active; 'I' for Inactive)
REMARK    1  A    between atoms: C6_6  and  N7_7 
ROOT
HETATM    1  C1  UNL     1     -35.259  16.906  -4.523  1.00 20.00     0.284 C 
HETATM    2  C2  UNL     1     -35.269  17.020  -6.042  1.00 20.00     0.106 C 
HETATM    3  C3  UNL     1     -33.150  15.886  -4.925  1.00 20.00     0.280 C 
HETATM    4  C4  UNL     1     -33.201  14.442  -4.422  1.00 20.00     0.055 C 
HETATM    5  N7  UNL     1     -33.853  16.889  -4.113  1.00 20.00     0.102 N 
HETATM    6  S8  UNL     1     -33.922  15.942  -6.585  1.00 20.00    -0.132 SA
ENDROOT
BRANCH   5   7
HETATM    7  C6  UNL     1     -33.695  16.747  -2.674  1.00 20.00     0.269 C 
HETATM    8  C5  UNL     1     -35.019  16.678  -1.992  1.00 20.00     0.037 C 
ENDBRANCH   5   7
TORSDOF 1
ENDMDL
MODEL 7
REMARK VINA RESULT:      -2.9     11.797     12.240
REMARK  1 active torsions:
REMARK  status: ('A' for Active; 'I' for Inactive)
REMARK    1  A    between atoms: C6_6  and  N7_7 
ROOT
HETATM    1  C1  UNL     1     -36.034  15.826  -3.735  1.00 20.00     0.284 C 
HETATM    2  C2  UNL     1     -35.599  16.670  -2.544  1.00 20.00     0.106 C 
HETATM    3  C3  UNL     1     -33.693  15.470  -3.940  1.00 20.00     0.280 C 
HETATM    4  C4  UNL     1     -33.228  16.030  -5.287  1.00 20.00     0.055 C 
HETATM    5  N7  UNL     1     -35.002  14.803  -3.923  1.00 20.00     0.102 N 
HETATM    6  S8  UNL     1     -33.813  16.858  -2.752  1.00 20.00    -0.132 SA
ENDROOT
BRANCH   5   7
HETATM    7  C6  UNL     1     -35.276  13.940  -5.061  1.00 20.00     0.269 C 
HETATM    8  C5  UNL     1     -36.729  13.939  -5.399  1.00 20.00     0.037 C 
ENDBRANCH   5   7
TORSDOF 1
ENDMDL
MODEL 8
REMARK VINA RESULT:      -2.9     11.984     12.869
REMARK  1 active torsions:
REMARK  status: ('A' for Active; 'I' for Inactive)
REMARK    1  A    between atoms: C6_6  and  N7_7 
ROOT
HETATM    1  C1  UNL     1     -33.577  18.242  -3.948  1.00 20.00     0.284 C 
HETATM    2  C2  UNL     1     -33.544  16.998  -4.827  1.00 20.00     0.106 C 
HETATM    3  C3  UNL     1     -34.018  16.644  -2.244  1.00 20.00     0.280 C 
HETATM    4  C4  UNL     1     -35.398  16.932  -1.647  1.00 20.00     0.055 C 
HETATM    5  N7  UNL     1     -33.199  17.811  -2.599  1.00 20.00     0.102 N 
HETATM    6  S8  UNL     1     -34.250  15.694  -3.792  1.00 20.00    -0.132 SA
ENDROOT
BRANCH   5   7
HETATM    7  C6  UNL     1     -33.224  18.904  -1.639  1.00 20.00     0.269 C 
HETATM    8  C5  UNL     1     -32.317  18.629  -0.488  1.00 20.00     0.037 C 
ENDBRANCH   5   7
TORSDOF 1
ENDMDL
MODEL 9
REMARK VINA RESULT:      -2.8      1.080      2.255
REMARK  1 active torsions:
REMARK  status: ('A' for Active; 'I' for Inactive)
REMARK    1  A    between atoms: C6_6  and  N7_7 
ROOT
HETATM    1  C1  UNL     1     -33.999   6.965   2.902  1.00 20.00     0.284 C 
HETATM    2  C2  UNL     1     -34.835   5.724   3.187  1.00 20.00     0.106 C 
HETATM    3  C3  UNL     1     -33.236   6.578   5.120  1.00 20.00     0.280 C 
HETATM    4  C4  UNL     1     -33.617   7.781   5.986  1.00 20.00     0.055 C 
HETATM    5  N7  UNL     1     -32.805   6.868   3.745  1.00 20.00     0.102 N 
HETATM    6  S8  UNL     1     -34.702   5.490   4.974  1.00 20.00    -0.132 SA
ENDROOT
BRANCH   5   7
HETATM    7  C6  UNL     1     -31.926   8.018   3.599  1.00 20.00     0.269 C 
HETATM    8  C5  UNL     1     -31.971   8.555   2.208  1.00 20.00     0.037 C 
ENDBRANCH   5   7
TORSDOF 1
ENDMDL
