MODEL 1
REMARK VINA RESULT:      -6.7      0.000      0.000
REMARK  1 active torsions:
REMARK  status: ('A' for Active; 'I' for Inactive)
REMARK    1  A    between atoms: C1_1  and  C7_7 
ROOT
HETATM    1  C2  UNL     1     -33.778   3.906   3.383  1.00 20.00     0.001 C 
HETATM    2  C3  UNL     1     -33.221   7.364   5.368  1.00 20.00     0.014 C 
HETATM    3  C4  UNL     1     -34.241   4.245   4.789  1.00 20.00     0.005 C 
HETATM    4  C5  UNL     1     -33.150   5.210   2.921  1.00 20.00     0.006 C 
HETATM    5  C6  UNL     1     -34.437   6.578   5.842  1.00 20.00     0.006 C 
HETATM    6  C7  UNL     1     -33.518   7.604   3.892  1.00 20.00     0.076 C 
HETATM    7  C8  UNL     1     -34.798   5.667   4.669  1.00 20.00    -0.010 C 
HETATM    8  C9  UNL     1     -34.127   6.283   3.417  1.00 20.00     0.002 C 
ENDROOT
BRANCH   6   9
HETATM    9  C1  UNL     1     -32.311   8.032   3.119  1.00 20.00     0.223 C 
HETATM   10  O10 UNL     1     -31.197   8.066   3.632  1.00 20.00    -0.279 OA
HETATM   11 CL11 UNL     1     -32.700   8.451   1.479  1.00 20.00    -0.043 Cl
ENDBRANCH   6   9
TORSDOF 1
ENDMDL
MODEL 2
REMARK VINA RESULT:      -6.7      1.149      1.149
REMARK  1 active torsions:
REMARK  status: ('A' for Active; 'I' for Inactive)
REMARK    1  A    between atoms: C1_1  and  C7_7 
ROOT
HETATM    1  C2  UNL     1     -33.852   3.828   3.559  1.00 20.00     0.001 C 
HETATM    2  C3  UNL     1     -33.237   7.441   5.224  1.00 20.00     0.014 C 
HETATM    3  C4  UNL     1     -34.162   4.249   4.986  1.00 20.00     0.005 C 
HETATM    4  C5  UNL     1     -33.350   5.119   2.937  1.00 20.00     0.006 C 
HETATM    5  C6  UNL     1     -34.347   6.642   5.895  1.00 20.00     0.006 C 
HETATM    6  C7  UNL     1     -33.719   7.560   3.783  1.00 20.00     0.076 C 
HETATM    7  C8  UNL     1     -34.799   5.633   4.839  1.00 20.00    -0.010 C 
HETATM    8  C9  UNL     1     -34.313   6.184   3.476  1.00 20.00     0.002 C 
ENDROOT
BRANCH   6   9
HETATM    9  C1  UNL     1     -32.636   7.981   2.841  1.00 20.00     0.223 C 
HETATM   10  O10 UNL     1     -32.857   8.169   1.649  1.00 20.00    -0.279 OA
HETATM   11 CL11 UNL     1     -31.104   8.155   3.641  1.00 20.00    -0.043 Cl
ENDBRANCH   6   9
TORSDOF 1
ENDMDL
MODEL 3
REMARK VINA RESULT:      -4.7     12.102     12.812
REMARK  1 active torsions:
REMARK  status: ('A' for Active; 'I' for Inactive)
REMARK    1  A    between atoms: C1_1  and  C7_7 
ROOT
HETATM    1  C2  UNL     1     -35.077  16.660  -2.259  1.00 20.00     0.001 C 
HETATM    2  C3  UNL     1     -33.810  14.453  -5.378  1.00 20.00     0.014 C 
HETATM    3  C4  UNL     1     -33.692  16.660  -2.884  1.00 20.00     0.005 C 
HETATM    4  C5  UNL     1     -35.843  15.703  -3.156  1.00 20.00     0.006 C 
HETATM    5  C6  UNL     1     -33.027  15.747  -5.190  1.00 20.00     0.006 C 
HETATM    6  C7  UNL     1     -35.241  14.940  -5.577  1.00 20.00     0.076 C 
HETATM    7  C8  UNL     1     -33.961  16.658  -4.392  1.00 20.00    -0.010 C 
HETATM    8  C9  UNL     1     -35.387  16.083  -4.570  1.00 20.00     0.002 C 
ENDROOT
BRANCH   6   9
HETATM    9  C1  UNL     1     -36.253  13.851  -5.416  1.00 20.00     0.223 C 
HETATM   10  O10 UNL     1     -35.922  12.700  -5.149  1.00 20.00    -0.279 OA
HETATM   11 CL11 UNL     1     -37.875  14.426  -5.650  1.00 20.00    -0.043 Cl
ENDBRANCH   6   9
TORSDOF 1
ENDMDL
MODEL 4
REMARK VINA RESULT:      -4.6     11.843     13.248
REMARK  1 active torsions:
REMARK  status: ('A' for Active; 'I' for Inactive)
REMARK    1  A    between atoms: C1_1  and  C7_7 
ROOT
HETATM    1  C2  UNL     1     -34.014  16.944  -7.165  1.00 20.00     0.001 C 
HETATM    2  C3  UNL     1     -35.053  15.606  -3.513  1.00 20.00     0.014 C 
HETATM    3  C4  UNL     1     -33.659  17.562  -5.823  1.00 20.00     0.005 C 
HETATM    4  C5  UNL     1     -34.762  15.686  -6.760  1.00 20.00     0.006 C 
HETATM    5  C6  UNL     1     -33.780  16.443  -3.516  1.00 20.00     0.006 C 
HETATM    6  C7  UNL     1     -34.715  14.459  -4.458  1.00 20.00     0.076 C 
HETATM    7  C8  UNL     1     -33.262  16.366  -4.952  1.00 20.00    -0.010 C 
HETATM    8  C9  UNL     1     -33.938  15.129  -5.592  1.00 20.00     0.002 C 
ENDROOT
BRANCH   6   9
HETATM    9  C1  UNL     1     -35.923  13.702  -4.909  1.00 20.00     0.223 C 
HETATM   10  O10 UNL     1     -35.837  12.571  -5.377  1.00 20.00    -0.279 OA
HETATM   11 CL11 UNL     1     -37.386  14.612  -4.684  1.00 20.00    -0.043 Cl
ENDBRANCH   6   9
TORSDOF 1
ENDMDL
MODEL 5
REMARK VINA RESULT:      -4.5      2.493      4.026
REMARK  1 active torsions:
REMARK  status: ('A' for Active; 'I' for Inactive)
REMARK    1  A    between atoms: C1_1  and  C7_7 
ROOT
HETATM    1  C2  UNL     1     -31.471   8.604   3.580  1.00 20.00     0.001 C 
HETATM    2  C3  UNL     1     -33.792   5.349   3.110  1.00 20.00     0.014 C 
HETATM    3  C4  UNL     1     -31.675   7.794   2.311  1.00 20.00     0.005 C 
HETATM    4  C5  UNL     1     -32.416   7.927   4.557  1.00 20.00     0.006 C 
HETATM    5  C6  UNL     1     -33.560   6.122   1.819  1.00 20.00     0.006 C 
HETATM    6  C7  UNL     1     -34.448   6.381   4.019  1.00 20.00     0.076 C 
HETATM    7  C8  UNL     1     -33.184   7.535   2.269  1.00 20.00    -0.010 C 
HETATM    8  C9  UNL     1     -33.681   7.673   3.728  1.00 20.00     0.002 C 
ENDROOT
BRANCH   6   9
HETATM    9  C1  UNL     1     -34.439   5.977   5.459  1.00 20.00     0.223 C 
HETATM   10  O10 UNL     1     -34.429   6.809   6.361  1.00 20.00    -0.279 OA
HETATM   11 CL11 UNL     1     -34.446   4.251   5.655  1.00 20.00    -0.043 Cl
ENDBRANCH   6   9
TORSDOF 1
ENDMDL
MODEL 6
REMARK VINA RESULT:      -4.3      0.996      2.320
REMARK  1 active torsions:
REMARK  status: ('A' for Active; 'I' for Inactive)
REMARK    1  A    between atoms: C1_1  and  C7_7 
ROOT
HETATM    1  C2  UNL     1     -34.421   6.375   5.862  1.00 20.00     0.001 C 
HETATM    2  C3  UNL     1     -33.744   6.879   1.926  1.00 20.00     0.014 C 
HETATM    3  C4  UNL     1     -35.081   5.633   4.712  1.00 20.00     0.005 C 
HETATM    4  C5  UNL     1     -33.413   7.258   5.148  1.00 20.00     0.006 C 
HETATM    5  C6  UNL     1     -34.268   5.493   2.281  1.00 20.00     0.006 C 
HETATM    6  C7  UNL     1     -32.457   6.981   2.736  1.00 20.00     0.076 C 
HETATM    7  C8  UNL     1     -33.925   5.311   3.760  1.00 20.00    -0.010 C 
HETATM    8  C9  UNL     1     -32.812   6.338   4.078  1.00 20.00     0.002 C 
ENDROOT
BRANCH   6   9
HETATM    9  C1  UNL     1     -31.948   8.382   2.846  1.00 20.00     0.223 C 
HETATM   10  O10 UNL     1     -31.170   8.718   3.734  1.00 20.00    -0.279 OA
HETATM   11 CL11 UNL     1     -32.587   9.410   1.598  1.00 20.00    -0.043 Cl
ENDBRANCH   6   9
TORSDOF 1
ENDMDL
MODEL 7
REMARK VINA RESULT:      -4.3     11.929     13.266
REMARK  1 active torsions:
REMARK  status: ('A' for Active; 'I' for Inactive)
REMARK    1  A    between atoms: C1_1  and  C7_7 
ROOT
HETATM    1  C2  UNL     1     -33.721  16.446  -3.023  1.00 20.00     0.001 C 
HETATM    2  C3  UNL     1     -35.589  16.053  -6.568  1.00 20.00     0.014 C 
HETATM    3  C4  UNL     1     -34.198  17.559  -3.941  1.00 20.00     0.005 C 
HETATM    4  C5  UNL     1     -34.205  15.198  -3.742  1.00 20.00     0.006 C 
HETATM    5  C6  UNL     1     -35.886  17.372  -5.866  1.00 20.00     0.006 C 
HETATM    6  C7  UNL     1     -36.064  15.010  -5.563  1.00 20.00     0.076 C 
HETATM    7  C8  UNL     1     -35.591  17.106  -4.389  1.00 20.00    -0.010 C 
HETATM    8  C9  UNL     1     -35.617  15.569  -4.210  1.00 20.00     0.002 C 
ENDROOT
BRANCH   6   9
HETATM    9  C1  UNL     1     -35.545  13.639  -5.859  1.00 20.00     0.223 C 
HETATM   10  O10 UNL     1     -35.929  12.657  -5.232  1.00 20.00    -0.279 OA
HETATM   11 CL11 UNL     1     -34.383  13.644  -7.150  1.00 20.00    -0.043 Cl
ENDBRANCH   6   9
TORSDOF 1
ENDMDL
MODEL 8
REMARK VINA RESULT:      -4.2     12.186     13.277
REMARK  1 active torsions:
REMARK  status: ('A' for Active; 'I' for Inactive)
REMARK    1  A    between atoms: C1_1  and  C7_7 
ROOT
HETATM    1  C2  UNL     1     -34.372  15.880  -7.674  1.00 20.00     0.001 C 
HETATM    2  C3  UNL     1     -35.058  15.355  -3.743  1.00 20.00     0.014 C 
HETATM    3  C4  UNL     1     -33.359  15.958  -6.544  1.00 20.00     0.005 C 
HETATM    4  C5  UNL     1     -35.644  15.478  -6.948  1.00 20.00     0.006 C 
HETATM    5  C6  UNL     1     -33.622  15.057  -4.155  1.00 20.00     0.006 C 
HETATM    6  C7  UNL     1     -35.871  14.383  -4.590  1.00 20.00     0.076 C 
HETATM    7  C8  UNL     1     -33.697  14.759  -5.653  1.00 20.00    -0.010 C 
HETATM    8  C9  UNL     1     -35.175  14.409  -5.953  1.00 20.00     0.002 C 
ENDROOT
BRANCH   6   9
HETATM    9  C1  UNL     1     -37.324  14.731  -4.640  1.00 20.00     0.223 C 
HETATM   10  O10 UNL     1     -38.168  13.920  -5.008  1.00 20.00    -0.279 OA
HETATM   11 CL11 UNL     1     -37.624  16.364  -4.129  1.00 20.00    -0.043 Cl
ENDBRANCH   6   9
TORSDOF 1
ENDMDL
MODEL 9
REMARK VINA RESULT:      -4.2     11.964     12.690
REMARK  1 active torsions:
REMARK  status: ('A' for Active; 'I' for Inactive)
REMARK    1  A    between atoms: C1_1  and  C7_7 
ROOT
HETATM    1  C2  UNL     1     -36.287  14.012  -5.189  1.00 20.00     0.001 C 
HETATM    2  C3  UNL     1     -33.457  16.843  -4.764  1.00 20.00     0.014 C 
HETATM    3  C4  UNL     1     -35.022  14.179  -6.013  1.00 20.00     0.005 C 
HETATM    4  C5  UNL     1     -36.149  15.109  -4.148  1.00 20.00     0.006 C 
HETATM    5  C6  UNL     1     -32.944  15.560  -5.409  1.00 20.00     0.006 C 
HETATM    6  C7  UNL     1     -33.983  16.366  -3.416  1.00 20.00     0.076 C 
HETATM    7  C8  UNL     1     -33.935  14.480  -4.976  1.00 20.00    -0.010 C 
HETATM    8  C9  UNL     1     -34.674  15.039  -3.735  1.00 20.00     0.002 C 
ENDROOT
BRANCH   6   9
HETATM    9  C1  UNL     1     -34.869  17.371  -2.750  1.00 20.00     0.223 C 
HETATM   10  O10 UNL     1     -35.245  18.383  -3.332  1.00 20.00    -0.279 OA
HETATM   11 CL11 UNL     1     -35.264  16.917  -1.120  1.00 20.00    -0.043 Cl
ENDBRANCH   6   9
TORSDOF 1
ENDMDL
