MODEL 1
REMARK VINA RESULT:      -4.5      0.000      0.000
REMARK  3 active torsions:
REMARK  status: ('A' for Active; 'I' for Inactive)
REMARK    1  A    between atoms: C2_2  and  N9_9 
REMARK    2  A    between atoms: C6_6  and  N9_9 
REMARK    3  A    between atoms: C7_7  and  N9_9 
ROOT
HETATM    1  C1  UNL     1     -32.766   8.226   2.156  1.00 20.00     0.036 C 
HETATM    2  C2  UNL     1     -33.093   7.352   2.910  1.00 20.00     0.024 C 
HETATM    3  C3  UNL     1     -32.391   9.224   1.292  1.00 20.00     0.154 C 
HETATM    4  N8  UNL     1     -32.075  10.068   0.562  1.00 20.00    -0.182 NA
ENDROOT
BRANCH   2   5
HETATM    5  N9  UNL     1     -33.490   6.294   3.824  1.00 20.00    -0.342 N 
BRANCH   5   6
HETATM    6  C6  UNL     1     -33.627   4.959   3.280  1.00 20.00     0.128 C 
HETATM    7  C4  UNL     1     -34.193   4.020   4.290  1.00 20.00     0.027 C 
ENDBRANCH   5   6
BRANCH   5   8
HETATM    8  C7  UNL     1     -34.304   6.665   4.963  1.00 20.00     0.128 C 
HETATM    9  C5  UNL     1     -33.523   7.475   5.941  1.00 20.00     0.027 C 
ENDBRANCH   5   8
ENDBRANCH   2   5
TORSDOF 3
ENDMDL
MODEL 2
REMARK VINA RESULT:      -4.2      0.988      2.406
REMARK  3 active torsions:
REMARK  status: ('A' for Active; 'I' for Inactive)
REMARK    1  A    between atoms: C2_2  and  N9_9 
REMARK    2  A    between atoms: C6_6  and  N9_9 
REMARK    3  A    between atoms: C7_7  and  N9_9 
ROOT
HETATM    1  C1  UNL     1     -32.852   7.701   2.669  1.00 20.00     0.036 C 
HETATM    2  C2  UNL     1     -33.541   7.141   3.476  1.00 20.00     0.024 C 
HETATM    3  C3  UNL     1     -32.064   8.341   1.745  1.00 20.00     0.154 C 
HETATM    4  N8  UNL     1     -31.399   8.881   0.964  1.00 20.00    -0.182 NA
ENDROOT
BRANCH   2   5
HETATM    5  N9  UNL     1     -34.376   6.463   4.454  1.00 20.00    -0.342 N 
BRANCH   5   6
HETATM    6  C6  UNL     1     -34.028   6.618   5.852  1.00 20.00     0.128 C 
HETATM    7  C4  UNL     1     -33.306   7.901   6.087  1.00 20.00     0.027 C 
ENDBRANCH   5   6
BRANCH   5   8
HETATM    8  C7  UNL     1     -35.040   5.247   4.036  1.00 20.00     0.128 C 
HETATM    9  C5  UNL     1     -34.249   4.043   4.420  1.00 20.00     0.027 C 
ENDBRANCH   5   8
ENDBRANCH   2   5
TORSDOF 3
ENDMDL
MODEL 3
REMARK VINA RESULT:      -3.6     10.846     12.031
REMARK  3 active torsions:
REMARK  status: ('A' for Active; 'I' for Inactive)
REMARK    1  A    between atoms: C2_2  and  N9_9 
REMARK    2  A    between atoms: C6_6  and  N9_9 
REMARK    3  A    between atoms: C7_7  and  N9_9 
ROOT
HETATM    1  C1  UNL     1     -34.806  14.872  -4.152  1.00 20.00     0.036 C 
HETATM    2  C2  UNL     1     -34.302  15.826  -3.629  1.00 20.00     0.024 C 
HETATM    3  C3  UNL     1     -35.384  13.781  -4.751  1.00 20.00     0.154 C 
HETATM    4  N8  UNL     1     -35.873  12.859  -5.257  1.00 20.00    -0.182 NA
ENDROOT
BRANCH   2   5
HETATM    5  N9  UNL     1     -33.690  16.983  -2.995  1.00 20.00    -0.342 N 
BRANCH   5   6
HETATM    6  C6  UNL     1     -33.903  17.155  -1.573  1.00 20.00     0.128 C 
HETATM    7  C4  UNL     1     -35.340  16.982  -1.219  1.00 20.00     0.027 C 
ENDBRANCH   5   6
BRANCH   5   8
HETATM    8  C7  UNL     1     -33.483  18.160  -3.812  1.00 20.00     0.128 C 
HETATM    9  C5  UNL     1     -34.730  18.538  -4.537  1.00 20.00     0.027 C 
ENDBRANCH   5   8
ENDBRANCH   2   5
TORSDOF 3
ENDMDL
MODEL 4
REMARK VINA RESULT:      -3.4     10.855     12.081
REMARK  3 active torsions:
REMARK  status: ('A' for Active; 'I' for Inactive)
REMARK    1  A    between atoms: C2_2  and  N9_9 
REMARK    2  A    between atoms: C6_6  and  N9_9 
REMARK    3  A    between atoms: C7_7  and  N9_9 
ROOT
HETATM    1  C1  UNL     1     -35.039  14.953  -4.177  1.00 20.00     0.036 C 
HETATM    2  C2  UNL     1     -34.657  15.960  -3.650  1.00 20.00     0.024 C 
HETATM    3  C3  UNL     1     -35.477  13.800  -4.779  1.00 20.00     0.154 C 
HETATM    4  N8  UNL     1     -35.848  12.826  -5.289  1.00 20.00    -0.182 NA
ENDROOT
BRANCH   2   5
HETATM    5  N9  UNL     1     -34.192  17.182  -3.013  1.00 20.00    -0.342 N 
BRANCH   5   6
HETATM    6  C6  UNL     1     -33.373  18.077  -3.804  1.00 20.00     0.128 C 
HETATM    7  C4  UNL     1     -34.072  18.482  -5.057  1.00 20.00     0.027 C 
ENDBRANCH   5   6
BRANCH   5   8
HETATM    8  C7  UNL     1     -34.006  17.157  -1.578  1.00 20.00     0.128 C 
HETATM    9  C5  UNL     1     -35.315  17.116  -0.866  1.00 20.00     0.027 C 
ENDBRANCH   5   8
ENDBRANCH   2   5
TORSDOF 3
ENDMDL
MODEL 5
REMARK VINA RESULT:      -3.4      1.824      4.755
REMARK  3 active torsions:
REMARK  status: ('A' for Active; 'I' for Inactive)
REMARK    1  A    between atoms: C2_2  and  N9_9 
REMARK    2  A    between atoms: C6_6  and  N9_9 
REMARK    3  A    between atoms: C7_7  and  N9_9 
ROOT
HETATM    1  C1  UNL     1     -33.599   6.068   3.250  1.00 20.00     0.036 C 
HETATM    2  C2  UNL     1     -33.051   6.967   2.677  1.00 20.00     0.024 C 
HETATM    3  C3  UNL     1     -34.227   5.038   3.907  1.00 20.00     0.154 C 
HETATM    4  N8  UNL     1     -34.757   4.169   4.463  1.00 20.00    -0.182 NA
ENDROOT
BRANCH   2   5
HETATM    5  N9  UNL     1     -32.388   8.059   1.982  1.00 20.00    -0.342 N 
BRANCH   5   6
HETATM    6  C6  UNL     1     -31.320   8.744   2.681  1.00 20.00     0.128 C 
HETATM    7  C4  UNL     1     -31.448   8.575   4.157  1.00 20.00     0.027 C 
ENDBRANCH   5   6
BRANCH   5   8
HETATM    8  C7  UNL     1     -33.161   8.795   1.004  1.00 20.00     0.128 C 
HETATM    9  C5  UNL     1     -32.629  10.177   0.827  1.00 20.00     0.027 C 
ENDBRANCH   5   8
ENDBRANCH   2   5
TORSDOF 3
ENDMDL
MODEL 6
REMARK VINA RESULT:      -3.3     10.861     11.563
REMARK  3 active torsions:
REMARK  status: ('A' for Active; 'I' for Inactive)
REMARK    1  A    between atoms: C2_2  and  N9_9 
REMARK    2  A    between atoms: C6_6  and  N9_9 
REMARK    3  A    between atoms: C7_7  and  N9_9 
ROOT
HETATM    1  C1  UNL     1     -33.530  17.133  -2.259  1.00 20.00     0.036 C 
HETATM    2  C2  UNL     1     -34.222  16.454  -2.966  1.00 20.00     0.024 C 
HETATM    3  C3  UNL     1     -32.739  17.910  -1.451  1.00 20.00     0.154 C 
HETATM    4  N8  UNL     1     -32.070  18.568  -0.768  1.00 20.00    -0.182 NA
ENDROOT
BRANCH   2   5
HETATM    5  N9  UNL     1     -35.060  15.631  -3.823  1.00 20.00    -0.342 N 
BRANCH   5   6
HETATM    6  C6  UNL     1     -36.491  15.848  -3.763  1.00 20.00     0.128 C 
HETATM    7  C4  UNL     1     -37.221  14.867  -4.615  1.00 20.00     0.027 C 
ENDBRANCH   5   6
BRANCH   5   8
HETATM    8  C7  UNL     1     -34.573  14.313  -4.168  1.00 20.00     0.128 C 
HETATM    9  C5  UNL     1     -33.113  14.340  -4.468  1.00 20.00     0.027 C 
ENDBRANCH   5   8
ENDBRANCH   2   5
TORSDOF 3
ENDMDL
MODEL 7
REMARK VINA RESULT:      -3.3     11.128     11.759
REMARK  3 active torsions:
REMARK  status: ('A' for Active; 'I' for Inactive)
REMARK    1  A    between atoms: C2_2  and  N9_9 
REMARK    2  A    between atoms: C6_6  and  N9_9 
REMARK    3  A    between atoms: C7_7  and  N9_9 
ROOT
HETATM    1  C1  UNL     1     -34.373  15.935  -3.157  1.00 20.00     0.036 C 
HETATM    2  C2  UNL     1     -34.543  15.205  -4.094  1.00 20.00     0.024 C 
HETATM    3  C3  UNL     1     -34.178  16.770  -2.085  1.00 20.00     0.154 C 
HETATM    4  N8  UNL     1     -34.014  17.476  -1.180  1.00 20.00    -0.182 NA
ENDROOT
BRANCH   2   5
HETATM    5  N9  UNL     1     -34.750  14.321  -5.229  1.00 20.00    -0.342 N 
BRANCH   5   6
HETATM    6  C6  UNL     1     -34.198  14.732  -6.504  1.00 20.00     0.128 C 
HETATM    7  C4  UNL     1     -34.415  13.688  -7.546  1.00 20.00     0.027 C 
ENDBRANCH   5   6
BRANCH   5   8
HETATM    8  C7  UNL     1     -35.937  13.493  -5.222  1.00 20.00     0.128 C 
HETATM    9  C5  UNL     1     -37.170  14.321  -5.094  1.00 20.00     0.027 C 
ENDBRANCH   5   8
ENDBRANCH   2   5
TORSDOF 3
ENDMDL
MODEL 8
REMARK VINA RESULT:      -3.3     10.775     11.558
REMARK  3 active torsions:
REMARK  status: ('A' for Active; 'I' for Inactive)
REMARK    1  A    between atoms: C2_2  and  N9_9 
REMARK    2  A    between atoms: C6_6  and  N9_9 
REMARK    3  A    between atoms: C7_7  and  N9_9 
ROOT
HETATM    1  C1  UNL     1     -33.616  17.092  -2.160  1.00 20.00     0.036 C 
HETATM    2  C2  UNL     1     -34.317  16.351  -2.790  1.00 20.00     0.024 C 
HETATM    3  C3  UNL     1     -32.813  17.940  -1.439  1.00 20.00     0.154 C 
HETATM    4  N8  UNL     1     -32.135  18.657  -0.829  1.00 20.00    -0.182 NA
ENDROOT
BRANCH   2   5
HETATM    5  N9  UNL     1     -35.169  15.452  -3.553  1.00 20.00    -0.342 N 
BRANCH   5   6
HETATM    6  C6  UNL     1     -34.548  14.282  -4.139  1.00 20.00     0.128 C 
HETATM    7  C4  UNL     1     -33.129  14.553  -4.508  1.00 20.00     0.027 C 
ENDBRANCH   5   6
BRANCH   5   8
HETATM    8  C7  UNL     1     -36.326  16.024  -4.208  1.00 20.00     0.128 C 
HETATM    9  C5  UNL     1     -37.318  14.969  -4.565  1.00 20.00     0.027 C 
ENDBRANCH   5   8
ENDBRANCH   2   5
TORSDOF 3
ENDMDL
MODEL 9
REMARK VINA RESULT:      -3.3      1.831      4.713
REMARK  3 active torsions:
REMARK  status: ('A' for Active; 'I' for Inactive)
REMARK    1  A    between atoms: C2_2  and  N9_9 
REMARK    2  A    between atoms: C6_6  and  N9_9 
REMARK    3  A    between atoms: C7_7  and  N9_9 
ROOT
HETATM    1  C1  UNL     1     -33.675   6.111   3.269  1.00 20.00     0.036 C 
HETATM    2  C2  UNL     1     -33.225   7.093   2.748  1.00 20.00     0.024 C 
HETATM    3  C3  UNL     1     -34.189   4.987   3.866  1.00 20.00     0.154 C 
HETATM    4  N8  UNL     1     -34.624   4.037   4.371  1.00 20.00    -0.182 NA
ENDROOT
BRANCH   2   5
HETATM    5  N9  UNL     1     -32.680   8.284   2.117  1.00 20.00    -0.342 N 
BRANCH   5   6
HETATM    6  C6  UNL     1     -33.046   8.536   0.739  1.00 20.00     0.128 C 
HETATM    7  C4  UNL     1     -32.735   9.940   0.347  1.00 20.00     0.027 C 
ENDBRANCH   5   6
BRANCH   5   8
HETATM    8  C7  UNL     1     -31.401   8.766   2.594  1.00 20.00     0.128 C 
HETATM    9  C5  UNL     1     -31.263   8.562   4.065  1.00 20.00     0.027 C 
ENDBRANCH   5   8
ENDBRANCH   2   5
TORSDOF 3
ENDMDL
