MODEL 1
REMARK VINA RESULT:      -4.2      0.000      0.000
REMARK  2 active torsions:
REMARK  status: ('A' for Active; 'I' for Inactive)
REMARK    1  A    between atoms: C5_5  and  C8_8 
REMARK    2  A    between atoms: C8_8  and  N10_10 
ROOT
HETATM    1  C1  UNL     1     -32.020   8.822   1.864  1.00 20.00     0.135 A 
HETATM    2  C2  UNL     1     -33.034   7.894   1.837  1.00 20.00     0.112 A 
HETATM    3  C3  UNL     1     -31.941   7.838   3.750  1.00 20.00     0.210 A 
HETATM    4  N9  UNL     1     -31.343   8.782   3.057  1.00 20.00    -0.255 NA
HETATM    5  N10 UNL     1     -32.971   7.271   3.051  1.00 20.00    -0.338 N 
ENDROOT
BRANCH   5   6
HETATM    6  C8  UNL     1     -33.862   6.174   3.530  1.00 20.00     0.047 C 
HETATM    7  C6  UNL     1     -35.317   6.275   3.007  1.00 20.00     0.043 C 
HETATM    8  C7  UNL     1     -33.297   4.831   3.005  1.00 20.00     0.043 C 
BRANCH   6   9
HETATM    9  C5  UNL     1     -33.976   6.257   5.052  1.00 20.00    -0.007 C 
HETATM   10  C4  UNL     1     -34.582   5.389   5.873  1.00 20.00     0.009 C 
ENDBRANCH   6   9
ENDBRANCH   5   6
TORSDOF 2
ENDMDL
MODEL 2
REMARK VINA RESULT:      -3.9     11.188     12.184
REMARK  2 active torsions:
REMARK  status: ('A' for Active; 'I' for Inactive)
REMARK    1  A    between atoms: C5_5  and  C8_8 
REMARK    2  A    between atoms: C8_8  and  N10_10 
ROOT
HETATM    1  C1  UNL     1     -38.366  15.087  -4.576  1.00 20.00     0.135 A 
HETATM    2  C2  UNL     1     -37.320  15.884  -4.172  1.00 20.00     0.112 A 
HETATM    3  C3  UNL     1     -36.602  13.989  -5.038  1.00 20.00     0.210 A 
HETATM    4  N9  UNL     1     -37.913  13.908  -5.113  1.00 20.00    -0.255 NA
HETATM    5  N10 UNL     1     -36.198  15.167  -4.475  1.00 20.00    -0.338 N 
ENDROOT
BRANCH   5   6
HETATM    6  C8  UNL     1     -34.787  15.591  -4.235  1.00 20.00     0.047 C 
HETATM    7  C6  UNL     1     -33.765  14.428  -4.290  1.00 20.00     0.043 C 
HETATM    8  C7  UNL     1     -34.386  16.584  -5.352  1.00 20.00     0.043 C 
BRANCH   6   9
HETATM    9  C5  UNL     1     -34.674  16.157  -2.819  1.00 20.00    -0.007 C 
HETATM   10  C4  UNL     1     -33.699  16.931  -2.326  1.00 20.00     0.009 C 
ENDBRANCH   6   9
ENDBRANCH   5   6
TORSDOF 2
ENDMDL
MODEL 3
REMARK VINA RESULT:      -3.9     11.175     12.287
REMARK  2 active torsions:
REMARK  status: ('A' for Active; 'I' for Inactive)
REMARK    1  A    between atoms: C5_5  and  C8_8 
REMARK    2  A    between atoms: C8_8  and  N10_10 
ROOT
HETATM    1  C1  UNL     1     -35.201  13.164  -6.704  1.00 20.00     0.135 A 
HETATM    2  C2  UNL     1     -34.663  14.424  -6.580  1.00 20.00     0.112 A 
HETATM    3  C3  UNL     1     -35.745  13.827  -4.756  1.00 20.00     0.210 A 
HETATM    4  N9  UNL     1     -35.875  12.798  -5.565  1.00 20.00    -0.255 NA
HETATM    5  N10 UNL     1     -35.020  14.835  -5.328  1.00 20.00    -0.338 N 
ENDROOT
BRANCH   5   6
HETATM    6  C8  UNL     1     -34.681  16.145  -4.697  1.00 20.00     0.047 C 
HETATM    7  C6  UNL     1     -33.439  16.834  -5.315  1.00 20.00     0.043 C 
HETATM    8  C7  UNL     1     -35.874  17.108  -4.915  1.00 20.00     0.043 C 
BRANCH   6   9
HETATM    9  C5  UNL     1     -34.322  15.910  -3.230  1.00 20.00    -0.007 C 
HETATM   10  C4  UNL     1     -34.675  16.655  -2.175  1.00 20.00     0.009 C 
ENDBRANCH   6   9
ENDBRANCH   5   6
TORSDOF 2
ENDMDL
MODEL 4
REMARK VINA RESULT:      -3.8     11.093     12.367
REMARK  2 active torsions:
REMARK  status: ('A' for Active; 'I' for Inactive)
REMARK    1  A    between atoms: C5_5  and  C8_8 
REMARK    2  A    between atoms: C8_8  and  N10_10 
ROOT
HETATM    1  C1  UNL     1     -37.594  14.860  -4.646  1.00 20.00     0.135 A 
HETATM    2  C2  UNL     1     -36.592  15.747  -4.332  1.00 20.00     0.112 A 
HETATM    3  C3  UNL     1     -35.776  13.805  -4.981  1.00 20.00     0.210 A 
HETATM    4  N9  UNL     1     -37.081  13.652  -5.048  1.00 20.00    -0.255 NA
HETATM    5  N10 UNL     1     -35.433  15.057  -4.551  1.00 20.00    -0.338 N 
ENDROOT
BRANCH   5   6
HETATM    6  C8  UNL     1     -34.047  15.574  -4.358  1.00 20.00     0.047 C 
HETATM    7  C6  UNL     1     -33.846  16.350  -3.032  1.00 20.00     0.043 C 
HETATM    8  C7  UNL     1     -33.083  14.363  -4.309  1.00 20.00     0.043 C 
BRANCH   6   9
HETATM    9  C5  UNL     1     -33.735  16.582  -5.464  1.00 20.00    -0.007 C 
HETATM   10  C4  UNL     1     -33.732  16.368  -6.786  1.00 20.00     0.009 C 
ENDBRANCH   6   9
ENDBRANCH   5   6
TORSDOF 2
ENDMDL
MODEL 5
REMARK VINA RESULT:      -3.8      0.780      1.613
REMARK  2 active torsions:
REMARK  status: ('A' for Active; 'I' for Inactive)
REMARK    1  A    between atoms: C5_5  and  C8_8 
REMARK    2  A    between atoms: C8_8  and  N10_10 
ROOT
HETATM    1  C1  UNL     1     -32.009   8.390   2.016  1.00 20.00     0.135 A 
HETATM    2  C2  UNL     1     -33.053   7.496   2.070  1.00 20.00     0.112 A 
HETATM    3  C3  UNL     1     -32.170   7.826   4.062  1.00 20.00     0.210 A 
HETATM    4  N9  UNL     1     -31.463   8.591   3.259  1.00 20.00    -0.255 NA
HETATM    5  N10 UNL     1     -33.143   7.144   3.387  1.00 20.00    -0.338 N 
ENDROOT
BRANCH   5   6
HETATM    6  C8  UNL     1     -34.125   6.189   3.981  1.00 20.00     0.047 C 
HETATM    7  C6  UNL     1     -34.266   6.311   5.519  1.00 20.00     0.043 C 
HETATM    8  C7  UNL     1     -35.519   6.498   3.384  1.00 20.00     0.043 C 
BRANCH   6   9
HETATM    9  C5  UNL     1     -33.637   4.761   3.735  1.00 20.00    -0.007 C 
HETATM   10  C4  UNL     1     -34.003   3.650   4.388  1.00 20.00     0.009 C 
ENDBRANCH   6   9
ENDBRANCH   5   6
TORSDOF 2
ENDMDL
MODEL 6
REMARK VINA RESULT:      -3.7      1.567      3.693
REMARK  2 active torsions:
REMARK  status: ('A' for Active; 'I' for Inactive)
REMARK    1  A    between atoms: C5_5  and  C8_8 
REMARK    2  A    between atoms: C8_8  and  N10_10 
ROOT
HETATM    1  C1  UNL     1     -34.808   5.915   6.166  1.00 20.00     0.135 A 
HETATM    2  C2  UNL     1     -34.675   5.406   4.895  1.00 20.00     0.112 A 
HETATM    3  C3  UNL     1     -33.556   7.290   5.129  1.00 20.00     0.210 A 
HETATM    4  N9  UNL     1     -34.110   7.089   6.305  1.00 20.00    -0.255 NA
HETATM    5  N10 UNL     1     -33.871   6.297   4.243  1.00 20.00    -0.338 N 
ENDROOT
BRANCH   5   6
HETATM    6  C8  UNL     1     -33.418   6.206   2.824  1.00 20.00     0.047 C 
HETATM    7  C6  UNL     1     -32.793   4.838   2.453  1.00 20.00     0.043 C 
HETATM    8  C7  UNL     1     -34.655   6.388   1.911  1.00 20.00     0.043 C 
BRANCH   6   9
HETATM    9  C5  UNL     1     -32.308   7.231   2.592  1.00 20.00    -0.007 C 
HETATM   10  C4  UNL     1     -32.376   8.357   1.871  1.00 20.00     0.009 C 
ENDBRANCH   6   9
ENDBRANCH   5   6
TORSDOF 2
ENDMDL
MODEL 7
REMARK VINA RESULT:      -3.6     11.047     11.930
REMARK  2 active torsions:
REMARK  status: ('A' for Active; 'I' for Inactive)
REMARK    1  A    between atoms: C5_5  and  C8_8 
REMARK    2  A    between atoms: C8_8  and  N10_10 
ROOT
HETATM    1  C1  UNL     1     -35.562  14.065  -4.858  1.00 20.00     0.135 A 
HETATM    2  C2  UNL     1     -35.984  15.215  -4.233  1.00 20.00     0.112 A 
HETATM    3  C3  UNL     1     -33.818  14.905  -3.973  1.00 20.00     0.210 A 
HETATM    4  N9  UNL     1     -34.213  13.877  -4.692  1.00 20.00    -0.255 NA
HETATM    5  N10 UNL     1     -34.856  15.742  -3.671  1.00 20.00    -0.338 N 
ENDROOT
BRANCH   5   6
HETATM    6  C8  UNL     1     -34.771  17.000  -2.873  1.00 20.00     0.047 C 
HETATM    7  C6  UNL     1     -35.199  18.268  -3.654  1.00 20.00     0.043 C 
HETATM    8  C7  UNL     1     -35.740  16.875  -1.671  1.00 20.00     0.043 C 
BRANCH   6   9
HETATM    9  C5  UNL     1     -33.313  17.241  -2.482  1.00 20.00    -0.007 C 
HETATM   10  C4  UNL     1     -32.854  17.910  -1.417  1.00 20.00     0.009 C 
ENDBRANCH   6   9
ENDBRANCH   5   6
TORSDOF 2
ENDMDL
MODEL 8
REMARK VINA RESULT:      -3.6     11.331     12.755
REMARK  2 active torsions:
REMARK  status: ('A' for Active; 'I' for Inactive)
REMARK    1  A    between atoms: C5_5  and  C8_8 
REMARK    2  A    between atoms: C8_8  and  N10_10 
ROOT
HETATM    1  C1  UNL     1     -37.765  15.295  -4.333  1.00 20.00     0.135 A 
HETATM    2  C2  UNL     1     -36.487  15.784  -4.467  1.00 20.00     0.112 A 
HETATM    3  C3  UNL     1     -36.707  13.824  -5.449  1.00 20.00     0.210 A 
HETATM    4  N9  UNL     1     -37.896  14.074  -4.945  1.00 20.00    -0.255 NA
HETATM    5  N10 UNL     1     -35.821  14.831  -5.184  1.00 20.00    -0.338 N 
ENDROOT
BRANCH   5   6
HETATM    6  C8  UNL     1     -34.389  14.879  -5.602  1.00 20.00     0.047 C 
HETATM    7  C6  UNL     1     -33.400  14.416  -4.503  1.00 20.00     0.043 C 
HETATM    8  C7  UNL     1     -34.204  13.912  -6.797  1.00 20.00     0.043 C 
BRANCH   6   9
HETATM    9  C5  UNL     1     -34.009  16.329  -5.901  1.00 20.00    -0.007 C 
HETATM   10  C4  UNL     1     -33.962  16.930  -7.096  1.00 20.00     0.009 C 
ENDBRANCH   6   9
ENDBRANCH   5   6
TORSDOF 2
ENDMDL
MODEL 9
REMARK VINA RESULT:      -3.5     10.894     11.960
REMARK  2 active torsions:
REMARK  status: ('A' for Active; 'I' for Inactive)
REMARK    1  A    between atoms: C5_5  and  C8_8 
REMARK    2  A    between atoms: C8_8  and  N10_10 
ROOT
HETATM    1  C1  UNL     1     -32.835  15.205  -5.159  1.00 20.00     0.135 A 
HETATM    2  C2  UNL     1     -33.489  16.349  -4.768  1.00 20.00     0.112 A 
HETATM    3  C3  UNL     1     -34.495  14.545  -4.002  1.00 20.00     0.210 A 
HETATM    4  N9  UNL     1     -33.466  14.084  -4.680  1.00 20.00    -0.255 NA
HETATM    5  N10 UNL     1     -34.550  15.910  -4.029  1.00 20.00    -0.338 N 
ENDROOT
BRANCH   5   6
HETATM    6  C8  UNL     1     -35.582  16.764  -3.370  1.00 20.00     0.047 C 
HETATM    7  C6  UNL     1     -35.503  18.260  -3.765  1.00 20.00     0.043 C 
HETATM    8  C7  UNL     1     -36.978  16.264  -3.815  1.00 20.00     0.043 C 
BRANCH   6   9
HETATM    9  C5  UNL     1     -35.356  16.736  -1.858  1.00 20.00    -0.007 C 
HETATM   10  C4  UNL     1     -34.322  17.248  -1.178  1.00 20.00     0.009 C 
ENDBRANCH   6   9
ENDBRANCH   5   6
TORSDOF 2
ENDMDL
