MODEL 1
REMARK VINA RESULT:      -5.2      0.000      0.000
REMARK  1 active torsions:
REMARK  status: ('A' for Active; 'I' for Inactive)
REMARK    1  A    between atoms: C1_1  and  C2_2 
ROOT
HETATM    1  C2  UNL     1     -33.192   7.075   2.560  1.00 20.00     0.084 A 
HETATM    2  C3  UNL     1     -32.773   5.777   3.210  1.00 20.00     0.018 A 
HETATM    3  C4  UNL     1     -33.868   6.612   3.843  1.00 20.00     0.048 A 
HETATM    4  C6  UNL     1     -33.037   4.481   2.522  1.00 20.00     0.012 C 
HETATM    5  C7  UNL     1     -33.575   7.293   5.149  1.00 20.00     0.034 C 
HETATM    6 CL9  UNL     1     -35.560   6.086   3.685  1.00 20.00    -0.118 Cl
ENDROOT
BRANCH   1   7
HETATM    7  C1  UNL     1     -32.263   8.212   2.571  1.00 20.00     0.129 C 
HETATM    8  C5  UNL     1     -32.556   9.332   1.609  1.00 20.00     0.091 C 
HETATM    9  O8  UNL     1     -31.295   8.249   3.329  1.00 20.00    -0.298 OA
ENDBRANCH   1   7
TORSDOF 1
ENDMDL
MODEL 2
REMARK VINA RESULT:      -4.8      1.636      1.849
REMARK  1 active torsions:
REMARK  status: ('A' for Active; 'I' for Inactive)
REMARK    1  A    between atoms: C1_1  and  C2_2 
ROOT
HETATM    1  C2  UNL     1     -33.070   7.963   2.262  1.00 20.00     0.084 A 
HETATM    2  C3  UNL     1     -32.448   6.629   2.604  1.00 20.00     0.018 A 
HETATM    3  C4  UNL     1     -32.529   7.712   3.663  1.00 20.00     0.048 A 
HETATM    4  C6  UNL     1     -33.292   5.401   2.636  1.00 20.00     0.012 C 
HETATM    5  C7  UNL     1     -31.251   8.358   4.115  1.00 20.00     0.034 C 
HETATM    6 CL9  UNL     1     -33.746   7.572   4.954  1.00 20.00    -0.118 Cl
ENDROOT
BRANCH   1   7
HETATM    7  C1  UNL     1     -32.369   8.863   1.338  1.00 20.00     0.129 C 
HETATM    8  C5  UNL     1     -32.927  10.253   1.195  1.00 20.00     0.091 C 
HETATM    9  O8  UNL     1     -31.374   8.499   0.713  1.00 20.00    -0.298 OA
ENDBRANCH   1   7
TORSDOF 1
ENDMDL
MODEL 3
REMARK VINA RESULT:      -4.4      1.700      3.313
REMARK  1 active torsions:
REMARK  status: ('A' for Active; 'I' for Inactive)
REMARK    1  A    between atoms: C1_1  and  C2_2 
ROOT
HETATM    1  C2  UNL     1     -33.950   7.128   3.828  1.00 20.00     0.084 A 
HETATM    2  C3  UNL     1     -32.659   7.290   3.062  1.00 20.00     0.018 A 
HETATM    3  C4  UNL     1     -33.568   6.116   2.758  1.00 20.00     0.048 A 
HETATM    4  C6  UNL     1     -32.485   8.442   2.132  1.00 20.00     0.012 C 
HETATM    5  C7  UNL     1     -33.102   4.740   3.139  1.00 20.00     0.034 C 
HETATM    6 CL9  UNL     1     -34.551   6.143   1.275  1.00 20.00    -0.118 Cl
ENDROOT
BRANCH   1   7
HETATM    7  C1  UNL     1     -33.898   6.770   5.251  1.00 20.00     0.129 C 
HETATM    8  C5  UNL     1     -34.747   5.606   5.687  1.00 20.00     0.091 C 
HETATM    9  O8  UNL     1     -33.194   7.389   6.047  1.00 20.00    -0.298 OA
ENDBRANCH   1   7
TORSDOF 1
ENDMDL
MODEL 4
REMARK VINA RESULT:      -4.3     11.148     11.926
REMARK  1 active torsions:
REMARK  status: ('A' for Active; 'I' for Inactive)
REMARK    1  A    between atoms: C1_1  and  C2_2 
ROOT
HETATM    1  C2  UNL     1     -35.277  14.987  -5.388  1.00 20.00     0.084 A 
HETATM    2  C3  UNL     1     -35.314  15.223  -3.897  1.00 20.00     0.018 A 
HETATM    3  C4  UNL     1     -34.012  15.404  -4.651  1.00 20.00     0.048 A 
HETATM    4  C6  UNL     1     -36.095  16.365  -3.342  1.00 20.00     0.012 C 
HETATM    5  C7  UNL     1     -32.908  14.416  -4.409  1.00 20.00     0.034 C 
HETATM    6 CL9  UNL     1     -33.426  17.051  -4.983  1.00 20.00    -0.118 Cl
ENDROOT
BRANCH   1   7
HETATM    7  C1  UNL     1     -35.430  13.619  -5.900  1.00 20.00     0.129 C 
HETATM    8  C5  UNL     1     -34.960  13.368  -7.308  1.00 20.00     0.091 C 
HETATM    9  O8  UNL     1     -35.916  12.723  -5.212  1.00 20.00    -0.298 OA
ENDBRANCH   1   7
TORSDOF 1
ENDMDL
MODEL 5
REMARK VINA RESULT:      -4.3     11.039     11.965
REMARK  1 active torsions:
REMARK  status: ('A' for Active; 'I' for Inactive)
REMARK    1  A    between atoms: C1_1  and  C2_2 
ROOT
HETATM    1  C2  UNL     1     -34.999  15.540  -3.747  1.00 20.00     0.084 A 
HETATM    2  C3  UNL     1     -33.850  16.300  -3.129  1.00 20.00     0.018 A 
HETATM    3  C4  UNL     1     -34.458  16.789  -4.428  1.00 20.00     0.048 A 
HETATM    4  C6  UNL     1     -34.036  17.005  -1.829  1.00 20.00     0.012 C 
HETATM    5  C7  UNL     1     -33.637  16.682  -5.681  1.00 20.00     0.034 C 
HETATM    6 CL9  UNL     1     -35.525  18.213  -4.402  1.00 20.00    -0.118 Cl
ENDROOT
BRANCH   1   7
HETATM    7  C1  UNL     1     -34.753  14.209  -4.318  1.00 20.00     0.129 C 
HETATM    8  C5  UNL     1     -35.862  13.612  -5.142  1.00 20.00     0.091 C 
HETATM    9  O8  UNL     1     -33.693  13.614  -4.133  1.00 20.00    -0.298 OA
ENDBRANCH   1   7
TORSDOF 1
ENDMDL
MODEL 6
REMARK VINA RESULT:      -4.1     10.805     11.650
REMARK  1 active torsions:
REMARK  status: ('A' for Active; 'I' for Inactive)
REMARK    1  A    between atoms: C1_1  and  C2_2 
ROOT
HETATM    1  C2  UNL     1     -35.139  14.117  -4.467  1.00 20.00     0.084 A 
HETATM    2  C3  UNL     1     -33.806  14.662  -4.919  1.00 20.00     0.018 A 
HETATM    3  C4  UNL     1     -34.835  15.601  -4.321  1.00 20.00     0.048 A 
HETATM    4  C6  UNL     1     -32.558  14.266  -4.206  1.00 20.00     0.012 C 
HETATM    5  C7  UNL     1     -35.488  16.607  -5.224  1.00 20.00     0.034 C 
HETATM    6 CL9  UNL     1     -34.607  16.188  -2.656  1.00 20.00    -0.118 Cl
ENDROOT
BRANCH   1   7
HETATM    7  C1  UNL     1     -36.098  13.644  -5.474  1.00 20.00     0.129 C 
HETATM    8  C5  UNL     1     -35.529  13.213  -6.799  1.00 20.00     0.091 C 
HETATM    9  O8  UNL     1     -37.306  13.600  -5.245  1.00 20.00    -0.298 OA
ENDBRANCH   1   7
TORSDOF 1
ENDMDL
MODEL 7
REMARK VINA RESULT:      -4.1     11.583     12.361
REMARK  1 active torsions:
REMARK  status: ('A' for Active; 'I' for Inactive)
REMARK    1  A    between atoms: C1_1  and  C2_2 
ROOT
HETATM    1  C2  UNL     1     -35.166  14.831  -5.365  1.00 20.00     0.084 A 
HETATM    2  C3  UNL     1     -33.734  14.382  -5.200  1.00 20.00     0.018 A 
HETATM    3  C4  UNL     1     -34.192  14.948  -6.529  1.00 20.00     0.048 A 
HETATM    4  C6  UNL     1     -32.824  15.117  -4.276  1.00 20.00     0.012 C 
HETATM    5  C7  UNL     1     -34.289  14.016  -7.702  1.00 20.00     0.034 C 
HETATM    6 CL9  UNL     1     -33.711  16.602  -6.978  1.00 20.00    -0.118 Cl
ENDROOT
BRANCH   1   7
HETATM    7  C1  UNL     1     -36.235  13.824  -5.380  1.00 20.00     0.129 C 
HETATM    8  C5  UNL     1     -37.631  14.325  -5.638  1.00 20.00     0.091 C 
HETATM    9  O8  UNL     1     -36.001  12.632  -5.192  1.00 20.00    -0.298 OA
ENDBRANCH   1   7
TORSDOF 1
ENDMDL
MODEL 8
REMARK VINA RESULT:      -4.0      1.761      2.772
REMARK  1 active torsions:
REMARK  status: ('A' for Active; 'I' for Inactive)
REMARK    1  A    between atoms: C1_1  and  C2_2 
ROOT
HETATM    1  C2  UNL     1     -33.135   6.285   4.143  1.00 20.00     0.084 A 
HETATM    2  C3  UNL     1     -33.923   7.312   4.921  1.00 20.00     0.018 A 
HETATM    3  C4  UNL     1     -34.548   5.967   4.610  1.00 20.00     0.048 A 
HETATM    4  C6  UNL     1     -33.485   7.706   6.290  1.00 20.00     0.012 C 
HETATM    5  C7  UNL     1     -35.685   5.922   3.630  1.00 20.00     0.034 C 
HETATM    6 CL9  UNL     1     -34.685   4.755   5.907  1.00 20.00    -0.118 Cl
ENDROOT
BRANCH   1   7
HETATM    7  C1  UNL     1     -32.851   6.526   2.723  1.00 20.00     0.129 C 
HETATM    8  C5  UNL     1     -32.573   7.950   2.321  1.00 20.00     0.091 C 
HETATM    9  O8  UNL     1     -32.840   5.610   1.902  1.00 20.00    -0.298 OA
ENDBRANCH   1   7
TORSDOF 1
ENDMDL
MODEL 9
REMARK VINA RESULT:      -4.0     10.960     11.931
REMARK  1 active torsions:
REMARK  status: ('A' for Active; 'I' for Inactive)
REMARK    1  A    between atoms: C1_1  and  C2_2 
ROOT
HETATM    1  C2  UNL     1     -33.712  16.308  -3.085  1.00 20.00     0.084 A 
HETATM    2  C3  UNL     1     -34.849  15.498  -3.661  1.00 20.00     0.018 A 
HETATM    3  C4  UNL     1     -34.382  16.749  -4.378  1.00 20.00     0.048 A 
HETATM    4  C6  UNL     1     -34.595  14.124  -4.180  1.00 20.00     0.012 C 
HETATM    5  C7  UNL     1     -35.298  17.939  -4.397  1.00 20.00     0.034 C 
HETATM    6 CL9  UNL     1     -33.404  16.586  -5.856  1.00 20.00    -0.118 Cl
ENDROOT
BRANCH   1   7
HETATM    7  C1  UNL     1     -33.925  17.055  -1.838  1.00 20.00     0.129 C 
HETATM    8  C5  UNL     1     -32.863  18.050  -1.456  1.00 20.00     0.091 C 
HETATM    9  O8  UNL     1     -34.923  16.876  -1.141  1.00 20.00    -0.298 OA
ENDBRANCH   1   7
TORSDOF 1
ENDMDL
