MODEL 1
REMARK VINA RESULT:      -3.8      0.000      0.000
REMARK  2 active torsions:
REMARK  status: ('A' for Active; 'I' for Inactive)
REMARK    1  A    between atoms: C1_1  and  C5_5 
REMARK    2  A    between atoms: C5_5  and  O8_8 
ROOT
HETATM    1  C2  UNL     1     -32.454   7.791   2.309  1.00 20.00     0.007 C 
HETATM    2  C3  UNL     1     -33.840   7.970   2.951  1.00 20.00     0.047 C 
HETATM    3  C4  UNL     1     -32.483   6.322   2.761  1.00 20.00     0.047 C 
HETATM    4  C5  UNL     1     -33.553   6.712   3.828  1.00 20.00     0.136 C 
ENDROOT
BRANCH   4   5
HETATM    5  C1  UNL     1     -34.737   5.718   3.961  1.00 20.00     0.253 C 
HETATM    6  O7  UNL     1     -35.883   6.032   3.650  1.00 20.00    -0.276 OA
HETATM    7 CL9  UNL     1     -34.230   4.177   4.582  1.00 20.00    -0.041 Cl
ENDBRANCH   4   5
BRANCH   4   8
HETATM    8  O8  UNL     1     -33.014   7.006   5.140  1.00 20.00    -0.376 OA
HETATM    9  C6  UNL     1     -34.055   7.175   6.079  1.00 20.00     0.203 C 
ENDBRANCH   4   8
TORSDOF 2
ENDMDL
MODEL 2
REMARK VINA RESULT:      -3.8      1.792      2.289
REMARK  2 active torsions:
REMARK  status: ('A' for Active; 'I' for Inactive)
REMARK    1  A    between atoms: C1_1  and  C5_5 
REMARK    2  A    between atoms: C5_5  and  O8_8 
ROOT
HETATM    1  C2  UNL     1     -31.827   8.584   2.286  1.00 20.00     0.007 C 
HETATM    2  C3  UNL     1     -31.819   7.890   3.658  1.00 20.00     0.047 C 
HETATM    3  C4  UNL     1     -33.268   8.086   2.091  1.00 20.00     0.047 C 
HETATM    4  C5  UNL     1     -32.993   6.988   3.165  1.00 20.00     0.136 C 
ENDROOT
BRANCH   4   5
HETATM    5  C1  UNL     1     -34.136   6.775   4.192  1.00 20.00     0.253 C 
HETATM    6  O7  UNL     1     -35.232   6.334   3.856  1.00 20.00    -0.276 OA
HETATM    7 CL9  UNL     1     -33.663   7.227   5.801  1.00 20.00    -0.041 Cl
ENDBRANCH   4   5
BRANCH   4   8
HETATM    8  O8  UNL     1     -32.580   5.709   2.623  1.00 20.00    -0.376 OA
HETATM    9  C6  UNL     1     -33.326   4.659   3.202  1.00 20.00     0.203 C 
ENDBRANCH   4   8
TORSDOF 2
ENDMDL
MODEL 3
REMARK VINA RESULT:      -3.8     11.812     12.597
REMARK  2 active torsions:
REMARK  status: ('A' for Active; 'I' for Inactive)
REMARK    1  A    between atoms: C1_1  and  C5_5 
REMARK    2  A    between atoms: C5_5  and  O8_8 
ROOT
HETATM    1  C2  UNL     1     -33.630  15.673  -3.672  1.00 20.00     0.007 C 
HETATM    2  C3  UNL     1     -33.715  14.523  -4.688  1.00 20.00     0.047 C 
HETATM    3  C4  UNL     1     -35.167  15.694  -3.633  1.00 20.00     0.047 C 
HETATM    4  C5  UNL     1     -35.173  14.972  -5.017  1.00 20.00     0.136 C 
ENDROOT
BRANCH   4   5
HETATM    5  C1  UNL     1     -36.203  13.819  -5.149  1.00 20.00     0.253 C 
HETATM    6  O7  UNL     1     -35.853  12.644  -5.213  1.00 20.00    -0.276 OA
HETATM    7 CL9  UNL     1     -37.838  14.405  -5.190  1.00 20.00    -0.041 Cl
ENDBRANCH   4   5
BRANCH   4   8
HETATM    8  O8  UNL     1     -35.286  15.860  -6.156  1.00 20.00    -0.376 OA
HETATM    9  C6  UNL     1     -35.203  15.131  -7.363  1.00 20.00     0.203 C 
ENDBRANCH   4   8
TORSDOF 2
ENDMDL
MODEL 4
REMARK VINA RESULT:      -3.7     11.898     12.751
REMARK  2 active torsions:
REMARK  status: ('A' for Active; 'I' for Inactive)
REMARK    1  A    between atoms: C1_1  and  C5_5 
REMARK    2  A    between atoms: C5_5  and  O8_8 
ROOT
HETATM    1  C2  UNL     1     -33.699  15.865  -3.649  1.00 20.00     0.007 C 
HETATM    2  C3  UNL     1     -33.300  15.155  -4.952  1.00 20.00     0.047 C 
HETATM    3  C4  UNL     1     -35.084  15.209  -3.766  1.00 20.00     0.047 C 
HETATM    4  C5  UNL     1     -34.817  15.007  -5.290  1.00 20.00     0.136 C 
ENDROOT
BRANCH   4   5
HETATM    5  C1  UNL     1     -35.234  13.622  -5.850  1.00 20.00     0.253 C 
HETATM    6  O7  UNL     1     -35.909  12.836  -5.192  1.00 20.00    -0.276 OA
HETATM    7 CL9  UNL     1     -34.638  13.361  -7.461  1.00 20.00    -0.041 Cl
ENDBRANCH   4   5
BRANCH   4   8
HETATM    8  O8  UNL     1     -35.348  16.056  -6.137  1.00 20.00    -0.376 OA
HETATM    9  C6  UNL     1     -36.731  15.868  -6.351  1.00 20.00     0.203 C 
ENDBRANCH   4   8
TORSDOF 2
ENDMDL
MODEL 5
REMARK VINA RESULT:      -3.4     11.488     12.450
REMARK  2 active torsions:
REMARK  status: ('A' for Active; 'I' for Inactive)
REMARK    1  A    between atoms: C1_1  and  C5_5 
REMARK    2  A    between atoms: C5_5  and  O8_8 
ROOT
HETATM    1  C2  UNL     1     -34.584  17.106  -2.142  1.00 20.00     0.007 C 
HETATM    2  C3  UNL     1     -33.636  16.264  -3.012  1.00 20.00     0.047 C 
HETATM    3  C4  UNL     1     -35.755  16.274  -2.689  1.00 20.00     0.047 C 
HETATM    4  C5  UNL     1     -34.858  15.882  -3.905  1.00 20.00     0.136 C 
ENDROOT
BRANCH   4   5
HETATM    5  C1  UNL     1     -34.930  14.388  -4.317  1.00 20.00     0.253 C 
HETATM    6  O7  UNL     1     -33.997  13.616  -4.117  1.00 20.00    -0.276 OA
HETATM    7 CL9  UNL     1     -36.447  13.989  -5.065  1.00 20.00    -0.041 Cl
ENDBRANCH   4   5
BRANCH   4   8
HETATM    8  O8  UNL     1     -35.032  16.719  -5.074  1.00 20.00    -0.376 OA
HETATM    9  C6  UNL     1     -34.108  16.364  -6.082  1.00 20.00     0.203 C 
ENDBRANCH   4   8
TORSDOF 2
ENDMDL
MODEL 6
REMARK VINA RESULT:      -3.4     11.818     12.713
REMARK  2 active torsions:
REMARK  status: ('A' for Active; 'I' for Inactive)
REMARK    1  A    between atoms: C1_1  and  C5_5 
REMARK    2  A    between atoms: C5_5  and  O8_8 
ROOT
HETATM    1  C2  UNL     1     -33.251  15.107  -4.602  1.00 20.00     0.007 C 
HETATM    2  C3  UNL     1     -34.382  14.225  -4.048  1.00 20.00     0.047 C 
HETATM    3  C4  UNL     1     -34.186  15.506  -5.755  1.00 20.00     0.047 C 
HETATM    4  C5  UNL     1     -35.021  14.219  -5.472  1.00 20.00     0.136 C 
ENDROOT
BRANCH   4   5
HETATM    5  C1  UNL     1     -36.560  14.417  -5.504  1.00 20.00     0.253 C 
HETATM    6  O7  UNL     1     -37.326  13.613  -4.980  1.00 20.00    -0.276 OA
HETATM    7 CL9  UNL     1     -37.015  15.866  -6.347  1.00 20.00    -0.041 Cl
ENDBRANCH   4   5
BRANCH   4   8
HETATM    8  O8  UNL     1     -34.660  13.077  -6.287  1.00 20.00    -0.376 OA
HETATM    9  C6  UNL     1     -35.293  13.146  -7.548  1.00 20.00     0.203 C 
ENDBRANCH   4   8
TORSDOF 2
ENDMDL
MODEL 7
REMARK VINA RESULT:      -3.4      1.587      2.377
REMARK  2 active torsions:
REMARK  status: ('A' for Active; 'I' for Inactive)
REMARK    1  A    between atoms: C1_1  and  C5_5 
REMARK    2  A    between atoms: C5_5  and  O8_8 
ROOT
HETATM    1  C2  UNL     1     -34.040   5.439   2.093  1.00 20.00     0.007 C 
HETATM    2  C3  UNL     1     -34.979   6.218   3.028  1.00 20.00     0.047 C 
HETATM    3  C4  UNL     1     -32.973   5.483   3.199  1.00 20.00     0.047 C 
HETATM    4  C5  UNL     1     -33.725   6.700   3.823  1.00 20.00     0.136 C 
ENDROOT
BRANCH   4   5
HETATM    5  C1  UNL     1     -33.868   6.659   5.367  1.00 20.00     0.253 C 
HETATM    6  O7  UNL     1     -33.499   7.592   6.075  1.00 20.00    -0.276 OA
HETATM    7 CL9  UNL     1     -34.590   5.178   5.918  1.00 20.00    -0.041 Cl
ENDBRANCH   4   5
BRANCH   4   8
HETATM    8  O8  UNL     1     -33.217   7.993   3.414  1.00 20.00    -0.376 OA
HETATM    9  C6  UNL     1     -31.804   8.004   3.444  1.00 20.00     0.203 C 
ENDBRANCH   4   8
TORSDOF 2
ENDMDL
MODEL 8
REMARK VINA RESULT:      -3.4     11.867     12.890
REMARK  2 active torsions:
REMARK  status: ('A' for Active; 'I' for Inactive)
REMARK    1  A    between atoms: C1_1  and  C5_5 
REMARK    2  A    between atoms: C5_5  and  O8_8 
ROOT
HETATM    1  C2  UNL     1     -34.001  15.094  -7.918  1.00 20.00     0.007 C 
HETATM    2  C3  UNL     1     -34.247  13.962  -6.907  1.00 20.00     0.047 C 
HETATM    3  C4  UNL     1     -33.604  16.000  -6.741  1.00 20.00     0.047 C 
HETATM    4  C5  UNL     1     -34.389  15.043  -5.790  1.00 20.00     0.136 C 
ENDROOT
BRANCH   4   5
HETATM    5  C1  UNL     1     -33.669  14.711  -4.456  1.00 20.00     0.253 C 
HETATM    6  O7  UNL     1     -33.114  13.631  -4.273  1.00 20.00    -0.276 OA
HETATM    7 CL9  UNL     1     -33.759  16.023  -3.320  1.00 20.00    -0.041 Cl
ENDBRANCH   4   5
BRANCH   4   8
HETATM    8  O8  UNL     1     -35.752  15.451  -5.520  1.00 20.00    -0.376 OA
HETATM    9  C6  UNL     1     -36.451  14.430  -4.839  1.00 20.00     0.203 C 
ENDBRANCH   4   8
TORSDOF 2
ENDMDL
MODEL 9
REMARK VINA RESULT:      -3.4     12.007     12.880
REMARK  2 active torsions:
REMARK  status: ('A' for Active; 'I' for Inactive)
REMARK    1  A    between atoms: C1_1  and  C5_5 
REMARK    2  A    between atoms: C5_5  and  O8_8 
ROOT
HETATM    1  C2  UNL     1     -34.416  15.399  -7.870  1.00 20.00     0.007 C 
HETATM    2  C3  UNL     1     -35.863  15.479  -7.357  1.00 20.00     0.047 C 
HETATM    3  C4  UNL     1     -34.131  14.359  -6.774  1.00 20.00     0.047 C 
HETATM    4  C5  UNL     1     -35.372  14.898  -5.994  1.00 20.00     0.136 C 
ENDROOT
BRANCH   4   5
HETATM    5  C1  UNL     1     -36.283  13.804  -5.377  1.00 20.00     0.253 C 
HETATM    6  O7  UNL     1     -35.899  12.646  -5.239  1.00 20.00    -0.276 OA
HETATM    7 CL9  UNL     1     -37.844  14.426  -4.936  1.00 20.00    -0.041 Cl
ENDBRANCH   4   5
BRANCH   4   8
HETATM    8  O8  UNL     1     -35.063  15.898  -4.993  1.00 20.00    -0.376 OA
HETATM    9  C6  UNL     1     -34.637  15.284  -3.793  1.00 20.00     0.203 C 
ENDBRANCH   4   8
TORSDOF 2
ENDMDL
