MODEL 1
REMARK VINA RESULT:      -4.9      0.000      0.000
REMARK  1 active torsions:
REMARK  status: ('A' for Active; 'I' for Inactive)
REMARK    1  A    between atoms: C1_1  and  C8_8 
ROOT
HETATM    1  C2  UNL     1     -33.652  17.047  -3.953  1.00 20.00     0.005 C 
HETATM    2  C3  UNL     1     -34.466  16.088  -3.072  1.00 20.00     0.006 C 
HETATM    3  C4  UNL     1     -33.019  14.802  -4.422  1.00 20.00     0.010 C 
HETATM    4  C5  UNL     1     -34.403  15.878  -6.044  1.00 20.00     0.023 C 
HETATM    5  C6  UNL     1     -33.198  16.149  -5.118  1.00 20.00    -0.013 C 
HETATM    6  C7  UNL     1     -34.459  14.784  -3.889  1.00 20.00     0.003 C 
HETATM    7  C8  UNL     1     -35.287  14.930  -5.198  1.00 20.00     0.036 C 
HETATM    8  C9  UNL     1     -36.706  15.466  -5.010  1.00 20.00     0.025 C 
ENDROOT
BRANCH   7   9
HETATM    9  C1  UNL     1     -35.407  13.571  -5.845  1.00 20.00     0.227 C 
HETATM   10  O10 UNL     1     -35.941  12.627  -5.271  1.00 20.00    -0.279 OA
HETATM   11 CL11 UNL     1     -34.711  13.542  -7.437  1.00 20.00    -0.043 Cl
ENDBRANCH   7   9
TORSDOF 1
ENDMDL
MODEL 2
REMARK VINA RESULT:      -4.4      1.508      2.085
REMARK  1 active torsions:
REMARK  status: ('A' for Active; 'I' for Inactive)
REMARK    1  A    between atoms: C1_1  and  C8_8 
ROOT
HETATM    1  C2  UNL     1     -33.418  17.000  -4.438  1.00 20.00     0.005 C 
HETATM    2  C3  UNL     1     -34.716  17.353  -5.180  1.00 20.00     0.006 C 
HETATM    3  C4  UNL     1     -35.259  15.929  -3.377  1.00 20.00     0.010 C 
HETATM    4  C5  UNL     1     -33.846  14.541  -4.711  1.00 20.00     0.023 C 
HETATM    5  C6  UNL     1     -33.784  15.702  -3.696  1.00 20.00    -0.013 C 
HETATM    6  C7  UNL     1     -35.634  16.163  -4.848  1.00 20.00     0.003 C 
HETATM    7  C8  UNL     1     -35.129  14.853  -5.518  1.00 20.00     0.036 C 
HETATM    8  C9  UNL     1     -34.865  14.954  -7.020  1.00 20.00     0.025 C 
ENDROOT
BRANCH   7   9
HETATM    9  C1  UNL     1     -36.173  13.780  -5.322  1.00 20.00     0.227 C 
HETATM   10  O10 UNL     1     -35.868  12.600  -5.179  1.00 20.00    -0.279 OA
HETATM   11 CL11 UNL     1     -37.785  14.428  -5.330  1.00 20.00    -0.043 Cl
ENDBRANCH   7   9
TORSDOF 1
ENDMDL
MODEL 3
REMARK VINA RESULT:      -4.4      1.585      2.531
REMARK  1 active torsions:
REMARK  status: ('A' for Active; 'I' for Inactive)
REMARK    1  A    between atoms: C1_1  and  C8_8 
ROOT
HETATM    1  C2  UNL     1     -32.981  15.276  -4.894  1.00 20.00     0.005 C 
HETATM    2  C3  UNL     1     -33.522  15.736  -6.256  1.00 20.00     0.006 C 
HETATM    3  C4  UNL     1     -35.114  16.289  -4.604  1.00 20.00     0.010 C 
HETATM    4  C5  UNL     1     -35.041  13.906  -4.460  1.00 20.00     0.023 C 
HETATM    5  C6  UNL     1     -34.254  15.164  -4.035  1.00 20.00    -0.013 C 
HETATM    6  C7  UNL     1     -35.045  15.739  -6.036  1.00 20.00     0.003 C 
HETATM    7  C8  UNL     1     -35.594  14.295  -5.852  1.00 20.00     0.036 C 
HETATM    8  C9  UNL     1     -35.188  13.303  -6.941  1.00 20.00     0.025 C 
ENDROOT
BRANCH   7   9
HETATM    9  C1  UNL     1     -37.104  14.353  -5.843  1.00 20.00     0.227 C 
HETATM   10  O10 UNL     1     -37.769  13.742  -5.014  1.00 20.00    -0.279 OA
HETATM   11 CL11 UNL     1     -37.725  15.359  -7.116  1.00 20.00    -0.043 Cl
ENDBRANCH   7   9
TORSDOF 1
ENDMDL
MODEL 4
REMARK VINA RESULT:      -4.2      1.195      1.445
REMARK  1 active torsions:
REMARK  status: ('A' for Active; 'I' for Inactive)
REMARK    1  A    between atoms: C1_1  and  C8_8 
ROOT
HETATM    1  C2  UNL     1     -33.824  16.178  -3.305  1.00 20.00     0.005 C 
HETATM    2  C3  UNL     1     -35.347  16.010  -3.408  1.00 20.00     0.006 C 
HETATM    3  C4  UNL     1     -34.331  14.020  -4.168  1.00 20.00     0.010 C 
HETATM    4  C5  UNL     1     -33.528  15.631  -5.737  1.00 20.00     0.023 C 
HETATM    5  C6  UNL     1     -33.291  15.129  -4.297  1.00 20.00    -0.013 C 
HETATM    6  C7  UNL     1     -35.501  14.953  -4.516  1.00 20.00     0.003 C 
HETATM    7  C8  UNL     1     -35.062  15.514  -5.899  1.00 20.00     0.036 C 
HETATM    8  C9  UNL     1     -35.712  16.839  -6.296  1.00 20.00     0.025 C 
ENDROOT
BRANCH   7   9
HETATM    9  C1  UNL     1     -35.425  14.505  -6.963  1.00 20.00     0.227 C 
HETATM   10  O10 UNL     1     -36.573  14.091  -7.096  1.00 20.00    -0.279 OA
HETATM   11 CL11 UNL     1     -34.050  14.041  -7.918  1.00 20.00    -0.043 Cl
ENDBRANCH   7   9
TORSDOF 1
ENDMDL
MODEL 5
REMARK VINA RESULT:      -4.2      1.696      2.085
REMARK  1 active torsions:
REMARK  status: ('A' for Active; 'I' for Inactive)
REMARK    1  A    between atoms: C1_1  and  C8_8 
ROOT
HETATM    1  C2  UNL     1     -33.108  15.464  -5.213  1.00 20.00     0.005 C 
HETATM    2  C3  UNL     1     -33.738  14.479  -4.217  1.00 20.00     0.006 C 
HETATM    3  C4  UNL     1     -34.511  13.938  -6.380  1.00 20.00     0.010 C 
HETATM    4  C5  UNL     1     -35.366  16.146  -6.074  1.00 20.00     0.023 C 
HETATM    5  C6  UNL     1     -34.062  15.396  -6.419  1.00 20.00    -0.013 C 
HETATM    6  C7  UNL     1     -35.026  14.041  -4.937  1.00 20.00     0.003 C 
HETATM    7  C8  UNL     1     -36.043  15.213  -5.043  1.00 20.00     0.036 C 
HETATM    8  C9  UNL     1     -36.353  15.923  -3.726  1.00 20.00     0.025 C 
ENDROOT
BRANCH   7   9
HETATM    9  C1  UNL     1     -37.349  14.668  -5.572  1.00 20.00     0.227 C 
HETATM   10  O10 UNL     1     -38.006  13.844  -4.945  1.00 20.00    -0.279 OA
HETATM   11 CL11 UNL     1     -37.760  15.346  -7.118  1.00 20.00    -0.043 Cl
ENDBRANCH   7   9
TORSDOF 1
ENDMDL
MODEL 6
REMARK VINA RESULT:      -4.2      2.195      3.710
REMARK  1 active torsions:
REMARK  status: ('A' for Active; 'I' for Inactive)
REMARK    1  A    between atoms: C1_1  and  C8_8 
ROOT
HETATM    1  C2  UNL     1     -36.597  14.516  -7.576  1.00 20.00     0.005 C 
HETATM    2  C3  UNL     1     -35.279  13.751  -7.769  1.00 20.00     0.006 C 
HETATM    3  C4  UNL     1     -36.064  13.330  -5.583  1.00 20.00     0.010 C 
HETATM    4  C5  UNL     1     -35.699  15.690  -5.546  1.00 20.00     0.023 C 
HETATM    5  C6  UNL     1     -36.708  14.634  -6.045  1.00 20.00    -0.013 C 
HETATM    6  C7  UNL     1     -34.752  13.609  -6.330  1.00 20.00     0.003 C 
HETATM    7  C8  UNL     1     -34.334  14.987  -5.741  1.00 20.00     0.036 C 
HETATM    8  C9  UNL     1     -33.376  15.800  -6.611  1.00 20.00     0.025 C 
ENDROOT
BRANCH   7   9
HETATM    9  C1  UNL     1     -33.644  14.754  -4.418  1.00 20.00     0.227 C 
HETATM   10  O10 UNL     1     -32.845  13.837  -4.259  1.00 20.00    -0.279 OA
HETATM   11 CL11 UNL     1     -34.125  15.915  -3.218  1.00 20.00    -0.043 Cl
ENDBRANCH   7   9
TORSDOF 1
ENDMDL
MODEL 7
REMARK VINA RESULT:      -4.1      2.993      3.898
REMARK  1 active torsions:
REMARK  status: ('A' for Active; 'I' for Inactive)
REMARK    1  A    between atoms: C1_1  and  C8_8 
ROOT
HETATM    1  C2  UNL     1     -34.831  14.070  -5.760  1.00 20.00     0.005 C 
HETATM    2  C3  UNL     1     -34.023  15.174  -6.458  1.00 20.00     0.006 C 
HETATM    3  C4  UNL     1     -33.015  14.726  -4.371  1.00 20.00     0.010 C 
HETATM    4  C5  UNL     1     -35.178  15.509  -3.732  1.00 20.00     0.023 C 
HETATM    5  C6  UNL     1     -34.463  14.254  -4.277  1.00 20.00    -0.013 C 
HETATM    6  C7  UNL     1     -33.366  15.914  -5.279  1.00 20.00     0.003 C 
HETATM    7  C8  UNL     1     -34.424  16.669  -4.423  1.00 20.00     0.036 C 
HETATM    8  C9  UNL     1     -35.358  17.587  -5.210  1.00 20.00     0.025 C 
ENDROOT
BRANCH   7   9
HETATM    9  C1  UNL     1     -33.701  17.529  -3.415  1.00 20.00     0.227 C 
HETATM   10  O10 UNL     1     -33.036  18.503  -3.755  1.00 20.00    -0.279 OA
HETATM   11 CL11 UNL     1     -33.935  16.966  -1.788  1.00 20.00    -0.043 Cl
ENDBRANCH   7   9
TORSDOF 1
ENDMDL
MODEL 8
REMARK VINA RESULT:      -4.1      0.972      2.258
REMARK  1 active torsions:
REMARK  status: ('A' for Active; 'I' for Inactive)
REMARK    1  A    between atoms: C1_1  and  C8_8 
ROOT
HETATM    1  C2  UNL     1     -34.642  17.619  -4.237  1.00 20.00     0.005 C 
HETATM    2  C3  UNL     1     -33.678  17.147  -5.336  1.00 20.00     0.006 C 
HETATM    3  C4  UNL     1     -35.870  16.535  -5.962  1.00 20.00     0.010 C 
HETATM    4  C5  UNL     1     -35.556  15.299  -3.943  1.00 20.00     0.023 C 
HETATM    5  C6  UNL     1     -35.875  16.722  -4.447  1.00 20.00    -0.013 C 
HETATM    6  C7  UNL     1     -34.441  15.974  -5.978  1.00 20.00     0.003 C 
HETATM    7  C8  UNL     1     -34.558  14.770  -5.000  1.00 20.00     0.036 C 
HETATM    8  C9  UNL     1     -33.239  14.308  -4.380  1.00 20.00     0.025 C 
ENDROOT
BRANCH   7   9
HETATM    9  C1  UNL     1     -35.131  13.593  -5.753  1.00 20.00     0.227 C 
HETATM   10  O10 UNL     1     -35.934  12.824  -5.235  1.00 20.00    -0.279 OA
HETATM   11 CL11 UNL     1     -34.517  13.495  -7.376  1.00 20.00    -0.043 Cl
ENDBRANCH   7   9
TORSDOF 1
ENDMDL
MODEL 9
REMARK VINA RESULT:      -4.1      1.677      2.400
REMARK  1 active torsions:
REMARK  status: ('A' for Active; 'I' for Inactive)
REMARK    1  A    between atoms: C1_1  and  C8_8 
ROOT
HETATM    1  C2  UNL     1     -33.808  18.186  -3.188  1.00 20.00     0.005 C 
HETATM    2  C3  UNL     1     -35.197  18.215  -3.845  1.00 20.00     0.006 C 
HETATM    3  C4  UNL     1     -35.155  16.446  -2.283  1.00 20.00     0.010 C 
HETATM    4  C5  UNL     1     -33.472  15.785  -3.843  1.00 20.00     0.023 C 
HETATM    5  C6  UNL     1     -33.706  16.744  -2.657  1.00 20.00    -0.013 C 
HETATM    6  C7  UNL     1     -35.678  16.762  -3.692  1.00 20.00     0.003 C 
HETATM    7  C8  UNL     1     -34.838  15.791  -4.571  1.00 20.00     0.036 C 
HETATM    8  C9  UNL     1     -34.716  16.189  -6.041  1.00 20.00     0.025 C 
ENDROOT
BRANCH   7   9
HETATM    9  C1  UNL     1     -35.484  14.427  -4.532  1.00 20.00     0.227 C 
HETATM   10  O10 UNL     1     -34.831  13.408  -4.330  1.00 20.00    -0.279 OA
HETATM   11 CL11 UNL     1     -37.199  14.509  -4.802  1.00 20.00    -0.043 Cl
ENDBRANCH   7   9
TORSDOF 1
ENDMDL
