MODEL 1
REMARK VINA RESULT:      -5.5      0.000      0.000
REMARK  2 active torsions:
REMARK  status: ('A' for Active; 'I' for Inactive)
REMARK    1  A    between atoms: C5_5  and  O10_10 
REMARK    2  A    between atoms: C9_9  and  O10_10 
ROOT
HETATM    1  C1  UNL     1     -34.666   5.412   5.813  1.00 20.00     0.012 C 
HETATM    2  C2  UNL     1     -34.479   5.683   4.659  1.00 20.00    -0.110 C 
HETATM    3  C3  UNL     1     -33.085   5.385   2.569  1.00 20.00     0.053 A 
HETATM    4  C4  UNL     1     -34.258   6.006   3.281  1.00 20.00     0.095 A 
HETATM    5  C5  UNL     1     -33.059   6.845   2.917  1.00 20.00     0.139 A 
ENDROOT
BRANCH   5   6
HETATM    6  O10 UNL     1     -33.235   7.744   1.832  1.00 20.00    -0.375 OA
BRANCH   6   7
HETATM    7  C9  UNL     1     -32.215   8.743   1.817  1.00 20.00     0.050 C 
HETATM    8  C6  UNL     1     -32.879  10.114   1.701  1.00 20.00     0.045 C 
HETATM    9  C7  UNL     1     -31.441   8.630   3.129  1.00 20.00     0.045 C 
HETATM   10  C8  UNL     1     -31.295   8.481   0.627  1.00 20.00     0.045 C 
ENDBRANCH   6   7
ENDBRANCH   5   6
TORSDOF 2
ENDMDL
MODEL 2
REMARK VINA RESULT:      -5.5      0.022      1.380
REMARK  2 active torsions:
REMARK  status: ('A' for Active; 'I' for Inactive)
REMARK    1  A    between atoms: C5_5  and  O10_10 
REMARK    2  A    between atoms: C9_9  and  O10_10 
ROOT
HETATM    1  C1  UNL     1     -34.665   5.401   5.805  1.00 20.00     0.012 C 
HETATM    2  C2  UNL     1     -34.481   5.673   4.651  1.00 20.00    -0.110 C 
HETATM    3  C3  UNL     1     -33.096   5.370   2.556  1.00 20.00     0.053 A 
HETATM    4  C4  UNL     1     -34.262   5.998   3.273  1.00 20.00     0.095 A 
HETATM    5  C5  UNL     1     -33.058   6.829   2.907  1.00 20.00     0.139 A 
ENDROOT
BRANCH   5   6
HETATM    6  O10 UNL     1     -33.230   7.732   1.826  1.00 20.00    -0.375 OA
BRANCH   6   7
HETATM    7  C9  UNL     1     -32.208   8.729   1.815  1.00 20.00     0.050 C 
HETATM    8  C6  UNL     1     -31.408   8.619   3.112  1.00 20.00     0.045 C 
HETATM    9  C7  UNL     1     -31.315   8.458   0.607  1.00 20.00     0.045 C 
HETATM   10  C8  UNL     1     -32.868  10.101   1.698  1.00 20.00     0.045 C 
ENDBRANCH   6   7
ENDBRANCH   5   6
TORSDOF 2
ENDMDL
MODEL 3
REMARK VINA RESULT:      -5.5      1.195      4.619
REMARK  2 active torsions:
REMARK  status: ('A' for Active; 'I' for Inactive)
REMARK    1  A    between atoms: C5_5  and  O10_10 
REMARK    2  A    between atoms: C9_9  and  O10_10 
ROOT
HETATM    1  C1  UNL     1     -32.587   9.359   0.048  1.00 20.00     0.012 C 
HETATM    2  C2  UNL     1     -32.619   9.092   1.217  1.00 20.00    -0.110 C 
HETATM    3  C3  UNL     1     -31.479   8.063   3.228  1.00 20.00     0.053 A 
HETATM    4  C4  UNL     1     -32.656   8.775   2.614  1.00 20.00     0.095 A 
HETATM    5  C5  UNL     1     -32.773   7.329   3.025  1.00 20.00     0.139 A 
ENDROOT
BRANCH   5   6
HETATM    6  O10 UNL     1     -33.532   7.074   4.197  1.00 20.00    -0.375 OA
BRANCH   6   7
HETATM    7  C9  UNL     1     -34.233   5.834   4.101  1.00 20.00     0.050 C 
HETATM    8  C6  UNL     1     -34.372   5.244   5.504  1.00 20.00     0.045 C 
HETATM    9  C7  UNL     1     -35.607   6.127   3.503  1.00 20.00     0.045 C 
HETATM   10  C8  UNL     1     -33.441   4.896   3.192  1.00 20.00     0.045 C 
ENDBRANCH   6   7
ENDBRANCH   5   6
TORSDOF 2
ENDMDL
MODEL 4
REMARK VINA RESULT:      -5.3      1.349      2.082
REMARK  2 active torsions:
REMARK  status: ('A' for Active; 'I' for Inactive)
REMARK    1  A    between atoms: C5_5  and  O10_10 
REMARK    2  A    between atoms: C9_9  and  O10_10 
ROOT
HETATM    1  C1  UNL     1     -33.629   7.362   6.092  1.00 20.00     0.012 C 
HETATM    2  C2  UNL     1     -33.731   7.204   4.907  1.00 20.00    -0.110 C 
HETATM    3  C3  UNL     1     -32.788   6.235   2.768  1.00 20.00     0.053 A 
HETATM    4  C4  UNL     1     -33.855   7.014   3.492  1.00 20.00     0.095 A 
HETATM    5  C5  UNL     1     -32.885   7.721   2.579  1.00 20.00     0.139 A 
ENDROOT
BRANCH   5   6
HETATM    6  O10 UNL     1     -33.407   8.155   1.332  1.00 20.00    -0.375 OA
BRANCH   6   7
HETATM    7  C9  UNL     1     -32.609   9.196   0.770  1.00 20.00     0.050 C 
HETATM    8  C6  UNL     1     -31.148   8.749   0.782  1.00 20.00     0.045 C 
HETATM    9  C7  UNL     1     -33.090   9.422  -0.661  1.00 20.00     0.045 C 
HETATM   10  C8  UNL     1     -32.797  10.460   1.606  1.00 20.00     0.045 C 
ENDBRANCH   6   7
ENDBRANCH   5   6
TORSDOF 2
ENDMDL
MODEL 5
REMARK VINA RESULT:      -5.2      1.332      1.612
REMARK  2 active torsions:
REMARK  status: ('A' for Active; 'I' for Inactive)
REMARK    1  A    between atoms: C5_5  and  O10_10 
REMARK    2  A    between atoms: C9_9  and  O10_10 
ROOT
HETATM    1  C1  UNL     1     -33.617   7.308   6.129  1.00 20.00     0.012 C 
HETATM    2  C2  UNL     1     -33.734   7.169   4.943  1.00 20.00    -0.110 C 
HETATM    3  C3  UNL     1     -32.822   6.228   2.779  1.00 20.00     0.053 A 
HETATM    4  C4  UNL     1     -33.875   7.002   3.527  1.00 20.00     0.095 A 
HETATM    5  C5  UNL     1     -32.912   7.717   2.614  1.00 20.00     0.139 A 
ENDROOT
BRANCH   5   6
HETATM    6  O10 UNL     1     -33.446   8.174   1.381  1.00 20.00    -0.375 OA
BRANCH   6   7
HETATM    7  C9  UNL     1     -32.623   9.189   0.804  1.00 20.00     0.050 C 
HETATM    8  C6  UNL     1     -33.069   9.414  -0.640  1.00 20.00     0.045 C 
HETATM    9  C7  UNL     1     -32.815  10.459   1.629  1.00 20.00     0.045 C 
HETATM   10  C8  UNL     1     -31.169   8.726   0.859  1.00 20.00     0.045 C 
ENDBRANCH   6   7
ENDBRANCH   5   6
TORSDOF 2
ENDMDL
MODEL 6
REMARK VINA RESULT:      -4.0     10.508     11.435
REMARK  2 active torsions:
REMARK  status: ('A' for Active; 'I' for Inactive)
REMARK    1  A    between atoms: C5_5  and  O10_10 
REMARK    2  A    between atoms: C9_9  and  O10_10 
ROOT
HETATM    1  C1  UNL     1     -32.182  18.209  -0.764  1.00 20.00     0.012 C 
HETATM    2  C2  UNL     1     -33.080  17.937  -1.511  1.00 20.00    -0.110 C 
HETATM    3  C3  UNL     1     -35.194  16.620  -1.958  1.00 20.00     0.053 A 
HETATM    4  C4  UNL     1     -34.152  17.613  -2.405  1.00 20.00     0.095 A 
HETATM    5  C5  UNL     1     -34.198  16.234  -3.013  1.00 20.00     0.139 A 
ENDROOT
BRANCH   5   6
HETATM    6  O10 UNL     1     -34.697  16.155  -4.339  1.00 20.00    -0.375 OA
BRANCH   6   7
HETATM    7  C9  UNL     1     -34.291  14.942  -4.974  1.00 20.00     0.050 C 
HETATM    8  C6  UNL     1     -34.064  15.222  -6.458  1.00 20.00     0.045 C 
HETATM    9  C7  UNL     1     -32.995  14.486  -4.308  1.00 20.00     0.045 C 
HETATM   10  C8  UNL     1     -35.391  13.899  -4.779  1.00 20.00     0.045 C 
ENDBRANCH   6   7
ENDBRANCH   5   6
TORSDOF 2
ENDMDL
MODEL 7
REMARK VINA RESULT:      -4.0     10.764     11.688
REMARK  2 active torsions:
REMARK  status: ('A' for Active; 'I' for Inactive)
REMARK    1  A    between atoms: C5_5  and  O10_10 
REMARK    2  A    between atoms: C9_9  and  O10_10 
ROOT
HETATM    1  C1  UNL     1     -35.233  17.012  -1.223  1.00 20.00     0.012 C 
HETATM    2  C2  UNL     1     -34.597  16.625  -2.164  1.00 20.00    -0.110 C 
HETATM    3  C3  UNL     1     -33.572  17.111  -4.426  1.00 20.00     0.053 A 
HETATM    4  C4  UNL     1     -33.837  16.161  -3.287  1.00 20.00     0.095 A 
HETATM    5  C5  UNL     1     -34.537  15.976  -4.609  1.00 20.00     0.139 A 
ENDROOT
BRANCH   5   6
HETATM    6  O10 UNL     1     -34.081  14.897  -5.410  1.00 20.00    -0.375 OA
BRANCH   6   7
HETATM    7  C9  UNL     1     -35.149  14.325  -6.167  1.00 20.00     0.050 C 
HETATM    8  C6  UNL     1     -36.008  15.457  -6.727  1.00 20.00     0.045 C 
HETATM    9  C7  UNL     1     -34.525  13.513  -7.299  1.00 20.00     0.045 C 
HETATM   10  C8  UNL     1     -35.969  13.423  -5.247  1.00 20.00     0.045 C 
ENDBRANCH   6   7
ENDBRANCH   5   6
TORSDOF 2
ENDMDL
MODEL 8
REMARK VINA RESULT:      -3.7     10.539     11.657
REMARK  2 active torsions:
REMARK  status: ('A' for Active; 'I' for Inactive)
REMARK    1  A    between atoms: C5_5  and  O10_10 
REMARK    2  A    between atoms: C9_9  and  O10_10 
ROOT
HETATM    1  C1  UNL     1     -35.600  17.435  -0.114  1.00 20.00     0.012 C 
HETATM    2  C2  UNL     1     -34.726  17.300  -0.925  1.00 20.00    -0.110 C 
HETATM    3  C3  UNL     1     -33.196  18.349  -2.645  1.00 20.00     0.053 A 
HETATM    4  C4  UNL     1     -33.681  17.138  -1.892  1.00 20.00     0.095 A 
HETATM    5  C5  UNL     1     -34.013  17.307  -3.353  1.00 20.00     0.139 A 
ENDROOT
BRANCH   5   6
HETATM    6  O10 UNL     1     -33.305  16.469  -4.253  1.00 20.00    -0.375 OA
BRANCH   6   7
HETATM    7  C9  UNL     1     -34.199  15.670  -5.030  1.00 20.00     0.050 C 
HETATM    8  C6  UNL     1     -35.532  16.407  -5.148  1.00 20.00     0.045 C 
HETATM    9  C7  UNL     1     -33.566  15.479  -6.406  1.00 20.00     0.045 C 
HETATM   10  C8  UNL     1     -34.381  14.325  -4.331  1.00 20.00     0.045 C 
ENDBRANCH   6   7
ENDBRANCH   5   6
TORSDOF 2
ENDMDL
MODEL 9
REMARK VINA RESULT:      -3.7     10.586     11.685
REMARK  2 active torsions:
REMARK  status: ('A' for Active; 'I' for Inactive)
REMARK    1  A    between atoms: C5_5  and  O10_10 
REMARK    2  A    between atoms: C9_9  and  O10_10 
ROOT
HETATM    1  C1  UNL     1     -35.643  17.468  -0.132  1.00 20.00     0.012 C 
HETATM    2  C2  UNL     1     -34.752  17.327  -0.924  1.00 20.00    -0.110 C 
HETATM    3  C3  UNL     1     -33.188  18.362  -2.621  1.00 20.00     0.053 A 
HETATM    4  C4  UNL     1     -33.689  17.158  -1.869  1.00 20.00     0.095 A 
HETATM    5  C5  UNL     1     -33.991  17.317  -3.337  1.00 20.00     0.139 A 
ENDROOT
BRANCH   5   6
HETATM    6  O10 UNL     1     -33.266  16.471  -4.217  1.00 20.00    -0.375 OA
BRANCH   6   7
HETATM    7  C9  UNL     1     -34.145  15.716  -5.052  1.00 20.00     0.050 C 
HETATM    8  C6  UNL     1     -33.501  15.570  -6.430  1.00 20.00     0.045 C 
HETATM    9  C7  UNL     1     -34.335  14.348  -4.400  1.00 20.00     0.045 C 
HETATM   10  C8  UNL     1     -35.478  16.455  -5.149  1.00 20.00     0.045 C 
ENDBRANCH   6   7
ENDBRANCH   5   6
TORSDOF 2
ENDMDL
