MODEL 1
REMARK VINA RESULT:      -5.3      0.000      0.000
REMARK  2 active torsions:
REMARK  status: ('A' for Active; 'I' for Inactive)
REMARK    1  A    between atoms: C1_1  and  C5_5 
REMARK    2  A    between atoms: C5_5  and  C6_6 
ROOT
HETATM    1  C2  UNL     1     -35.043   4.533   4.613  1.00 20.00     0.003 C 
HETATM    2  C3  UNL     1     -33.565   4.771   4.259  1.00 20.00     0.029 C 
HETATM    3  C4  UNL     1     -35.372   5.871   3.929  1.00 20.00     0.029 C 
HETATM    4  C5  UNL     1     -33.881   6.294   4.119  1.00 20.00     0.149 C 
ENDROOT
BRANCH   4   5
HETATM    5  C1  UNL     1     -33.632   7.088   5.403  1.00 20.00     0.316 C 
HETATM    6  O7  UNL     1     -32.748   7.918   5.554  1.00 20.00    -0.259 OA
HETATM    7  F8  UNL     1     -34.469   6.888   6.431  1.00 20.00    -0.163 F 
ENDBRANCH   4   5
BRANCH   4   8
HETATM    8  C6  UNL     1     -33.229   6.996   2.895  1.00 20.00     0.404 C 
HETATM    9  F9  UNL     1     -33.570   8.292   2.878  1.00 20.00    -0.170 F 
HETATM   10  F10 UNL     1     -31.895   6.895   2.970  1.00 20.00    -0.170 F 
HETATM   11  F11 UNL     1     -33.650   6.418   1.762  1.00 20.00    -0.170 F 
ENDBRANCH   4   8
TORSDOF 2
ENDMDL
MODEL 2
REMARK VINA RESULT:      -5.1      2.166      3.044
REMARK  2 active torsions:
REMARK  status: ('A' for Active; 'I' for Inactive)
REMARK    1  A    between atoms: C1_1  and  C5_5 
REMARK    2  A    between atoms: C5_5  and  C6_6 
ROOT
HETATM    1  C2  UNL     1     -34.137   6.447   2.245  1.00 20.00     0.003 C 
HETATM    2  C3  UNL     1     -35.202   6.198   3.327  1.00 20.00     0.029 C 
HETATM    3  C4  UNL     1     -33.163   5.592   3.073  1.00 20.00     0.029 C 
HETATM    4  C5  UNL     1     -34.051   5.863   4.329  1.00 20.00     0.149 C 
ENDROOT
BRANCH   4   5
HETATM    5  C1  UNL     1     -33.591   7.068   5.153  1.00 20.00     0.316 C 
HETATM    6  O7  UNL     1     -32.669   7.811   4.853  1.00 20.00    -0.259 OA
HETATM    7  F8  UNL     1     -34.274   7.354   6.271  1.00 20.00    -0.163 F 
ENDBRANCH   4   5
BRANCH   4   8
HETATM    8  C6  UNL     1     -34.305   4.630   5.241  1.00 20.00     0.404 C 
HETATM    9  F9  UNL     1     -33.400   4.599   6.228  1.00 20.00    -0.170 F 
HETATM   10  F10 UNL     1     -35.533   4.702   5.773  1.00 20.00    -0.170 F 
HETATM   11  F11 UNL     1     -34.206   3.504   4.520  1.00 20.00    -0.170 F 
ENDBRANCH   4   8
TORSDOF 2
ENDMDL
MODEL 3
REMARK VINA RESULT:      -5.0      1.853      2.998
REMARK  2 active torsions:
REMARK  status: ('A' for Active; 'I' for Inactive)
REMARK    1  A    between atoms: C1_1  and  C5_5 
REMARK    2  A    between atoms: C5_5  and  C6_6 
ROOT
HETATM    1  C2  UNL     1     -32.125   8.348   2.679  1.00 20.00     0.003 C 
HETATM    2  C3  UNL     1     -33.659   8.258   2.754  1.00 20.00     0.029 C 
HETATM    3  C4  UNL     1     -32.069   6.843   2.992  1.00 20.00     0.029 C 
HETATM    4  C5  UNL     1     -33.504   6.952   3.598  1.00 20.00     0.149 C 
ENDROOT
BRANCH   4   5
HETATM    5  C1  UNL     1     -33.511   7.199   5.109  1.00 20.00     0.316 C 
HETATM    6  O7  UNL     1     -34.255   6.648   5.906  1.00 20.00    -0.259 OA
HETATM    7  F8  UNL     1     -32.607   8.057   5.603  1.00 20.00    -0.163 F 
ENDBRANCH   4   5
BRANCH   4   8
HETATM    8  C6  UNL     1     -34.474   5.799   3.218  1.00 20.00     0.404 C 
HETATM    9  F9  UNL     1     -34.055   4.652   3.767  1.00 20.00    -0.170 F 
HETATM   10  F10 UNL     1     -35.707   6.075   3.666  1.00 20.00    -0.170 F 
HETATM   11  F11 UNL     1     -34.514   5.659   1.886  1.00 20.00    -0.170 F 
ENDBRANCH   4   8
TORSDOF 2
ENDMDL
MODEL 4
REMARK VINA RESULT:      -4.9      1.535      2.846
REMARK  2 active torsions:
REMARK  status: ('A' for Active; 'I' for Inactive)
REMARK    1  A    between atoms: C1_1  and  C5_5 
REMARK    2  A    between atoms: C5_5  and  C6_6 
ROOT
HETATM    1  C2  UNL     1     -34.907   4.251   4.452  1.00 20.00     0.003 C 
HETATM    2  C3  UNL     1     -35.332   5.689   4.105  1.00 20.00     0.029 C 
HETATM    3  C4  UNL     1     -33.675   4.838   5.162  1.00 20.00     0.029 C 
HETATM    4  C5  UNL     1     -33.850   6.138   4.315  1.00 20.00     0.149 C 
ENDROOT
BRANCH   4   5
HETATM    5  C1  UNL     1     -33.027   6.141   3.025  1.00 20.00     0.316 C 
HETATM    6  O7  UNL     1     -32.713   7.140   2.395  1.00 20.00    -0.259 OA
HETATM    7  F8  UNL     1     -32.581   4.962   2.569  1.00 20.00    -0.163 F 
ENDBRANCH   4   5
BRANCH   4   8
HETATM    8  C6  UNL     1     -33.667   7.469   5.095  1.00 20.00     0.404 C 
HETATM    9  F9  UNL     1     -34.386   8.440   4.516  1.00 20.00    -0.170 F 
HETATM   10  F10 UNL     1     -34.077   7.315   6.362  1.00 20.00    -0.170 F 
HETATM   11  F11 UNL     1     -32.374   7.822   5.094  1.00 20.00    -0.170 F 
ENDBRANCH   4   8
TORSDOF 2
ENDMDL
MODEL 5
REMARK VINA RESULT:      -4.7      2.169      3.579
REMARK  2 active torsions:
REMARK  status: ('A' for Active; 'I' for Inactive)
REMARK    1  A    between atoms: C1_1  and  C5_5 
REMARK    2  A    between atoms: C5_5  and  C6_6 
ROOT
HETATM    1  C2  UNL     1     -33.117   7.529   2.371  1.00 20.00     0.003 C 
HETATM    2  C3  UNL     1     -32.437   7.091   3.680  1.00 20.00     0.029 C 
HETATM    3  C4  UNL     1     -34.469   7.161   3.005  1.00 20.00     0.029 C 
HETATM    4  C5  UNL     1     -33.706   6.241   4.011  1.00 20.00     0.149 C 
ENDROOT
BRANCH   4   5
HETATM    5  C1  UNL     1     -33.602   4.786   3.548  1.00 20.00     0.316 C 
HETATM    6  O7  UNL     1     -34.227   3.851   4.025  1.00 20.00    -0.259 OA
HETATM    7  F8  UNL     1     -32.792   4.519   2.513  1.00 20.00    -0.163 F 
ENDBRANCH   4   5
BRANCH   4   8
HETATM    8  C6  UNL     1     -34.192   6.322   5.485  1.00 20.00     0.404 C 
HETATM    9  F9  UNL     1     -33.421   5.549   6.262  1.00 20.00    -0.170 F 
HETATM   10  F10 UNL     1     -34.122   7.588   5.918  1.00 20.00    -0.170 F 
HETATM   11  F11 UNL     1     -35.461   5.900   5.569  1.00 20.00    -0.170 F 
ENDBRANCH   4   8
TORSDOF 2
ENDMDL
MODEL 6
REMARK VINA RESULT:      -4.7      2.112      2.735
REMARK  2 active torsions:
REMARK  status: ('A' for Active; 'I' for Inactive)
REMARK    1  A    between atoms: C1_1  and  C5_5 
REMARK    2  A    between atoms: C5_5  and  C6_6 
ROOT
HETATM    1  C2  UNL     1     -34.104   5.772   2.010  1.00 20.00     0.003 C 
HETATM    2  C3  UNL     1     -32.921   5.757   2.994  1.00 20.00     0.029 C 
HETATM    3  C4  UNL     1     -34.884   6.614   3.035  1.00 20.00     0.029 C 
HETATM    4  C5  UNL     1     -33.924   6.084   4.147  1.00 20.00     0.149 C 
ENDROOT
BRANCH   4   5
HETATM    5  C1  UNL     1     -34.452   4.840   4.866  1.00 20.00     0.316 C 
HETATM    6  O7  UNL     1     -34.236   3.688   4.523  1.00 20.00    -0.259 OA
HETATM    7  F8  UNL     1     -35.176   5.025   5.979  1.00 20.00    -0.163 F 
ENDBRANCH   4   5
BRANCH   4   8
HETATM    8  C6  UNL     1     -33.436   7.151   5.166  1.00 20.00     0.404 C 
HETATM    9  F9  UNL     1     -34.420   8.025   5.417  1.00 20.00    -0.170 F 
HETATM   10  F10 UNL     1     -33.076   6.555   6.311  1.00 20.00    -0.170 F 
HETATM   11  F11 UNL     1     -32.383   7.810   4.665  1.00 20.00    -0.170 F 
ENDBRANCH   4   8
TORSDOF 2
ENDMDL
MODEL 7
REMARK VINA RESULT:      -4.6     11.691     12.760
REMARK  2 active torsions:
REMARK  status: ('A' for Active; 'I' for Inactive)
REMARK    1  A    between atoms: C1_1  and  C5_5 
REMARK    2  A    between atoms: C5_5  and  C6_6 
ROOT
HETATM    1  C2  UNL     1     -35.042  15.012  -7.799  1.00 20.00     0.003 C 
HETATM    2  C3  UNL     1     -34.089  14.027  -7.100  1.00 20.00     0.029 C 
HETATM    3  C4  UNL     1     -35.002  15.878  -6.529  1.00 20.00     0.029 C 
HETATM    4  C5  UNL     1     -34.544  14.618  -5.727  1.00 20.00     0.149 C 
ENDROOT
BRANCH   4   5
HETATM    5  C1  UNL     1     -35.702  13.849  -5.087  1.00 20.00     0.316 C 
HETATM    6  O7  UNL     1     -35.886  12.645  -5.192  1.00 20.00    -0.259 OA
HETATM    7  F8  UNL     1     -36.559  14.538  -4.321  1.00 20.00    -0.163 F 
ENDBRANCH   4   5
BRANCH   4   8
HETATM    8  C6  UNL     1     -33.404  14.863  -4.701  1.00 20.00     0.404 C 
HETATM    9  F9  UNL     1     -33.872  15.559  -3.656  1.00 20.00    -0.170 F 
HETATM   10  F10 UNL     1     -32.922  13.691  -4.266  1.00 20.00    -0.170 F 
HETATM   11  F11 UNL     1     -32.413  15.556  -5.279  1.00 20.00    -0.170 F 
ENDBRANCH   4   8
TORSDOF 2
ENDMDL
MODEL 8
REMARK VINA RESULT:      -4.6      2.083      2.641
REMARK  2 active torsions:
REMARK  status: ('A' for Active; 'I' for Inactive)
REMARK    1  A    between atoms: C1_1  and  C5_5 
REMARK    2  A    between atoms: C5_5  and  C6_6 
ROOT
HETATM    1  C2  UNL     1     -34.017   7.463   5.786  1.00 20.00     0.003 C 
HETATM    2  C3  UNL     1     -33.095   6.304   5.369  1.00 20.00     0.029 C 
HETATM    3  C4  UNL     1     -34.696   7.355   4.410  1.00 20.00     0.029 C 
HETATM    4  C5  UNL     1     -33.418   6.633   3.876  1.00 20.00     0.149 C 
ENDROOT
BRANCH   4   5
HETATM    5  C1  UNL     1     -32.406   7.582   3.230  1.00 20.00     0.316 C 
HETATM    6  O7  UNL     1     -32.456   7.979   2.075  1.00 20.00    -0.259 OA
HETATM    7  F8  UNL     1     -31.410   8.045   3.997  1.00 20.00    -0.163 F 
ENDBRANCH   4   5
BRANCH   4   8
HETATM    8  C6  UNL     1     -33.683   5.400   2.969  1.00 20.00     0.404 C 
HETATM    9  F9  UNL     1     -34.444   5.757   1.925  1.00 20.00    -0.170 F 
HETATM   10  F10 UNL     1     -32.521   4.909   2.517  1.00 20.00    -0.170 F 
HETATM   11  F11 UNL     1     -34.318   4.449   3.668  1.00 20.00    -0.170 F 
ENDBRANCH   4   8
TORSDOF 2
ENDMDL
MODEL 9
REMARK VINA RESULT:      -4.5     11.531     13.092
REMARK  2 active torsions:
REMARK  status: ('A' for Active; 'I' for Inactive)
REMARK    1  A    between atoms: C1_1  and  C5_5 
REMARK    2  A    between atoms: C5_5  and  C6_6 
ROOT
HETATM    1  C2  UNL     1     -34.681  16.632  -6.895  1.00 20.00     0.003 C 
HETATM    2  C3  UNL     1     -33.386  15.967  -6.397  1.00 20.00     0.029 C 
HETATM    3  C4  UNL     1     -35.440  15.863  -5.800  1.00 20.00     0.029 C 
HETATM    4  C5  UNL     1     -34.256  14.846  -5.743  1.00 20.00     0.149 C 
ENDROOT
BRANCH   4   5
HETATM    5  C1  UNL     1     -34.456  13.627  -6.646  1.00 20.00     0.316 C 
HETATM    6  O7  UNL     1     -35.141  12.654  -6.369  1.00 20.00    -0.259 OA
HETATM    7  F8  UNL     1     -33.866  13.641  -7.850  1.00 20.00    -0.163 F 
ENDBRANCH   4   5
BRANCH   4   8
HETATM    8  C6  UNL     1     -33.818  14.416  -4.316  1.00 20.00     0.404 C 
HETATM    9  F9  UNL     1     -34.716  13.567  -3.800  1.00 20.00    -0.170 F 
HETATM   10  F10 UNL     1     -32.623  13.812  -4.369  1.00 20.00    -0.170 F 
HETATM   11  F11 UNL     1     -33.729  15.493  -3.524  1.00 20.00    -0.170 F 
ENDBRANCH   4   8
TORSDOF 2
ENDMDL
