MODEL 1
REMARK VINA RESULT:      -5.3      0.000      0.000
REMARK  0 active torsions:
REMARK  status: ('A' for Active; 'I' for Inactive)
ROOT
HETATM    1  C1  UNL     1     -34.273   5.878   5.362  1.00 20.00     0.057 C 
HETATM    2  C2  UNL     1     -32.491   8.620   3.642  1.00 20.00    -0.019 C 
HETATM    3  C3  UNL     1     -32.986   7.437   4.024  1.00 20.00    -0.051 C 
HETATM    4  C4  UNL     1     -33.627   7.054   5.262  1.00 20.00    -0.052 C 
HETATM    5  C5  UNL     1     -34.426   4.974   4.187  1.00 20.00     0.150 C 
HETATM    6  C6  UNL     1     -31.923   8.559   2.260  1.00 20.00     0.028 C 
HETATM    7  C7  UNL     1     -33.989   5.481   2.826  1.00 20.00     0.092 C 
HETATM    8  C8  UNL     1     -32.494   7.245   1.721  1.00 20.00     0.013 C 
HETATM    9  C9  UNL     1     -32.780   6.395   2.962  1.00 20.00     0.026 C 
HETATM   10  C10 UNL     1     -33.533   7.988   6.434  1.00 20.00     0.049 C 
HETATM   11  O11 UNL     1     -34.964   3.877   4.327  1.00 20.00    -0.293 OA
ENDROOT
TORSDOF 0
ENDMDL
MODEL 2
REMARK VINA RESULT:      -5.1     12.150     12.518
REMARK  0 active torsions:
REMARK  status: ('A' for Active; 'I' for Inactive)
ROOT
HETATM    1  C1  UNL     1     -32.598  18.963   1.992  1.00 20.00     0.057 C 
HETATM    2  C2  UNL     1     -35.111  17.526  -0.305  1.00 20.00    -0.019 C 
HETATM    3  C3  UNL     1     -34.049  18.138   0.234  1.00 20.00    -0.051 C 
HETATM    4  C4  UNL     1     -33.825  18.587   1.591  1.00 20.00    -0.052 C 
HETATM    5  C5  UNL     1     -31.417  18.849   1.089  1.00 20.00     0.150 C 
HETATM    6  C6  UNL     1     -34.900  17.236  -1.756  1.00 20.00     0.028 C 
HETATM    7  C7  UNL     1     -31.591  18.138  -0.239  1.00 20.00     0.092 C 
HETATM    8  C8  UNL     1     -33.391  17.430  -1.921  1.00 20.00     0.013 C 
HETATM    9  C9  UNL     1     -32.985  18.386  -0.797  1.00 20.00     0.026 C 
HETATM   10  C10 UNL     1     -34.997  18.644   2.528  1.00 20.00     0.049 C 
HETATM   11  O11 UNL     1     -30.320  19.263   1.462  1.00 20.00    -0.293 OA
ENDROOT
TORSDOF 0
ENDMDL
MODEL 3
REMARK VINA RESULT:      -5.0      1.975      3.488
REMARK  0 active torsions:
REMARK  status: ('A' for Active; 'I' for Inactive)
ROOT
HETATM    1  C1  UNL     1     -32.620   8.234   4.234  1.00 20.00     0.057 C 
HETATM    2  C2  UNL     1     -34.363   5.256   5.556  1.00 20.00    -0.019 C 
HETATM    3  C3  UNL     1     -33.841   6.211   4.777  1.00 20.00    -0.051 C 
HETATM    4  C4  UNL     1     -33.323   7.515   5.128  1.00 20.00    -0.052 C 
HETATM    5  C5  UNL     1     -32.277   7.683   2.892  1.00 20.00     0.150 C 
HETATM    6  C6  UNL     1     -34.764   4.056   4.759  1.00 20.00     0.028 C 
HETATM    7  C7  UNL     1     -32.586   6.225   2.611  1.00 20.00     0.092 C 
HETATM    8  C8  UNL     1     -34.053   4.287   3.423  1.00 20.00     0.013 C 
HETATM    9  C9  UNL     1     -33.858   5.802   3.332  1.00 20.00     0.026 C 
HETATM   10  C10 UNL     1     -33.609   8.053   6.500  1.00 20.00     0.049 C 
HETATM   11  O11 UNL     1     -31.691   8.389   2.074  1.00 20.00    -0.293 OA
ENDROOT
TORSDOF 0
ENDMDL
MODEL 4
REMARK VINA RESULT:      -5.0      1.304      3.201
REMARK  0 active torsions:
REMARK  status: ('A' for Active; 'I' for Inactive)
ROOT
HETATM    1  C1  UNL     1     -32.544   6.058   2.282  1.00 20.00     0.057 C 
HETATM    2  C2  UNL     1     -33.437   7.624   5.508  1.00 20.00    -0.019 C 
HETATM    3  C3  UNL     1     -33.399   6.877   4.397  1.00 20.00    -0.051 C 
HETATM    4  C4  UNL     1     -32.622   7.048   3.190  1.00 20.00    -0.052 C 
HETATM    5  C5  UNL     1     -33.176   4.730   2.526  1.00 20.00     0.150 C 
HETATM    6  C6  UNL     1     -34.387   7.061   6.516  1.00 20.00     0.028 C 
HETATM    7  C7  UNL     1     -33.766   4.452   3.894  1.00 20.00     0.092 C 
HETATM    8  C8  UNL     1     -34.635   5.645   5.989  1.00 20.00     0.013 C 
HETATM    9  C9  UNL     1     -34.357   5.724   4.486  1.00 20.00     0.026 C 
HETATM   10  C10 UNL     1     -31.929   8.361   2.965  1.00 20.00     0.049 C 
HETATM   11  O11 UNL     1     -33.143   3.868   1.649  1.00 20.00    -0.293 OA
ENDROOT
TORSDOF 0
ENDMDL
MODEL 5
REMARK VINA RESULT:      -4.9      2.070      4.310
REMARK  0 active torsions:
REMARK  status: ('A' for Active; 'I' for Inactive)
ROOT
HETATM    1  C1  UNL     1     -32.598   6.558   2.172  1.00 20.00     0.057 C 
HETATM    2  C2  UNL     1     -34.396   4.501   4.660  1.00 20.00    -0.019 C 
HETATM    3  C3  UNL     1     -33.669   5.435   4.034  1.00 20.00    -0.051 C 
HETATM    4  C4  UNL     1     -33.089   5.427   2.709  1.00 20.00    -0.052 C 
HETATM    5  C5  UNL     1     -32.710   7.866   2.878  1.00 20.00     0.150 C 
HETATM    6  C6  UNL     1     -34.797   4.945   6.030  1.00 20.00     0.028 C 
HETATM    7  C7  UNL     1     -33.545   7.933   4.142  1.00 20.00     0.092 C 
HETATM    8  C8  UNL     1     -34.518   6.449   5.991  1.00 20.00     0.013 C 
HETATM    9  C9  UNL     1     -33.441   6.628   4.918  1.00 20.00     0.026 C 
HETATM   10  C10 UNL     1     -33.028   4.126   1.963  1.00 20.00     0.049 C 
HETATM   11  O11 UNL     1     -32.193   8.870   2.391  1.00 20.00    -0.293 OA
ENDROOT
TORSDOF 0
ENDMDL
MODEL 6
REMARK VINA RESULT:      -4.9     11.664     12.320
REMARK  0 active torsions:
REMARK  status: ('A' for Active; 'I' for Inactive)
ROOT
HETATM    1  C1  UNL     1     -36.587  13.894  -5.787  1.00 20.00     0.057 C 
HETATM    2  C2  UNL     1     -36.020  16.376  -3.109  1.00 20.00    -0.019 C 
HETATM    3  C3  UNL     1     -35.923  15.358  -3.973  1.00 20.00    -0.051 C 
HETATM    4  C4  UNL     1     -36.934  14.749  -4.808  1.00 20.00    -0.052 C 
HETATM    5  C5  UNL     1     -35.157  13.613  -6.102  1.00 20.00     0.150 C 
HETATM    6  C6  UNL     1     -34.705  16.678  -2.465  1.00 20.00     0.028 C 
HETATM    7  C7  UNL     1     -34.091  14.441  -5.411  1.00 20.00     0.092 C 
HETATM    8  C8  UNL     1     -33.714  15.926  -3.358  1.00 20.00     0.013 C 
HETATM    9  C9  UNL     1     -34.528  14.800  -3.999  1.00 20.00     0.026 C 
HETATM   10  C10 UNL     1     -38.375  15.076  -4.540  1.00 20.00     0.049 C 
HETATM   11  O11 UNL     1     -34.874  12.777  -6.958  1.00 20.00    -0.293 OA
ENDROOT
TORSDOF 0
ENDMDL
MODEL 7
REMARK VINA RESULT:      -4.9      1.033      2.679
REMARK  0 active torsions:
REMARK  status: ('A' for Active; 'I' for Inactive)
ROOT
HETATM    1  C1  UNL     1     -34.249   4.652   4.228  1.00 20.00     0.057 C 
HETATM    2  C2  UNL     1     -32.019   7.060   2.530  1.00 20.00    -0.019 C 
HETATM    3  C3  UNL     1     -32.946   6.471   3.295  1.00 20.00    -0.051 C 
HETATM    4  C4  UNL     1     -33.503   5.139   3.220  1.00 20.00    -0.052 C 
HETATM    5  C5  UNL     1     -34.455   5.427   5.486  1.00 20.00     0.150 C 
HETATM    6  C6  UNL     1     -31.740   8.457   2.982  1.00 20.00     0.028 C 
HETATM    7  C7  UNL     1     -33.665   6.706   5.682  1.00 20.00     0.092 C 
HETATM    8  C8  UNL     1     -32.371   8.491   4.376  1.00 20.00     0.013 C 
HETATM    9  C9  UNL     1     -33.456   7.412   4.350  1.00 20.00     0.026 C 
HETATM   10  C10 UNL     1     -33.249   4.325   1.984  1.00 20.00     0.049 C 
HETATM   11  O11 UNL     1     -35.196   4.984   6.361  1.00 20.00    -0.293 OA
ENDROOT
TORSDOF 0
ENDMDL
MODEL 8
REMARK VINA RESULT:      -4.8     11.815     12.321
REMARK  0 active torsions:
REMARK  status: ('A' for Active; 'I' for Inactive)
ROOT
HETATM    1  C1  UNL     1     -34.218  18.820   1.325  1.00 20.00     0.057 C 
HETATM    2  C2  UNL     1     -33.306  17.432  -1.976  1.00 20.00    -0.019 C 
HETATM    3  C3  UNL     1     -33.884  17.700  -0.799  1.00 20.00    -0.051 C 
HETATM    4  C4  UNL     1     -33.391  18.462   0.326  1.00 20.00    -0.052 C 
HETATM    5  C5  UNL     1     -35.678  18.523   1.267  1.00 20.00     0.150 C 
HETATM    6  C6  UNL     1     -34.195  16.607  -2.850  1.00 20.00     0.028 C 
HETATM    7  C7  UNL     1     -36.249  17.961  -0.020  1.00 20.00     0.092 C 
HETATM    8  C8  UNL     1     -35.556  16.736  -2.162  1.00 20.00     0.013 C 
HETATM    9  C9  UNL     1     -35.235  17.051  -0.699  1.00 20.00     0.026 C 
HETATM   10  C10 UNL     1     -31.933  18.821   0.363  1.00 20.00     0.049 C 
HETATM   11  O11 UNL     1     -36.396  18.804   2.225  1.00 20.00    -0.293 OA
ENDROOT
TORSDOF 0
ENDMDL
MODEL 9
REMARK VINA RESULT:      -4.8     12.036     12.704
REMARK  0 active torsions:
REMARK  status: ('A' for Active; 'I' for Inactive)
ROOT
HETATM    1  C1  UNL     1     -33.143  17.547  -1.341  1.00 20.00     0.057 C 
HETATM    2  C2  UNL     1     -36.424  17.924   0.316  1.00 20.00    -0.019 C 
HETATM    3  C3  UNL     1     -35.119  17.812   0.037  1.00 20.00    -0.051 C 
HETATM    4  C4  UNL     1     -34.464  17.359  -1.170  1.00 20.00    -0.052 C 
HETATM    5  C5  UNL     1     -32.330  18.299  -0.343  1.00 20.00     0.150 C 
HETATM    6  C6  UNL     1     -36.646  18.449   1.698  1.00 20.00     0.028 C 
HETATM    7  C7  UNL     1     -33.050  19.002   0.791  1.00 20.00     0.092 C 
HETATM    8  C8  UNL     1     -35.267  18.995   2.076  1.00 20.00     0.013 C 
HETATM    9  C9  UNL     1     -34.276  18.207   1.216  1.00 20.00     0.026 C 
HETATM   10  C10 UNL     1     -35.287  16.656  -2.210  1.00 20.00     0.049 C 
HETATM   11  O11 UNL     1     -31.113  18.397  -0.496  1.00 20.00    -0.293 OA
ENDROOT
TORSDOF 0
ENDMDL
