MODEL 1
REMARK VINA RESULT:      -5.0      0.000      0.000
REMARK  1 active torsions:
REMARK  status: ('A' for Active; 'I' for Inactive)
REMARK    1  A    between atoms: C1_1  and  C3_3 
ROOT
HETATM    1  C2  UNL     1     -35.065   6.193   3.483  1.00 20.00     0.056 A 
HETATM    2  C3  UNL     1     -33.636   5.781   3.366  1.00 20.00     0.067 A 
HETATM    3  C4  UNL     1     -34.245   5.949   4.722  1.00 20.00     0.122 A 
HETATM    4 CL7  UNL     1     -33.851   7.336   5.731  1.00 20.00    -0.101 Cl
HETATM    5 CL8  UNL     1     -34.564   4.483   5.646  1.00 20.00    -0.101 Cl
ENDROOT
BRANCH   2   6
HETATM    6  C1  UNL     1     -32.647   6.781   2.855  1.00 20.00     0.090 C 
HETATM    7  N6  UNL     1     -33.043   7.868   2.292  1.00 20.00    -0.310 NA
HETATM    8  C5  UNL     1     -31.945   8.725   1.852  1.00 20.00     0.176 C 
ENDBRANCH   2   6
TORSDOF 1
ENDMDL
MODEL 2
REMARK VINA RESULT:      -4.1      1.795      2.148
REMARK  1 active torsions:
REMARK  status: ('A' for Active; 'I' for Inactive)
REMARK    1  A    between atoms: C1_1  and  C3_3 
ROOT
HETATM    1  C2  UNL     1     -33.203   7.023   4.653  1.00 20.00     0.056 A 
HETATM    2  C3  UNL     1     -33.578   7.643   3.349  1.00 20.00     0.067 A 
HETATM    3  C4  UNL     1     -33.896   6.203   3.598  1.00 20.00     0.122 A 
HETATM    4 CL7  UNL     1     -32.977   4.919   2.821  1.00 20.00    -0.101 Cl
HETATM    5 CL8  UNL     1     -35.590   5.789   3.856  1.00 20.00    -0.101 Cl
ENDROOT
BRANCH   2   6
HETATM    6  C1  UNL     1     -32.484   8.020   2.400  1.00 20.00     0.090 C 
HETATM    7  N6  UNL     1     -32.717   8.807   1.409  1.00 20.00    -0.310 NA
HETATM    8  C5  UNL     1     -31.538   9.064   0.586  1.00 20.00     0.176 C 
ENDBRANCH   2   6
TORSDOF 1
ENDMDL
MODEL 3
REMARK VINA RESULT:      -4.1      3.676      4.756
REMARK  1 active torsions:
REMARK  status: ('A' for Active; 'I' for Inactive)
REMARK    1  A    between atoms: C1_1  and  C3_3 
ROOT
HETATM    1  C2  UNL     1     -31.210   8.699   1.032  1.00 20.00     0.056 A 
HETATM    2  C3  UNL     1     -32.445   8.081   1.595  1.00 20.00     0.067 A 
HETATM    3  C4  UNL     1     -32.538   9.389   0.874  1.00 20.00     0.122 A 
HETATM    4 CL7  UNL     1     -32.790  10.895   1.750  1.00 20.00    -0.101 Cl
HETATM    5 CL8  UNL     1     -33.292   9.375  -0.719  1.00 20.00    -0.101 Cl
ENDROOT
BRANCH   2   6
HETATM    6  C1  UNL     1     -32.599   8.028   3.083  1.00 20.00     0.090 C 
HETATM    7  N6  UNL     1     -33.479   7.260   3.625  1.00 20.00    -0.310 NA
HETATM    8  C5  UNL     1     -33.492   7.336   5.083  1.00 20.00     0.176 C 
ENDBRANCH   2   6
TORSDOF 1
ENDMDL
MODEL 4
REMARK VINA RESULT:      -3.6      2.682      4.012
REMARK  1 active torsions:
REMARK  status: ('A' for Active; 'I' for Inactive)
REMARK    1  A    between atoms: C1_1  and  C3_3 
ROOT
HETATM    1  C2  UNL     1     -32.563   6.459   2.197  1.00 20.00     0.056 A 
HETATM    2  C3  UNL     1     -33.724   7.073   2.905  1.00 20.00     0.067 A 
HETATM    3  C4  UNL     1     -32.507   7.899   2.630  1.00 20.00     0.122 A 
HETATM    4 CL7  UNL     1     -31.387   8.326   3.919  1.00 20.00    -0.101 Cl
HETATM    5 CL8  UNL     1     -32.645   9.141   1.387  1.00 20.00    -0.101 Cl
ENDROOT
BRANCH   2   6
HETATM    6  C1  UNL     1     -34.028   6.619   4.298  1.00 20.00     0.090 C 
HETATM    7  N6  UNL     1     -34.401   5.409   4.528  1.00 20.00    -0.310 NA
HETATM    8  C5  UNL     1     -34.658   5.142   5.940  1.00 20.00     0.176 C 
ENDBRANCH   2   6
TORSDOF 1
ENDMDL
MODEL 5
REMARK VINA RESULT:      -3.4     12.173     12.578
REMARK  1 active torsions:
REMARK  status: ('A' for Active; 'I' for Inactive)
REMARK    1  A    between atoms: C1_1  and  C3_3 
ROOT
HETATM    1  C2  UNL     1     -33.738  18.842  -2.211  1.00 20.00     0.056 A 
HETATM    2  C3  UNL     1     -32.715  18.058  -1.460  1.00 20.00     0.067 A 
HETATM    3  C4  UNL     1     -34.079  17.478  -1.672  1.00 20.00     0.122 A 
HETATM    4 CL7  UNL     1     -35.241  17.382  -0.355  1.00 20.00    -0.101 Cl
HETATM    5 CL8  UNL     1     -34.215  16.148  -2.821  1.00 20.00    -0.101 Cl
ENDROOT
BRANCH   2   6
HETATM    6  C1  UNL     1     -32.303  18.539  -0.105  1.00 20.00     0.090 C 
HETATM    7  N6  UNL     1     -31.070  18.495   0.261  1.00 20.00    -0.310 NA
HETATM    8  C5  UNL     1     -30.850  19.001   1.612  1.00 20.00     0.176 C 
ENDBRANCH   2   6
TORSDOF 1
ENDMDL
MODEL 6
REMARK VINA RESULT:      -3.2     11.760     12.488
REMARK  1 active torsions:
REMARK  status: ('A' for Active; 'I' for Inactive)
REMARK    1  A    between atoms: C1_1  and  C3_3 
ROOT
HETATM    1  C2  UNL     1     -35.437  15.874  -3.499  1.00 20.00     0.056 A 
HETATM    2  C3  UNL     1     -34.188  15.150  -3.878  1.00 20.00     0.067 A 
HETATM    3  C4  UNL     1     -34.123  16.607  -3.544  1.00 20.00     0.122 A 
HETATM    4 CL7  UNL     1     -33.902  17.820  -4.800  1.00 20.00    -0.101 Cl
HETATM    5 CL8  UNL     1     -33.372  17.047  -2.011  1.00 20.00    -0.101 Cl
ENDROOT
BRANCH   2   6
HETATM    6  C1  UNL     1     -34.031  14.694  -5.294  1.00 20.00     0.090 C 
HETATM    7  N6  UNL     1     -34.782  13.763  -5.771  1.00 20.00    -0.310 NA
HETATM    8  C5  UNL     1     -34.490  13.443  -7.165  1.00 20.00     0.176 C 
ENDBRANCH   2   6
TORSDOF 1
ENDMDL
MODEL 7
REMARK VINA RESULT:      -3.1     11.425     12.327
REMARK  1 active torsions:
REMARK  status: ('A' for Active; 'I' for Inactive)
REMARK    1  A    between atoms: C1_1  and  C3_3 
ROOT
HETATM    1  C2  UNL     1     -34.101  15.865  -3.474  1.00 20.00     0.056 A 
HETATM    2  C3  UNL     1     -34.876  14.687  -3.962  1.00 20.00     0.067 A 
HETATM    3  C4  UNL     1     -33.540  14.992  -4.564  1.00 20.00     0.122 A 
HETATM    4 CL7  UNL     1     -33.405  15.678  -6.179  1.00 20.00    -0.101 Cl
HETATM    5 CL8  UNL     1     -32.210  13.911  -4.152  1.00 20.00    -0.101 Cl
ENDROOT
BRANCH   2   6
HETATM    6  C1  UNL     1     -36.128  14.933  -4.743  1.00 20.00     0.090 C 
HETATM    7  N6  UNL     1     -37.119  14.114  -4.670  1.00 20.00    -0.310 NA
HETATM    8  C5  UNL     1     -38.255  14.508  -5.498  1.00 20.00     0.176 C 
ENDBRANCH   2   6
TORSDOF 1
ENDMDL
MODEL 8
REMARK VINA RESULT:      -3.1     11.669     12.574
REMARK  1 active torsions:
REMARK  status: ('A' for Active; 'I' for Inactive)
REMARK    1  A    between atoms: C1_1  and  C3_3 
ROOT
HETATM    1  C2  UNL     1     -32.979  14.677  -4.175  1.00 20.00     0.056 A 
HETATM    2  C3  UNL     1     -33.339  15.489  -5.374  1.00 20.00     0.067 A 
HETATM    3  C4  UNL     1     -33.956  15.815  -4.050  1.00 20.00     0.122 A 
HETATM    4 CL7  UNL     1     -35.636  15.420  -3.706  1.00 20.00    -0.101 Cl
HETATM    5 CL8  UNL     1     -33.409  17.288  -3.252  1.00 20.00    -0.101 Cl
ENDROOT
BRANCH   2   6
HETATM    6  C1  UNL     1     -34.158  14.845  -6.448  1.00 20.00     0.090 C 
HETATM    7  N6  UNL     1     -34.387  13.579  -6.430  1.00 20.00    -0.310 NA
HETATM    8  C5  UNL     1     -35.199  13.122  -7.554  1.00 20.00     0.176 C 
ENDBRANCH   2   6
TORSDOF 1
ENDMDL
MODEL 9
REMARK VINA RESULT:      -3.1     11.758     12.207
REMARK  1 active torsions:
REMARK  status: ('A' for Active; 'I' for Inactive)
REMARK    1  A    between atoms: C1_1  and  C3_3 
ROOT
HETATM    1  C2  UNL     1     -35.483  17.888  -2.595  1.00 20.00     0.056 A 
HETATM    2  C3  UNL     1     -35.219  16.425  -2.467  1.00 20.00     0.067 A 
HETATM    3  C4  UNL     1     -34.687  17.364  -1.430  1.00 20.00     0.122 A 
HETATM    4 CL7  UNL     1     -32.975  17.766  -1.358  1.00 20.00    -0.101 Cl
HETATM    5 CL8  UNL     1     -35.464  17.335   0.152  1.00 20.00    -0.101 Cl
ENDROOT
BRANCH   2   6
HETATM    6  C1  UNL     1     -34.290  15.781  -3.447  1.00 20.00     0.090 C 
HETATM    7  N6  UNL     1     -33.918  16.408  -4.509  1.00 20.00    -0.310 NA
HETATM    8  C5  UNL     1     -33.015  15.630  -5.352  1.00 20.00     0.176 C 
ENDBRANCH   2   6
TORSDOF 1
ENDMDL
