MODEL 1
REMARK VINA RESULT:      -5.2      0.000      0.000
REMARK  0 active torsions:
REMARK  status: ('A' for Active; 'I' for Inactive)
ROOT
HETATM    1  C1  UNL     1     -32.544   8.306   2.198  1.00 20.00     0.095 C 
HETATM    2  C2  UNL     1     -34.195   4.693   4.130  1.00 20.00     0.007 C 
HETATM    3  C3  UNL     1     -33.344   4.590   2.860  1.00 20.00     0.008 C 
HETATM    4  C4  UNL     1     -34.233   7.261   4.599  1.00 20.00     0.276 C 
HETATM    5  C5  UNL     1     -32.504   7.090   3.029  1.00 20.00     0.330 C 
HETATM    6  C6  UNL     1     -34.639   6.108   3.698  1.00 20.00     0.021 C 
HETATM    7  C7  UNL     1     -33.579   6.093   2.586  1.00 20.00     0.038 C 
HETATM    8  N8  UNL     1     -32.574   9.264   1.544  1.00 20.00    -0.195 NA
HETATM    9  N9  UNL     1     -32.782   7.432   4.434  1.00 20.00     0.102 N 
HETATM   10  H19 UNL     1     -32.490   8.379   4.666  1.00 20.00     0.317 HD
ENDROOT
TORSDOF 0
ENDMDL
MODEL 2
REMARK VINA RESULT:      -4.4     10.831     11.934
REMARK  0 active torsions:
REMARK  status: ('A' for Active; 'I' for Inactive)
ROOT
HETATM    1  C1  UNL     1     -35.208  13.573  -4.757  1.00 20.00     0.095 C 
HETATM    2  C2  UNL     1     -33.482  17.368  -3.296  1.00 20.00     0.007 C 
HETATM    3  C3  UNL     1     -34.431  16.543  -2.419  1.00 20.00     0.008 C 
HETATM    4  C4  UNL     1     -33.311  15.939  -5.474  1.00 20.00     0.276 C 
HETATM    5  C5  UNL     1     -34.282  14.417  -3.982  1.00 20.00     0.330 C 
HETATM    6  C6  UNL     1     -34.169  16.790  -4.553  1.00 20.00     0.021 C 
HETATM    7  C7  UNL     1     -34.914  15.777  -3.672  1.00 20.00     0.038 C 
HETATM    8  N8  UNL     1     -35.937  12.907  -5.367  1.00 20.00    -0.195 NA
HETATM    9  N9  UNL     1     -33.062  14.675  -4.766  1.00 20.00     0.102 N 
HETATM   10  H19 UNL     1     -32.853  13.920  -5.415  1.00 20.00     0.317 HD
ENDROOT
TORSDOF 0
ENDMDL
MODEL 3
REMARK VINA RESULT:      -4.2      1.648      3.457
REMARK  0 active torsions:
REMARK  status: ('A' for Active; 'I' for Inactive)
ROOT
HETATM    1  C1  UNL     1     -34.249   4.997   3.963  1.00 20.00     0.095 C 
HETATM    2  C2  UNL     1     -32.193   8.712   2.744  1.00 20.00     0.007 C 
HETATM    3  C3  UNL     1     -32.622   7.670   1.706  1.00 20.00     0.008 C 
HETATM    4  C4  UNL     1     -33.011   7.664   4.992  1.00 20.00     0.276 C 
HETATM    5  C5  UNL     1     -34.153   6.362   3.417  1.00 20.00     0.330 C 
HETATM    6  C6  UNL     1     -32.075   7.588   3.798  1.00 20.00     0.021 C 
HETATM    7  C7  UNL     1     -32.763   6.616   2.828  1.00 20.00     0.038 C 
HETATM    8  N8  UNL     1     -34.326   3.922   4.392  1.00 20.00    -0.195 NA
HETATM    9  N9  UNL     1     -34.356   7.349   4.492  1.00 20.00     0.102 N 
HETATM   10  H19 UNL     1     -34.955   6.994   5.234  1.00 20.00     0.317 HD
ENDROOT
TORSDOF 0
ENDMDL
MODEL 4
REMARK VINA RESULT:      -4.2      1.434      2.229
REMARK  0 active torsions:
REMARK  status: ('A' for Active; 'I' for Inactive)
ROOT
HETATM    1  C1  UNL     1     -32.667   7.836   2.774  1.00 20.00     0.095 C 
HETATM    2  C2  UNL     1     -34.715   5.023   5.495  1.00 20.00     0.007 C 
HETATM    3  C3  UNL     1     -34.455   6.475   5.910  1.00 20.00     0.008 C 
HETATM    4  C4  UNL     1     -33.722   4.921   3.083  1.00 20.00     0.276 C 
HETATM    5  C5  UNL     1     -33.822   7.230   3.458  1.00 20.00     0.330 C 
HETATM    6  C6  UNL     1     -33.477   5.083   4.573  1.00 20.00     0.021 C 
HETATM    7  C7  UNL     1     -33.399   6.602   4.789  1.00 20.00     0.038 C 
HETATM    8  N8  UNL     1     -31.758   8.315   2.235  1.00 20.00    -0.195 NA
HETATM    9  N9  UNL     1     -34.387   6.150   2.630  1.00 20.00     0.102 N 
HETATM   10  H19 UNL     1     -34.239   6.309   1.636  1.00 20.00     0.317 HD
ENDROOT
TORSDOF 0
ENDMDL
MODEL 5
REMARK VINA RESULT:      -4.1     11.289     12.264
REMARK  0 active torsions:
REMARK  status: ('A' for Active; 'I' for Inactive)
ROOT
HETATM    1  C1  UNL     1     -37.006  13.995  -4.991  1.00 20.00     0.095 C 
HETATM    2  C2  UNL     1     -32.879  15.548  -5.255  1.00 20.00     0.007 C 
HETATM    3  C3  UNL     1     -33.640  15.551  -3.925  1.00 20.00     0.008 C 
HETATM    4  C4  UNL     1     -34.593  14.472  -6.904  1.00 20.00     0.276 C 
HETATM    5  C5  UNL     1     -35.543  13.954  -4.828  1.00 20.00     0.330 C 
HETATM    6  C6  UNL     1     -34.226  15.640  -6.007  1.00 20.00     0.021 C 
HETATM    7  C7  UNL     1     -34.970  15.368  -4.691  1.00 20.00     0.038 C 
HETATM    8  N8  UNL     1     -38.159  14.026  -5.120  1.00 20.00    -0.195 NA
HETATM    9  N9  UNL     1     -34.919  13.347  -6.017  1.00 20.00     0.102 N 
HETATM   10  H19 UNL     1     -35.534  12.677  -6.475  1.00 20.00     0.317 HD
ENDROOT
TORSDOF 0
ENDMDL
MODEL 6
REMARK VINA RESULT:      -4.0     11.192     12.041
REMARK  0 active torsions:
REMARK  status: ('A' for Active; 'I' for Inactive)
ROOT
HETATM    1  C1  UNL     1     -35.519  13.947  -5.063  1.00 20.00     0.095 C 
HETATM    2  C2  UNL     1     -34.707  17.561  -2.656  1.00 20.00     0.007 C 
HETATM    3  C3  UNL     1     -33.577  16.603  -3.047  1.00 20.00     0.008 C 
HETATM    4  C4  UNL     1     -36.805  16.469  -3.760  1.00 20.00     0.276 C 
HETATM    5  C5  UNL     1     -35.060  15.326  -4.823  1.00 20.00     0.330 C 
HETATM    6  C6  UNL     1     -35.704  16.383  -2.717  1.00 20.00     0.021 C 
HETATM    7  C7  UNL     1     -34.621  15.510  -3.368  1.00 20.00     0.038 C 
HETATM    8  N8  UNL     1     -35.880  12.861  -5.252  1.00 20.00    -0.195 NA
HETATM    9  N9  UNL     1     -36.162  16.273  -5.067  1.00 20.00     0.102 N 
HETATM   10  H19 UNL     1     -36.822  15.927  -5.759  1.00 20.00     0.317 HD
ENDROOT
TORSDOF 0
ENDMDL
MODEL 7
REMARK VINA RESULT:      -3.9     11.497     12.147
REMARK  0 active torsions:
REMARK  status: ('A' for Active; 'I' for Inactive)
ROOT
HETATM    1  C1  UNL     1     -37.099  14.742  -4.890  1.00 20.00     0.095 C 
HETATM    2  C2  UNL     1     -33.697  16.807  -2.973  1.00 20.00     0.007 C 
HETATM    3  C3  UNL     1     -33.470  15.629  -3.928  1.00 20.00     0.008 C 
HETATM    4  C4  UNL     1     -36.296  17.061  -2.970  1.00 20.00     0.276 C 
HETATM    5  C5  UNL     1     -35.956  15.669  -4.822  1.00 20.00     0.330 C 
HETATM    6  C6  UNL     1     -35.081  16.224  -2.610  1.00 20.00     0.021 C 
HETATM    7  C7  UNL     1     -34.950  15.215  -3.761  1.00 20.00     0.038 C 
HETATM    8  N8  UNL     1     -38.000  14.012  -4.945  1.00 20.00    -0.195 NA
HETATM    9  N9  UNL     1     -36.420  17.012  -4.434  1.00 20.00     0.102 N 
HETATM   10  H19 UNL     1     -37.376  17.191  -4.732  1.00 20.00     0.317 HD
ENDROOT
TORSDOF 0
ENDMDL
MODEL 8
REMARK VINA RESULT:      -3.8     11.026     12.039
REMARK  0 active torsions:
REMARK  status: ('A' for Active; 'I' for Inactive)
ROOT
HETATM    1  C1  UNL     1     -33.650  15.907  -4.295  1.00 20.00     0.095 C 
HETATM    2  C2  UNL     1     -35.260  13.194  -7.387  1.00 20.00     0.007 C 
HETATM    3  C3  UNL     1     -34.048  14.088  -7.674  1.00 20.00     0.008 C 
HETATM    4  C4  UNL     1     -35.829  13.765  -4.904  1.00 20.00     0.276 C 
HETATM    5  C5  UNL     1     -33.690  14.692  -5.126  1.00 20.00     0.330 C 
HETATM    6  C6  UNL     1     -35.754  14.226  -6.349  1.00 20.00     0.021 C 
HETATM    7  C7  UNL     1     -34.409  14.962  -6.451  1.00 20.00     0.038 C 
HETATM    8  N8  UNL     1     -33.617  16.864  -3.639  1.00 20.00    -0.195 NA
HETATM    9  N9  UNL     1     -34.443  13.632  -4.433  1.00 20.00     0.102 N 
HETATM   10  H19 UNL     1     -34.385  13.717  -3.420  1.00 20.00     0.317 HD
ENDROOT
TORSDOF 0
ENDMDL
MODEL 9
REMARK VINA RESULT:      -3.8     11.802     12.464
REMARK  0 active torsions:
REMARK  status: ('A' for Active; 'I' for Inactive)
ROOT
HETATM    1  C1  UNL     1     -33.476  16.604  -5.257  1.00 20.00     0.095 C 
HETATM    2  C2  UNL     1     -34.767  17.487  -1.125  1.00 20.00     0.007 C 
HETATM    3  C3  UNL     1     -33.291  17.582  -1.529  1.00 20.00     0.008 C 
HETATM    4  C4  UNL     1     -35.936  16.792  -3.354  1.00 20.00     0.276 C 
HETATM    5  C5  UNL     1     -33.827  17.466  -4.114  1.00 20.00     0.330 C 
HETATM    6  C6  UNL     1     -34.983  16.428  -2.229  1.00 20.00     0.021 C 
HETATM    7  C7  UNL     1     -33.587  16.737  -2.789  1.00 20.00     0.038 C 
HETATM    8  N8  UNL     1     -33.200  15.927  -6.157  1.00 20.00    -0.195 NA
HETATM    9  N9  UNL     1     -35.258  17.812  -4.165  1.00 20.00     0.102 N 
HETATM   10  H19 UNL     1     -35.617  17.829  -5.118  1.00 20.00     0.317 HD
ENDROOT
TORSDOF 0
ENDMDL
