MODEL 1
REMARK VINA RESULT:      -4.2      0.000      0.000
REMARK  0 active torsions:
REMARK  status: ('A' for Active; 'I' for Inactive)
ROOT
HETATM    1  C1  UNL     1     -33.176  14.560  -4.446  1.00 20.00     0.223 A 
HETATM    2  C2  UNL     1     -33.622  16.583  -5.607  1.00 20.00     0.128 A 
HETATM    3  C3  UNL     1     -34.444  15.088  -3.883  1.00 20.00     0.092 A 
HETATM    4  C4  UNL     1     -34.722  16.386  -4.608  1.00 20.00     0.026 A 
HETATM    5  C5  UNL     1     -34.522  16.383  -3.103  1.00 20.00    -0.029 A 
HETATM    6  C6  UNL     1     -35.751  16.597  -2.252  1.00 20.00     0.016 C 
HETATM    7  C7  UNL     1     -33.274  16.978  -2.501  1.00 20.00     0.016 C 
HETATM    8  N8  UNL     1     -32.761  15.430  -5.438  1.00 20.00    -0.360 N 
HETATM    9  O9  UNL     1     -32.649  13.528  -4.063  1.00 20.00    -0.273 OA
HETATM   10  H20 UNL     1     -31.917  15.285  -5.982  1.00 20.00     0.162 HD
ENDROOT
TORSDOF 0
ENDMDL
MODEL 2
REMARK VINA RESULT:      -4.2      1.979      2.257
REMARK  0 active torsions:
REMARK  status: ('A' for Active; 'I' for Inactive)
ROOT
HETATM    1  C1  UNL     1     -35.704  13.821  -5.443  1.00 20.00     0.223 A 
HETATM    2  C2  UNL     1     -35.191  15.875  -6.519  1.00 20.00     0.128 A 
HETATM    3  C3  UNL     1     -35.753  14.864  -4.387  1.00 20.00     0.092 A 
HETATM    4  C4  UNL     1     -35.408  16.171  -5.065  1.00 20.00     0.026 A 
HETATM    5  C5  UNL     1     -34.533  15.643  -3.942  1.00 20.00    -0.029 A 
HETATM    6  C6  UNL     1     -34.623  16.357  -2.615  1.00 20.00     0.016 C 
HETATM    7  C7  UNL     1     -33.152  15.116  -4.239  1.00 20.00     0.016 C 
HETATM    8  N8  UNL     1     -35.405  14.447  -6.639  1.00 20.00    -0.360 N 
HETATM    9  O9  UNL     1     -35.910  12.637  -5.228  1.00 20.00    -0.273 OA
HETATM   10  H20 UNL     1     -35.321  13.947  -7.518  1.00 20.00     0.162 HD
ENDROOT
TORSDOF 0
ENDMDL
MODEL 3
REMARK VINA RESULT:      -4.2     10.437     11.139
REMARK  0 active torsions:
REMARK  status: ('A' for Active; 'I' for Inactive)
ROOT
HETATM    1  C1  UNL     1     -32.673   8.398   1.885  1.00 20.00     0.223 A 
HETATM    2  C2  UNL     1     -31.611   7.941   3.960  1.00 20.00     0.128 A 
HETATM    3  C3  UNL     1     -33.729   7.861   2.780  1.00 20.00     0.092 A 
HETATM    4  C4  UNL     1     -33.053   7.552   4.097  1.00 20.00     0.026 A 
HETATM    5  C5  UNL     1     -33.720   6.441   3.305  1.00 20.00    -0.029 A 
HETATM    6  C6  UNL     1     -35.021   5.904   3.849  1.00 20.00     0.016 C 
HETATM    7  C7  UNL     1     -32.884   5.389   2.620  1.00 20.00     0.016 C 
HETATM    8  N8  UNL     1     -31.495   8.447   2.608  1.00 20.00    -0.360 N 
HETATM    9  O9  UNL     1     -32.876   8.728   0.728  1.00 20.00    -0.273 OA
HETATM   10  H20 UNL     1     -30.621   8.785   2.217  1.00 20.00     0.162 HD
ENDROOT
TORSDOF 0
ENDMDL
MODEL 4
REMARK VINA RESULT:      -4.0     11.071     11.737
REMARK  0 active torsions:
REMARK  status: ('A' for Active; 'I' for Inactive)
ROOT
HETATM    1  C1  UNL     1     -33.871   6.851   4.708  1.00 20.00     0.223 A 
HETATM    2  C2  UNL     1     -33.252   5.378   2.952  1.00 20.00     0.128 A 
HETATM    3  C3  UNL     1     -33.864   7.667   3.467  1.00 20.00     0.092 A 
HETATM    4  C4  UNL     1     -33.452   6.735   2.349  1.00 20.00     0.026 A 
HETATM    5  C5  UNL     1     -32.604   7.952   2.677  1.00 20.00    -0.029 A 
HETATM    6  C6  UNL     1     -32.655   9.101   1.699  1.00 20.00     0.016 C 
HETATM    7  C7  UNL     1     -31.253   7.785   3.325  1.00 20.00     0.016 C 
HETATM    8  N8  UNL     1     -33.541   5.554   4.360  1.00 20.00    -0.360 N 
HETATM    9  O9  UNL     1     -34.139   7.305   5.809  1.00 20.00    -0.273 OA
HETATM   10  H20 UNL     1     -33.484   4.799   5.036  1.00 20.00     0.162 HD
ENDROOT
TORSDOF 0
ENDMDL
MODEL 5
REMARK VINA RESULT:      -3.9      1.660      1.923
REMARK  0 active torsions:
REMARK  status: ('A' for Active; 'I' for Inactive)
ROOT
HETATM    1  C1  UNL     1     -34.942  13.968  -5.244  1.00 20.00     0.223 A 
HETATM    2  C2  UNL     1     -33.123  15.461  -5.562  1.00 20.00     0.128 A 
HETATM    3  C3  UNL     1     -35.535  15.326  -5.344  1.00 20.00     0.092 A 
HETATM    4  C4  UNL     1     -34.378  16.282  -5.528  1.00 20.00     0.026 A 
HETATM    5  C5  UNL     1     -35.285  16.410  -4.317  1.00 20.00    -0.029 A 
HETATM    6  C6  UNL     1     -36.244  17.576  -4.306  1.00 20.00     0.016 C 
HETATM    7  C7  UNL     1     -34.777  16.048  -2.945  1.00 20.00     0.016 C 
HETATM    8  N8  UNL     1     -33.574  14.095  -5.398  1.00 20.00    -0.360 N 
HETATM    9  O9  UNL     1     -35.603  12.958  -5.066  1.00 20.00    -0.273 OA
HETATM   10  H20 UNL     1     -32.940  13.302  -5.376  1.00 20.00     0.162 HD
ENDROOT
TORSDOF 0
ENDMDL
MODEL 6
REMARK VINA RESULT:      -3.9      2.332      3.319
REMARK  0 active torsions:
REMARK  status: ('A' for Active; 'I' for Inactive)
ROOT
HETATM    1  C1  UNL     1     -35.076  13.592  -5.198  1.00 20.00     0.223 A 
HETATM    2  C2  UNL     1     -33.308  14.929  -4.346  1.00 20.00     0.128 A 
HETATM    3  C3  UNL     1     -34.561  14.378  -6.348  1.00 20.00     0.092 A 
HETATM    4  C4  UNL     1     -33.447  15.245  -5.805  1.00 20.00     0.026 A 
HETATM    5  C5  UNL     1     -34.674  15.886  -6.430  1.00 20.00    -0.029 A 
HETATM    6  C6  UNL     1     -34.495  16.512  -7.792  1.00 20.00     0.016 C 
HETATM    7  C7  UNL     1     -35.672  16.616  -5.568  1.00 20.00     0.016 C 
HETATM    8  N8  UNL     1     -34.316  13.922  -4.090  1.00 20.00    -0.360 N 
HETATM    9  O9  UNL     1     -36.003  12.803  -5.284  1.00 20.00    -0.273 OA
HETATM   10  H20 UNL     1     -34.468  13.511  -3.175  1.00 20.00     0.162 HD
ENDROOT
TORSDOF 0
ENDMDL
MODEL 7
REMARK VINA RESULT:      -3.9     12.155     12.824
REMARK  0 active torsions:
REMARK  status: ('A' for Active; 'I' for Inactive)
ROOT
HETATM    1  C1  UNL     1     -34.491   5.433   5.238  1.00 20.00     0.223 A 
HETATM    2  C2  UNL     1     -35.682   6.236   3.347  1.00 20.00     0.128 A 
HETATM    3  C3  UNL     1     -33.775   6.654   4.786  1.00 20.00     0.092 A 
HETATM    4  C4  UNL     1     -34.521   7.157   3.571  1.00 20.00     0.026 A 
HETATM    5  C5  UNL     1     -33.064   6.744   3.452  1.00 20.00    -0.029 A 
HETATM    6  C6  UNL     1     -32.053   7.854   3.290  1.00 20.00     0.016 C 
HETATM    7  C7  UNL     1     -32.689   5.487   2.710  1.00 20.00     0.016 C 
HETATM    8  N8  UNL     1     -35.580   5.252   4.404  1.00 20.00    -0.360 N 
HETATM    9  O9  UNL     1     -34.135   4.759   6.190  1.00 20.00    -0.273 OA
HETATM   10  H20 UNL     1     -36.235   4.484   4.510  1.00 20.00     0.162 HD
ENDROOT
TORSDOF 0
ENDMDL
MODEL 8
REMARK VINA RESULT:      -3.9     12.289     13.026
REMARK  0 active torsions:
REMARK  status: ('A' for Active; 'I' for Inactive)
ROOT
HETATM    1  C1  UNL     1     -33.754   6.860   5.373  1.00 20.00     0.223 A 
HETATM    2  C2  UNL     1     -35.016   4.858   5.176  1.00 20.00     0.128 A 
HETATM    3  C3  UNL     1     -34.384   6.900   4.029  1.00 20.00     0.092 A 
HETATM    4  C4  UNL     1     -35.175   5.618   3.893  1.00 20.00     0.026 A 
HETATM    5  C5  UNL     1     -34.040   5.919   2.929  1.00 20.00    -0.029 A 
HETATM    6  C6  UNL     1     -34.427   6.305   1.522  1.00 20.00     0.016 C 
HETATM    7  C7  UNL     1     -32.757   5.129   2.995  1.00 20.00     0.016 C 
HETATM    8  N8  UNL     1     -34.162   5.693   5.994  1.00 20.00    -0.360 N 
HETATM    9  O9  UNL     1     -33.021   7.738   5.798  1.00 20.00    -0.273 OA
HETATM   10  H20 UNL     1     -33.870   5.435   6.931  1.00 20.00     0.162 HD
ENDROOT
TORSDOF 0
ENDMDL
MODEL 9
REMARK VINA RESULT:      -3.8      2.228      3.451
REMARK  0 active torsions:
REMARK  status: ('A' for Active; 'I' for Inactive)
ROOT
HETATM    1  C1  UNL     1     -33.472  14.179  -4.545  1.00 20.00     0.223 A 
HETATM    2  C2  UNL     1     -35.817  14.352  -4.875  1.00 20.00     0.128 A 
HETATM    3  C3  UNL     1     -33.682  15.375  -5.401  1.00 20.00     0.092 A 
HETATM    4  C4  UNL     1     -35.174  15.477  -5.628  1.00 20.00     0.026 A 
HETATM    5  C5  UNL     1     -34.236  15.293  -6.808  1.00 20.00    -0.029 A 
HETATM    6  C6  UNL     1     -34.019  16.493  -7.698  1.00 20.00     0.016 C 
HETATM    7  C7  UNL     1     -34.204  13.985  -7.556  1.00 20.00     0.016 C 
HETATM    8  N8  UNL     1     -34.715  13.647  -4.254  1.00 20.00    -0.360 N 
HETATM    9  O9  UNL     1     -32.371  13.793  -4.190  1.00 20.00    -0.273 OA
HETATM   10  H20 UNL     1     -34.841  12.823  -3.675  1.00 20.00     0.162 HD
ENDROOT
TORSDOF 0
ENDMDL
