MODEL 1
REMARK VINA RESULT:      -4.5      0.000      0.000
REMARK  1 active torsions:
REMARK  status: ('A' for Active; 'I' for Inactive)
REMARK    1  A    between atoms: C8_8  and  O11_11 
ROOT
HETATM    1  C1  UNL     1     -33.221  15.526  -5.704  1.00 20.00    -0.023 C 
HETATM    2  C2  UNL     1     -32.903  14.887  -4.566  1.00 20.00    -0.022 C 
HETATM    3  C3  UNL     1     -35.171  16.595  -1.988  1.00 20.00     0.011 A 
HETATM    4  C4  UNL     1     -33.729  16.984  -2.168  1.00 20.00     0.011 A 
HETATM    5  C5  UNL     1     -34.850  17.038  -4.577  1.00 20.00     0.021 C 
HETATM    6  C6  UNL     1     -34.692  15.897  -5.629  1.00 20.00     0.038 C 
HETATM    7  C7  UNL     1     -34.154  14.865  -3.707  1.00 20.00     0.046 C 
HETATM    8  C8  UNL     1     -35.212  14.698  -4.818  1.00 20.00     0.136 C 
HETATM    9  C9  UNL     1     -34.467  16.298  -3.286  1.00 20.00    -0.030 A 
ENDROOT
BRANCH   8  10
HETATM   10  O11 UNL     1     -35.149  13.467  -5.510  1.00 20.00    -0.389 OA
HETATM   11  C10 UNL     1     -35.905  13.499  -6.717  1.00 20.00     0.202 C 
ENDBRANCH   8  10
TORSDOF 1
ENDMDL
MODEL 2
REMARK VINA RESULT:      -4.3      1.771      2.702
REMARK  1 active torsions:
REMARK  status: ('A' for Active; 'I' for Inactive)
REMARK    1  A    between atoms: C8_8  and  O11_11 
ROOT
HETATM    1  C1  UNL     1     -36.096  14.118  -6.941  1.00 20.00    -0.023 C 
HETATM    2  C2  UNL     1     -35.593  13.276  -6.024  1.00 20.00    -0.022 C 
HETATM    3  C3  UNL     1     -33.875  15.657  -3.557  1.00 20.00     0.011 A 
HETATM    4  C4  UNL     1     -33.113  14.935  -4.634  1.00 20.00     0.011 A 
HETATM    5  C5  UNL     1     -35.167  16.138  -5.816  1.00 20.00     0.021 C 
HETATM    6  C6  UNL     1     -36.480  15.402  -6.226  1.00 20.00     0.038 C 
HETATM    7  C7  UNL     1     -35.600  14.011  -4.697  1.00 20.00     0.046 C 
HETATM    8  C8  UNL     1     -36.905  14.816  -4.869  1.00 20.00     0.136 C 
HETATM    9  C9  UNL     1     -34.594  15.156  -4.782  1.00 20.00    -0.030 A 
ENDROOT
BRANCH   8  10
HETATM   10  O11 UNL     1     -38.078  14.030  -4.927  1.00 20.00    -0.389 OA
HETATM   11  C10 UNL     1     -39.234  14.820  -5.186  1.00 20.00     0.202 C 
ENDBRANCH   8  10
TORSDOF 1
ENDMDL
MODEL 3
REMARK VINA RESULT:      -4.2      1.041      1.220
REMARK  1 active torsions:
REMARK  status: ('A' for Active; 'I' for Inactive)
REMARK    1  A    between atoms: C8_8  and  O11_11 
ROOT
HETATM    1  C1  UNL     1     -32.675  15.221  -4.949  1.00 20.00    -0.023 C 
HETATM    2  C2  UNL     1     -33.277  14.441  -4.036  1.00 20.00    -0.022 C 
HETATM    3  C3  UNL     1     -36.606  16.254  -3.456  1.00 20.00     0.011 A 
HETATM    4  C4  UNL     1     -35.432  16.422  -2.531  1.00 20.00     0.011 A 
HETATM    5  C5  UNL     1     -34.544  16.868  -4.996  1.00 20.00     0.021 C 
HETATM    6  C6  UNL     1     -33.757  15.814  -5.834  1.00 20.00     0.038 C 
HETATM    7  C7  UNL     1     -34.770  14.543  -4.284  1.00 20.00     0.046 C 
HETATM    8  C8  UNL     1     -34.758  14.647  -5.824  1.00 20.00     0.136 C 
HETATM    9  C9  UNL     1     -35.212  15.965  -3.948  1.00 20.00    -0.030 A 
ENDROOT
BRANCH   8  10
HETATM   10  O11 UNL     1     -34.293  13.489  -6.488  1.00 20.00    -0.389 OA
HETATM   11  C10 UNL     1     -35.298  12.915  -7.318  1.00 20.00     0.202 C 
ENDBRANCH   8  10
TORSDOF 1
ENDMDL
MODEL 4
REMARK VINA RESULT:      -4.1      1.756      3.728
REMARK  1 active torsions:
REMARK  status: ('A' for Active; 'I' for Inactive)
REMARK    1  A    between atoms: C8_8  and  O11_11 
ROOT
HETATM    1  C1  UNL     1     -34.376  14.211  -3.989  1.00 20.00    -0.023 C 
HETATM    2  C2  UNL     1     -33.168  14.445  -4.525  1.00 20.00    -0.022 C 
HETATM    3  C3  UNL     1     -33.961  16.969  -7.302  1.00 20.00     0.011 A 
HETATM    4  C4  UNL     1     -33.795  15.499  -7.579  1.00 20.00     0.011 A 
HETATM    5  C5  UNL     1     -35.547  15.718  -5.592  1.00 20.00     0.021 C 
HETATM    6  C6  UNL     1     -35.183  15.494  -4.092  1.00 20.00     0.038 C 
HETATM    7  C7  UNL     1     -33.176  15.877  -5.026  1.00 20.00     0.046 C 
HETATM    8  C8  UNL     1     -34.047  16.518  -3.925  1.00 20.00     0.136 C 
HETATM    9  C9  UNL     1     -34.155  15.966  -6.194  1.00 20.00    -0.030 A 
ENDROOT
BRANCH   8  10
HETATM   10  O11 UNL     1     -33.462  16.520  -2.639  1.00 20.00    -0.389 OA
HETATM   11  C10 UNL     1     -34.325  17.099  -1.665  1.00 20.00     0.202 C 
ENDBRANCH   8  10
TORSDOF 1
ENDMDL
MODEL 5
REMARK VINA RESULT:      -4.1      1.329      1.438
REMARK  1 active torsions:
REMARK  status: ('A' for Active; 'I' for Inactive)
REMARK    1  A    between atoms: C8_8  and  O11_11 
ROOT
HETATM    1  C1  UNL     1     -34.426  16.273  -5.466  1.00 20.00    -0.023 C 
HETATM    2  C2  UNL     1     -33.848  15.461  -4.566  1.00 20.00    -0.022 C 
HETATM    3  C3  UNL     1     -34.830  17.079  -1.231  1.00 20.00     0.011 A 
HETATM    4  C4  UNL     1     -33.490  17.316  -1.871  1.00 20.00     0.011 A 
HETATM    5  C5  UNL     1     -35.330  17.809  -3.725  1.00 20.00     0.021 C 
HETATM    6  C6  UNL     1     -35.711  16.801  -4.853  1.00 20.00     0.038 C 
HETATM    7  C7  UNL     1     -34.726  15.475  -3.329  1.00 20.00     0.046 C 
HETATM    8  C8  UNL     1     -36.108  15.578  -4.009  1.00 20.00     0.136 C 
HETATM    9  C9  UNL     1     -34.655  16.870  -2.712  1.00 20.00    -0.030 A 
ENDROOT
BRANCH   8  10
HETATM   10  O11 UNL     1     -36.470  14.447  -4.776  1.00 20.00    -0.389 OA
HETATM   11  C10 UNL     1     -37.852  14.462  -5.123  1.00 20.00     0.202 C 
ENDBRANCH   8  10
TORSDOF 1
ENDMDL
MODEL 6
REMARK VINA RESULT:      -4.0      1.749      3.791
REMARK  1 active torsions:
REMARK  status: ('A' for Active; 'I' for Inactive)
REMARK    1  A    between atoms: C8_8  and  O11_11 
ROOT
HETATM    1  C1  UNL     1     -33.604  16.870  -4.669  1.00 20.00    -0.023 C 
HETATM    2  C2  UNL     1     -34.788  16.928  -5.300  1.00 20.00    -0.022 C 
HETATM    3  C3  UNL     1     -35.918  13.263  -5.293  1.00 20.00     0.011 A 
HETATM    4  C4  UNL     1     -35.255  13.893  -6.487  1.00 20.00     0.011 A 
HETATM    5  C5  UNL     1     -33.704  14.396  -4.388  1.00 20.00     0.021 C 
HETATM    6  C6  UNL     1     -33.686  15.762  -3.635  1.00 20.00     0.038 C 
HETATM    7  C7  UNL     1     -35.655  15.829  -4.715  1.00 20.00     0.046 C 
HETATM    8  C8  UNL     1     -35.170  15.886  -3.251  1.00 20.00     0.136 C 
HETATM    9  C9  UNL     1     -35.053  14.484  -5.117  1.00 20.00    -0.030 A 
ENDROOT
BRANCH   8  10
HETATM   10  O11 UNL     1     -35.487  17.085  -2.574  1.00 20.00    -0.389 OA
HETATM   11  C10 UNL     1     -35.164  17.013  -1.188  1.00 20.00     0.202 C 
ENDBRANCH   8  10
TORSDOF 1
ENDMDL
MODEL 7
REMARK VINA RESULT:      -4.0      1.853      3.255
REMARK  1 active torsions:
REMARK  status: ('A' for Active; 'I' for Inactive)
REMARK    1  A    between atoms: C8_8  and  O11_11 
ROOT
HETATM    1  C1  UNL     1     -35.948  17.536  -3.288  1.00 20.00    -0.023 C 
HETATM    2  C2  UNL     1     -34.937  18.283  -3.761  1.00 20.00    -0.022 C 
HETATM    3  C3  UNL     1     -32.361  18.093  -0.928  1.00 20.00     0.011 A 
HETATM    4  C4  UNL     1     -33.294  19.263  -1.083  1.00 20.00     0.011 A 
HETATM    5  C5  UNL     1     -34.792  17.067  -1.131  1.00 20.00     0.021 C 
HETATM    6  C6  UNL     1     -35.345  16.429  -2.442  1.00 20.00     0.038 C 
HETATM    7  C7  UNL     1     -33.655  17.701  -3.198  1.00 20.00     0.046 C 
HETATM    8  C8  UNL     1     -34.035  16.205  -3.217  1.00 20.00     0.136 C 
HETATM    9  C9  UNL     1     -33.650  17.932  -1.689  1.00 20.00    -0.030 A 
ENDROOT
BRANCH   8  10
HETATM   10  O11 UNL     1     -34.220  15.661  -4.508  1.00 20.00    -0.389 OA
HETATM   11  C10 UNL     1     -32.991  15.567  -5.223  1.00 20.00     0.202 C 
ENDBRANCH   8  10
TORSDOF 1
ENDMDL
MODEL 8
REMARK VINA RESULT:      -4.0      1.772      3.636
REMARK  1 active torsions:
REMARK  status: ('A' for Active; 'I' for Inactive)
REMARK    1  A    between atoms: C8_8  and  O11_11 
ROOT
HETATM    1  C1  UNL     1     -33.054  15.556  -5.219  1.00 20.00    -0.023 C 
HETATM    2  C2  UNL     1     -33.933  16.518  -5.541  1.00 20.00    -0.022 C 
HETATM    3  C3  UNL     1     -37.291  14.939  -4.572  1.00 20.00     0.011 A 
HETATM    4  C4  UNL     1     -36.783  14.933  -5.988  1.00 20.00     0.011 A 
HETATM    5  C5  UNL     1     -34.828  13.978  -4.463  1.00 20.00     0.021 C 
HETATM    6  C6  UNL     1     -33.598  14.821  -4.006  1.00 20.00     0.038 C 
HETATM    7  C7  UNL     1     -35.091  16.403  -4.567  1.00 20.00     0.046 C 
HETATM    8  C8  UNL     1     -34.309  15.990  -3.303  1.00 20.00     0.136 C 
HETATM    9  C9  UNL     1     -35.817  15.089  -4.845  1.00 20.00    -0.030 A 
ENDROOT
BRANCH   8  10
HETATM   10  O11 UNL     1     -33.430  16.979  -2.806  1.00 20.00    -0.389 OA
HETATM   11  C10 UNL     1     -33.769  17.370  -1.479  1.00 20.00     0.202 C 
ENDBRANCH   8  10
TORSDOF 1
ENDMDL
MODEL 9
REMARK VINA RESULT:      -4.0      1.763      2.647
REMARK  1 active torsions:
REMARK  status: ('A' for Active; 'I' for Inactive)
REMARK    1  A    between atoms: C8_8  and  O11_11 
ROOT
HETATM    1  C1  UNL     1     -34.051  14.438  -7.918  1.00 20.00    -0.023 C 
HETATM    2  C2  UNL     1     -34.576  13.609  -7.001  1.00 20.00    -0.022 C 
HETATM    3  C3  UNL     1     -33.928  15.477  -3.716  1.00 20.00     0.011 A 
HETATM    4  C4  UNL     1     -33.030  14.370  -4.197  1.00 20.00     0.011 A 
HETATM    5  C5  UNL     1     -33.290  16.086  -6.211  1.00 20.00     0.021 C 
HETATM    6  C6  UNL     1     -34.248  15.859  -7.420  1.00 20.00     0.038 C 
HETATM    7  C7  UNL     1     -35.091  14.473  -5.866  1.00 20.00     0.046 C 
HETATM    8  C8  UNL     1     -35.587  15.684  -6.684  1.00 20.00     0.136 C 
HETATM    9  C9  UNL     1     -33.891  15.119  -5.179  1.00 20.00    -0.030 A 
ENDROOT
BRANCH   8  10
HETATM   10  O11 UNL     1     -36.678  15.408  -7.539  1.00 20.00    -0.389 OA
HETATM   11  C10 UNL     1     -37.911  15.362  -6.826  1.00 20.00     0.202 C 
ENDBRANCH   8  10
TORSDOF 1
ENDMDL
