MODEL 1
REMARK VINA RESULT:      -4.7      0.000      0.000
REMARK  0 active torsions:
REMARK  status: ('A' for Active; 'I' for Inactive)
ROOT
HETATM    1  C1  UNL     1     -35.060  14.190  -6.815  1.00 20.00     0.053 A 
HETATM    2  C2  UNL     1     -34.689  15.474  -6.669  1.00 20.00    -0.070 A 
HETATM    3  C3  UNL     1     -35.542  13.742  -5.491  1.00 20.00     0.155 A 
HETATM    4  C4  UNL     1     -35.478  14.877  -4.529  1.00 20.00     0.082 A 
HETATM    5  C5  UNL     1     -34.926  16.068  -5.319  1.00 20.00    -0.002 A 
HETATM    6  C6  UNL     1     -34.176  15.524  -4.096  1.00 20.00    -0.024 A 
HETATM    7  C7  UNL     1     -34.053  16.289  -7.746  1.00 20.00     0.044 C 
HETATM    8  C8  UNL     1     -35.654  17.382  -5.267  1.00 20.00     0.021 C 
HETATM    9  C9  UNL     1     -34.202  16.314  -2.804  1.00 20.00     0.016 C 
HETATM   10  C10 UNL     1     -32.862  14.797  -4.282  1.00 20.00     0.016 C 
HETATM   11  O11 UNL     1     -35.934  12.624  -5.211  1.00 20.00    -0.293 OA
ENDROOT
TORSDOF 0
ENDMDL
MODEL 2
REMARK VINA RESULT:      -4.5      1.977      2.306
REMARK  0 active torsions:
REMARK  status: ('A' for Active; 'I' for Inactive)
ROOT
HETATM    1  C1  UNL     1     -33.136  15.771  -5.446  1.00 20.00     0.053 A 
HETATM    2  C2  UNL     1     -34.014  16.779  -5.301  1.00 20.00    -0.070 A 
HETATM    3  C3  UNL     1     -33.401  14.825  -4.342  1.00 20.00     0.155 A 
HETATM    4  C4  UNL     1     -34.549  15.316  -3.531  1.00 20.00     0.082 A 
HETATM    5  C5  UNL     1     -34.994  16.629  -4.183  1.00 20.00    -0.002 A 
HETATM    6  C6  UNL     1     -34.506  16.604  -2.729  1.00 20.00    -0.024 A 
HETATM    7  C7  UNL     1     -34.032  18.003  -6.155  1.00 20.00     0.044 C 
HETATM    8  C8  UNL     1     -36.447  16.826  -4.516  1.00 20.00     0.021 C 
HETATM    9  C9  UNL     1     -35.517  16.744  -1.609  1.00 20.00     0.016 C 
HETATM   10  C10 UNL     1     -33.180  17.237  -2.369  1.00 20.00     0.016 C 
HETATM   11  O11 UNL     1     -32.787  13.798  -4.114  1.00 20.00    -0.293 OA
ENDROOT
TORSDOF 0
ENDMDL
MODEL 3
REMARK VINA RESULT:      -4.5      1.423      2.678
REMARK  0 active torsions:
REMARK  status: ('A' for Active; 'I' for Inactive)
ROOT
HETATM    1  C1  UNL     1     -37.350  14.397  -4.860  1.00 20.00     0.053 A 
HETATM    2  C2  UNL     1     -37.121  15.617  -4.344  1.00 20.00    -0.070 A 
HETATM    3  C3  UNL     1     -36.035  13.727  -4.947  1.00 20.00     0.155 A 
HETATM    4  C4  UNL     1     -34.983  14.624  -4.396  1.00 20.00     0.082 A 
HETATM    5  C5  UNL     1     -35.706  15.902  -3.958  1.00 20.00    -0.002 A 
HETATM    6  C6  UNL     1     -34.609  15.952  -5.030  1.00 20.00    -0.024 A 
HETATM    7  C7  UNL     1     -38.170  16.664  -4.173  1.00 20.00     0.044 C 
HETATM    8  C8  UNL     1     -35.469  16.440  -2.574  1.00 20.00     0.021 C 
HETATM    9  C9  UNL     1     -33.253  16.522  -4.672  1.00 20.00     0.016 C 
HETATM   10  C10 UNL     1     -34.978  16.242  -6.469  1.00 20.00     0.016 C 
HETATM   11  O11 UNL     1     -35.826  12.614  -5.396  1.00 20.00    -0.293 OA
ENDROOT
TORSDOF 0
ENDMDL
MODEL 4
REMARK VINA RESULT:      -4.5      1.838      2.886
REMARK  0 active torsions:
REMARK  status: ('A' for Active; 'I' for Inactive)
ROOT
HETATM    1  C1  UNL     1     -35.053  14.124  -4.458  1.00 20.00     0.053 A 
HETATM    2  C2  UNL     1     -35.779  15.183  -4.058  1.00 20.00    -0.070 A 
HETATM    3  C3  UNL     1     -33.646  14.431  -4.123  1.00 20.00     0.155 A 
HETATM    4  C4  UNL     1     -33.575  15.752  -3.441  1.00 20.00     0.082 A 
HETATM    5  C5  UNL     1     -35.017  16.265  -3.365  1.00 20.00    -0.002 A 
HETATM    6  C6  UNL     1     -33.943  17.058  -4.121  1.00 20.00    -0.024 A 
HETATM    7  C7  UNL     1     -37.245  15.329  -4.291  1.00 20.00     0.044 C 
HETATM    8  C8  UNL     1     -35.555  16.743  -2.045  1.00 20.00     0.021 C 
HETATM    9  C9  UNL     1     -33.393  18.327  -3.505  1.00 20.00     0.016 C 
HETATM   10  C10 UNL     1     -33.997  17.145  -5.630  1.00 20.00     0.016 C 
HETATM   11  O11 UNL     1     -32.682  13.726  -4.361  1.00 20.00    -0.293 OA
ENDROOT
TORSDOF 0
ENDMDL
MODEL 5
REMARK VINA RESULT:      -4.4      1.287      2.951
REMARK  0 active torsions:
REMARK  status: ('A' for Active; 'I' for Inactive)
ROOT
HETATM    1  C1  UNL     1     -34.599  14.215  -4.001  1.00 20.00     0.053 A 
HETATM    2  C2  UNL     1     -34.427  15.541  -4.135  1.00 20.00    -0.070 A 
HETATM    3  C3  UNL     1     -35.480  13.794  -5.112  1.00 20.00     0.155 A 
HETATM    4  C4  UNL     1     -35.797  14.971  -5.967  1.00 20.00     0.082 A 
HETATM    5  C5  UNL     1     -35.069  16.161  -5.333  1.00 20.00    -0.002 A 
HETATM    6  C6  UNL     1     -36.597  16.163  -5.474  1.00 20.00    -0.024 A 
HETATM    7  C7  UNL     1     -33.676  16.390  -3.164  1.00 20.00     0.044 C 
HETATM    8  C8  UNL     1     -34.205  17.035  -6.198  1.00 20.00     0.021 C 
HETATM    9  C9  UNL     1     -37.239  17.038  -6.531  1.00 20.00     0.016 C 
HETATM   10  C10 UNL     1     -37.466  16.043  -4.241  1.00 20.00     0.016 C 
HETATM   11  O11 UNL     1     -35.893  12.666  -5.312  1.00 20.00    -0.293 OA
ENDROOT
TORSDOF 0
ENDMDL
MODEL 6
REMARK VINA RESULT:      -4.4      1.359      3.285
REMARK  0 active torsions:
REMARK  status: ('A' for Active; 'I' for Inactive)
ROOT
HETATM    1  C1  UNL     1     -36.738  15.573  -3.966  1.00 20.00     0.053 A 
HETATM    2  C2  UNL     1     -35.432  15.841  -4.134  1.00 20.00    -0.070 A 
HETATM    3  C3  UNL     1     -37.040  14.407  -4.823  1.00 20.00     0.155 A 
HETATM    4  C4  UNL     1     -35.794  13.952  -5.498  1.00 20.00     0.082 A 
HETATM    5  C5  UNL     1     -34.687  14.898  -5.022  1.00 20.00    -0.002 A 
HETATM    6  C6  UNL     1     -35.043  14.797  -6.511  1.00 20.00    -0.024 A 
HETATM    7  C7  UNL     1     -34.730  17.006  -3.520  1.00 20.00     0.044 C 
HETATM    8  C8  UNL     1     -33.408  14.318  -4.485  1.00 20.00     0.021 C 
HETATM    9  C9  UNL     1     -34.103  14.067  -7.447  1.00 20.00     0.016 C 
HETATM   10  C10 UNL     1     -35.731  15.956  -7.199  1.00 20.00     0.016 C 
HETATM   11  O11 UNL     1     -38.131  13.886  -4.967  1.00 20.00    -0.293 OA
ENDROOT
TORSDOF 0
ENDMDL
MODEL 7
REMARK VINA RESULT:      -4.3      1.307      1.346
REMARK  0 active torsions:
REMARK  status: ('A' for Active; 'I' for Inactive)
ROOT
HETATM    1  C1  UNL     1     -36.567  14.426  -6.666  1.00 20.00     0.053 A 
HETATM    2  C2  UNL     1     -35.546  15.299  -6.628  1.00 20.00    -0.070 A 
HETATM    3  C3  UNL     1     -37.217  14.486  -5.340  1.00 20.00     0.155 A 
HETATM    4  C4  UNL     1     -36.534  15.506  -4.498  1.00 20.00     0.082 A 
HETATM    5  C5  UNL     1     -35.413  16.086  -5.366  1.00 20.00    -0.002 A 
HETATM    6  C6  UNL     1     -35.091  15.376  -4.044  1.00 20.00    -0.024 A 
HETATM    7  C7  UNL     1     -34.564  15.487  -7.737  1.00 20.00     0.044 C 
HETATM    8  C8  UNL     1     -35.289  17.579  -5.500  1.00 20.00     0.021 C 
HETATM    9  C9  UNL     1     -34.675  16.203  -2.845  1.00 20.00     0.016 C 
HETATM   10  C10 UNL     1     -34.402  14.030  -4.063  1.00 20.00     0.016 C 
HETATM   11  O11 UNL     1     -38.164  13.813  -4.974  1.00 20.00    -0.293 OA
ENDROOT
TORSDOF 0
ENDMDL
MODEL 8
REMARK VINA RESULT:      -4.3      1.295      3.433
REMARK  0 active torsions:
REMARK  status: ('A' for Active; 'I' for Inactive)
ROOT
HETATM    1  C1  UNL     1     -35.904  16.044  -3.020  1.00 20.00     0.053 A 
HETATM    2  C2  UNL     1     -34.588  16.107  -3.287  1.00 20.00    -0.070 A 
HETATM    3  C3  UNL     1     -36.509  15.227  -4.092  1.00 20.00     0.155 A 
HETATM    4  C4  UNL     1     -35.444  14.754  -5.018  1.00 20.00     0.082 A 
HETATM    5  C5  UNL     1     -34.129  15.321  -4.471  1.00 20.00    -0.002 A 
HETATM    6  C6  UNL     1     -34.617  15.691  -5.879  1.00 20.00    -0.024 A 
HETATM    7  C7  UNL     1     -33.611  16.917  -2.501  1.00 20.00     0.044 C 
HETATM    8  C8  UNL     1     -32.961  14.397  -4.269  1.00 20.00     0.021 C 
HETATM    9  C9  UNL     1     -33.927  15.083  -7.082  1.00 20.00     0.016 C 
HETATM   10  C10 UNL     1     -35.100  17.097  -6.161  1.00 20.00     0.016 C 
HETATM   11  O11 UNL     1     -37.693  14.970  -4.216  1.00 20.00    -0.293 OA
ENDROOT
TORSDOF 0
ENDMDL
MODEL 9
REMARK VINA RESULT:      -4.2      1.174      2.420
REMARK  0 active torsions:
REMARK  status: ('A' for Active; 'I' for Inactive)
ROOT
HETATM    1  C1  UNL     1     -36.939  16.041  -5.053  1.00 20.00     0.053 A 
HETATM    2  C2  UNL     1     -35.853  16.738  -4.675  1.00 20.00    -0.070 A 
HETATM    3  C3  UNL     1     -36.632  14.618  -4.795  1.00 20.00     0.155 A 
HETATM    4  C4  UNL     1     -35.280  14.504  -4.182  1.00 20.00     0.082 A 
HETATM    5  C5  UNL     1     -34.747  15.936  -4.070  1.00 20.00    -0.002 A 
HETATM    6  C6  UNL     1     -34.005  14.888  -4.910  1.00 20.00    -0.024 A 
HETATM    7  C7  UNL     1     -35.700  18.212  -4.853  1.00 20.00     0.044 C 
HETATM    8  C8  UNL     1     -34.198  16.412  -2.754  1.00 20.00     0.021 C 
HETATM    9  C9  UNL     1     -32.714  14.299  -4.382  1.00 20.00     0.016 C 
HETATM   10  C10 UNL     1     -33.992  15.007  -6.419  1.00 20.00     0.016 C 
HETATM   11  O11 UNL     1     -37.360  13.672  -5.039  1.00 20.00    -0.293 OA
ENDROOT
TORSDOF 0
ENDMDL
