MODEL 1
REMARK VINA RESULT:      -5.6      0.000      0.000
REMARK  1 active torsions:
REMARK  status: ('A' for Active; 'I' for Inactive)
REMARK    1  A    between atoms: C1_1  and  C4_4 
ROOT
HETATM    1  C2  UNL     1     -34.780   6.214   2.986  1.00 20.00     0.225 A 
HETATM    2  C3  UNL     1     -33.735   5.184   3.238  1.00 20.00     0.225 A 
HETATM    3  C4  UNL     1     -33.649   6.519   3.944  1.00 20.00     0.099 A 
HETATM    4  C5  UNL     1     -32.589   7.477   3.462  1.00 20.00     0.031 C 
HETATM    5  F7  UNL     1     -36.040   5.988   3.511  1.00 20.00    -0.245 F 
HETATM    6  F8  UNL     1     -34.099   4.073   3.979  1.00 20.00    -0.245 F 
ENDROOT
BRANCH   3   7
HETATM    7  C1  UNL     1     -33.972   6.545   5.390  1.00 20.00     0.233 C 
HETATM    8  O6  UNL     1     -33.822   7.560   6.066  1.00 20.00    -0.279 OA
HETATM    9 CL9  UNL     1     -34.560   5.012   5.959  1.00 20.00    -0.043 Cl
ENDBRANCH   3   7
TORSDOF 1
ENDMDL
MODEL 2
REMARK VINA RESULT:      -5.4      2.175      2.858
REMARK  1 active torsions:
REMARK  status: ('A' for Active; 'I' for Inactive)
REMARK    1  A    between atoms: C1_1  and  C4_4 
ROOT
HETATM    1  C2  UNL     1     -34.084   5.085   4.426  1.00 20.00     0.225 A 
HETATM    2  C3  UNL     1     -35.218   5.991   4.098  1.00 20.00     0.225 A 
HETATM    3  C4  UNL     1     -33.879   6.583   4.478  1.00 20.00     0.099 A 
HETATM    4  C5  UNL     1     -33.774   7.207   5.846  1.00 20.00     0.031 C 
HETATM    5  F7  UNL     1     -33.507   4.381   3.384  1.00 20.00    -0.245 F 
HETATM    6  F8  UNL     1     -35.615   6.065   2.775  1.00 20.00    -0.245 F 
ENDROOT
BRANCH   3   7
HETATM    7  C1  UNL     1     -33.075   7.197   3.396  1.00 20.00     0.233 C 
HETATM    8  O6  UNL     1     -33.368   7.051   2.212  1.00 20.00    -0.279 OA
HETATM    9 CL9  UNL     1     -31.729   8.105   4.014  1.00 20.00    -0.043 Cl
ENDBRANCH   3   7
TORSDOF 1
ENDMDL
MODEL 3
REMARK VINA RESULT:      -5.3      2.556      3.044
REMARK  1 active torsions:
REMARK  status: ('A' for Active; 'I' for Inactive)
REMARK    1  A    between atoms: C1_1  and  C4_4 
ROOT
HETATM    1  C2  UNL     1     -34.475   6.142   5.441  1.00 20.00     0.225 A 
HETATM    2  C3  UNL     1     -34.753   4.747   5.002  1.00 20.00     0.225 A 
HETATM    3  C4  UNL     1     -34.603   5.836   3.965  1.00 20.00     0.099 A 
HETATM    4  C5  UNL     1     -35.863   6.303   3.280  1.00 20.00     0.031 C 
HETATM    5  F7  UNL     1     -33.216   6.414   5.947  1.00 20.00    -0.245 F 
HETATM    6  F8  UNL     1     -33.733   3.821   5.132  1.00 20.00    -0.245 F 
ENDROOT
BRANCH   3   7
HETATM    7  C1  UNL     1     -33.359   5.842   3.159  1.00 20.00     0.233 C 
HETATM    8  O6  UNL     1     -32.907   4.813   2.663  1.00 20.00    -0.279 OA
HETATM    9 CL9  UNL     1     -32.670   7.431   3.028  1.00 20.00    -0.043 Cl
ENDBRANCH   3   7
TORSDOF 1
ENDMDL
MODEL 4
REMARK VINA RESULT:      -5.3      2.051      2.285
REMARK  1 active torsions:
REMARK  status: ('A' for Active; 'I' for Inactive)
REMARK    1  A    between atoms: C1_1  and  C4_4 
ROOT
HETATM    1  C2  UNL     1     -35.270   5.508   3.607  1.00 20.00     0.225 A 
HETATM    2  C3  UNL     1     -34.526   4.984   4.784  1.00 20.00     0.225 A 
HETATM    3  C4  UNL     1     -33.772   5.699   3.686  1.00 20.00     0.099 A 
HETATM    4  C5  UNL     1     -32.929   4.846   2.772  1.00 20.00     0.031 C 
HETATM    5  F7  UNL     1     -36.082   6.611   3.804  1.00 20.00    -0.245 F 
HETATM    6  F8  UNL     1     -34.698   5.637   5.992  1.00 20.00    -0.245 F 
ENDROOT
BRANCH   3   7
HETATM    7  C1  UNL     1     -33.274   7.064   3.978  1.00 20.00     0.233 C 
HETATM    8  O6  UNL     1     -33.187   7.486   5.128  1.00 20.00    -0.279 OA
HETATM    9 CL9  UNL     1     -32.857   7.933   2.533  1.00 20.00    -0.043 Cl
ENDBRANCH   3   7
TORSDOF 1
ENDMDL
MODEL 5
REMARK VINA RESULT:      -5.2      1.980      2.604
REMARK  1 active torsions:
REMARK  status: ('A' for Active; 'I' for Inactive)
REMARK    1  A    between atoms: C1_1  and  C4_4 
ROOT
HETATM    1  C2  UNL     1     -33.564   5.411   2.760  1.00 20.00     0.225 A 
HETATM    2  C3  UNL     1     -33.405   6.869   3.013  1.00 20.00     0.225 A 
HETATM    3  C4  UNL     1     -34.468   6.096   3.760  1.00 20.00     0.099 A 
HETATM    4  C5  UNL     1     -35.898   6.324   3.339  1.00 20.00     0.031 C 
HETATM    5  F7  UNL     1     -32.577   4.568   3.239  1.00 20.00    -0.245 F 
HETATM    6  F8  UNL     1     -32.281   7.278   3.710  1.00 20.00    -0.245 F 
ENDROOT
BRANCH   3   7
HETATM    7  C1  UNL     1     -34.227   5.820   5.196  1.00 20.00     0.233 C 
HETATM    8  O6  UNL     1     -34.364   4.695   5.668  1.00 20.00    -0.279 OA
HETATM    9 CL9  UNL     1     -33.749   7.246   6.066  1.00 20.00    -0.043 Cl
ENDBRANCH   3   7
TORSDOF 1
ENDMDL
MODEL 6
REMARK VINA RESULT:      -5.1      1.916      2.336
REMARK  1 active torsions:
REMARK  status: ('A' for Active; 'I' for Inactive)
REMARK    1  A    between atoms: C1_1  and  C4_4 
ROOT
HETATM    1  C2  UNL     1     -34.437   4.440   4.462  1.00 20.00     0.225 A 
HETATM    2  C3  UNL     1     -33.863   4.679   3.109  1.00 20.00     0.225 A 
HETATM    3  C4  UNL     1     -34.485   5.830   3.867  1.00 20.00     0.099 A 
HETATM    4  C5  UNL     1     -35.828   6.317   3.385  1.00 20.00     0.031 C 
HETATM    5  F7  UNL     1     -33.551   4.201   5.497  1.00 20.00    -0.245 F 
HETATM    6  F8  UNL     1     -32.486   4.646   2.984  1.00 20.00    -0.245 F 
ENDROOT
BRANCH   3   7
HETATM    7  C1  UNL     1     -33.568   6.845   4.436  1.00 20.00     0.233 C 
HETATM    8  O6  UNL     1     -32.654   7.332   3.775  1.00 20.00    -0.279 OA
HETATM    9 CL9  UNL     1     -33.952   7.225   6.087  1.00 20.00    -0.043 Cl
ENDBRANCH   3   7
TORSDOF 1
ENDMDL
MODEL 7
REMARK VINA RESULT:      -5.0      2.178      2.784
REMARK  1 active torsions:
REMARK  status: ('A' for Active; 'I' for Inactive)
REMARK    1  A    between atoms: C1_1  and  C4_4 
ROOT
HETATM    1  C2  UNL     1     -32.593   7.005   4.055  1.00 20.00     0.225 A 
HETATM    2  C3  UNL     1     -33.354   7.419   2.845  1.00 20.00     0.225 A 
HETATM    3  C4  UNL     1     -33.551   6.029   3.407  1.00 20.00     0.099 A 
HETATM    4  C5  UNL     1     -32.939   4.889   2.633  1.00 20.00     0.031 C 
HETATM    5  F7  UNL     1     -32.956   7.573   5.264  1.00 20.00    -0.245 F 
HETATM    6  F8  UNL     1     -34.370   8.344   3.015  1.00 20.00    -0.245 F 
ENDROOT
BRANCH   3   7
HETATM    7  C1  UNL     1     -34.823   5.755   4.114  1.00 20.00     0.233 C 
HETATM    8  O6  UNL     1     -35.908   6.082   3.640  1.00 20.00    -0.279 OA
HETATM    9 CL9  UNL     1     -34.570   4.947   5.631  1.00 20.00    -0.043 Cl
ENDBRANCH   3   7
TORSDOF 1
ENDMDL
MODEL 8
REMARK VINA RESULT:      -4.9      2.550      3.067
REMARK  1 active torsions:
REMARK  status: ('A' for Active; 'I' for Inactive)
REMARK    1  A    between atoms: C1_1  and  C4_4 
ROOT
HETATM    1  C2  UNL     1     -33.564   7.330   3.708  1.00 20.00     0.225 A 
HETATM    2  C3  UNL     1     -34.125   7.088   5.066  1.00 20.00     0.225 A 
HETATM    3  C4  UNL     1     -34.495   6.158   3.932  1.00 20.00     0.099 A 
HETATM    4  C5  UNL     1     -35.891   6.284   3.377  1.00 20.00     0.031 C 
HETATM    5  F7  UNL     1     -32.219   7.070   3.517  1.00 20.00    -0.245 F 
HETATM    6  F8  UNL     1     -33.260   6.621   6.040  1.00 20.00    -0.245 F 
ENDROOT
BRANCH   3   7
HETATM    7  C1  UNL     1     -33.894   4.804   3.938  1.00 20.00     0.233 C 
HETATM    8  O6  UNL     1     -34.076   4.022   4.867  1.00 20.00    -0.279 OA
HETATM    9 CL9  UNL     1     -32.943   4.502   2.516  1.00 20.00    -0.043 Cl
ENDBRANCH   3   7
TORSDOF 1
ENDMDL
MODEL 9
REMARK VINA RESULT:      -4.9      1.894      1.982
REMARK  1 active torsions:
REMARK  status: ('A' for Active; 'I' for Inactive)
REMARK    1  A    between atoms: C1_1  and  C4_4 
ROOT
HETATM    1  C2  UNL     1     -33.469   6.929   2.461  1.00 20.00     0.225 A 
HETATM    2  C3  UNL     1     -32.587   5.902   3.080  1.00 20.00     0.225 A 
HETATM    3  C4  UNL     1     -33.707   6.510   3.895  1.00 20.00     0.099 A 
HETATM    4  C5  UNL     1     -33.311   7.495   4.966  1.00 20.00     0.031 C 
HETATM    5  F7  UNL     1     -34.367   6.503   1.498  1.00 20.00    -0.245 F 
HETATM    6  F8  UNL     1     -32.727   4.595   2.647  1.00 20.00    -0.245 F 
ENDROOT
BRANCH   3   7
HETATM    7  C1  UNL     1     -34.889   5.659   4.169  1.00 20.00     0.233 C 
HETATM    8  O6  UNL     1     -35.996   5.927   3.711  1.00 20.00    -0.279 OA
HETATM    9 CL9  UNL     1     -34.499   4.300   5.179  1.00 20.00    -0.043 Cl
ENDBRANCH   3   7
TORSDOF 1
ENDMDL
