MODEL 1
REMARK VINA RESULT:      -5.9      0.000      0.000
REMARK  2 active torsions:
REMARK  status: ('A' for Active; 'I' for Inactive)
REMARK    1  A    between atoms: C4_4  and  O10_10 
REMARK    2  A    between atoms: C5_5  and  C6_6 
ROOT
HETATM    1  C1  UNL     1     -34.308   6.452   5.070  1.00 20.00     0.040 A 
HETATM    2  C2  UNL     1     -33.398   7.434   4.695  1.00 20.00     0.034 A 
HETATM    3  C3  UNL     1     -33.672   5.202   3.149  1.00 20.00     0.153 A 
HETATM    4  C4  UNL     1     -34.454   5.312   4.289  1.00 20.00     0.083 A 
HETATM    5  C5  UNL     1     -32.663   7.229   3.538  1.00 20.00     0.056 A 
HETATM    6  N9  UNL     1     -32.777   6.134   2.753  1.00 20.00    -0.258 NA
ENDROOT
BRANCH   5   7
HETATM    7  C6  UNL     1     -31.700   8.227   3.103  1.00 20.00     0.027 C 
HETATM    8  C7  UNL     1     -31.814   9.018   2.011  1.00 20.00    -0.029 C 
HETATM    9  C8  UNL     1     -32.974   8.981   1.070  1.00 20.00     0.036 C 
ENDBRANCH   5   7
BRANCH   4  10
HETATM   10  O10 UNL     1     -35.333   4.338   4.630  1.00 20.00    -0.359 OA
HETATM   11  H19 UNL     1     -34.929   3.721   5.264  1.00 20.00     0.217 HD
ENDBRANCH   4  10
TORSDOF 2
ENDMDL
MODEL 2
REMARK VINA RESULT:      -5.7      0.858      1.518
REMARK  2 active torsions:
REMARK  status: ('A' for Active; 'I' for Inactive)
REMARK    1  A    between atoms: C4_4  and  O10_10 
REMARK    2  A    between atoms: C5_5  and  C6_6 
ROOT
HETATM    1  C1  UNL     1     -33.738   5.157   3.087  1.00 20.00     0.040 A 
HETATM    2  C2  UNL     1     -32.826   6.116   2.660  1.00 20.00     0.034 A 
HETATM    3  C3  UNL     1     -34.174   6.498   5.002  1.00 20.00     0.153 A 
HETATM    4  C4  UNL     1     -34.428   5.344   4.279  1.00 20.00     0.083 A 
HETATM    5  C5  UNL     1     -32.644   7.236   3.456  1.00 20.00     0.056 A 
HETATM    6  N9  UNL     1     -33.297   7.453   4.619  1.00 20.00    -0.258 NA
ENDROOT
BRANCH   5   7
HETATM    7  C6  UNL     1     -31.701   8.267   3.052  1.00 20.00     0.027 C 
HETATM    8  C7  UNL     1     -31.812   9.062   1.963  1.00 20.00    -0.029 C 
HETATM    9  C8  UNL     1     -32.947   8.998   0.994  1.00 20.00     0.036 C 
ENDBRANCH   5   7
BRANCH   4  10
HETATM   10  O10 UNL     1     -35.323   4.426   4.720  1.00 20.00    -0.359 OA
HETATM   11  H19 UNL     1     -34.953   3.529   4.654  1.00 20.00     0.217 HD
ENDBRANCH   4  10
TORSDOF 2
ENDMDL
MODEL 3
REMARK VINA RESULT:      -5.2      2.493      4.317
REMARK  2 active torsions:
REMARK  status: ('A' for Active; 'I' for Inactive)
REMARK    1  A    between atoms: C4_4  and  O10_10 
REMARK    2  A    between atoms: C5_5  and  C6_6 
ROOT
HETATM    1  C1  UNL     1     -33.232   7.302   2.057  1.00 20.00     0.040 A 
HETATM    2  C2  UNL     1     -33.917   6.831   3.172  1.00 20.00     0.034 A 
HETATM    3  C3  UNL     1     -31.672   8.345   3.518  1.00 20.00     0.153 A 
HETATM    4  C4  UNL     1     -32.088   8.073   2.224  1.00 20.00     0.083 A 
HETATM    5  C5  UNL     1     -33.419   7.158   4.423  1.00 20.00     0.056 A 
HETATM    6  N9  UNL     1     -32.311   7.904   4.626  1.00 20.00    -0.258 NA
ENDROOT
BRANCH   5   7
HETATM    7  C6  UNL     1     -34.100   6.690   5.620  1.00 20.00     0.027 C 
HETATM    8  C7  UNL     1     -34.570   5.439   5.827  1.00 20.00    -0.029 C 
HETATM    9  C8  UNL     1     -34.454   4.327   4.836  1.00 20.00     0.036 C 
ENDBRANCH   5   7
BRANCH   4  10
HETATM   10  O10 UNL     1     -31.400   8.546   1.156  1.00 20.00    -0.359 OA
HETATM   11  H19 UNL     1     -31.860   8.323   0.328  1.00 20.00     0.217 HD
ENDBRANCH   4  10
TORSDOF 2
ENDMDL
MODEL 4
REMARK VINA RESULT:      -5.0      2.404      4.158
REMARK  2 active torsions:
REMARK  status: ('A' for Active; 'I' for Inactive)
REMARK    1  A    between atoms: C4_4  and  O10_10 
REMARK    2  A    between atoms: C5_5  and  C6_6 
ROOT
HETATM    1  C1  UNL     1     -31.654   8.414   3.479  1.00 20.00     0.040 A 
HETATM    2  C2  UNL     1     -32.345   7.933   4.586  1.00 20.00     0.034 A 
HETATM    3  C3  UNL     1     -33.199   7.266   2.081  1.00 20.00     0.153 A 
HETATM    4  C4  UNL     1     -32.082   8.078   2.200  1.00 20.00     0.083 A 
HETATM    5  C5  UNL     1     -33.450   7.127   4.361  1.00 20.00     0.056 A 
HETATM    6  N9  UNL     1     -33.896   6.780   3.133  1.00 20.00    -0.258 NA
ENDROOT
BRANCH   5   7
HETATM    7  C6  UNL     1     -34.205   6.599   5.486  1.00 20.00     0.027 C 
HETATM    8  C7  UNL     1     -34.615   5.319   5.635  1.00 20.00    -0.029 C 
HETATM    9  C8  UNL     1     -34.346   4.233   4.644  1.00 20.00     0.036 C 
ENDBRANCH   5   7
BRANCH   4  10
HETATM   10  O10 UNL     1     -31.429   8.532   1.102  1.00 20.00    -0.359 OA
HETATM   11  H19 UNL     1     -32.059   8.727   0.387  1.00 20.00     0.217 HD
ENDBRANCH   4  10
TORSDOF 2
ENDMDL
MODEL 5
REMARK VINA RESULT:      -4.4     11.081     11.791
REMARK  2 active torsions:
REMARK  status: ('A' for Active; 'I' for Inactive)
REMARK    1  A    between atoms: C4_4  and  O10_10 
REMARK    2  A    between atoms: C5_5  and  C6_6 
ROOT
HETATM    1  C1  UNL     1     -33.934  14.045  -4.483  1.00 20.00     0.040 A 
HETATM    2  C2  UNL     1     -33.370  15.268  -4.136  1.00 20.00     0.034 A 
HETATM    3  C3  UNL     1     -36.072  15.087  -4.476  1.00 20.00     0.153 A 
HETATM    4  C4  UNL     1     -35.309  13.944  -4.658  1.00 20.00     0.083 A 
HETATM    5  C5  UNL     1     -34.220  16.352  -3.978  1.00 20.00     0.056 A 
HETATM    6  N9  UNL     1     -35.560  16.293  -4.140  1.00 20.00    -0.258 NA
ENDROOT
BRANCH   5   7
HETATM    7  C6  UNL     1     -33.678  17.651  -3.615  1.00 20.00     0.027 C 
HETATM    8  C7  UNL     1     -33.574  18.145  -2.360  1.00 20.00    -0.029 C 
HETATM    9  C8  UNL     1     -34.007  17.410  -1.134  1.00 20.00     0.036 C 
ENDBRANCH   5   7
BRANCH   4  10
HETATM   10  O10 UNL     1     -35.887  12.765  -4.996  1.00 20.00    -0.359 OA
HETATM   11  H19 UNL     1     -36.827  12.895  -5.210  1.00 20.00     0.217 HD
ENDBRANCH   4  10
TORSDOF 2
ENDMDL
MODEL 6
REMARK VINA RESULT:      -4.3     11.345     11.817
REMARK  2 active torsions:
REMARK  status: ('A' for Active; 'I' for Inactive)
REMARK    1  A    between atoms: C4_4  and  O10_10 
REMARK    2  A    between atoms: C5_5  and  C6_6 
ROOT
HETATM    1  C1  UNL     1     -35.774  13.798  -4.803  1.00 20.00     0.040 A 
HETATM    2  C2  UNL     1     -34.709  14.449  -4.190  1.00 20.00     0.034 A 
HETATM    3  C3  UNL     1     -37.107  15.731  -4.422  1.00 20.00     0.153 A 
HETATM    4  C4  UNL     1     -36.999  14.444  -4.925  1.00 20.00     0.083 A 
HETATM    5  C5  UNL     1     -34.920  15.736  -3.721  1.00 20.00     0.056 A 
HETATM    6  N9  UNL     1     -36.095  16.396  -3.821  1.00 20.00    -0.258 NA
ENDROOT
BRANCH   5   7
HETATM    7  C6  UNL     1     -33.837  16.457  -3.072  1.00 20.00     0.027 C 
HETATM    8  C7  UNL     1     -33.894  17.050  -1.857  1.00 20.00    -0.029 C 
HETATM    9  C8  UNL     1     -35.105  17.049  -0.983  1.00 20.00     0.036 C 
ENDBRANCH   5   7
BRANCH   4  10
HETATM   10  O10 UNL     1     -38.056  13.834  -5.517  1.00 20.00    -0.359 OA
HETATM   11  H19 UNL     1     -38.744  13.629  -4.861  1.00 20.00     0.217 HD
ENDBRANCH   4  10
TORSDOF 2
ENDMDL
MODEL 7
REMARK VINA RESULT:      -4.1     11.586     12.468
REMARK  2 active torsions:
REMARK  status: ('A' for Active; 'I' for Inactive)
REMARK    1  A    between atoms: C4_4  and  O10_10 
REMARK    2  A    between atoms: C5_5  and  C6_6 
ROOT
HETATM    1  C1  UNL     1     -33.769  14.361  -5.035  1.00 20.00     0.040 A 
HETATM    2  C2  UNL     1     -34.242  14.757  -3.788  1.00 20.00     0.034 A 
HETATM    3  C3  UNL     1     -34.468  16.460  -5.909  1.00 20.00     0.153 A 
HETATM    4  C4  UNL     1     -33.880  15.223  -6.120  1.00 20.00     0.083 A 
HETATM    5  C5  UNL     1     -34.814  16.015  -3.682  1.00 20.00     0.056 A 
HETATM    6  N9  UNL     1     -34.939  16.880  -4.713  1.00 20.00    -0.258 NA
ENDROOT
BRANCH   5   7
HETATM    7  C6  UNL     1     -35.325  16.474  -2.400  1.00 20.00     0.027 C 
HETATM    8  C7  UNL     1     -34.629  17.171  -1.473  1.00 20.00    -0.029 C 
HETATM    9  C8  UNL     1     -33.202  17.582  -1.633  1.00 20.00     0.036 C 
ENDBRANCH   5   7
BRANCH   4  10
HETATM   10  O10 UNL     1     -33.427  14.865  -7.347  1.00 20.00    -0.359 OA
HETATM   11  H19 UNL     1     -34.171  14.699  -7.951  1.00 20.00     0.217 HD
ENDBRANCH   4  10
TORSDOF 2
ENDMDL
MODEL 8
REMARK VINA RESULT:      -4.0     11.703     12.455
REMARK  2 active torsions:
REMARK  status: ('A' for Active; 'I' for Inactive)
REMARK    1  A    between atoms: C4_4  and  O10_10 
REMARK    2  A    between atoms: C5_5  and  C6_6 
ROOT
HETATM    1  C1  UNL     1     -34.454  16.442  -6.049  1.00 20.00     0.040 A 
HETATM    2  C2  UNL     1     -34.940  16.876  -4.820  1.00 20.00     0.034 A 
HETATM    3  C3  UNL     1     -33.825  14.392  -5.018  1.00 20.00     0.153 A 
HETATM    4  C4  UNL     1     -33.885  15.179  -6.158  1.00 20.00     0.083 A 
HETATM    5  C5  UNL     1     -34.833  16.013  -3.740  1.00 20.00     0.056 A 
HETATM    6  N9  UNL     1     -34.287  14.779  -3.807  1.00 20.00    -0.258 NA
ENDROOT
BRANCH   5   7
HETATM    7  C6  UNL     1     -35.326  16.422  -2.434  1.00 20.00     0.027 C 
HETATM    8  C7  UNL     1     -34.626  17.107  -1.501  1.00 20.00    -0.029 C 
HETATM    9  C8  UNL     1     -33.212  17.556  -1.679  1.00 20.00     0.036 C 
ENDBRANCH   5   7
BRANCH   4  10
HETATM   10  O10 UNL     1     -33.403  14.728  -7.343  1.00 20.00    -0.359 OA
HETATM   11  H19 UNL     1     -34.004  14.067  -7.726  1.00 20.00     0.217 HD
ENDBRANCH   4  10
TORSDOF 2
ENDMDL
MODEL 9
REMARK VINA RESULT:      -3.8     11.638     12.517
REMARK  2 active torsions:
REMARK  status: ('A' for Active; 'I' for Inactive)
REMARK    1  A    between atoms: C4_4  and  O10_10 
REMARK    2  A    between atoms: C5_5  and  C6_6 
ROOT
HETATM    1  C1  UNL     1     -34.088  17.367  -1.177  1.00 20.00     0.040 A 
HETATM    2  C2  UNL     1     -35.128  16.695  -1.811  1.00 20.00     0.034 A 
HETATM    3  C3  UNL     1     -33.377  18.164  -3.302  1.00 20.00     0.153 A 
HETATM    4  C4  UNL     1     -33.192  18.117  -1.929  1.00 20.00     0.083 A 
HETATM    5  C5  UNL     1     -35.226  16.805  -3.189  1.00 20.00     0.056 A 
HETATM    6  N9  UNL     1     -34.375  17.525  -3.953  1.00 20.00    -0.258 NA
ENDROOT
BRANCH   5   7
HETATM    7  C6  UNL     1     -36.295  16.120  -3.897  1.00 20.00     0.027 C 
HETATM    8  C7  UNL     1     -36.213  14.894  -4.464  1.00 20.00    -0.029 C 
HETATM    9  C8  UNL     1     -34.984  14.044  -4.444  1.00 20.00     0.036 C 
ENDBRANCH   5   7
BRANCH   4  10
HETATM   10  O10 UNL     1     -32.169  18.784  -1.339  1.00 20.00    -0.359 OA
HETATM   11  H19 UNL     1     -31.669  19.294  -1.999  1.00 20.00     0.217 HD
ENDBRANCH   4  10
TORSDOF 2
ENDMDL
