MODEL 1
REMARK VINA RESULT:      -6.2      0.000      0.000
REMARK  2 active torsions:
REMARK  status: ('A' for Active; 'I' for Inactive)
REMARK    1  A    between atoms: C2_2  and  C8_8 
REMARK    2  A    between atoms: C3_3  and  C7_7 
ROOT
HETATM    1  C1  UNL     1     -33.358   6.812   3.003  1.00 20.00    -0.062 A 
HETATM    2  C2  UNL     1     -32.615   7.833   2.637  1.00 20.00    -0.076 C 
HETATM    3  C4  UNL     1     -34.456   5.993   2.680  1.00 20.00     0.055 A 
HETATM    4  C7  UNL     1     -33.579   5.809   3.975  1.00 20.00     0.120 A 
HETATM    5  C9  UNL     1     -31.443   8.329   3.458  1.00 20.00     0.044 C 
ENDROOT
BRANCH   2   6
HETATM    6  C8  UNL     1     -32.861   8.609   1.362  1.00 20.00     0.014 A 
HETATM    7  C5  UNL     1     -32.519  10.046   1.373  1.00 20.00     0.010 A 
HETATM    8  C6  UNL     1     -31.671   9.069   0.616  1.00 20.00     0.010 A 
ENDBRANCH   2   6
BRANCH   4   9
HETATM    9  C3  UNL     1     -34.137   6.279   5.222  1.00 20.00     0.181 C 
HETATM   10  O10 UNL     1     -33.815   7.455   5.548  1.00 20.00    -0.647 OA
HETATM   11  O11 UNL     1     -34.874   5.445   5.819  1.00 20.00    -0.647 OA
ENDBRANCH   4   9
TORSDOF 2
ENDMDL
MODEL 2
REMARK VINA RESULT:      -5.9      2.428      4.699
REMARK  2 active torsions:
REMARK  status: ('A' for Active; 'I' for Inactive)
REMARK    1  A    between atoms: C2_2  and  C8_8 
REMARK    2  A    between atoms: C3_3  and  C7_7 
ROOT
HETATM    1  C1  UNL     1     -32.642   7.487   3.411  1.00 20.00    -0.062 A 
HETATM    2  C2  UNL     1     -33.655   6.653   3.493  1.00 20.00    -0.076 C 
HETATM    3  C4  UNL     1     -31.925   8.517   4.048  1.00 20.00     0.055 A 
HETATM    4  C7  UNL     1     -31.552   7.938   2.632  1.00 20.00     0.120 A 
HETATM    5  C9  UNL     1     -33.993   5.665   2.396  1.00 20.00     0.044 C 
ENDROOT
BRANCH   2   6
HETATM    6  C8  UNL     1     -34.579   6.602   4.690  1.00 20.00     0.014 A 
HETATM    7  C5  UNL     1     -34.498   5.403   5.549  1.00 20.00     0.010 A 
HETATM    8  C6  UNL     1     -33.955   6.717   6.025  1.00 20.00     0.010 A 
ENDBRANCH   2   6
BRANCH   4   9
HETATM    9  C3  UNL     1     -31.911   8.731   1.478  1.00 20.00     0.181 C 
HETATM   10  O10 UNL     1     -32.972   9.404   1.596  1.00 20.00    -0.647 OA
HETATM   11  O11 UNL     1     -31.111   8.642   0.506  1.00 20.00    -0.647 OA
ENDBRANCH   4   9
TORSDOF 2
ENDMDL
MODEL 3
REMARK VINA RESULT:      -5.5      2.184      4.500
REMARK  2 active torsions:
REMARK  status: ('A' for Active; 'I' for Inactive)
REMARK    1  A    between atoms: C2_2  and  C8_8 
REMARK    2  A    between atoms: C3_3  and  C7_7 
ROOT
HETATM    1  C1  UNL     1     -33.820   7.180   3.291  1.00 20.00    -0.062 A 
HETATM    2  C2  UNL     1     -34.104   6.712   4.487  1.00 20.00    -0.076 C 
HETATM    3  C4  UNL     1     -33.927   6.976   1.903  1.00 20.00     0.055 A 
HETATM    4  C7  UNL     1     -33.211   8.220   2.551  1.00 20.00     0.120 A 
HETATM    5  C9  UNL     1     -33.699   7.422   5.762  1.00 20.00     0.044 C 
ENDROOT
BRANCH   2   6
HETATM    6  C8  UNL     1     -34.863   5.421   4.701  1.00 20.00     0.014 A 
HETATM    7  C5  UNL     1     -34.151   4.164   4.395  1.00 20.00     0.010 A 
HETATM    8  C6  UNL     1     -34.419   4.559   5.816  1.00 20.00     0.010 A 
ENDBRANCH   2   6
BRANCH   4   9
HETATM    9  C3  UNL     1     -31.767   8.217   2.567  1.00 20.00     0.181 C 
HETATM   10  O10 UNL     1     -31.240   8.114   3.709  1.00 20.00    -0.647 OA
HETATM   11  O11 UNL     1     -31.225   8.317   1.430  1.00 20.00    -0.647 OA
ENDBRANCH   4   9
TORSDOF 2
ENDMDL
MODEL 4
REMARK VINA RESULT:      -5.5      1.332      2.227
REMARK  2 active torsions:
REMARK  status: ('A' for Active; 'I' for Inactive)
REMARK    1  A    between atoms: C2_2  and  C8_8 
REMARK    2  A    between atoms: C3_3  and  C7_7 
ROOT
HETATM    1  C1  UNL     1     -33.760   6.843   4.132  1.00 20.00    -0.062 A 
HETATM    2  C2  UNL     1     -33.139   6.986   2.983  1.00 20.00    -0.076 C 
HETATM    3  C4  UNL     1     -33.854   7.274   5.468  1.00 20.00     0.055 A 
HETATM    4  C7  UNL     1     -34.776   6.163   4.842  1.00 20.00     0.120 A 
HETATM    5  C9  UNL     1     -33.491   6.173   1.754  1.00 20.00     0.044 C 
ENDROOT
BRANCH   2   6
HETATM    6  C8  UNL     1     -32.014   7.977   2.777  1.00 20.00     0.014 A 
HETATM    7  C5  UNL     1     -31.648   8.298   1.383  1.00 20.00     0.010 A 
HETATM    8  C6  UNL     1     -32.377   9.300   2.227  1.00 20.00     0.010 A 
ENDBRANCH   2   6
BRANCH   4   9
HETATM    9  C3  UNL     1     -34.475   4.789   5.174  1.00 20.00     0.181 C 
HETATM   10  O10 UNL     1     -34.473   3.987   4.200  1.00 20.00    -0.647 OA
HETATM   11  O11 UNL     1     -34.252   4.578   6.399  1.00 20.00    -0.647 OA
ENDBRANCH   4   9
TORSDOF 2
ENDMDL
MODEL 5
REMARK VINA RESULT:      -5.0     10.303     11.307
REMARK  2 active torsions:
REMARK  status: ('A' for Active; 'I' for Inactive)
REMARK    1  A    between atoms: C2_2  and  C8_8 
REMARK    2  A    between atoms: C3_3  and  C7_7 
ROOT
HETATM    1  C1  UNL     1     -34.010  15.375  -3.628  1.00 20.00    -0.062 A 
HETATM    2  C2  UNL     1     -34.288  16.437  -2.904  1.00 20.00    -0.076 C 
HETATM    3  C4  UNL     1     -33.107  14.782  -4.529  1.00 20.00     0.055 A 
HETATM    4  C7  UNL     1     -34.415  14.076  -4.010  1.00 20.00     0.120 A 
HETATM    5  C9  UNL     1     -35.523  16.535  -2.033  1.00 20.00     0.044 C 
ENDROOT
BRANCH   2   6
HETATM    6  C8  UNL     1     -33.399  17.661  -2.871  1.00 20.00     0.014 A 
HETATM    7  C5  UNL     1     -33.933  18.861  -2.195  1.00 20.00     0.010 A 
HETATM    8  C6  UNL     1     -32.843  18.053  -1.559  1.00 20.00     0.010 A 
ENDBRANCH   2   6
BRANCH   4   9
HETATM    9  C3  UNL     1     -35.542  14.028  -4.912  1.00 20.00     0.181 C 
HETATM   10  O10 UNL     1     -35.994  15.150  -5.271  1.00 20.00    -0.647 OA
HETATM   11  O11 UNL     1     -35.923  12.864  -5.221  1.00 20.00    -0.647 OA
ENDBRANCH   4   9
TORSDOF 2
ENDMDL
MODEL 6
REMARK VINA RESULT:      -4.9     10.499     11.237
REMARK  2 active torsions:
REMARK  status: ('A' for Active; 'I' for Inactive)
REMARK    1  A    between atoms: C2_2  and  C8_8 
REMARK    2  A    between atoms: C3_3  and  C7_7 
ROOT
HETATM    1  C1  UNL     1     -35.824  15.795  -3.680  1.00 20.00    -0.062 A 
HETATM    2  C2  UNL     1     -35.127  16.454  -2.781  1.00 20.00    -0.076 C 
HETATM    3  C4  UNL     1     -37.106  15.388  -4.094  1.00 20.00     0.055 A 
HETATM    4  C7  UNL     1     -35.783  15.035  -4.872  1.00 20.00     0.120 A 
HETATM    5  C9  UNL     1     -33.619  16.577  -2.842  1.00 20.00     0.044 C 
ENDROOT
BRANCH   2   6
HETATM    6  C8  UNL     1     -35.767  17.151  -1.600  1.00 20.00     0.014 A 
HETATM    7  C5  UNL     1     -34.891  17.471  -0.455  1.00 20.00     0.010 A 
HETATM    8  C6  UNL     1     -35.381  18.558  -1.362  1.00 20.00     0.010 A 
ENDBRANCH   2   6
BRANCH   4   9
HETATM    9  C3  UNL     1     -35.268  13.693  -4.723  1.00 20.00     0.181 C 
HETATM   10  O10 UNL     1     -34.183  13.600  -4.085  1.00 20.00    -0.647 OA
HETATM   11  O11 UNL     1     -35.976  12.793  -5.254  1.00 20.00    -0.647 OA
ENDBRANCH   4   9
TORSDOF 2
ENDMDL
MODEL 7
REMARK VINA RESULT:      -4.8     10.715     11.595
REMARK  2 active torsions:
REMARK  status: ('A' for Active; 'I' for Inactive)
REMARK    1  A    between atoms: C2_2  and  C8_8 
REMARK    2  A    between atoms: C3_3  and  C7_7 
ROOT
HETATM    1  C1  UNL     1     -35.708  15.853  -4.725  1.00 20.00    -0.062 A 
HETATM    2  C2  UNL     1     -34.680  16.031  -3.925  1.00 20.00    -0.076 C 
HETATM    3  C4  UNL     1     -36.961  16.340  -5.140  1.00 20.00     0.055 A 
HETATM    4  C7  UNL     1     -36.281  15.051  -5.738  1.00 20.00     0.120 A 
HETATM    5  C9  UNL     1     -33.487  15.098  -3.902  1.00 20.00     0.044 C 
ENDROOT
BRANCH   2   6
HETATM    6  C8  UNL     1     -34.592  17.186  -2.951  1.00 20.00     0.014 A 
HETATM    7  C5  UNL     1     -34.908  16.898  -1.537  1.00 20.00     0.010 A 
HETATM    8  C6  UNL     1     -33.493  17.148  -1.963  1.00 20.00     0.010 A 
ENDBRANCH   2   6
BRANCH   4   9
HETATM    9  C3  UNL     1     -36.785  13.772  -5.295  1.00 20.00     0.181 C 
HETATM   10  O10 UNL     1     -35.924  12.853  -5.211  1.00 20.00    -0.647 OA
HETATM   11  O11 UNL     1     -38.023  13.747  -5.049  1.00 20.00    -0.647 OA
ENDBRANCH   4   9
TORSDOF 2
ENDMDL
MODEL 8
REMARK VINA RESULT:      -4.7     11.136     11.734
REMARK  2 active torsions:
REMARK  status: ('A' for Active; 'I' for Inactive)
REMARK    1  A    between atoms: C2_2  and  C8_8 
REMARK    2  A    between atoms: C3_3  and  C7_7 
ROOT
HETATM    1  C1  UNL     1     -34.574  16.243  -2.740  1.00 20.00    -0.062 A 
HETATM    2  C2  UNL     1     -34.567  15.386  -3.737  1.00 20.00    -0.076 C 
HETATM    3  C4  UNL     1     -35.367  16.999  -1.857  1.00 20.00     0.055 A 
HETATM    4  C7  UNL     1     -33.792  17.009  -1.845  1.00 20.00     0.120 A 
HETATM    5  C9  UNL     1     -33.289  14.859  -4.356  1.00 20.00     0.044 C 
ENDROOT
BRANCH   2   6
HETATM    6  C8  UNL     1     -35.835  14.843  -4.358  1.00 20.00     0.014 A 
HETATM    7  C5  UNL     1     -35.919  14.857  -5.833  1.00 20.00     0.010 A 
HETATM    8  C6  UNL     1     -35.729  13.566  -5.095  1.00 20.00     0.010 A 
ENDBRANCH   2   6
BRANCH   4   9
HETATM    9  C3  UNL     1     -33.134  18.153  -2.432  1.00 20.00     0.181 C 
HETATM   10  O10 UNL     1     -33.348  18.325  -3.664  1.00 20.00    -0.647 OA
HETATM   11  O11 UNL     1     -32.432  18.830  -1.629  1.00 20.00    -0.647 OA
ENDBRANCH   4   9
TORSDOF 2
ENDMDL
MODEL 9
REMARK VINA RESULT:      -4.4     10.831     11.423
REMARK  2 active torsions:
REMARK  status: ('A' for Active; 'I' for Inactive)
REMARK    1  A    between atoms: C2_2  and  C8_8 
REMARK    2  A    between atoms: C3_3  and  C7_7 
ROOT
HETATM    1  C1  UNL     1     -33.385  18.262  -0.381  1.00 20.00    -0.062 A 
HETATM    2  C2  UNL     1     -34.171  17.509  -1.118  1.00 20.00    -0.076 C 
HETATM    3  C4  UNL     1     -32.074  18.728  -0.176  1.00 20.00     0.055 A 
HETATM    4  C7  UNL     1     -33.298  19.139   0.724  1.00 20.00     0.120 A 
HETATM    5  C9  UNL     1     -35.655  17.365  -0.850  1.00 20.00     0.044 C 
ENDROOT
BRANCH   2   6
HETATM    6  C8  UNL     1     -33.669  16.717  -2.305  1.00 20.00     0.014 A 
HETATM    7  C5  UNL     1     -34.679  15.999  -3.109  1.00 20.00     0.010 A 
HETATM    8  C6  UNL     1     -34.012  17.228  -3.648  1.00 20.00     0.010 A 
ENDBRANCH   2   6
BRANCH   4   9
HETATM    9  C3  UNL     1     -33.408  18.507   2.018  1.00 20.00     0.181 C 
HETATM   10  O10 UNL     1     -34.565  18.106   2.325  1.00 20.00    -0.647 OA
HETATM   11  O11 UNL     1     -32.328  18.440   2.668  1.00 20.00    -0.647 OA
ENDBRANCH   4   9
TORSDOF 2
ENDMDL
