MODEL 1
REMARK VINA RESULT:      -4.8      0.000      0.000
REMARK  2 active torsions:
REMARK  status: ('A' for Active; 'I' for Inactive)
REMARK    1  A    between atoms: C4_4  and  C10_10 
REMARK    2  A    between atoms: C5_5  and  C10_10 
ROOT
HETATM    1  C1  UNL     1     -33.065  15.709  -4.820  1.00 20.00    -0.026 C 
HETATM    2  C2  UNL     1     -33.226  14.402  -4.566  1.00 20.00    -0.024 C 
HETATM    3  C6  UNL     1     -34.962  15.500  -3.519  1.00 20.00     0.018 C 
HETATM    4  C7  UNL     1     -35.313  15.914  -5.840  1.00 20.00     0.030 C 
HETATM    5  C8  UNL     1     -34.416  16.363  -4.660  1.00 20.00     0.010 C 
HETATM    6  C9  UNL     1     -34.693  14.181  -4.259  1.00 20.00     0.028 C 
HETATM    7  C10 UNL     1     -35.521  14.388  -5.560  1.00 20.00     0.044 C 
ENDROOT
BRANCH   7   8
HETATM    8  C4  UNL     1     -36.966  14.024  -5.397  1.00 20.00    -0.019 C 
HETATM    9  C3  UNL     1     -37.982  14.831  -5.720  1.00 20.00     0.008 C 
ENDBRANCH   7   8
BRANCH   7  10
HETATM   10  C5  UNL     1     -35.044  13.529  -6.698  1.00 20.00     0.136 C 
HETATM   11  C11 UNL     1     -34.479  14.245  -7.894  1.00 20.00     0.092 C 
HETATM   12  O12 UNL     1     -35.111  12.302  -6.652  1.00 20.00    -0.297 OA
ENDBRANCH   7  10
TORSDOF 2
ENDMDL
MODEL 2
REMARK VINA RESULT:      -4.7      1.093      1.189
REMARK  2 active torsions:
REMARK  status: ('A' for Active; 'I' for Inactive)
REMARK    1  A    between atoms: C4_4  and  C10_10 
REMARK    2  A    between atoms: C5_5  and  C10_10 
ROOT
HETATM    1  C1  UNL     1     -32.866  15.558  -5.219  1.00 20.00    -0.026 C 
HETATM    2  C2  UNL     1     -33.255  14.492  -4.504  1.00 20.00    -0.024 C 
HETATM    3  C6  UNL     1     -34.199  16.342  -3.504  1.00 20.00     0.018 C 
HETATM    4  C7  UNL     1     -35.199  16.263  -5.667  1.00 20.00     0.030 C 
HETATM    5  C8  UNL     1     -33.874  16.654  -4.967  1.00 20.00     0.010 C 
HETATM    6  C9  UNL     1     -34.537  14.871  -3.792  1.00 20.00     0.028 C 
HETATM    7  C10 UNL     1     -35.676  15.021  -4.841  1.00 20.00     0.044 C 
ENDROOT
BRANCH   7   8
HETATM    8  C4  UNL     1     -37.023  15.228  -4.216  1.00 20.00    -0.019 C 
HETATM    9  C3  UNL     1     -37.875  16.193  -4.577  1.00 20.00     0.008 C 
ENDBRANCH   7   8
BRANCH   7  10
HETATM   10  C5  UNL     1     -35.844  13.797  -5.698  1.00 20.00     0.136 C 
HETATM   11  C11 UNL     1     -35.861  14.012  -7.187  1.00 20.00     0.092 C 
HETATM   12  O12 UNL     1     -35.961  12.676  -5.206  1.00 20.00    -0.297 OA
ENDBRANCH   7  10
TORSDOF 2
ENDMDL
MODEL 3
REMARK VINA RESULT:      -4.6      1.144      2.747
REMARK  2 active torsions:
REMARK  status: ('A' for Active; 'I' for Inactive)
REMARK    1  A    between atoms: C4_4  and  C10_10 
REMARK    2  A    between atoms: C5_5  and  C10_10 
ROOT
HETATM    1  C1  UNL     1     -34.756  15.585  -7.918  1.00 20.00    -0.026 C 
HETATM    2  C2  UNL     1     -34.322  14.413  -7.432  1.00 20.00    -0.024 C 
HETATM    3  C6  UNL     1     -33.302  16.065  -6.189  1.00 20.00     0.018 C 
HETATM    4  C7  UNL     1     -35.626  16.316  -5.716  1.00 20.00     0.030 C 
HETATM    5  C8  UNL     1     -34.585  16.610  -6.824  1.00 20.00     0.010 C 
HETATM    6  C9  UNL     1     -33.881  14.653  -6.003  1.00 20.00     0.028 C 
HETATM    7  C10 UNL     1     -35.132  14.951  -5.128  1.00 20.00     0.044 C 
ENDROOT
BRANCH   7   8
HETATM    8  C4  UNL     1     -34.817  15.035  -3.665  1.00 20.00    -0.019 C 
HETATM    9  C3  UNL     1     -35.091  16.097  -2.900  1.00 20.00     0.008 C 
ENDBRANCH   7   8
BRANCH   7  10
HETATM   10  C5  UNL     1     -36.180  13.877  -5.224  1.00 20.00     0.136 C 
HETATM   11  C11 UNL     1     -37.591  14.330  -5.483  1.00 20.00     0.092 C 
HETATM   12  O12 UNL     1     -35.897  12.686  -5.100  1.00 20.00    -0.297 OA
ENDBRANCH   7  10
TORSDOF 2
ENDMDL
MODEL 4
REMARK VINA RESULT:      -4.5      1.000      2.613
REMARK  2 active torsions:
REMARK  status: ('A' for Active; 'I' for Inactive)
REMARK    1  A    between atoms: C4_4  and  C10_10 
REMARK    2  A    between atoms: C5_5  and  C10_10 
ROOT
HETATM    1  C1  UNL     1     -34.575  15.805  -3.024  1.00 20.00    -0.026 C 
HETATM    2  C2  UNL     1     -35.690  16.156  -3.680  1.00 20.00    -0.024 C 
HETATM    3  C6  UNL     1     -33.914  16.909  -4.942  1.00 20.00     0.018 C 
HETATM    4  C7  UNL     1     -33.689  14.535  -4.960  1.00 20.00     0.030 C 
HETATM    5  C8  UNL     1     -33.458  15.760  -4.039  1.00 20.00     0.010 C 
HETATM    6  C9  UNL     1     -35.321  16.323  -5.140  1.00 20.00     0.028 C 
HETATM    7  C10 UNL     1     -34.986  14.928  -5.743  1.00 20.00     0.044 C 
ENDROOT
BRANCH   7   8
HETATM    8  C4  UNL     1     -34.773  14.968  -7.226  1.00 20.00    -0.019 C 
HETATM    9  C3  UNL     1     -34.146  14.012  -7.918  1.00 20.00     0.008 C 
ENDBRANCH   7   8
BRANCH   7  10
HETATM   10  C5  UNL     1     -36.093  13.929  -5.550  1.00 20.00     0.136 C 
HETATM   11  C11 UNL     1     -37.482  14.382  -5.912  1.00 20.00     0.092 C 
HETATM   12  O12 UNL     1     -35.875  12.798  -5.119  1.00 20.00    -0.297 OA
ENDBRANCH   7  10
TORSDOF 2
ENDMDL
MODEL 5
REMARK VINA RESULT:      -4.4      1.989      3.487
REMARK  2 active torsions:
REMARK  status: ('A' for Active; 'I' for Inactive)
REMARK    1  A    between atoms: C4_4  and  C10_10 
REMARK    2  A    between atoms: C5_5  and  C10_10 
ROOT
HETATM    1  C1  UNL     1     -33.896  14.827  -6.370  1.00 20.00    -0.026 C 
HETATM    2  C2  UNL     1     -34.824  14.203  -5.631  1.00 20.00    -0.024 C 
HETATM    3  C6  UNL     1     -32.980  14.487  -4.276  1.00 20.00     0.018 C 
HETATM    4  C7  UNL     1     -33.703  16.706  -4.765  1.00 20.00     0.030 C 
HETATM    5  C8  UNL     1     -32.953  15.515  -5.411  1.00 20.00     0.010 C 
HETATM    6  C9  UNL     1     -34.514  14.495  -4.177  1.00 20.00     0.028 C 
HETATM    7  C10 UNL     1     -34.791  15.999  -3.889  1.00 20.00     0.044 C 
ENDROOT
BRANCH   7   8
HETATM    8  C4  UNL     1     -34.675  16.347  -2.436  1.00 20.00    -0.019 C 
HETATM    9  C3  UNL     1     -33.785  17.214  -1.943  1.00 20.00     0.008 C 
ENDBRANCH   7   8
BRANCH   7  10
HETATM   10  C5  UNL     1     -36.185  16.416  -4.265  1.00 20.00     0.136 C 
HETATM   11  C11 UNL     1     -36.311  17.574  -5.219  1.00 20.00     0.092 C 
HETATM   12  O12 UNL     1     -37.175  15.839  -3.817  1.00 20.00    -0.297 OA
ENDBRANCH   7  10
TORSDOF 2
ENDMDL
MODEL 6
REMARK VINA RESULT:      -4.4      1.688      3.097
REMARK  2 active torsions:
REMARK  status: ('A' for Active; 'I' for Inactive)
REMARK    1  A    between atoms: C4_4  and  C10_10 
REMARK    2  A    between atoms: C5_5  and  C10_10 
ROOT
HETATM    1  C1  UNL     1     -34.776  16.411  -7.244  1.00 20.00    -0.026 C 
HETATM    2  C2  UNL     1     -33.623  15.871  -6.823  1.00 20.00    -0.024 C 
HETATM    3  C6  UNL     1     -33.920  17.818  -5.625  1.00 20.00     0.018 C 
HETATM    4  C7  UNL     1     -35.743  16.430  -4.963  1.00 20.00     0.030 C 
HETATM    5  C8  UNL     1     -35.271  17.316  -6.142  1.00 20.00     0.010 C 
HETATM    6  C9  UNL     1     -33.361  16.400  -5.428  1.00 20.00     0.028 C 
HETATM    7  C10 UNL     1     -34.407  15.794  -4.450  1.00 20.00     0.044 C 
ENDROOT
BRANCH   7   8
HETATM    8  C4  UNL     1     -34.126  16.125  -3.015  1.00 20.00    -0.019 C 
HETATM    9  C3  UNL     1     -35.036  16.619  -2.169  1.00 20.00     0.008 C 
ENDBRANCH   7   8
BRANCH   7  10
HETATM   10  C5  UNL     1     -34.439  14.292  -4.489  1.00 20.00     0.136 C 
HETATM   11  C11 UNL     1     -35.742  13.654  -4.890  1.00 20.00     0.092 C 
HETATM   12  O12 UNL     1     -33.450  13.617  -4.209  1.00 20.00    -0.297 OA
ENDBRANCH   7  10
TORSDOF 2
ENDMDL
MODEL 7
REMARK VINA RESULT:      -4.3      1.523      2.878
REMARK  2 active torsions:
REMARK  status: ('A' for Active; 'I' for Inactive)
REMARK    1  A    between atoms: C4_4  and  C10_10 
REMARK    2  A    between atoms: C5_5  and  C10_10 
ROOT
HETATM    1  C1  UNL     1     -34.279  16.697  -2.298  1.00 20.00    -0.026 C 
HETATM    2  C2  UNL     1     -35.524  16.371  -2.676  1.00 20.00    -0.024 C 
HETATM    3  C6  UNL     1     -34.770  17.953  -4.174  1.00 20.00     0.018 C 
HETATM    4  C7  UNL     1     -33.320  16.089  -4.501  1.00 20.00     0.030 C 
HETATM    5  C8  UNL     1     -33.578  17.254  -3.514  1.00 20.00     0.010 C 
HETATM    6  C9  UNL     1     -35.645  16.690  -4.152  1.00 20.00     0.028 C 
HETATM    7  C10 UNL     1     -34.763  15.696  -4.961  1.00 20.00     0.044 C 
ENDROOT
BRANCH   7   8
HETATM    8  C4  UNL     1     -34.950  15.822  -6.443  1.00 20.00    -0.019 C 
HETATM    9  C3  UNL     1     -33.959  15.711  -7.334  1.00 20.00     0.008 C 
ENDBRANCH   7   8
BRANCH   7  10
HETATM   10  C5  UNL     1     -35.085  14.258  -4.664  1.00 20.00     0.136 C 
HETATM   11  C11 UNL     1     -36.392  13.734  -5.196  1.00 20.00     0.092 C 
HETATM   12  O12 UNL     1     -34.318  13.544  -4.021  1.00 20.00    -0.297 OA
ENDBRANCH   7  10
TORSDOF 2
ENDMDL
MODEL 8
REMARK VINA RESULT:      -4.3      1.619      3.444
REMARK  2 active torsions:
REMARK  status: ('A' for Active; 'I' for Inactive)
REMARK    1  A    between atoms: C4_4  and  C10_10 
REMARK    2  A    between atoms: C5_5  and  C10_10 
ROOT
HETATM    1  C1  UNL     1     -35.480  13.485  -6.598  1.00 20.00    -0.026 C 
HETATM    2  C2  UNL     1     -35.696  14.759  -6.954  1.00 20.00    -0.024 C 
HETATM    3  C6  UNL     1     -37.015  14.355  -5.107  1.00 20.00     0.018 C 
HETATM    4  C7  UNL     1     -34.783  14.114  -4.304  1.00 20.00     0.030 C 
HETATM    5  C8  UNL     1     -35.850  13.362  -5.139  1.00 20.00     0.010 C 
HETATM    6  C9  UNL     1     -36.187  15.494  -5.723  1.00 20.00     0.028 C 
HETATM    7  C10 UNL     1     -35.022  15.609  -4.700  1.00 20.00     0.044 C 
ENDROOT
BRANCH   7   8
HETATM    8  C4  UNL     1     -35.362  16.469  -3.521  1.00 20.00    -0.019 C 
HETATM    9  C3  UNL     1     -34.706  16.436  -2.356  1.00 20.00     0.008 C 
ENDBRANCH   7   8
BRANCH   7  10
HETATM   10  C5  UNL     1     -33.793  16.247  -5.286  1.00 20.00     0.136 C 
HETATM   11  C11 UNL     1     -33.931  17.668  -5.764  1.00 20.00     0.092 C 
HETATM   12  O12 UNL     1     -32.727  15.639  -5.369  1.00 20.00    -0.297 OA
ENDBRANCH   7  10
TORSDOF 2
ENDMDL
MODEL 9
REMARK VINA RESULT:      -4.2      1.394      3.024
REMARK  2 active torsions:
REMARK  status: ('A' for Active; 'I' for Inactive)
REMARK    1  A    between atoms: C4_4  and  C10_10 
REMARK    2  A    between atoms: C5_5  and  C10_10 
ROOT
HETATM    1  C1  UNL     1     -34.072  14.126  -7.614  1.00 20.00    -0.026 C 
HETATM    2  C2  UNL     1     -33.893  15.271  -6.939  1.00 20.00    -0.024 C 
HETATM    3  C6  UNL     1     -36.082  15.263  -7.663  1.00 20.00     0.018 C 
HETATM    4  C7  UNL     1     -35.949  13.417  -6.159  1.00 20.00     0.030 C 
HETATM    5  C8  UNL     1     -35.552  13.827  -7.599  1.00 20.00     0.010 C 
HETATM    6  C9  UNL     1     -35.254  15.724  -6.453  1.00 20.00     0.028 C 
HETATM    7  C10 UNL     1     -35.754  14.745  -5.352  1.00 20.00     0.044 C 
ENDROOT
BRANCH   7   8
HETATM    8  C4  UNL     1     -37.016  15.206  -4.689  1.00 20.00    -0.019 C 
HETATM    9  C3  UNL     1     -38.212  14.637  -4.878  1.00 20.00     0.008 C 
ENDBRANCH   7   8
BRANCH   7  10
HETATM   10  C5  UNL     1     -34.774  14.588  -4.224  1.00 20.00     0.136 C 
HETATM   11  C11 UNL     1     -34.534  15.799  -3.363  1.00 20.00     0.092 C 
HETATM   12  O12 UNL     1     -34.197  13.522  -4.012  1.00 20.00    -0.297 OA
ENDBRANCH   7  10
TORSDOF 2
ENDMDL
