MODEL 1
REMARK VINA RESULT:      -5.4      0.000      0.000
REMARK  1 active torsions:
REMARK  status: ('A' for Active; 'I' for Inactive)
REMARK    1  A    between atoms: C3_3  and  C7_7 
ROOT
HETATM    1  C1  UNL     1     -32.395   8.022   3.855  1.00 20.00    -0.019 C 
HETATM    2  C2  UNL     1     -32.586   8.046   2.524  1.00 20.00    -0.087 C 
HETATM    3  C4  UNL     1     -33.455   7.035   1.824  1.00 20.00     0.034 C 
HETATM    4  C5  UNL     1     -33.763   5.810   2.684  1.00 20.00     0.017 C 
HETATM    5  C6  UNL     1     -33.049   7.030   4.789  1.00 20.00     0.015 C 
HETATM    6  C7  UNL     1     -34.168   6.218   4.102  1.00 20.00     0.062 C 
HETATM    7  C8  UNL     1     -31.941   9.081   1.650  1.00 20.00     0.043 C 
HETATM    8  C10 UNL     1     -33.596   7.762   6.020  1.00 20.00     0.015 C 
ENDROOT
BRANCH   6   9
HETATM    9  C3  UNL     1     -34.468   4.981   4.895  1.00 20.00     0.127 C 
HETATM   10  C9  UNL     1     -34.072   3.668   4.275  1.00 20.00     0.091 C 
HETATM   11  O11 UNL     1     -35.010   5.036   5.997  1.00 20.00    -0.298 OA
ENDBRANCH   6   9
TORSDOF 1
ENDMDL
MODEL 2
REMARK VINA RESULT:      -5.3     11.342     12.127
REMARK  1 active torsions:
REMARK  status: ('A' for Active; 'I' for Inactive)
REMARK    1  A    between atoms: C3_3  and  C7_7 
ROOT
HETATM    1  C1  UNL     1     -33.357  16.297  -3.223  1.00 20.00    -0.019 C 
HETATM    2  C2  UNL     1     -34.189  16.839  -2.316  1.00 20.00    -0.087 C 
HETATM    3  C4  UNL     1     -35.652  16.485  -2.262  1.00 20.00     0.034 C 
HETATM    4  C5  UNL     1     -36.147  15.783  -3.526  1.00 20.00     0.017 C 
HETATM    5  C6  UNL     1     -33.772  15.260  -4.241  1.00 20.00     0.015 C 
HETATM    6  C7  UNL     1     -35.176  14.685  -3.963  1.00 20.00     0.062 C 
HETATM    7  C8  UNL     1     -33.712  17.837  -1.301  1.00 20.00     0.043 C 
HETATM    8  C10 UNL     1     -32.730  14.135  -4.287  1.00 20.00     0.015 C 
ENDROOT
BRANCH   6   9
HETATM    9  C3  UNL     1     -35.717  14.025  -5.198  1.00 20.00     0.127 C 
HETATM   10  C9  UNL     1     -35.975  14.916  -6.382  1.00 20.00     0.091 C 
HETATM   11  O11 UNL     1     -35.938  12.816  -5.239  1.00 20.00    -0.298 OA
ENDBRANCH   6   9
TORSDOF 1
ENDMDL
MODEL 3
REMARK VINA RESULT:      -5.3      2.077      4.567
REMARK  1 active torsions:
REMARK  status: ('A' for Active; 'I' for Inactive)
REMARK    1  A    between atoms: C3_3  and  C7_7 
ROOT
HETATM    1  C1  UNL     1     -33.956   5.349   3.905  1.00 20.00    -0.019 C 
HETATM    2  C2  UNL     1     -34.227   5.746   5.161  1.00 20.00    -0.087 C 
HETATM    3  C4  UNL     1     -33.845   7.113   5.666  1.00 20.00     0.034 C 
HETATM    4  C5  UNL     1     -32.821   7.817   4.776  1.00 20.00     0.017 C 
HETATM    5  C6  UNL     1     -33.291   6.220   2.864  1.00 20.00     0.015 C 
HETATM    6  C7  UNL     1     -33.200   7.698   3.299  1.00 20.00     0.062 C 
HETATM    7  C8  UNL     1     -34.926   4.850   6.141  1.00 20.00     0.043 C 
HETATM    8  C10 UNL     1     -34.042   6.098   1.532  1.00 20.00     0.015 C 
ENDROOT
BRANCH   6   9
HETATM    9  C3  UNL     1     -32.170   8.415   2.476  1.00 20.00     0.127 C 
HETATM   10  C9  UNL     1     -32.678   9.234   1.321  1.00 20.00     0.091 C 
HETATM   11  O11 UNL     1     -30.970   8.337   2.734  1.00 20.00    -0.298 OA
ENDBRANCH   6   9
TORSDOF 1
ENDMDL
MODEL 4
REMARK VINA RESULT:      -5.2      2.348      4.240
REMARK  1 active torsions:
REMARK  status: ('A' for Active; 'I' for Inactive)
REMARK    1  A    between atoms: C3_3  and  C7_7 
ROOT
HETATM    1  C1  UNL     1     -33.625   7.163   4.878  1.00 20.00    -0.019 C 
HETATM    2  C2  UNL     1     -34.043   5.935   4.523  1.00 20.00    -0.087 C 
HETATM    3  C4  UNL     1     -33.866   5.404   3.125  1.00 20.00     0.034 C 
HETATM    4  C5  UNL     1     -33.537   6.495   2.106  1.00 20.00     0.017 C 
HETATM    5  C6  UNL     1     -32.906   8.116   3.951  1.00 20.00     0.015 C 
HETATM    6  C7  UNL     1     -32.457   7.440   2.638  1.00 20.00     0.062 C 
HETATM    7  C8  UNL     1     -34.718   5.015   5.499  1.00 20.00     0.043 C 
HETATM    8  C10 UNL     1     -31.703   8.733   4.676  1.00 20.00     0.015 C 
ENDROOT
BRANCH   6   9
HETATM    9  C3  UNL     1     -32.168   8.479   1.596  1.00 20.00     0.127 C 
HETATM   10  C9  UNL     1     -33.162   9.600   1.464  1.00 20.00     0.091 C 
HETATM   11  O11 UNL     1     -31.166   8.418   0.885  1.00 20.00    -0.298 OA
ENDBRANCH   6   9
TORSDOF 1
ENDMDL
MODEL 5
REMARK VINA RESULT:      -5.1     11.580     12.374
REMARK  1 active torsions:
REMARK  status: ('A' for Active; 'I' for Inactive)
REMARK    1  A    between atoms: C3_3  and  C7_7 
ROOT
HETATM    1  C1  UNL     1     -35.922  16.246  -2.987  1.00 20.00    -0.019 C 
HETATM    2  C2  UNL     1     -34.633  16.481  -2.684  1.00 20.00    -0.087 C 
HETATM    3  C4  UNL     1     -33.504  15.808  -3.420  1.00 20.00     0.034 C 
HETATM    4  C5  UNL     1     -33.957  14.598  -4.236  1.00 20.00     0.017 C 
HETATM    5  C6  UNL     1     -36.379  15.335  -4.103  1.00 20.00     0.015 C 
HETATM    6  C7  UNL     1     -35.223  14.913  -5.035  1.00 20.00     0.062 C 
HETATM    7  C8  UNL     1     -34.237  17.427  -1.589  1.00 20.00     0.043 C 
HETATM    8  C10 UNL     1     -37.492  16.020  -4.906  1.00 20.00     0.015 C 
ENDROOT
BRANCH   6   9
HETATM    9  C3  UNL     1     -35.613  13.698  -5.823  1.00 20.00     0.127 C 
HETATM   10  C9  UNL     1     -35.565  13.820  -7.322  1.00 20.00     0.091 C 
HETATM   11  O11 UNL     1     -35.955  12.654  -5.271  1.00 20.00    -0.298 OA
ENDBRANCH   6   9
TORSDOF 1
ENDMDL
MODEL 6
REMARK VINA RESULT:      -4.8     11.969     12.429
REMARK  1 active torsions:
REMARK  status: ('A' for Active; 'I' for Inactive)
REMARK    1  A    between atoms: C3_3  and  C7_7 
ROOT
HETATM    1  C1  UNL     1     -33.375  16.753  -2.906  1.00 20.00    -0.019 C 
HETATM    2  C2  UNL     1     -34.141  17.145  -1.872  1.00 20.00    -0.087 C 
HETATM    3  C4  UNL     1     -35.612  16.831  -1.805  1.00 20.00     0.034 C 
HETATM    4  C5  UNL     1     -36.193  16.387  -3.147  1.00 20.00     0.017 C 
HETATM    5  C6  UNL     1     -33.877  15.932  -4.071  1.00 20.00     0.015 C 
HETATM    6  C7  UNL     1     -35.288  15.358  -3.827  1.00 20.00     0.062 C 
HETATM    7  C8  UNL     1     -33.578  17.926  -0.721  1.00 20.00     0.043 C 
HETATM    8  C10 UNL     1     -32.884  14.803  -4.375  1.00 20.00     0.015 C 
ENDROOT
BRANCH   6   9
HETATM    9  C3  UNL     1     -35.912  14.951  -5.129  1.00 20.00     0.127 C 
HETATM   10  C9  UNL     1     -36.161  13.481  -5.330  1.00 20.00     0.091 C 
HETATM   11  O11 UNL     1     -36.205  15.779  -5.990  1.00 20.00    -0.298 OA
ENDBRANCH   6   9
TORSDOF 1
ENDMDL
MODEL 7
REMARK VINA RESULT:      -4.8      1.218      2.346
REMARK  1 active torsions:
REMARK  status: ('A' for Active; 'I' for Inactive)
REMARK    1  A    between atoms: C3_3  and  C7_7 
ROOT
HETATM    1  C1  UNL     1     -33.023   7.163   1.976  1.00 20.00    -0.019 C 
HETATM    2  C2  UNL     1     -32.065   8.093   2.139  1.00 20.00    -0.087 C 
HETATM    3  C4  UNL     1     -31.633   8.561   3.504  1.00 20.00     0.034 C 
HETATM    4  C5  UNL     1     -32.616   8.180   4.609  1.00 20.00     0.017 C 
HETATM    5  C6  UNL     1     -33.730   6.463   3.113  1.00 20.00     0.015 C 
HETATM    6  C7  UNL     1     -33.057   6.721   4.478  1.00 20.00     0.062 C 
HETATM    7  C8  UNL     1     -31.369   8.726   0.971  1.00 20.00     0.043 C 
HETATM    8  C10 UNL     1     -33.805   4.958   2.828  1.00 20.00     0.015 C 
ENDROOT
BRANCH   6   9
HETATM    9  C3  UNL     1     -34.009   6.401   5.592  1.00 20.00     0.127 C 
HETATM   10  C9  UNL     1     -34.629   5.031   5.578  1.00 20.00     0.091 C 
HETATM   11  O11 UNL     1     -34.270   7.219   6.472  1.00 20.00    -0.298 OA
ENDBRANCH   6   9
TORSDOF 1
ENDMDL
MODEL 8
REMARK VINA RESULT:      -4.8     11.460     12.477
REMARK  1 active torsions:
REMARK  status: ('A' for Active; 'I' for Inactive)
REMARK    1  A    between atoms: C3_3  and  C7_7 
ROOT
HETATM    1  C1  UNL     1     -33.708  16.319  -3.181  1.00 20.00    -0.019 C 
HETATM    2  C2  UNL     1     -34.174  17.037  -2.144  1.00 20.00    -0.087 C 
HETATM    3  C4  UNL     1     -35.648  17.165  -1.861  1.00 20.00     0.034 C 
HETATM    4  C5  UNL     1     -36.525  16.743  -3.039  1.00 20.00     0.017 C 
HETATM    5  C6  UNL     1     -34.582  15.538  -4.134  1.00 20.00     0.015 C 
HETATM    6  C7  UNL     1     -36.040  15.424  -3.643  1.00 20.00     0.062 C 
HETATM    7  C8  UNL     1     -33.255  17.762  -1.205  1.00 20.00     0.043 C 
HETATM    8  C10 UNL     1     -33.982  14.145  -4.363  1.00 20.00     0.015 C 
ENDROOT
BRANCH   6   9
HETATM    9  C3  UNL     1     -36.942  15.054  -4.784  1.00 20.00     0.127 C 
HETATM   10  C9  UNL     1     -36.957  15.988  -5.963  1.00 20.00     0.091 C 
HETATM   11  O11 UNL     1     -37.633  14.038  -4.757  1.00 20.00    -0.298 OA
ENDBRANCH   6   9
TORSDOF 1
ENDMDL
MODEL 9
REMARK VINA RESULT:      -4.7     12.042     12.815
REMARK  1 active torsions:
REMARK  status: ('A' for Active; 'I' for Inactive)
REMARK    1  A    between atoms: C3_3  and  C7_7 
ROOT
HETATM    1  C1  UNL     1     -35.572  17.048  -0.821  1.00 20.00    -0.019 C 
HETATM    2  C2  UNL     1     -34.742  17.780  -0.057  1.00 20.00    -0.087 C 
HETATM    3  C4  UNL     1     -33.417  18.281  -0.571  1.00 20.00     0.034 C 
HETATM    4  C5  UNL     1     -32.964  17.576  -1.849  1.00 20.00     0.017 C 
HETATM    5  C6  UNL     1     -35.302  16.688  -2.263  1.00 20.00     0.015 C 
HETATM    6  C7  UNL     1     -34.110  17.469  -2.856  1.00 20.00     0.062 C 
HETATM    7  C8  UNL     1     -35.080  18.141   1.360  1.00 20.00     0.043 C 
HETATM    8  C10 UNL     1     -36.566  16.922  -3.100  1.00 20.00     0.015 C 
ENDROOT
BRANCH   6   9
HETATM    9  C3  UNL     1     -33.606  16.782  -4.091  1.00 20.00     0.127 C 
HETATM   10  C9  UNL     1     -33.400  15.294  -4.000  1.00 20.00     0.091 C 
HETATM   11  O11 UNL     1     -33.374  17.404  -5.126  1.00 20.00    -0.298 OA
ENDBRANCH   6   9
TORSDOF 1
ENDMDL
