MODEL 1
REMARK VINA RESULT:      -5.5      0.000      0.000
REMARK  3 active torsions:
REMARK  status: ('A' for Active; 'I' for Inactive)
REMARK    1  A    between atoms: C4_4  and  C5_5 
REMARK    2  A    between atoms: C6_6  and  C9_9 
REMARK    3  A    between atoms: C7_7  and  C10_10 
ROOT
HETATM    1  C1  UNL     1     -34.409   6.206   5.865  1.00 20.00    -0.029 C 
HETATM    2  C2  UNL     1     -33.882   7.350   5.420  1.00 20.00    -0.021 C 
HETATM    3  C8  UNL     1     -34.369   5.130   4.834  1.00 20.00     0.039 C 
HETATM    4  C9  UNL     1     -33.406   7.241   4.005  1.00 20.00     0.041 C 
HETATM    5  C10 UNL     1     -33.478   5.724   3.735  1.00 20.00     0.062 C 
ENDROOT
BRANCH   4   6
HETATM    6  C6  UNL     1     -32.023   7.776   3.819  1.00 20.00    -0.017 C 
HETATM    7  C5  UNL     1     -31.640   8.493   2.752  1.00 20.00    -0.004 C 
BRANCH   7   8
HETATM    8  C4  UNL     1     -32.529   8.825   1.664  1.00 20.00    -0.011 C 
HETATM    9  C3  UNL     1     -32.558  10.028   1.078  1.00 20.00     0.011 C 
ENDBRANCH   7   8
ENDBRANCH   4   6
BRANCH   5  10
HETATM   10  C7  UNL     1     -34.050   5.455   2.378  1.00 20.00     0.236 C 
HETATM   11  O11 UNL     1     -34.818   6.221   1.803  1.00 20.00    -0.306 OA
ENDBRANCH   5  10
TORSDOF 3
ENDMDL
MODEL 2
REMARK VINA RESULT:      -5.2      1.221      3.978
REMARK  3 active torsions:
REMARK  status: ('A' for Active; 'I' for Inactive)
REMARK    1  A    between atoms: C4_4  and  C5_5 
REMARK    2  A    between atoms: C6_6  and  C9_9 
REMARK    3  A    between atoms: C7_7  and  C10_10 
ROOT
HETATM    1  C1  UNL     1     -31.494   8.651   2.476  1.00 20.00    -0.029 C 
HETATM    2  C2  UNL     1     -31.554   8.333   3.772  1.00 20.00    -0.021 C 
HETATM    3  C8  UNL     1     -32.514   7.922   1.670  1.00 20.00     0.039 C 
HETATM    4  C9  UNL     1     -32.623   7.323   4.057  1.00 20.00     0.041 C 
HETATM    5  C10 UNL     1     -33.412   7.277   2.733  1.00 20.00     0.062 C 
ENDROOT
BRANCH   4   6
HETATM    6  C6  UNL     1     -33.490   7.712   5.210  1.00 20.00    -0.017 C 
HETATM    7  C5  UNL     1     -34.102   6.828   6.013  1.00 20.00    -0.004 C 
BRANCH   7   8
HETATM    8  C4  UNL     1     -33.986   5.398   5.844  1.00 20.00    -0.011 C 
HETATM    9  C3  UNL     1     -34.960   4.637   5.334  1.00 20.00     0.011 C 
ENDBRANCH   7   8
ENDBRANCH   4   6
BRANCH   5  10
HETATM   10  C7  UNL     1     -33.746   5.863   2.366  1.00 20.00     0.236 C 
HETATM   11  O11 UNL     1     -32.982   4.920   2.546  1.00 20.00    -0.306 OA
ENDBRANCH   5  10
TORSDOF 3
ENDMDL
MODEL 3
REMARK VINA RESULT:      -5.1      1.803      2.734
REMARK  3 active torsions:
REMARK  status: ('A' for Active; 'I' for Inactive)
REMARK    1  A    between atoms: C4_4  and  C5_5 
REMARK    2  A    between atoms: C6_6  and  C9_9 
REMARK    3  A    between atoms: C7_7  and  C10_10 
ROOT
HETATM    1  C1  UNL     1     -34.090   3.872   4.080  1.00 20.00    -0.029 C 
HETATM    2  C2  UNL     1     -33.445   4.687   3.241  1.00 20.00    -0.021 C 
HETATM    3  C8  UNL     1     -34.696   4.609   5.226  1.00 20.00     0.039 C 
HETATM    4  C9  UNL     1     -33.500   6.116   3.686  1.00 20.00     0.041 C 
HETATM    5  C10 UNL     1     -34.544   6.081   4.821  1.00 20.00     0.062 C 
ENDROOT
BRANCH   4   6
HETATM    6  C6  UNL     1     -33.900   7.047   2.588  1.00 20.00    -0.017 C 
HETATM    7  C5  UNL     1     -33.056   7.907   1.998  1.00 20.00    -0.004 C 
BRANCH   7   8
HETATM    8  C4  UNL     1     -31.664   8.026   2.366  1.00 20.00    -0.011 C 
HETATM    9  C3  UNL     1     -31.248   8.633   3.483  1.00 20.00     0.011 C 
ENDBRANCH   7   8
ENDBRANCH   4   6
BRANCH   5  10
HETATM   10  C7  UNL     1     -34.090   6.911   5.982  1.00 20.00     0.236 C 
HETATM   11  O11 UNL     1     -33.088   7.618   5.958  1.00 20.00    -0.306 OA
ENDBRANCH   5  10
TORSDOF 3
ENDMDL
MODEL 4
REMARK VINA RESULT:      -4.8      1.766      4.477
REMARK  3 active torsions:
REMARK  status: ('A' for Active; 'I' for Inactive)
REMARK    1  A    between atoms: C4_4  and  C5_5 
REMARK    2  A    between atoms: C6_6  and  C9_9 
REMARK    3  A    between atoms: C7_7  and  C10_10 
ROOT
HETATM    1  C1  UNL     1     -31.897   8.666   1.773  1.00 20.00    -0.029 C 
HETATM    2  C2  UNL     1     -32.687   7.624   1.501  1.00 20.00    -0.021 C 
HETATM    3  C8  UNL     1     -31.721   8.871   3.239  1.00 20.00     0.039 C 
HETATM    4  C9  UNL     1     -33.187   6.954   2.743  1.00 20.00     0.041 C 
HETATM    5  C10 UNL     1     -32.332   7.604   3.850  1.00 20.00     0.062 C 
ENDROOT
BRANCH   4   6
HETATM    6  C6  UNL     1     -33.016   5.470   2.707  1.00 20.00    -0.017 C 
HETATM    7  C5  UNL     1     -33.764   4.617   3.423  1.00 20.00    -0.004 C 
BRANCH   7   8
HETATM    8  C4  UNL     1     -34.819   5.047   4.311  1.00 20.00    -0.011 C 
HETATM    9  C3  UNL     1     -34.823   4.791   5.625  1.00 20.00     0.011 C 
ENDBRANCH   7   8
ENDBRANCH   4   6
BRANCH   5  10
HETATM   10  C7  UNL     1     -33.176   7.938   5.042  1.00 20.00     0.236 C 
HETATM   11  O11 UNL     1     -33.070   7.372   6.126  1.00 20.00    -0.306 OA
ENDBRANCH   5  10
TORSDOF 3
ENDMDL
MODEL 5
REMARK VINA RESULT:      -4.5      1.669      2.525
REMARK  3 active torsions:
REMARK  status: ('A' for Active; 'I' for Inactive)
REMARK    1  A    between atoms: C4_4  and  C5_5 
REMARK    2  A    between atoms: C6_6  and  C9_9 
REMARK    3  A    between atoms: C7_7  and  C10_10 
ROOT
HETATM    1  C1  UNL     1     -33.913   5.856   2.389  1.00 20.00    -0.029 C 
HETATM    2  C2  UNL     1     -32.643   6.267   2.420  1.00 20.00    -0.021 C 
HETATM    3  C8  UNL     1     -34.694   6.355   3.557  1.00 20.00     0.039 C 
HETATM    4  C9  UNL     1     -32.349   7.107   3.624  1.00 20.00     0.041 C 
HETATM    5  C10 UNL     1     -33.753   7.381   4.201  1.00 20.00     0.062 C 
ENDROOT
BRANCH   4   6
HETATM    6  C6  UNL     1     -31.630   8.373   3.283  1.00 20.00    -0.017 C 
HETATM    7  C5  UNL     1     -31.849   9.073   2.160  1.00 20.00    -0.004 C 
BRANCH   7   8
HETATM    8  C4  UNL     1     -32.808   8.675   1.156  1.00 20.00    -0.011 C 
HETATM    9  C3  UNL     1     -32.944   9.301  -0.019  1.00 20.00     0.011 C 
ENDBRANCH   7   8
ENDBRANCH   4   6
BRANCH   5  10
HETATM   10  C7  UNL     1     -33.748   7.240   5.692  1.00 20.00     0.236 C 
HETATM   11  O11 UNL     1     -34.430   6.417   6.296  1.00 20.00    -0.306 OA
ENDBRANCH   5  10
TORSDOF 3
ENDMDL
MODEL 6
REMARK VINA RESULT:      -4.4     11.147     11.895
REMARK  3 active torsions:
REMARK  status: ('A' for Active; 'I' for Inactive)
REMARK    1  A    between atoms: C4_4  and  C5_5 
REMARK    2  A    between atoms: C6_6  and  C9_9 
REMARK    3  A    between atoms: C7_7  and  C10_10 
ROOT
HETATM    1  C1  UNL     1     -35.606  17.527   0.044  1.00 20.00    -0.029 C 
HETATM    2  C2  UNL     1     -35.173  16.964  -1.087  1.00 20.00    -0.021 C 
HETATM    3  C8  UNL     1     -34.610  18.476   0.618  1.00 20.00     0.039 C 
HETATM    4  C9  UNL     1     -33.801  17.434  -1.463  1.00 20.00     0.041 C 
HETATM    5  C10 UNL     1     -33.568  18.615  -0.499  1.00 20.00     0.062 C 
ENDROOT
BRANCH   4   6
HETATM    6  C6  UNL     1     -33.707  17.854  -2.894  1.00 20.00    -0.017 C 
HETATM    7  C5  UNL     1     -33.593  16.993  -3.916  1.00 20.00    -0.004 C 
BRANCH   7   8
HETATM    8  C4  UNL     1     -33.548  15.560  -3.740  1.00 20.00    -0.011 C 
HETATM    9  C3  UNL     1     -34.547  14.744  -4.096  1.00 20.00     0.011 C 
ENDBRANCH   7   8
ENDBRANCH   4   6
BRANCH   5  10
HETATM   10  C7  UNL     1     -32.178  18.577   0.058  1.00 20.00     0.236 C 
HETATM   11  O11 UNL     1     -31.199  18.219  -0.589  1.00 20.00    -0.306 OA
ENDBRANCH   5  10
TORSDOF 3
ENDMDL
MODEL 7
REMARK VINA RESULT:      -4.3     10.998     11.688
REMARK  3 active torsions:
REMARK  status: ('A' for Active; 'I' for Inactive)
REMARK    1  A    between atoms: C4_4  and  C5_5 
REMARK    2  A    between atoms: C6_6  and  C9_9 
REMARK    3  A    between atoms: C7_7  and  C10_10 
ROOT
HETATM    1  C1  UNL     1     -32.982  15.329  -4.854  1.00 20.00    -0.029 C 
HETATM    2  C2  UNL     1     -33.563  15.905  -3.798  1.00 20.00    -0.021 C 
HETATM    3  C8  UNL     1     -33.956  14.571  -5.688  1.00 20.00     0.039 C 
HETATM    4  C9  UNL     1     -35.032  15.622  -3.736  1.00 20.00     0.041 C 
HETATM    5  C10 UNL     1     -35.316  14.989  -5.114  1.00 20.00     0.062 C 
ENDROOT
BRANCH   4   6
HETATM    6  C6  UNL     1     -35.847  16.853  -3.509  1.00 20.00    -0.017 C 
HETATM    7  C5  UNL     1     -35.991  17.440  -2.311  1.00 20.00    -0.004 C 
BRANCH   7   8
HETATM    8  C4  UNL     1     -35.370  16.939  -1.107  1.00 20.00    -0.011 C 
HETATM    9  C3  UNL     1     -34.719  17.719  -0.237  1.00 20.00     0.011 C 
ENDBRANCH   7   8
ENDBRANCH   4   6
BRANCH   5  10
HETATM   10  C7  UNL     1     -36.225  13.806  -4.975  1.00 20.00     0.236 C 
HETATM   11  O11 UNL     1     -35.899  12.664  -5.283  1.00 20.00    -0.306 OA
ENDBRANCH   5  10
TORSDOF 3
ENDMDL
MODEL 8
REMARK VINA RESULT:      -4.2     10.938     11.686
REMARK  3 active torsions:
REMARK  status: ('A' for Active; 'I' for Inactive)
REMARK    1  A    between atoms: C4_4  and  C5_5 
REMARK    2  A    between atoms: C6_6  and  C9_9 
REMARK    3  A    between atoms: C7_7  and  C10_10 
ROOT
HETATM    1  C1  UNL     1     -36.666  14.618  -4.804  1.00 20.00    -0.029 C 
HETATM    2  C2  UNL     1     -36.550  15.744  -4.097  1.00 20.00    -0.021 C 
HETATM    3  C8  UNL     1     -35.374  13.881  -4.906  1.00 20.00     0.039 C 
HETATM    4  C9  UNL     1     -35.152  15.964  -3.609  1.00 20.00     0.041 C 
HETATM    5  C10 UNL     1     -34.469  14.614  -3.907  1.00 20.00     0.062 C 
ENDROOT
BRANCH   4   6
HETATM    6  C6  UNL     1     -35.096  16.308  -2.155  1.00 20.00    -0.017 C 
HETATM    7  C5  UNL     1     -34.215  17.172  -1.629  1.00 20.00    -0.004 C 
BRANCH   7   8
HETATM    8  C4  UNL     1     -33.221  17.864  -2.416  1.00 20.00    -0.011 C 
HETATM    9  C3  UNL     1     -33.267  19.177  -2.667  1.00 20.00     0.011 C 
ENDBRANCH   7   8
ENDBRANCH   4   6
BRANCH   5  10
HETATM   10  C7  UNL     1     -33.102  14.828  -4.481  1.00 20.00     0.236 C 
HETATM   11  O11 UNL     1     -32.835  15.726  -5.274  1.00 20.00    -0.306 OA
ENDBRANCH   5  10
TORSDOF 3
ENDMDL
MODEL 9
REMARK VINA RESULT:      -4.2     11.229     11.902
REMARK  3 active torsions:
REMARK  status: ('A' for Active; 'I' for Inactive)
REMARK    1  A    between atoms: C4_4  and  C5_5 
REMARK    2  A    between atoms: C6_6  and  C9_9 
REMARK    3  A    between atoms: C7_7  and  C10_10 
ROOT
HETATM    1  C1  UNL     1     -34.067  17.490  -1.070  1.00 20.00    -0.029 C 
HETATM    2  C2  UNL     1     -33.298  17.346  -2.152  1.00 20.00    -0.021 C 
HETATM    3  C8  UNL     1     -35.441  16.952  -1.280  1.00 20.00     0.039 C 
HETATM    4  C9  UNL     1     -34.030  16.693  -3.283  1.00 20.00     0.041 C 
HETATM    5  C10 UNL     1     -35.326  16.197  -2.611  1.00 20.00     0.062 C 
ENDROOT
BRANCH   4   6
HETATM    6  C6  UNL     1     -33.257  15.572  -3.899  1.00 20.00    -0.017 C 
HETATM    7  C5  UNL     1     -33.081  15.428  -5.221  1.00 20.00    -0.004 C 
BRANCH   7   8
HETATM    8  C4  UNL     1     -33.625  16.347  -6.194  1.00 20.00    -0.011 C 
HETATM    9  C3  UNL     1     -34.704  16.077  -6.937  1.00 20.00     0.011 C 
ENDBRANCH   7   8
ENDBRANCH   4   6
BRANCH   5  10
HETATM   10  C7  UNL     1     -36.512  16.469  -3.484  1.00 20.00     0.236 C 
HETATM   11  O11 UNL     1     -37.103  15.597  -4.113  1.00 20.00    -0.306 OA
ENDBRANCH   5  10
TORSDOF 3
ENDMDL
