MODEL 1
REMARK VINA RESULT:      -6.7      0.000      0.000
REMARK  2 active torsions:
REMARK  status: ('A' for Active; 'I' for Inactive)
REMARK    1  A    between atoms: C3_3  and  C9_9 
REMARK    2  A    between atoms: C9_9  and  N10_10 
ROOT
HETATM    1  C1  UNL     1     -33.158   6.961   3.811  1.00 20.00     0.040 C 
HETATM    2  C4  UNL     1     -33.547   5.915   2.790  1.00 20.00     0.057 C 
HETATM    3  C5  UNL     1     -33.614   4.550   3.460  1.00 20.00     0.006 C 
HETATM    4  C6  UNL     1     -34.610   4.517   4.623  1.00 20.00     0.004 C 
HETATM    5  C7  UNL     1     -34.769   5.862   5.335  1.00 20.00     0.043 C 
HETATM    6  C8  UNL     1     -33.516   6.720   5.256  1.00 20.00     0.217 C 
HETATM    7  N10 UNL     1     -32.534   8.041   3.470  1.00 20.00    -0.292 NA
HETATM    8  F11 UNL     1     -33.756   7.892   5.905  1.00 20.00    -0.243 F 
ENDROOT
BRANCH   7   9
HETATM    9  C9  UNL     1     -32.253   8.148   2.046  1.00 20.00     0.175 C 
BRANCH   9  10
HETATM   10  C3  UNL     1     -32.403   9.569   1.611  1.00 20.00    -0.015 C 
HETATM   11  C2  UNL     1     -32.737   9.939   0.370  1.00 20.00     0.008 C 
ENDBRANCH   9  10
ENDBRANCH   7   9
TORSDOF 2
ENDMDL
MODEL 2
REMARK VINA RESULT:      -6.5      1.651      2.230
REMARK  2 active torsions:
REMARK  status: ('A' for Active; 'I' for Inactive)
REMARK    1  A    between atoms: C3_3  and  C9_9 
REMARK    2  A    between atoms: C9_9  and  N10_10 
ROOT
HETATM    1  C1  UNL     1     -33.378   6.896   3.385  1.00 20.00     0.040 C 
HETATM    2  C4  UNL     1     -32.963   7.443   4.732  1.00 20.00     0.057 C 
HETATM    3  C5  UNL     1     -34.083   7.219   5.738  1.00 20.00     0.006 C 
HETATM    4  C6  UNL     1     -34.450   5.739   5.885  1.00 20.00     0.004 C 
HETATM    5  C7  UNL     1     -34.227   4.921   4.612  1.00 20.00     0.043 C 
HETATM    6  C8  UNL     1     -34.363   5.754   3.347  1.00 20.00     0.217 C 
HETATM    7  N10 UNL     1     -32.908   7.382   2.283  1.00 20.00    -0.292 NA
HETATM    8  F11 UNL     1     -34.139   4.947   2.274  1.00 20.00    -0.243 F 
ENDROOT
BRANCH   7   9
HETATM    9  C9  UNL     1     -31.967   8.477   2.463  1.00 20.00     0.175 C 
BRANCH   9  10
HETATM   10  C3  UNL     1     -31.918   9.305   1.219  1.00 20.00    -0.015 C 
HETATM   11  C2  UNL     1     -32.706  10.362   0.993  1.00 20.00     0.008 C 
ENDBRANCH   9  10
ENDBRANCH   7   9
TORSDOF 2
ENDMDL
MODEL 3
REMARK VINA RESULT:      -4.2     11.526     12.406
REMARK  2 active torsions:
REMARK  status: ('A' for Active; 'I' for Inactive)
REMARK    1  A    between atoms: C3_3  and  C9_9 
REMARK    2  A    between atoms: C9_9  and  N10_10 
ROOT
HETATM    1  C1  UNL     1     -34.282  15.449  -5.122  1.00 20.00     0.040 C 
HETATM    2  C4  UNL     1     -34.766  14.193  -4.432  1.00 20.00     0.057 C 
HETATM    3  C5  UNL     1     -35.866  13.549  -5.264  1.00 20.00     0.006 C 
HETATM    4  C6  UNL     1     -35.401  13.199  -6.681  1.00 20.00     0.004 C 
HETATM    5  C7  UNL     1     -34.315  14.134  -7.219  1.00 20.00     0.043 C 
HETATM    6  C8  UNL     1     -34.396  15.531  -6.624  1.00 20.00     0.217 C 
HETATM    7  N10 UNL     1     -33.778  16.435  -4.455  1.00 20.00    -0.292 NA
HETATM    8  F11 UNL     1     -33.391  16.282  -7.152  1.00 20.00    -0.243 F 
ENDROOT
BRANCH   7   9
HETATM    9  C9  UNL     1     -33.725  16.224  -3.017  1.00 20.00     0.175 C 
BRANCH   9  10
HETATM   10  C3  UNL     1     -34.610  17.214  -2.331  1.00 20.00    -0.015 C 
HETATM   11  C2  UNL     1     -35.270  16.966  -1.195  1.00 20.00     0.008 C 
ENDBRANCH   9  10
ENDBRANCH   7   9
TORSDOF 2
ENDMDL
MODEL 4
REMARK VINA RESULT:      -4.2     11.264     12.034
REMARK  2 active torsions:
REMARK  status: ('A' for Active; 'I' for Inactive)
REMARK    1  A    between atoms: C3_3  and  C9_9 
REMARK    2  A    between atoms: C9_9  and  N10_10 
ROOT
HETATM    1  C1  UNL     1     -35.766  15.235  -4.284  1.00 20.00     0.040 C 
HETATM    2  C4  UNL     1     -34.379  14.763  -3.908  1.00 20.00     0.057 C 
HETATM    3  C5  UNL     1     -33.520  15.961  -3.530  1.00 20.00     0.006 C 
HETATM    4  C6  UNL     1     -34.112  16.764  -2.368  1.00 20.00     0.004 C 
HETATM    5  C7  UNL     1     -35.640  16.714  -2.302  1.00 20.00     0.043 C 
HETATM    6  C8  UNL     1     -36.280  16.512  -3.667  1.00 20.00     0.217 C 
HETATM    7  N10 UNL     1     -36.506  14.571  -5.109  1.00 20.00    -0.292 NA
HETATM    8  F11 UNL     1     -37.631  16.472  -3.507  1.00 20.00    -0.243 F 
ENDROOT
BRANCH   7   9
HETATM    9  C9  UNL     1     -35.891  13.358  -5.627  1.00 20.00     0.175 C 
BRANCH   9  10
HETATM   10  C3  UNL     1     -35.582  13.533  -7.079  1.00 20.00    -0.015 C 
HETATM   11  C2  UNL     1     -34.360  13.788  -7.557  1.00 20.00     0.008 C 
ENDBRANCH   9  10
ENDBRANCH   7   9
TORSDOF 2
ENDMDL
MODEL 5
REMARK VINA RESULT:      -4.1     11.445     12.160
REMARK  2 active torsions:
REMARK  status: ('A' for Active; 'I' for Inactive)
REMARK    1  A    between atoms: C3_3  and  C9_9 
REMARK    2  A    between atoms: C9_9  and  N10_10 
ROOT
HETATM    1  C1  UNL     1     -35.143  14.683  -5.012  1.00 20.00     0.040 C 
HETATM    2  C4  UNL     1     -34.156  14.900  -6.137  1.00 20.00     0.057 C 
HETATM    3  C5  UNL     1     -34.314  13.796  -7.172  1.00 20.00     0.006 C 
HETATM    4  C6  UNL     1     -35.732  13.732  -7.748  1.00 20.00     0.004 C 
HETATM    5  C7  UNL     1     -36.815  14.191  -6.769  1.00 20.00     0.043 C 
HETATM    6  C8  UNL     1     -36.429  13.957  -5.317  1.00 20.00     0.217 C 
HETATM    7  N10 UNL     1     -34.905  15.104  -3.812  1.00 20.00    -0.292 NA
HETATM    8  F11 UNL     1     -37.444  14.402  -4.526  1.00 20.00    -0.243 F 
ENDROOT
BRANCH   7   9
HETATM    9  C9  UNL     1     -33.631  15.788  -3.657  1.00 20.00     0.175 C 
BRANCH   9  10
HETATM   10  C3  UNL     1     -33.732  16.794  -2.557  1.00 20.00    -0.015 C 
HETATM   11  C2  UNL     1     -34.740  16.842  -1.679  1.00 20.00     0.008 C 
ENDBRANCH   9  10
ENDBRANCH   7   9
TORSDOF 2
ENDMDL
MODEL 6
REMARK VINA RESULT:      -4.1     11.411     12.023
REMARK  2 active torsions:
REMARK  status: ('A' for Active; 'I' for Inactive)
REMARK    1  A    between atoms: C3_3  and  C9_9 
REMARK    2  A    between atoms: C9_9  and  N10_10 
ROOT
HETATM    1  C1  UNL     1     -34.100  18.032  -0.087  1.00 20.00     0.040 C 
HETATM    2  C4  UNL     1     -35.449  17.351  -0.145  1.00 20.00     0.057 C 
HETATM    3  C5  UNL     1     -36.004  17.444  -1.559  1.00 20.00     0.006 C 
HETATM    4  C6  UNL     1     -35.073  16.810  -2.597  1.00 20.00     0.004 C 
HETATM    5  C7  UNL     1     -33.591  16.885  -2.220  1.00 20.00     0.043 C 
HETATM    6  C8  UNL     1     -33.268  18.085  -1.344  1.00 20.00     0.217 C 
HETATM    7  N10 UNL     1     -33.655  18.560   1.007  1.00 20.00    -0.292 NA
HETATM    8  F11 UNL     1     -31.939  18.061  -1.055  1.00 20.00    -0.243 F 
ENDROOT
BRANCH   7   9
HETATM    9  C9  UNL     1     -34.555  18.437   2.143  1.00 20.00     0.175 C 
BRANCH   9  10
HETATM   10  C3  UNL     1     -33.760  18.304   3.401  1.00 20.00    -0.015 C 
HETATM   11  C2  UNL     1     -32.545  18.835   3.577  1.00 20.00     0.008 C 
ENDBRANCH   9  10
ENDBRANCH   7   9
TORSDOF 2
ENDMDL
MODEL 7
REMARK VINA RESULT:      -4.1      1.471      4.268
REMARK  2 active torsions:
REMARK  status: ('A' for Active; 'I' for Inactive)
REMARK    1  A    between atoms: C3_3  and  C9_9 
REMARK    2  A    between atoms: C9_9  and  N10_10 
ROOT
HETATM    1  C1  UNL     1     -33.462   7.238   4.005  1.00 20.00     0.040 C 
HETATM    2  C4  UNL     1     -33.369   6.742   2.580  1.00 20.00     0.057 C 
HETATM    3  C5  UNL     1     -32.893   7.872   1.678  1.00 20.00     0.006 C 
HETATM    4  C6  UNL     1     -31.533   8.430   2.108  1.00 20.00     0.004 C 
HETATM    5  C7  UNL     1     -31.274   8.328   3.613  1.00 20.00     0.043 C 
HETATM    6  C8  UNL     1     -32.555   8.365   4.432  1.00 20.00     0.217 C 
HETATM    7  N10 UNL     1     -34.291   6.718   4.850  1.00 20.00    -0.292 NA
HETATM    8  F11 UNL     1     -32.226   8.260   5.748  1.00 20.00    -0.243 F 
ENDROOT
BRANCH   7   9
HETATM    9  C9  UNL     1     -35.103   5.639   4.309  1.00 20.00     0.175 C 
BRANCH   9  10
HETATM   10  C3  UNL     1     -34.602   4.328   4.823  1.00 20.00    -0.015 C 
HETATM   11  C2  UNL     1     -33.797   3.513   4.133  1.00 20.00     0.008 C 
ENDBRANCH   9  10
ENDBRANCH   7   9
TORSDOF 2
ENDMDL
MODEL 8
REMARK VINA RESULT:      -4.0     11.015     11.731
REMARK  2 active torsions:
REMARK  status: ('A' for Active; 'I' for Inactive)
REMARK    1  A    between atoms: C3_3  and  C9_9 
REMARK    2  A    between atoms: C9_9  and  N10_10 
ROOT
HETATM    1  C1  UNL     1     -34.354  15.969  -3.316  1.00 20.00     0.040 C 
HETATM    2  C4  UNL     1     -35.803  16.204  -2.954  1.00 20.00     0.057 C 
HETATM    3  C5  UNL     1     -36.677  15.967  -4.178  1.00 20.00     0.006 C 
HETATM    4  C6  UNL     1     -36.520  14.553  -4.746  1.00 20.00     0.004 C 
HETATM    5  C7  UNL     1     -35.132  13.950  -4.518  1.00 20.00     0.043 C 
HETATM    6  C8  UNL     1     -34.040  15.006  -4.434  1.00 20.00     0.217 C 
HETATM    7  N10 UNL     1     -33.394  16.571  -2.692  1.00 20.00    -0.292 NA
HETATM    8  F11 UNL     1     -32.851  14.378  -4.222  1.00 20.00    -0.243 F 
ENDROOT
BRANCH   7   9
HETATM    9  C9  UNL     1     -33.835  17.470  -1.636  1.00 20.00     0.175 C 
BRANCH   9  10
HETATM   10  C3  UNL     1     -32.674  18.269  -1.140  1.00 20.00    -0.015 C 
HETATM   11  C2  UNL     1     -32.564  18.731   0.109  1.00 20.00     0.008 C 
ENDBRANCH   9  10
ENDBRANCH   7   9
TORSDOF 2
ENDMDL
MODEL 9
REMARK VINA RESULT:      -4.0     11.508     12.547
REMARK  2 active torsions:
REMARK  status: ('A' for Active; 'I' for Inactive)
REMARK    1  A    between atoms: C3_3  and  C9_9 
REMARK    2  A    between atoms: C9_9  and  N10_10 
ROOT
HETATM    1  C1  UNL     1     -35.277  15.217  -4.933  1.00 20.00     0.040 C 
HETATM    2  C4  UNL     1     -34.729  16.433  -5.646  1.00 20.00     0.057 C 
HETATM    3  C5  UNL     1     -33.541  16.027  -6.505  1.00 20.00     0.006 C 
HETATM    4  C6  UNL     1     -33.904  14.956  -7.538  1.00 20.00     0.004 C 
HETATM    5  C7  UNL     1     -35.032  14.025  -7.088  1.00 20.00     0.043 C 
HETATM    6  C8  UNL     1     -35.094  13.866  -5.577  1.00 20.00     0.217 C 
HETATM    7  N10 UNL     1     -35.891  15.316  -3.799  1.00 20.00    -0.292 NA
HETATM    8  F11 UNL     1     -36.127  13.033  -5.274  1.00 20.00    -0.243 F 
ENDROOT
BRANCH   7   9
HETATM    9  C9  UNL     1     -36.000  16.676  -3.292  1.00 20.00     0.175 C 
BRANCH   9  10
HETATM   10  C3  UNL     1     -35.320  16.771  -1.965  1.00 20.00    -0.015 C 
HETATM   11  C2  UNL     1     -34.015  17.015  -1.809  1.00 20.00     0.008 C 
ENDBRANCH   9  10
ENDBRANCH   7   9
TORSDOF 2
ENDMDL
