MODEL 1
REMARK VINA RESULT:      -6.5      0.000      0.000
REMARK  0 active torsions:
REMARK  status: ('A' for Active; 'I' for Inactive)
ROOT
HETATM    1  C1  UNL     1     -32.412   7.428   2.544  1.00 20.00     0.011 C 
HETATM    2  C2  UNL     1     -33.221   4.957   2.716  1.00 20.00     0.011 C 
HETATM    3  C3  UNL     1     -32.280   7.981   3.768  1.00 20.00     0.007 C 
HETATM    4  C4  UNL     1     -33.896   4.463   3.775  1.00 20.00     0.007 C 
HETATM    5  C5  UNL     1     -33.877   7.288   5.945  1.00 20.00     0.042 C 
HETATM    6  C6  UNL     1     -34.603   5.907   5.916  1.00 20.00     0.042 C 
HETATM    7  C7  UNL     1     -33.536   6.414   2.525  1.00 20.00     0.270 C 
HETATM    8  C8  UNL     1     -33.082   7.143   4.681  1.00 20.00     0.247 C 
HETATM    9  C9  UNL     1     -34.746   5.531   4.417  1.00 20.00     0.247 C 
HETATM   10  N10 UNL     1     -34.223   6.753   3.789  1.00 20.00     0.116 N 
ENDROOT
TORSDOF 0
ENDMDL
MODEL 2
REMARK VINA RESULT:      -5.9      0.847      3.509
REMARK  0 active torsions:
REMARK  status: ('A' for Active; 'I' for Inactive)
ROOT
HETATM    1  C1  UNL     1     -34.773   4.616   5.471  1.00 20.00     0.011 C 
HETATM    2  C2  UNL     1     -33.747   6.949   6.012  1.00 20.00     0.011 C 
HETATM    3  C3  UNL     1     -34.172   4.058   4.399  1.00 20.00     0.007 C 
HETATM    4  C4  UNL     1     -33.107   7.713   5.102  1.00 20.00     0.007 C 
HETATM    5  C5  UNL     1     -33.134   5.540   2.279  1.00 20.00     0.042 C 
HETATM    6  C6  UNL     1     -32.784   7.040   2.530  1.00 20.00     0.042 C 
HETATM    7  C7  UNL     1     -34.813   6.123   5.348  1.00 20.00     0.270 C 
HETATM    8  C8  UNL     1     -33.511   5.166   3.682  1.00 20.00     0.247 C 
HETATM    9  C9  UNL     1     -33.671   7.492   3.721  1.00 20.00     0.247 C 
HETATM   10  N10 UNL     1     -34.484   6.284   3.915  1.00 20.00     0.116 N 
ENDROOT
TORSDOF 0
ENDMDL
MODEL 3
REMARK VINA RESULT:      -5.6      0.809      1.622
REMARK  0 active torsions:
REMARK  status: ('A' for Active; 'I' for Inactive)
ROOT
HETATM    1  C1  UNL     1     -33.664   5.787   2.287  1.00 20.00     0.011 C 
HETATM    2  C2  UNL     1     -34.385   4.369   4.351  1.00 20.00     0.011 C 
HETATM    3  C3  UNL     1     -32.824   6.779   2.650  1.00 20.00     0.007 C 
HETATM    4  C4  UNL     1     -34.368   4.832   5.618  1.00 20.00     0.007 C 
HETATM    5  C5  UNL     1     -32.940   8.058   5.124  1.00 20.00     0.042 C 
HETATM    6  C6  UNL     1     -33.639   7.315   6.306  1.00 20.00     0.042 C 
HETATM    7  C7  UNL     1     -34.660   5.489   3.386  1.00 20.00     0.270 C 
HETATM    8  C8  UNL     1     -33.016   6.962   4.102  1.00 20.00     0.247 C 
HETATM    9  C9  UNL     1     -34.633   6.316   5.653  1.00 20.00     0.247 C 
HETATM   10  N10 UNL     1     -34.484   6.684   4.238  1.00 20.00     0.116 N 
ENDROOT
TORSDOF 0
ENDMDL
MODEL 4
REMARK VINA RESULT:      -5.5      0.944      2.079
REMARK  0 active torsions:
REMARK  status: ('A' for Active; 'I' for Inactive)
ROOT
HETATM    1  C1  UNL     1     -33.374   8.198   5.080  1.00 20.00     0.011 C 
HETATM    2  C2  UNL     1     -32.570   6.886   2.976  1.00 20.00     0.011 C 
HETATM    3  C3  UNL     1     -33.662   7.357   6.095  1.00 20.00     0.007 C 
HETATM    4  C4  UNL     1     -32.879   5.594   2.739  1.00 20.00     0.007 C 
HETATM    5  C5  UNL     1     -34.654   4.780   5.718  1.00 20.00     0.042 C 
HETATM    6  C6  UNL     1     -34.418   4.094   4.336  1.00 20.00     0.042 C 
HETATM    7  C7  UNL     1     -33.676   7.558   3.742  1.00 20.00     0.270 C 
HETATM    8  C8  UNL     1     -33.860   6.030   5.480  1.00 20.00     0.247 C 
HETATM    9  C9  UNL     1     -34.229   5.248   3.314  1.00 20.00     0.247 C 
HETATM   10  N10 UNL     1     -34.498   6.407   4.176  1.00 20.00     0.116 N 
ENDROOT
TORSDOF 0
ENDMDL
MODEL 5
REMARK VINA RESULT:      -5.1      0.812      2.799
REMARK  0 active torsions:
REMARK  status: ('A' for Active; 'I' for Inactive)
ROOT
HETATM    1  C1  UNL     1     -34.421   6.330   6.032  1.00 20.00     0.011 C 
HETATM    2  C2  UNL     1     -35.405   5.842   3.669  1.00 20.00     0.011 C 
HETATM    3  C3  UNL     1     -33.581   7.385   6.000  1.00 20.00     0.007 C 
HETATM    4  C4  UNL     1     -34.805   6.214   2.519  1.00 20.00     0.007 C 
HETATM    5  C5  UNL     1     -32.015   8.031   3.786  1.00 20.00     0.042 C 
HETATM    6  C6  UNL     1     -32.454   7.489   2.390  1.00 20.00     0.042 C 
HETATM    7  C7  UNL     1     -34.378   5.560   4.730  1.00 20.00     0.270 C 
HETATM    8  C8  UNL     1     -33.189   7.548   4.586  1.00 20.00     0.247 C 
HETATM    9  C9  UNL     1     -33.304   6.222   2.672  1.00 20.00     0.247 C 
HETATM   10  N10 UNL     1     -33.148   6.120   4.129  1.00 20.00     0.116 N 
ENDROOT
TORSDOF 0
ENDMDL
MODEL 6
REMARK VINA RESULT:      -4.4      0.982      2.662
REMARK  0 active torsions:
REMARK  status: ('A' for Active; 'I' for Inactive)
ROOT
HETATM    1  C1  UNL     1     -34.525   4.214   4.314  1.00 20.00     0.011 C 
HETATM    2  C2  UNL     1     -34.060   5.849   2.339  1.00 20.00     0.011 C 
HETATM    3  C3  UNL     1     -34.786   4.890   5.453  1.00 20.00     0.007 C 
HETATM    4  C4  UNL     1     -33.630   7.118   2.505  1.00 20.00     0.007 C 
HETATM    5  C5  UNL     1     -33.660   7.366   6.059  1.00 20.00     0.042 C 
HETATM    6  C6  UNL     1     -33.111   8.234   4.883  1.00 20.00     0.042 C 
HETATM    7  C7  UNL     1     -33.544   4.971   3.446  1.00 20.00     0.270 C 
HETATM    8  C8  UNL     1     -34.250   6.250   5.249  1.00 20.00     0.247 C 
HETATM    9  C9  UNL     1     -32.773   7.239   3.740  1.00 20.00     0.247 C 
HETATM   10  N10 UNL     1     -33.035   5.962   4.418  1.00 20.00     0.116 N 
ENDROOT
TORSDOF 0
ENDMDL
MODEL 7
REMARK VINA RESULT:      -4.2     11.942     13.139
REMARK  0 active torsions:
REMARK  status: ('A' for Active; 'I' for Inactive)
ROOT
HETATM    1  C1  UNL     1     -35.574  13.310  -6.361  1.00 20.00     0.011 C 
HETATM    2  C2  UNL     1     -34.266  15.239  -7.526  1.00 20.00     0.011 C 
HETATM    3  C3  UNL     1     -35.979  13.675  -5.126  1.00 20.00     0.007 C 
HETATM    4  C4  UNL     1     -33.637  16.227  -6.855  1.00 20.00     0.007 C 
HETATM    5  C5  UNL     1     -34.556  15.440  -3.505  1.00 20.00     0.042 C 
HETATM    6  C6  UNL     1     -33.543  16.413  -4.185  1.00 20.00     0.042 C 
HETATM    7  C7  UNL     1     -34.260  13.971  -6.719  1.00 20.00     0.270 C 
HETATM    8  C8  UNL     1     -35.133  14.823  -4.744  1.00 20.00     0.247 C 
HETATM    9  C9  UNL     1     -33.133  15.736  -5.521  1.00 20.00     0.247 C 
HETATM   10  N10 UNL     1     -33.830  14.450  -5.388  1.00 20.00     0.116 N 
ENDROOT
TORSDOF 0
ENDMDL
MODEL 8
REMARK VINA RESULT:      -4.1     12.015     12.540
REMARK  0 active torsions:
REMARK  status: ('A' for Active; 'I' for Inactive)
ROOT
HETATM    1  C1  UNL     1     -36.445  14.181  -5.353  1.00 20.00     0.011 C 
HETATM    2  C2  UNL     1     -34.092  14.903  -6.209  1.00 20.00     0.011 C 
HETATM    3  C3  UNL     1     -36.896  15.025  -4.401  1.00 20.00     0.007 C 
HETATM    4  C4  UNL     1     -33.234  15.656  -5.489  1.00 20.00     0.007 C 
HETATM    5  C5  UNL     1     -35.220  16.358  -2.616  1.00 20.00     0.042 C 
HETATM    6  C6  UNL     1     -33.720  16.540  -3.008  1.00 20.00     0.042 C 
HETATM    7  C7  UNL     1     -34.938  14.056  -5.299  1.00 20.00     0.270 C 
HETATM    8  C8  UNL     1     -35.705  15.734  -3.891  1.00 20.00     0.247 C 
HETATM    9  C9  UNL     1     -33.401  15.400  -4.012  1.00 20.00     0.247 C 
HETATM   10  N10 UNL     1     -34.667  14.655  -3.974  1.00 20.00     0.116 N 
ENDROOT
TORSDOF 0
ENDMDL
MODEL 9
REMARK VINA RESULT:      -4.1     11.861     12.743
REMARK  0 active torsions:
REMARK  status: ('A' for Active; 'I' for Inactive)
ROOT
HETATM    1  C1  UNL     1     -33.487  16.005  -4.136  1.00 20.00     0.011 C 
HETATM    2  C2  UNL     1     -36.058  15.660  -3.884  1.00 20.00     0.011 C 
HETATM    3  C3  UNL     1     -33.082  15.728  -5.394  1.00 20.00     0.007 C 
HETATM    4  C4  UNL     1     -36.786  14.853  -4.684  1.00 20.00     0.007 C 
HETATM    5  C5  UNL     1     -34.297  13.809  -7.009  1.00 20.00     0.042 C 
HETATM    6  C6  UNL     1     -35.762  13.386  -6.676  1.00 20.00     0.042 C 
HETATM    7  C7  UNL     1     -34.658  15.132  -3.739  1.00 20.00     0.270 C 
HETATM    8  C8  UNL     1     -34.149  14.901  -5.991  1.00 20.00     0.247 C 
HETATM    9  C9  UNL     1     -35.960  13.687  -5.166  1.00 20.00     0.247 C 
HETATM   10  N10 UNL     1     -34.600  14.106  -4.802  1.00 20.00     0.116 N 
ENDROOT
TORSDOF 0
ENDMDL
