MODEL 1
REMARK VINA RESULT:      -5.2      0.000      0.000
REMARK  1 active torsions:
REMARK  status: ('A' for Active; 'I' for Inactive)
REMARK    1  A    between atoms: C1_1  and  C2_2 
ROOT
HETATM    1  C2  UNL     1     -33.194   7.047   2.559  1.00 20.00     0.084 A 
HETATM    2  C3  UNL     1     -32.769   5.747   3.198  1.00 20.00     0.018 A 
HETATM    3  C4  UNL     1     -33.882   6.568   3.826  1.00 20.00     0.048 A 
HETATM    4  C6  UNL     1     -33.024   4.452   2.504  1.00 20.00     0.012 C 
HETATM    5  C7  UNL     1     -35.312   6.122   3.744  1.00 20.00     0.034 C 
HETATM    6 CL9  UNL     1     -33.473   7.355   5.374  1.00 20.00    -0.118 Cl
ENDROOT
BRANCH   1   7
HETATM    7  C1  UNL     1     -32.272   8.191   2.581  1.00 20.00     0.129 C 
HETATM    8  C5  UNL     1     -32.550   9.303   1.607  1.00 20.00     0.091 C 
HETATM    9  O8  UNL     1     -31.321   8.237   3.360  1.00 20.00    -0.298 OA
ENDBRANCH   1   7
TORSDOF 1
ENDMDL
MODEL 2
REMARK VINA RESULT:      -4.7      1.665      1.764
REMARK  1 active torsions:
REMARK  status: ('A' for Active; 'I' for Inactive)
REMARK    1  A    between atoms: C1_1  and  C2_2 
ROOT
HETATM    1  C2  UNL     1     -33.099   7.874   2.249  1.00 20.00     0.084 A 
HETATM    2  C3  UNL     1     -32.437   6.574   2.641  1.00 20.00     0.018 A 
HETATM    3  C4  UNL     1     -32.662   7.652   3.687  1.00 20.00     0.048 A 
HETATM    4  C6  UNL     1     -33.215   5.302   2.623  1.00 20.00     0.012 C 
HETATM    5  C7  UNL     1     -33.716   7.497   4.744  1.00 20.00     0.034 C 
HETATM    6 CL9  UNL     1     -31.188   8.471   4.271  1.00 20.00    -0.118 Cl
ENDROOT
BRANCH   1   7
HETATM    7  C1  UNL     1     -32.379   8.807   1.372  1.00 20.00     0.129 C 
HETATM    8  C5  UNL     1     -32.983  10.175   1.199  1.00 20.00     0.091 C 
HETATM    9  O8  UNL     1     -31.334   8.486   0.807  1.00 20.00    -0.298 OA
ENDBRANCH   1   7
TORSDOF 1
ENDMDL
MODEL 3
REMARK VINA RESULT:      -4.3      2.023      3.325
REMARK  1 active torsions:
REMARK  status: ('A' for Active; 'I' for Inactive)
REMARK    1  A    between atoms: C1_1  and  C2_2 
ROOT
HETATM    1  C2  UNL     1     -33.910   7.160   3.870  1.00 20.00     0.084 A 
HETATM    2  C3  UNL     1     -32.602   7.231   3.121  1.00 20.00     0.018 A 
HETATM    3  C4  UNL     1     -33.608   6.145   2.782  1.00 20.00     0.048 A 
HETATM    4  C6  UNL     1     -32.322   8.375   2.207  1.00 20.00     0.012 C 
HETATM    5  C7  UNL     1     -34.402   6.196   1.510  1.00 20.00     0.034 C 
HETATM    6 CL9  UNL     1     -33.139   4.491   3.259  1.00 20.00    -0.118 Cl
ENDROOT
BRANCH   1   7
HETATM    7  C1  UNL     1     -33.903   6.778   5.289  1.00 20.00     0.129 C 
HETATM    8  C5  UNL     1     -34.751   5.598   5.676  1.00 20.00     0.091 C 
HETATM    9  O8  UNL     1     -33.234   7.393   6.119  1.00 20.00    -0.298 OA
ENDBRANCH   1   7
TORSDOF 1
ENDMDL
MODEL 4
REMARK VINA RESULT:      -4.3     11.183     11.887
REMARK  1 active torsions:
REMARK  status: ('A' for Active; 'I' for Inactive)
REMARK    1  A    between atoms: C1_1  and  C2_2 
ROOT
HETATM    1  C2  UNL     1     -35.258  14.984  -5.372  1.00 20.00     0.084 A 
HETATM    2  C3  UNL     1     -35.300  15.221  -3.882  1.00 20.00     0.018 A 
HETATM    3  C4  UNL     1     -34.002  15.426  -4.643  1.00 20.00     0.048 A 
HETATM    4  C6  UNL     1     -36.089  16.358  -3.325  1.00 20.00     0.012 C 
HETATM    5  C7  UNL     1     -33.466  16.804  -4.902  1.00 20.00     0.034 C 
HETATM    6 CL9  UNL     1     -32.727  14.220  -4.322  1.00 20.00    -0.118 Cl
ENDROOT
BRANCH   1   7
HETATM    7  C1  UNL     1     -35.398  13.613  -5.883  1.00 20.00     0.129 C 
HETATM    8  C5  UNL     1     -34.876  13.352  -7.270  1.00 20.00     0.091 C 
HETATM    9  O8  UNL     1     -35.914  12.723  -5.208  1.00 20.00    -0.298 OA
ENDBRANCH   1   7
TORSDOF 1
ENDMDL
MODEL 5
REMARK VINA RESULT:      -4.2     11.017     11.994
REMARK  1 active torsions:
REMARK  status: ('A' for Active; 'I' for Inactive)
REMARK    1  A    between atoms: C1_1  and  C2_2 
ROOT
HETATM    1  C2  UNL     1     -35.019  15.517  -3.737  1.00 20.00     0.084 A 
HETATM    2  C3  UNL     1     -33.876  16.307  -3.145  1.00 20.00     0.018 A 
HETATM    3  C4  UNL     1     -34.549  16.791  -4.418  1.00 20.00     0.048 A 
HETATM    4  C6  UNL     1     -34.044  17.003  -1.837  1.00 20.00     0.012 C 
HETATM    5  C7  UNL     1     -35.454  17.989  -4.407  1.00 20.00     0.034 C 
HETATM    6 CL9  UNL     1     -33.567  16.659  -5.901  1.00 20.00    -0.118 Cl
ENDROOT
BRANCH   1   7
HETATM    7  C1  UNL     1     -34.748  14.198  -4.324  1.00 20.00     0.129 C 
HETATM    8  C5  UNL     1     -35.861  13.571  -5.119  1.00 20.00     0.091 C 
HETATM    9  O8  UNL     1     -33.664  13.635  -4.174  1.00 20.00    -0.298 OA
ENDBRANCH   1   7
TORSDOF 1
ENDMDL
MODEL 6
REMARK VINA RESULT:      -4.1      2.141      2.816
REMARK  1 active torsions:
REMARK  status: ('A' for Active; 'I' for Inactive)
REMARK    1  A    between atoms: C1_1  and  C2_2 
ROOT
HETATM    1  C2  UNL     1     -33.154   6.291   4.159  1.00 20.00     0.084 A 
HETATM    2  C3  UNL     1     -33.930   7.309   4.961  1.00 20.00     0.018 A 
HETATM    3  C4  UNL     1     -34.540   5.948   4.675  1.00 20.00     0.048 A 
HETATM    4  C6  UNL     1     -33.463   7.707   6.320  1.00 20.00     0.012 C 
HETATM    5  C7  UNL     1     -34.670   4.916   5.757  1.00 20.00     0.034 C 
HETATM    6 CL9  UNL     1     -35.906   5.946   3.528  1.00 20.00    -0.118 Cl
ENDROOT
BRANCH   1   7
HETATM    7  C1  UNL     1     -32.914   6.538   2.731  1.00 20.00     0.129 C 
HETATM    8  C5  UNL     1     -32.568   7.948   2.336  1.00 20.00     0.091 C 
HETATM    9  O8  UNL     1     -32.993   5.635   1.898  1.00 20.00    -0.298 OA
ENDBRANCH   1   7
TORSDOF 1
ENDMDL
MODEL 7
REMARK VINA RESULT:      -4.1     11.120     11.683
REMARK  1 active torsions:
REMARK  status: ('A' for Active; 'I' for Inactive)
REMARK    1  A    between atoms: C1_1  and  C2_2 
ROOT
HETATM    1  C2  UNL     1     -35.118  14.131  -4.380  1.00 20.00     0.084 A 
HETATM    2  C3  UNL     1     -33.812  14.675  -4.907  1.00 20.00     0.018 A 
HETATM    3  C4  UNL     1     -34.807  15.611  -4.244  1.00 20.00     0.048 A 
HETATM    4  C6  UNL     1     -32.524  14.289  -4.261  1.00 20.00     0.012 C 
HETATM    5  C7  UNL     1     -34.551  16.170  -2.875  1.00 20.00     0.034 C 
HETATM    6 CL9  UNL     1     -35.621  16.762  -5.338  1.00 20.00    -0.118 Cl
ENDROOT
BRANCH   1   7
HETATM    7  C1  UNL     1     -36.129  13.651  -5.332  1.00 20.00     0.129 C 
HETATM    8  C5  UNL     1     -35.640  13.268  -6.703  1.00 20.00     0.091 C 
HETATM    9  O8  UNL     1     -37.317  13.566  -5.024  1.00 20.00    -0.298 OA
ENDBRANCH   1   7
TORSDOF 1
ENDMDL
MODEL 8
REMARK VINA RESULT:      -4.1     11.552     12.392
REMARK  1 active torsions:
REMARK  status: ('A' for Active; 'I' for Inactive)
REMARK    1  A    between atoms: C1_1  and  C2_2 
ROOT
HETATM    1  C2  UNL     1     -35.268  14.905  -5.377  1.00 20.00     0.084 A 
HETATM    2  C3  UNL     1     -33.842  14.503  -5.091  1.00 20.00     0.018 A 
HETATM    3  C4  UNL     1     -34.227  14.975  -6.481  1.00 20.00     0.048 A 
HETATM    4  C6  UNL     1     -33.002  15.323  -4.170  1.00 20.00     0.012 C 
HETATM    5  C7  UNL     1     -33.802  16.324  -6.985  1.00 20.00     0.034 C 
HETATM    6 CL9  UNL     1     -34.230  13.716  -7.745  1.00 20.00    -0.118 Cl
ENDROOT
BRANCH   1   7
HETATM    7  C1  UNL     1     -36.315  13.874  -5.385  1.00 20.00     0.129 C 
HETATM    8  C5  UNL     1     -37.730  14.348  -5.582  1.00 20.00     0.091 C 
HETATM    9  O8  UNL     1     -36.048  12.682  -5.240  1.00 20.00    -0.298 OA
ENDBRANCH   1   7
TORSDOF 1
ENDMDL
MODEL 9
REMARK VINA RESULT:      -4.0      1.944      2.521
REMARK  1 active torsions:
REMARK  status: ('A' for Active; 'I' for Inactive)
REMARK    1  A    between atoms: C1_1  and  C2_2 
ROOT
HETATM    1  C2  UNL     1     -32.506   7.498   2.914  1.00 20.00     0.084 A 
HETATM    2  C3  UNL     1     -33.713   7.392   3.815  1.00 20.00     0.018 A 
HETATM    3  C4  UNL     1     -33.464   6.329   2.760  1.00 20.00     0.048 A 
HETATM    4  C6  UNL     1     -33.539   7.128   5.273  1.00 20.00     0.012 C 
HETATM    5  C7  UNL     1     -32.992   4.957   3.140  1.00 20.00     0.034 C 
HETATM    6 CL9  UNL     1     -34.605   6.331   1.388  1.00 20.00    -0.118 Cl
ENDROOT
BRANCH   1   7
HETATM    7  C1  UNL     1     -32.452   8.573   1.914  1.00 20.00     0.129 C 
HETATM    8  C5  UNL     1     -31.373   8.471   0.870  1.00 20.00     0.091 C 
HETATM    9  O8  UNL     1     -33.250   9.509   1.929  1.00 20.00    -0.298 OA
ENDBRANCH   1   7
TORSDOF 1
ENDMDL
