MODEL 1
REMARK VINA RESULT:      -6.9      0.000      0.000
REMARK  1 active torsions:
REMARK  status: ('A' for Active; 'I' for Inactive)
REMARK    1  A    between atoms: C7_7  and  C9_9 
ROOT
HETATM    1  C1  UNL     1     -34.651   5.485   5.793  1.00 20.00    -0.004 A 
HETATM    2  C2  UNL     1     -33.992   6.697   6.204  1.00 20.00    -0.004 A 
HETATM    3  C3  UNL     1     -34.839   5.191   4.500  1.00 20.00    -0.017 A 
HETATM    4  C4  UNL     1     -33.582   7.611   5.314  1.00 20.00    -0.020 A 
HETATM    5  C5  UNL     1     -33.311   5.461   2.559  1.00 20.00    -0.021 C 
HETATM    6  C6  UNL     1     -32.254   6.260   2.400  1.00 20.00    -0.017 C 
HETATM    7  C8  UNL     1     -34.394   6.093   3.381  1.00 20.00     0.039 A 
HETATM    8  C9  UNL     1     -32.426   7.577   3.075  1.00 20.00     0.086 C 
HETATM    9  C10 UNL     1     -33.773   7.456   3.823  1.00 20.00     0.034 A 
ENDROOT
BRANCH   8  10
HETATM   10  C7  UNL     1     -32.475   8.619   2.001  1.00 20.00     0.131 C 
HETATM   11  C11 UNL     1     -31.428   8.531   0.923  1.00 20.00     0.091 C 
HETATM   12  O12 UNL     1     -33.332   9.502   1.998  1.00 20.00    -0.298 OA
ENDBRANCH   8  10
TORSDOF 1
ENDMDL
MODEL 2
REMARK VINA RESULT:      -5.3     11.316     12.010
REMARK  1 active torsions:
REMARK  status: ('A' for Active; 'I' for Inactive)
REMARK    1  A    between atoms: C7_7  and  C9_9 
ROOT
HETATM    1  C1  UNL     1     -34.591  17.385  -2.248  1.00 20.00    -0.004 A 
HETATM    2  C2  UNL     1     -35.948  17.041  -2.584  1.00 20.00    -0.004 A 
HETATM    3  C3  UNL     1     -33.550  16.708  -2.750  1.00 20.00    -0.017 A 
HETATM    4  C4  UNL     1     -36.234  15.997  -3.373  1.00 20.00    -0.020 A 
HETATM    5  C5  UNL     1     -33.159  15.848  -5.048  1.00 20.00    -0.021 C 
HETATM    6  C6  UNL     1     -34.026  15.574  -6.024  1.00 20.00    -0.017 C 
HETATM    7  C8  UNL     1     -33.705  15.541  -3.686  1.00 20.00     0.039 A 
HETATM    8  C9  UNL     1     -35.313  15.027  -5.509  1.00 20.00     0.086 C 
HETATM    9  C10 UNL     1     -35.176  15.099  -3.971  1.00 20.00     0.034 A 
ENDROOT
BRANCH   8  10
HETATM   10  C7  UNL     1     -35.416  13.614  -5.994  1.00 20.00     0.131 C 
HETATM   11  C11 UNL     1     -34.926  13.341  -7.391  1.00 20.00     0.091 C 
HETATM   12  O12 UNL     1     -35.877  12.720  -5.285  1.00 20.00    -0.298 OA
ENDBRANCH   8  10
TORSDOF 1
ENDMDL
MODEL 3
REMARK VINA RESULT:      -4.9     11.269     12.319
REMARK  1 active torsions:
REMARK  status: ('A' for Active; 'I' for Inactive)
REMARK    1  A    between atoms: C7_7  and  C9_9 
ROOT
HETATM    1  C1  UNL     1     -34.592  18.219   0.168  1.00 20.00    -0.004 A 
HETATM    2  C2  UNL     1     -35.548  17.316  -0.417  1.00 20.00    -0.004 A 
HETATM    3  C3  UNL     1     -33.426  18.493  -0.431  1.00 20.00    -0.017 A 
HETATM    4  C4  UNL     1     -35.295  16.669  -1.562  1.00 20.00    -0.020 A 
HETATM    5  C5  UNL     1     -32.919  18.913  -2.828  1.00 20.00    -0.021 C 
HETATM    6  C6  UNL     1     -33.598  18.572  -3.924  1.00 20.00    -0.017 C 
HETATM    7  C8  UNL     1     -33.016  17.882  -1.744  1.00 20.00     0.039 A 
HETATM    8  C9  UNL     1     -34.273  17.250  -3.791  1.00 20.00     0.086 C 
HETATM    9  C10 UNL     1     -34.003  16.823  -2.330  1.00 20.00     0.034 A 
ENDROOT
BRANCH   8  10
HETATM   10  C7  UNL     1     -33.624  16.324  -4.772  1.00 20.00     0.131 C 
HETATM   11  C11 UNL     1     -33.256  14.953  -4.269  1.00 20.00     0.091 C 
HETATM   12  O12 UNL     1     -33.405  16.665  -5.934  1.00 20.00    -0.298 OA
ENDBRANCH   8  10
TORSDOF 1
ENDMDL
MODEL 4
REMARK VINA RESULT:      -4.8      1.268      2.313
REMARK  1 active torsions:
REMARK  status: ('A' for Active; 'I' for Inactive)
REMARK    1  A    between atoms: C7_7  and  C9_9 
ROOT
HETATM    1  C1  UNL     1     -34.600   4.340   4.843  1.00 20.00    -0.004 A 
HETATM    2  C2  UNL     1     -34.007   4.039   3.566  1.00 20.00    -0.004 A 
HETATM    3  C3  UNL     1     -34.394   5.514   5.454  1.00 20.00    -0.017 A 
HETATM    4  C4  UNL     1     -33.181   4.897   2.955  1.00 20.00    -0.020 A 
HETATM    5  C5  UNL     1     -34.331   7.815   4.518  1.00 20.00    -0.021 C 
HETATM    6  C6  UNL     1     -34.109   8.231   3.270  1.00 20.00    -0.017 C 
HETATM    7  C8  UNL     1     -33.529   6.599   4.873  1.00 20.00     0.039 A 
HETATM    8  C9  UNL     1     -33.115   7.384   2.553  1.00 20.00     0.086 C 
HETATM    9  C10 UNL     1     -32.800   6.237   3.540  1.00 20.00     0.034 A 
ENDROOT
BRANCH   8  10
HETATM   10  C7  UNL     1     -31.916   8.240   2.289  1.00 20.00     0.131 C 
HETATM   11  C11 UNL     1     -31.835   8.896   0.937  1.00 20.00     0.091 C 
HETATM   12  O12 UNL     1     -31.039   8.401   3.138  1.00 20.00    -0.298 OA
ENDBRANCH   8  10
TORSDOF 1
ENDMDL
MODEL 5
REMARK VINA RESULT:      -4.8     11.298     12.406
REMARK  1 active torsions:
REMARK  status: ('A' for Active; 'I' for Inactive)
REMARK    1  A    between atoms: C7_7  and  C9_9 
ROOT
HETATM    1  C1  UNL     1     -34.586  13.638  -7.576  1.00 20.00    -0.004 A 
HETATM    2  C2  UNL     1     -35.545  13.117  -6.638  1.00 20.00    -0.004 A 
HETATM    3  C3  UNL     1     -33.971  14.811  -7.375  1.00 20.00    -0.017 A 
HETATM    4  C4  UNL     1     -35.906  13.805  -5.547  1.00 20.00    -0.020 A 
HETATM    5  C5  UNL     1     -33.026  15.786  -5.294  1.00 20.00    -0.021 C 
HETATM    6  C6  UNL     1     -33.295  15.513  -4.016  1.00 20.00    -0.017 C 
HETATM    7  C8  UNL     1     -34.235  15.679  -6.175  1.00 20.00     0.039 A 
HETATM    8  C9  UNL     1     -34.730  15.179  -3.792  1.00 20.00     0.086 C 
HETATM    9  C10 UNL     1     -35.350  15.168  -5.208  1.00 20.00     0.034 A 
ENDROOT
BRANCH   8  10
HETATM   10  C7  UNL     1     -35.307  16.264  -2.938  1.00 20.00     0.131 C 
HETATM   11  C11 UNL     1     -34.390  16.883  -1.917  1.00 20.00     0.091 C 
HETATM   12  O12 UNL     1     -36.473  16.636  -3.066  1.00 20.00    -0.298 OA
ENDBRANCH   8  10
TORSDOF 1
ENDMDL
MODEL 6
REMARK VINA RESULT:      -4.8     11.343     12.006
REMARK  1 active torsions:
REMARK  status: ('A' for Active; 'I' for Inactive)
REMARK    1  A    between atoms: C7_7  and  C9_9 
ROOT
HETATM    1  C1  UNL     1     -35.480  17.014  -2.147  1.00 20.00    -0.004 A 
HETATM    2  C2  UNL     1     -34.118  16.587  -2.332  1.00 20.00    -0.004 A 
HETATM    3  C3  UNL     1     -36.413  16.817  -3.087  1.00 20.00    -0.017 A 
HETATM    4  C4  UNL     1     -33.708  16.019  -3.474  1.00 20.00    -0.020 A 
HETATM    5  C5  UNL     1     -36.835  14.838  -4.530  1.00 20.00    -0.021 C 
HETATM    6  C6  UNL     1     -36.022  13.842  -4.884  1.00 20.00    -0.017 C 
HETATM    7  C8  UNL     1     -36.120  16.150  -4.404  1.00 20.00     0.039 A 
HETATM    8  C9  UNL     1     -34.613  14.291  -5.070  1.00 20.00     0.086 C 
HETATM    9  C10 UNL     1     -34.623  15.779  -4.652  1.00 20.00     0.034 A 
ENDROOT
BRANCH   8  10
HETATM   10  C7  UNL     1     -34.284  14.121  -6.520  1.00 20.00     0.131 C 
HETATM   11  C11 UNL     1     -33.785  15.341  -7.250  1.00 20.00     0.091 C 
HETATM   12  O12 UNL     1     -34.412  13.037  -7.089  1.00 20.00    -0.298 OA
ENDBRANCH   8  10
TORSDOF 1
ENDMDL
MODEL 7
REMARK VINA RESULT:      -4.7     11.051     12.170
REMARK  1 active torsions:
REMARK  status: ('A' for Active; 'I' for Inactive)
REMARK    1  A    between atoms: C7_7  and  C9_9 
ROOT
HETATM    1  C1  UNL     1     -33.743  18.335  -0.157  1.00 20.00    -0.004 A 
HETATM    2  C2  UNL     1     -35.045  17.724  -0.105  1.00 20.00    -0.004 A 
HETATM    3  C3  UNL     1     -32.921  18.151  -1.198  1.00 20.00    -0.017 A 
HETATM    4  C4  UNL     1     -35.476  16.904  -1.073  1.00 20.00    -0.020 A 
HETATM    5  C5  UNL     1     -33.410  18.110  -3.634  1.00 20.00    -0.021 C 
HETATM    6  C6  UNL     1     -34.555  17.881  -4.278  1.00 20.00    -0.017 C 
HETATM    7  C8  UNL     1     -33.278  17.295  -2.383  1.00 20.00     0.039 A 
HETATM    8  C9  UNL     1     -35.406  16.868  -3.591  1.00 20.00     0.086 C 
HETATM    9  C10 UNL     1     -34.646  16.548  -2.284  1.00 20.00     0.034 A 
ENDROOT
BRANCH   8  10
HETATM   10  C7  UNL     1     -35.489  15.678  -4.495  1.00 20.00     0.131 C 
HETATM   11  C11 UNL     1     -34.672  14.474  -4.107  1.00 20.00     0.091 C 
HETATM   12  O12 UNL     1     -36.195  15.681  -5.504  1.00 20.00    -0.298 OA
ENDBRANCH   8  10
TORSDOF 1
ENDMDL
MODEL 8
REMARK VINA RESULT:      -4.7     11.403     12.282
REMARK  1 active torsions:
REMARK  status: ('A' for Active; 'I' for Inactive)
REMARK    1  A    between atoms: C7_7  and  C9_9 
ROOT
HETATM    1  C1  UNL     1     -33.110  18.724   1.768  1.00 20.00    -0.004 A 
HETATM    2  C2  UNL     1     -31.911  18.620   0.978  1.00 20.00    -0.004 A 
HETATM    3  C3  UNL     1     -34.325  18.738   1.204  1.00 20.00    -0.017 A 
HETATM    4  C4  UNL     1     -31.952  18.584  -0.361  1.00 20.00    -0.020 A 
HETATM    5  C5  UNL     1     -35.232  17.388  -0.675  1.00 20.00    -0.021 C 
HETATM    6  C6  UNL     1     -34.598  16.737  -1.652  1.00 20.00    -0.017 C 
HETATM    7  C8  UNL     1     -34.539  18.659  -0.284  1.00 20.00     0.039 A 
HETATM    8  C9  UNL     1     -33.367  17.443  -2.106  1.00 20.00     0.086 C 
HETATM    9  C10 UNL     1     -33.239  18.650  -1.150  1.00 20.00     0.034 A 
ENDROOT
BRANCH   8  10
HETATM   10  C7  UNL     1     -33.604  17.874  -3.520  1.00 20.00     0.131 C 
HETATM   11  C11 UNL     1     -33.152  19.261  -3.891  1.00 20.00     0.091 C 
HETATM   12  O12 UNL     1     -34.137  17.128  -4.342  1.00 20.00    -0.298 OA
ENDBRANCH   8  10
TORSDOF 1
ENDMDL
MODEL 9
REMARK VINA RESULT:      -4.6     10.968     12.514
REMARK  1 active torsions:
REMARK  status: ('A' for Active; 'I' for Inactive)
REMARK    1  A    between atoms: C7_7  and  C9_9 
ROOT
HETATM    1  C1  UNL     1     -33.343  19.084  -2.595  1.00 20.00    -0.004 A 
HETATM    2  C2  UNL     1     -33.723  18.094  -1.623  1.00 20.00    -0.004 A 
HETATM    3  C3  UNL     1     -33.251  18.791  -3.899  1.00 20.00    -0.017 A 
HETATM    4  C4  UNL     1     -33.953  16.821  -1.969  1.00 20.00    -0.020 A 
HETATM    5  C5  UNL     1     -34.735  17.409  -5.335  1.00 20.00    -0.021 C 
HETATM    6  C6  UNL     1     -35.605  16.452  -5.005  1.00 20.00    -0.017 C 
HETATM    7  C8  UNL     1     -33.524  17.418  -4.451  1.00 20.00     0.039 A 
HETATM    8  C9  UNL     1     -35.145  15.635  -3.847  1.00 20.00     0.086 C 
HETATM    9  C10 UNL     1     -33.835  16.316  -3.389  1.00 20.00     0.034 A 
ENDROOT
BRANCH   8  10
HETATM   10  C7  UNL     1     -34.904  14.247  -4.355  1.00 20.00     0.131 C 
HETATM   11  C11 UNL     1     -36.004  13.625  -5.173  1.00 20.00     0.091 C 
HETATM   12  O12 UNL     1     -33.857  13.646  -4.118  1.00 20.00    -0.298 OA
ENDBRANCH   8  10
TORSDOF 1
ENDMDL
