MODEL 1
REMARK VINA RESULT:      -4.5      0.000      0.000
REMARK  2 active torsions:
REMARK  status: ('A' for Active; 'I' for Inactive)
REMARK    1  A    between atoms: C7_7  and  O11_11 
REMARK    2  A    between atoms: C10_10  and  O11_11 
ROOT
HETATM    1  C1  UNL     1     -35.633   6.193   3.610  1.00 20.00    -0.019 C 
HETATM    2  C2  UNL     1     -34.915   5.720   2.572  1.00 20.00    -0.019 C 
HETATM    3  C3  UNL     1     -34.473   4.635   5.124  1.00 20.00    -0.019 C 
HETATM    4  C4  UNL     1     -33.754   4.161   4.083  1.00 20.00    -0.019 C 
HETATM    5  C5  UNL     1     -34.745   6.105   4.842  1.00 20.00     0.060 C 
HETATM    6  C6  UNL     1     -33.553   5.320   3.119  1.00 20.00     0.060 C 
HETATM    7  C7  UNL     1     -33.391   6.419   4.182  1.00 20.00     0.144 C 
ENDROOT
BRANCH   7   8
HETATM    8  O11 UNL     1     -33.298   7.733   3.661  1.00 20.00    -0.379 OA
BRANCH   8   9
HETATM    9  C10 UNL     1     -32.148   7.893   2.839  1.00 20.00     0.114 C 
HETATM   10  C8  UNL     1     -32.480   8.835   1.692  1.00 20.00     0.039 C 
HETATM   11  C9  UNL     1     -30.996   8.414   3.685  1.00 20.00     0.039 C 
ENDBRANCH   8   9
ENDBRANCH   7   8
TORSDOF 2
ENDMDL
MODEL 2
REMARK VINA RESULT:      -4.2     11.481     12.424
REMARK  2 active torsions:
REMARK  status: ('A' for Active; 'I' for Inactive)
REMARK    1  A    between atoms: C7_7  and  O11_11 
REMARK    2  A    between atoms: C10_10  and  O11_11 
ROOT
HETATM    1  C1  UNL     1     -33.453  15.966  -5.770  1.00 20.00    -0.019 C 
HETATM    2  C2  UNL     1     -32.965  15.078  -4.883  1.00 20.00    -0.019 C 
HETATM    3  C3  UNL     1     -35.683  14.939  -5.573  1.00 20.00    -0.019 C 
HETATM    4  C4  UNL     1     -35.193  14.049  -4.684  1.00 20.00    -0.019 C 
HETATM    5  C5  UNL     1     -34.901  16.230  -5.385  1.00 20.00     0.060 C 
HETATM    6  C6  UNL     1     -34.091  14.755  -3.910  1.00 20.00     0.060 C 
HETATM    7  C7  UNL     1     -34.761  16.139  -3.856  1.00 20.00     0.144 C 
ENDROOT
BRANCH   7   8
HETATM    8  O11 UNL     1     -33.958  17.160  -3.292  1.00 20.00    -0.379 OA
BRANCH   8   9
HETATM    9  C10 UNL     1     -33.815  17.000  -1.886  1.00 20.00     0.114 C 
HETATM   10  C8  UNL     1     -32.886  18.080  -1.351  1.00 20.00     0.039 C 
HETATM   11  C9  UNL     1     -35.187  17.060  -1.232  1.00 20.00     0.039 C 
ENDBRANCH   8   9
ENDBRANCH   7   8
TORSDOF 2
ENDMDL
MODEL 3
REMARK VINA RESULT:      -4.2     11.231     12.296
REMARK  2 active torsions:
REMARK  status: ('A' for Active; 'I' for Inactive)
REMARK    1  A    between atoms: C7_7  and  O11_11 
REMARK    2  A    between atoms: C10_10  and  O11_11 
ROOT
HETATM    1  C1  UNL     1     -33.028  15.668  -5.318  1.00 20.00    -0.019 C 
HETATM    2  C2  UNL     1     -33.060  14.519  -4.615  1.00 20.00    -0.019 C 
HETATM    3  C3  UNL     1     -35.470  15.555  -5.614  1.00 20.00    -0.019 C 
HETATM    4  C4  UNL     1     -35.501  14.404  -4.910  1.00 20.00    -0.019 C 
HETATM    5  C5  UNL     1     -34.337  16.394  -5.043  1.00 20.00     0.060 C 
HETATM    6  C6  UNL     1     -34.389  14.486  -3.876  1.00 20.00     0.060 C 
HETATM    7  C7  UNL     1     -34.529  15.987  -3.572  1.00 20.00     0.144 C 
ENDROOT
BRANCH   7   8
HETATM    8  O11 UNL     1     -33.543  16.506  -2.700  1.00 20.00    -0.379 OA
BRANCH   8   9
HETATM    9  C10 UNL     1     -34.053  17.564  -1.897  1.00 20.00     0.114 C 
HETATM   10  C8  UNL     1     -35.226  17.050  -1.076  1.00 20.00     0.039 C 
HETATM   11  C9  UNL     1     -32.939  18.106  -1.015  1.00 20.00     0.039 C 
ENDBRANCH   8   9
ENDBRANCH   7   8
TORSDOF 2
ENDMDL
MODEL 4
REMARK VINA RESULT:      -4.2     11.128     12.363
REMARK  2 active torsions:
REMARK  status: ('A' for Active; 'I' for Inactive)
REMARK    1  A    between atoms: C7_7  and  O11_11 
REMARK    2  A    between atoms: C10_10  and  O11_11 
ROOT
HETATM    1  C1  UNL     1     -34.390  14.083  -4.173  1.00 20.00    -0.019 C 
HETATM    2  C2  UNL     1     -35.537  14.668  -4.569  1.00 20.00    -0.019 C 
HETATM    3  C3  UNL     1     -33.107  15.625  -5.602  1.00 20.00    -0.019 C 
HETATM    4  C4  UNL     1     -34.257  16.211  -5.999  1.00 20.00    -0.019 C 
HETATM    5  C5  UNL     1     -33.318  15.163  -4.168  1.00 20.00     0.060 C 
HETATM    6  C6  UNL     1     -35.222  16.135  -4.827  1.00 20.00     0.060 C 
HETATM    7  C7  UNL     1     -34.181  16.352  -3.716  1.00 20.00     0.144 C 
ENDROOT
BRANCH   7   8
HETATM    8  O11 UNL     1     -34.689  16.225  -2.400  1.00 20.00    -0.379 OA
BRANCH   8   9
HETATM    9  C10 UNL     1     -34.584  17.445  -1.675  1.00 20.00     0.114 C 
HETATM   10  C8  UNL     1     -35.349  17.318  -0.367  1.00 20.00     0.039 C 
HETATM   11  C9  UNL     1     -33.114  17.765  -1.443  1.00 20.00     0.039 C 
ENDBRANCH   8   9
ENDBRANCH   7   8
TORSDOF 2
ENDMDL
MODEL 5
REMARK VINA RESULT:      -4.2      1.417      2.358
REMARK  2 active torsions:
REMARK  status: ('A' for Active; 'I' for Inactive)
REMARK    1  A    between atoms: C7_7  and  O11_11 
REMARK    2  A    between atoms: C10_10  and  O11_11 
ROOT
HETATM    1  C1  UNL     1     -33.607   5.580   2.743  1.00 20.00    -0.019 C 
HETATM    2  C2  UNL     1     -32.381   5.971   3.142  1.00 20.00    -0.019 C 
HETATM    3  C3  UNL     1     -34.592   6.632   4.740  1.00 20.00    -0.019 C 
HETATM    4  C4  UNL     1     -33.363   7.024   5.139  1.00 20.00    -0.019 C 
HETATM    5  C5  UNL     1     -34.589   6.641   3.219  1.00 20.00     0.060 C 
HETATM    6  C6  UNL     1     -32.552   7.291   3.880  1.00 20.00     0.060 C 
HETATM    7  C7  UNL     1     -33.699   7.883   3.044  1.00 20.00     0.144 C 
ENDROOT
BRANCH   7   8
HETATM    8  O11 UNL     1     -33.362   8.162   1.697  1.00 20.00    -0.379 OA
BRANCH   8   9
HETATM    9  C10 UNL     1     -32.313   9.118   1.604  1.00 20.00     0.114 C 
HETATM   10  C8  UNL     1     -31.303   8.655   0.565  1.00 20.00     0.039 C 
HETATM   11  C9  UNL     1     -32.902  10.477   1.254  1.00 20.00     0.039 C 
ENDBRANCH   8   9
ENDBRANCH   7   8
TORSDOF 2
ENDMDL
MODEL 6
REMARK VINA RESULT:      -4.0     11.290     12.459
REMARK  2 active torsions:
REMARK  status: ('A' for Active; 'I' for Inactive)
REMARK    1  A    between atoms: C7_7  and  O11_11 
REMARK    2  A    between atoms: C10_10  and  O11_11 
ROOT
HETATM    1  C1  UNL     1     -34.737  18.453  -3.361  1.00 20.00    -0.019 C 
HETATM    2  C2  UNL     1     -35.806  18.133  -2.606  1.00 20.00    -0.019 C 
HETATM    3  C3  UNL     1     -33.241  17.831  -1.506  1.00 20.00    -0.019 C 
HETATM    4  C4  UNL     1     -34.313  17.511  -0.750  1.00 20.00    -0.019 C 
HETATM    5  C5  UNL     1     -33.607  17.520  -2.949  1.00 20.00     0.060 C 
HETATM    6  C6  UNL     1     -35.383  16.989  -1.696  1.00 20.00     0.060 C 
HETATM    7  C7  UNL     1     -34.435  16.257  -2.661  1.00 20.00     0.144 C 
ENDROOT
BRANCH   7   8
HETATM    8  O11 UNL     1     -35.067  15.711  -3.805  1.00 20.00    -0.379 OA
BRANCH   8   9
HETATM    9  C10 UNL     1     -34.663  14.367  -4.038  1.00 20.00     0.114 C 
HETATM   10  C8  UNL     1     -35.605  13.729  -5.048  1.00 20.00     0.039 C 
HETATM   11  C9  UNL     1     -33.220  14.354  -4.522  1.00 20.00     0.039 C 
ENDBRANCH   8   9
ENDBRANCH   7   8
TORSDOF 2
ENDMDL
MODEL 7
REMARK VINA RESULT:      -3.9     11.305     13.104
REMARK  2 active torsions:
REMARK  status: ('A' for Active; 'I' for Inactive)
REMARK    1  A    between atoms: C7_7  and  O11_11 
REMARK    2  A    between atoms: C10_10  and  O11_11 
ROOT
HETATM    1  C1  UNL     1     -34.421  14.062  -4.117  1.00 20.00    -0.019 C 
HETATM    2  C2  UNL     1     -33.209  14.543  -4.454  1.00 20.00    -0.019 C 
HETATM    3  C3  UNL     1     -34.886  16.121  -2.849  1.00 20.00    -0.019 C 
HETATM    4  C4  UNL     1     -33.671  16.603  -3.187  1.00 20.00    -0.019 C 
HETATM    5  C5  UNL     1     -35.358  15.256  -4.007  1.00 20.00     0.060 C 
HETATM    6  C6  UNL     1     -33.345  16.055  -4.568  1.00 20.00     0.060 C 
HETATM    7  C7  UNL     1     -34.773  16.122  -5.135  1.00 20.00     0.144 C 
ENDROOT
BRANCH   7   8
HETATM    8  O11 UNL     1     -34.920  15.559  -6.426  1.00 20.00    -0.379 OA
BRANCH   8   9
HETATM    9  C10 UNL     1     -35.895  16.255  -7.195  1.00 20.00     0.114 C 
HETATM   10  C8  UNL     1     -37.192  15.461  -7.196  1.00 20.00     0.039 C 
HETATM   11  C9  UNL     1     -36.085  17.650  -6.619  1.00 20.00     0.039 C 
ENDBRANCH   8   9
ENDBRANCH   7   8
TORSDOF 2
ENDMDL
MODEL 8
REMARK VINA RESULT:      -3.9      1.496      2.642
REMARK  2 active torsions:
REMARK  status: ('A' for Active; 'I' for Inactive)
REMARK    1  A    between atoms: C7_7  and  O11_11 
REMARK    2  A    between atoms: C10_10  and  O11_11 
ROOT
HETATM    1  C1  UNL     1     -32.536   7.464   4.309  1.00 20.00    -0.019 C 
HETATM    2  C2  UNL     1     -33.876   7.437   4.451  1.00 20.00    -0.019 C 
HETATM    3  C3  UNL     1     -32.647   5.460   2.881  1.00 20.00    -0.019 C 
HETATM    4  C4  UNL     1     -33.989   5.434   3.023  1.00 20.00    -0.019 C 
HETATM    5  C5  UNL     1     -32.225   6.922   2.922  1.00 20.00     0.060 C 
HETATM    6  C6  UNL     1     -34.450   6.877   3.158  1.00 20.00     0.060 C 
HETATM    7  C7  UNL     1     -33.442   7.486   2.168  1.00 20.00     0.144 C 
ENDROOT
BRANCH   7   8
HETATM    8  O11 UNL     1     -33.467   8.899   2.097  1.00 20.00    -0.379 OA
BRANCH   8   9
HETATM    9  C10 UNL     1     -32.541   9.395   1.137  1.00 20.00     0.114 C 
HETATM   10  C8  UNL     1     -33.070   9.115  -0.261  1.00 20.00     0.039 C 
HETATM   11  C9  UNL     1     -32.323  10.882   1.373  1.00 20.00     0.039 C 
ENDBRANCH   8   9
ENDBRANCH   7   8
TORSDOF 2
ENDMDL
MODEL 9
REMARK VINA RESULT:      -3.8     11.322     12.650
REMARK  2 active torsions:
REMARK  status: ('A' for Active; 'I' for Inactive)
REMARK    1  A    between atoms: C7_7  and  O11_11 
REMARK    2  A    between atoms: C10_10  and  O11_11 
ROOT
HETATM    1  C1  UNL     1     -35.885  17.761  -2.033  1.00 20.00    -0.019 C 
HETATM    2  C2  UNL     1     -35.049  17.228  -1.121  1.00 20.00    -0.019 C 
HETATM    3  C3  UNL     1     -33.988  18.909  -3.104  1.00 20.00    -0.019 C 
HETATM    4  C4  UNL     1     -33.150  18.374  -2.190  1.00 20.00    -0.019 C 
HETATM    5  C5  UNL     1     -35.102  17.897  -3.330  1.00 20.00     0.060 C 
HETATM    6  C6  UNL     1     -33.712  17.012  -1.816  1.00 20.00     0.060 C 
HETATM    7  C7  UNL     1     -34.230  16.635  -3.214  1.00 20.00     0.144 C 
ENDROOT
BRANCH   7   8
HETATM    8  O11 UNL     1     -34.964  15.425  -3.264  1.00 20.00    -0.379 OA
BRANCH   8   9
HETATM    9  C10 UNL     1     -34.336  14.463  -4.103  1.00 20.00     0.114 C 
HETATM   10  C8  UNL     1     -35.383  13.823  -5.002  1.00 20.00     0.039 C 
HETATM   11  C9  UNL     1     -33.237  15.141  -4.908  1.00 20.00     0.039 C 
ENDBRANCH   8   9
ENDBRANCH   7   8
TORSDOF 2
ENDMDL
