MODEL 1
REMARK VINA RESULT:      -5.1      0.000      0.000
REMARK  2 active torsions:
REMARK  status: ('A' for Active; 'I' for Inactive)
REMARK    1  A    between atoms: C1_1  and  C6_6 
REMARK    2  A    between atoms: C1_1  and  O10_10 
ROOT
HETATM    1  C2  UNL     1     -34.557   4.633   4.334  1.00 20.00     0.006 C 
HETATM    2  C3  UNL     1     -34.394   5.478   5.605  1.00 20.00     0.036 C 
HETATM    3  C4  UNL     1     -33.600   5.265   3.311  1.00 20.00     0.052 C 
HETATM    4  C5  UNL     1     -33.995   6.834   5.111  1.00 20.00     0.168 A 
HETATM    5  C6  UNL     1     -33.495   6.708   3.715  1.00 20.00     0.174 A 
HETATM    6  O9  UNL     1     -34.749   7.350   4.011  1.00 20.00    -0.358 OA
ENDROOT
BRANCH   5   7
HETATM    7  C1  UNL     1     -32.488   7.616   3.176  1.00 20.00     0.296 C 
HETATM    8  O8  UNL     1     -31.485   7.965   3.784  1.00 20.00    -0.262 OA
BRANCH   7   9
HETATM    9  O10 UNL     1     -32.845   7.998   1.916  1.00 20.00    -0.324 OA
HETATM   10  C7  UNL     1     -32.113   9.103   1.378  1.00 20.00     0.213 C 
ENDBRANCH   7   9
ENDBRANCH   5   7
TORSDOF 2
ENDMDL
MODEL 2
REMARK VINA RESULT:      -5.0      1.122      1.638
REMARK  2 active torsions:
REMARK  status: ('A' for Active; 'I' for Inactive)
REMARK    1  A    between atoms: C1_1  and  C6_6 
REMARK    2  A    between atoms: C1_1  and  O10_10 
ROOT
HETATM    1  C2  UNL     1     -34.554   5.987   5.270  1.00 20.00     0.006 C 
HETATM    2  C3  UNL     1     -35.188   5.783   3.887  1.00 20.00     0.036 C 
HETATM    3  C4  UNL     1     -33.490   7.076   5.062  1.00 20.00     0.052 C 
HETATM    4  C5  UNL     1     -34.106   6.140   2.917  1.00 20.00     0.168 A 
HETATM    5  C6  UNL     1     -33.072   6.943   3.625  1.00 20.00     0.174 A 
HETATM    6  O9  UNL     1     -32.811   5.596   3.189  1.00 20.00    -0.358 OA
ENDROOT
BRANCH   5   7
HETATM    7  C1  UNL     1     -32.271   7.947   2.931  1.00 20.00     0.296 C 
HETATM    8  O8  UNL     1     -31.185   8.346   3.324  1.00 20.00    -0.262 OA
BRANCH   7   9
HETATM    9  O10 UNL     1     -32.923   8.350   1.803  1.00 20.00    -0.324 OA
HETATM   10  C7  UNL     1     -32.161   9.172   0.913  1.00 20.00     0.213 C 
ENDBRANCH   7   9
ENDBRANCH   5   7
TORSDOF 2
ENDMDL
MODEL 3
REMARK VINA RESULT:      -4.3     11.181     12.154
REMARK  2 active torsions:
REMARK  status: ('A' for Active; 'I' for Inactive)
REMARK    1  A    between atoms: C1_1  and  C6_6 
REMARK    2  A    between atoms: C1_1  and  O10_10 
ROOT
HETATM    1  C2  UNL     1     -33.439  15.767  -3.836  1.00 20.00     0.006 C 
HETATM    2  C3  UNL     1     -34.181  16.708  -4.796  1.00 20.00     0.036 C 
HETATM    3  C4  UNL     1     -34.046  14.379  -4.091  1.00 20.00     0.052 C 
HETATM    4  C5  UNL     1     -35.523  16.075  -4.986  1.00 20.00     0.168 A 
HETATM    5  C6  UNL     1     -35.444  14.648  -4.571  1.00 20.00     0.174 A 
HETATM    6  O9  UNL     1     -36.177  15.617  -3.799  1.00 20.00    -0.358 OA
ENDROOT
BRANCH   5   7
HETATM    7  C1  UNL     1     -36.290  13.625  -5.177  1.00 20.00     0.296 C 
HETATM    8  O8  UNL     1     -37.509  13.598  -5.078  1.00 20.00    -0.262 OA
BRANCH   7   9
HETATM    9  O10 UNL     1     -35.512  12.730  -5.851  1.00 20.00    -0.324 OA
HETATM   10  C7  UNL     1     -35.278  13.036  -7.229  1.00 20.00     0.213 C 
ENDBRANCH   7   9
ENDBRANCH   5   7
TORSDOF 2
ENDMDL
MODEL 4
REMARK VINA RESULT:      -4.2     11.128     12.316
REMARK  2 active torsions:
REMARK  status: ('A' for Active; 'I' for Inactive)
REMARK    1  A    between atoms: C1_1  and  C6_6 
REMARK    2  A    between atoms: C1_1  and  O10_10 
ROOT
HETATM    1  C2  UNL     1     -33.326  16.551  -5.253  1.00 20.00     0.006 C 
HETATM    2  C3  UNL     1     -33.702  16.304  -3.785  1.00 20.00     0.036 C 
HETATM    3  C4  UNL     1     -34.351  15.748  -6.067  1.00 20.00     0.052 C 
HETATM    4  C5  UNL     1     -34.346  14.953  -3.781  1.00 20.00     0.168 A 
HETATM    5  C6  UNL     1     -34.758  14.613  -5.170  1.00 20.00     0.174 A 
HETATM    6  O9  UNL     1     -33.670  13.931  -4.520  1.00 20.00    -0.358 OA
ENDROOT
BRANCH   5   7
HETATM    7  C1  UNL     1     -35.906  13.754  -5.442  1.00 20.00     0.296 C 
HETATM    8  O8  UNL     1     -35.896  12.538  -5.313  1.00 20.00    -0.262 OA
BRANCH   7   9
HETATM    9  O10 UNL     1     -36.960  14.517  -5.851  1.00 20.00    -0.324 OA
HETATM   10  C7  UNL     1     -37.992  14.711  -4.879  1.00 20.00     0.213 C 
ENDBRANCH   7   9
ENDBRANCH   5   7
TORSDOF 2
ENDMDL
MODEL 5
REMARK VINA RESULT:      -4.1     11.256     12.318
REMARK  2 active torsions:
REMARK  status: ('A' for Active; 'I' for Inactive)
REMARK    1  A    between atoms: C1_1  and  C6_6 
REMARK    2  A    between atoms: C1_1  and  O10_10 
ROOT
HETATM    1  C2  UNL     1     -33.664  16.099  -3.421  1.00 20.00     0.006 C 
HETATM    2  C3  UNL     1     -35.182  15.875  -3.373  1.00 20.00     0.036 C 
HETATM    3  C4  UNL     1     -33.233  15.609  -4.812  1.00 20.00     0.052 C 
HETATM    4  C5  UNL     1     -35.423  14.720  -4.294  1.00 20.00     0.168 A 
HETATM    5  C6  UNL     1     -34.243  14.561  -5.186  1.00 20.00     0.174 A 
HETATM    6  O9  UNL     1     -34.539  13.604  -4.151  1.00 20.00    -0.358 OA
ENDROOT
BRANCH   5   7
HETATM    7  C1  UNL     1     -34.367  14.018  -6.534  1.00 20.00     0.296 C 
HETATM    8  O8  UNL     1     -34.614  12.846  -6.780  1.00 20.00    -0.262 OA
BRANCH   7   9
HETATM    9  O10 UNL     1     -34.166  15.013  -7.446  1.00 20.00    -0.324 OA
HETATM   10  C7  UNL     1     -35.351  15.662  -7.918  1.00 20.00     0.213 C 
ENDBRANCH   7   9
ENDBRANCH   5   7
TORSDOF 2
ENDMDL
MODEL 6
REMARK VINA RESULT:      -4.0     11.028     11.951
REMARK  2 active torsions:
REMARK  status: ('A' for Active; 'I' for Inactive)
REMARK    1  A    between atoms: C1_1  and  C6_6 
REMARK    2  A    between atoms: C1_1  and  O10_10 
ROOT
HETATM    1  C2  UNL     1     -37.709  14.619  -5.310  1.00 20.00     0.006 C 
HETATM    2  C3  UNL     1     -37.003  14.311  -6.639  1.00 20.00     0.036 C 
HETATM    3  C4  UNL     1     -36.578  14.959  -4.328  1.00 20.00     0.052 C 
HETATM    4  C5  UNL     1     -35.654  13.799  -6.241  1.00 20.00     0.168 A 
HETATM    5  C6  UNL     1     -35.382  14.204  -4.836  1.00 20.00     0.174 A 
HETATM    6  O9  UNL     1     -35.633  12.831  -5.188  1.00 20.00    -0.358 OA
ENDROOT
BRANCH   5   7
HETATM    7  C1  UNL     1     -34.025  14.444  -4.355  1.00 20.00     0.296 C 
HETATM    8  O8  UNL     1     -33.171  13.574  -4.252  1.00 20.00    -0.262 OA
BRANCH   7   9
HETATM    9  O10 UNL     1     -33.876  15.765  -4.050  1.00 20.00    -0.324 OA
HETATM   10  C7  UNL     1     -33.361  16.584  -5.105  1.00 20.00     0.213 C 
ENDBRANCH   7   9
ENDBRANCH   5   7
TORSDOF 2
ENDMDL
MODEL 7
REMARK VINA RESULT:      -3.9     11.429     12.219
REMARK  2 active torsions:
REMARK  status: ('A' for Active; 'I' for Inactive)
REMARK    1  A    between atoms: C1_1  and  C6_6 
REMARK    2  A    between atoms: C1_1  and  O10_10 
ROOT
HETATM    1  C2  UNL     1     -36.021  16.670  -2.918  1.00 20.00     0.006 C 
HETATM    2  C3  UNL     1     -34.589  16.156  -2.714  1.00 20.00     0.036 C 
HETATM    3  C4  UNL     1     -36.670  15.667  -3.883  1.00 20.00     0.052 C 
HETATM    4  C5  UNL     1     -34.264  15.428  -3.980  1.00 20.00     0.168 A 
HETATM    5  C6  UNL     1     -35.531  15.113  -4.692  1.00 20.00     0.174 A 
HETATM    6  O9  UNL     1     -34.608  16.096  -5.197  1.00 20.00    -0.358 OA
ENDROOT
BRANCH   5   7
HETATM    7  C1  UNL     1     -35.659  13.939  -5.549  1.00 20.00     0.296 C 
HETATM    8  O8  UNL     1     -35.902  12.813  -5.137  1.00 20.00    -0.262 OA
BRANCH   7   9
HETATM    9  O10 UNL     1     -35.468  14.301  -6.850  1.00 20.00    -0.324 OA
HETATM   10  C7  UNL     1     -34.473  13.554  -7.556  1.00 20.00     0.213 C 
ENDBRANCH   7   9
ENDBRANCH   5   7
TORSDOF 2
ENDMDL
MODEL 8
REMARK VINA RESULT:      -3.9     11.582     12.945
REMARK  2 active torsions:
REMARK  status: ('A' for Active; 'I' for Inactive)
REMARK    1  A    between atoms: C1_1  and  C6_6 
REMARK    2  A    between atoms: C1_1  and  O10_10 
ROOT
HETATM    1  C2  UNL     1     -34.446  13.600  -7.360  1.00 20.00     0.006 C 
HETATM    2  C3  UNL     1     -34.014  14.152  -5.993  1.00 20.00     0.036 C 
HETATM    3  C4  UNL     1     -35.945  13.924  -7.463  1.00 20.00     0.052 C 
HETATM    4  C5  UNL     1     -35.250  14.087  -5.151  1.00 20.00     0.168 A 
HETATM    5  C6  UNL     1     -36.434  13.963  -6.043  1.00 20.00     0.174 A 
HETATM    6  O9  UNL     1     -35.995  12.868  -5.218  1.00 20.00    -0.358 OA
ENDROOT
BRANCH   5   7
HETATM    7  C1  UNL     1     -37.740  14.492  -5.664  1.00 20.00     0.296 C 
HETATM    8  O8  UNL     1     -38.472  13.976  -4.832  1.00 20.00    -0.262 OA
BRANCH   7   9
HETATM    9  O10 UNL     1     -37.996  15.628  -6.375  1.00 20.00    -0.324 OA
HETATM   10  C7  UNL     1     -38.957  16.514  -5.792  1.00 20.00     0.213 C 
ENDBRANCH   7   9
ENDBRANCH   5   7
TORSDOF 2
ENDMDL
MODEL 9
REMARK VINA RESULT:      -3.9     11.349     12.039
REMARK  2 active torsions:
REMARK  status: ('A' for Active; 'I' for Inactive)
REMARK    1  A    between atoms: C1_1  and  C6_6 
REMARK    2  A    between atoms: C1_1  and  O10_10 
ROOT
HETATM    1  C2  UNL     1     -35.675  16.911  -1.938  1.00 20.00     0.006 C 
HETATM    2  C3  UNL     1     -34.268  17.144  -1.370  1.00 20.00     0.036 C 
HETATM    3  C4  UNL     1     -35.482  15.897  -3.076  1.00 20.00     0.052 C 
HETATM    4  C5  UNL     1     -33.347  16.895  -2.524  1.00 20.00     0.168 A 
HETATM    5  C6  UNL     1     -34.078  16.121  -3.563  1.00 20.00     0.174 A 
HETATM    6  O9  UNL     1     -33.716  17.500  -3.766  1.00 20.00    -0.358 OA
ENDROOT
BRANCH   5   7
HETATM    7  C1  UNL     1     -33.389  15.199  -4.460  1.00 20.00     0.296 C 
HETATM    8  O8  UNL     1     -33.258  14.003  -4.244  1.00 20.00    -0.262 OA
BRANCH   7   9
HETATM    9  O10 UNL     1     -32.929  15.881  -5.548  1.00 20.00    -0.324 OA
HETATM   10  C7  UNL     1     -33.609  15.607  -6.777  1.00 20.00     0.213 C 
ENDBRANCH   7   9
ENDBRANCH   5   7
TORSDOF 2
ENDMDL
