MODEL 1
REMARK VINA RESULT:      -5.0      0.000      0.000
REMARK  2 active torsions:
REMARK  status: ('A' for Active; 'I' for Inactive)
REMARK    1  A    between atoms: C2_2  and  C5_5 
REMARK    2  A    between atoms: C2_2  and  C9_9 
ROOT
HETATM    1  C1  UNL     1     -33.351   7.379   5.283  1.00 20.00     0.225 C 
HETATM    2  C2  UNL     1     -33.354   6.704   4.166  1.00 20.00    -0.014 C 
HETATM    3  O10 UNL     1     -33.351   7.986   6.291  1.00 20.00    -0.284 OA
ENDROOT
BRANCH   2   4
HETATM    4  C5  UNL     1     -32.348   7.136   3.166  1.00 20.00     0.019 A 
HETATM    5  C3  UNL     1     -32.643   8.352   2.353  1.00 20.00     0.010 A 
HETATM    6  C4  UNL     1     -31.597   8.398   3.426  1.00 20.00     0.010 A 
ENDBRANCH   2   4
BRANCH   2   7
HETATM    7  C9  UNL     1     -34.263   5.508   3.868  1.00 20.00    -0.024 C 
HETATM    8  C6  UNL     1     -33.636   4.657   2.748  1.00 20.00     0.019 C 
HETATM    9  C7  UNL     1     -35.664   5.976   3.424  1.00 20.00     0.019 C 
HETATM   10  C8  UNL     1     -34.450   4.610   5.112  1.00 20.00     0.019 C 
ENDBRANCH   2   7
TORSDOF 2
ENDMDL
MODEL 2
REMARK VINA RESULT:      -4.6      1.965      2.624
REMARK  2 active torsions:
REMARK  status: ('A' for Active; 'I' for Inactive)
REMARK    1  A    between atoms: C2_2  and  C5_5 
REMARK    2  A    between atoms: C2_2  and  C9_9 
ROOT
HETATM    1  C1  UNL     1     -32.962   5.263   2.574  1.00 20.00     0.225 C 
HETATM    2  C2  UNL     1     -33.473   6.163   3.370  1.00 20.00    -0.014 C 
HETATM    3  O10 UNL     1     -32.502   4.450   1.859  1.00 20.00    -0.284 OA
ENDROOT
BRANCH   2   4
HETATM    4  C5  UNL     1     -33.062   7.559   3.089  1.00 20.00     0.019 A 
HETATM    5  C3  UNL     1     -31.660   7.958   3.411  1.00 20.00     0.010 A 
HETATM    6  C4  UNL     1     -32.089   7.796   1.983  1.00 20.00     0.010 A 
ENDBRANCH   2   4
BRANCH   2   7
HETATM    7  C9  UNL     1     -34.472   5.873   4.494  1.00 20.00    -0.024 C 
HETATM    8  C6  UNL     1     -35.903   6.126   3.983  1.00 20.00     0.019 C 
HETATM    9  C7  UNL     1     -34.205   6.773   5.717  1.00 20.00     0.019 C 
HETATM   10  C8  UNL     1     -34.381   4.406   4.972  1.00 20.00     0.019 C 
ENDBRANCH   2   7
TORSDOF 2
ENDMDL
MODEL 3
REMARK VINA RESULT:      -4.3      1.581      2.564
REMARK  2 active torsions:
REMARK  status: ('A' for Active; 'I' for Inactive)
REMARK    1  A    between atoms: C2_2  and  C5_5 
REMARK    2  A    between atoms: C2_2  and  C9_9 
ROOT
HETATM    1  C1  UNL     1     -31.804   8.108   3.450  1.00 20.00     0.225 C 
HETATM    2  C2  UNL     1     -32.717   7.611   2.661  1.00 20.00    -0.014 C 
HETATM    3  O10 UNL     1     -30.983   8.555   4.164  1.00 20.00    -0.284 OA
ENDROOT
BRANCH   2   4
HETATM    4  C5  UNL     1     -32.818   8.255   1.329  1.00 20.00     0.019 A 
HETATM    5  C3  UNL     1     -32.664   9.737   1.252  1.00 20.00     0.010 A 
HETATM    6  C4  UNL     1     -31.580   8.838   0.736  1.00 20.00     0.010 A 
ENDBRANCH   2   4
BRANCH   2   7
HETATM    7  C9  UNL     1     -33.613   6.415   3.001  1.00 20.00    -0.024 C 
HETATM    8  C6  UNL     1     -34.095   6.537   4.458  1.00 20.00     0.019 C 
HETATM    9  C7  UNL     1     -32.848   5.086   2.830  1.00 20.00     0.019 C 
HETATM   10  C8  UNL     1     -34.854   6.354   2.082  1.00 20.00     0.019 C 
ENDBRANCH   2   7
TORSDOF 2
ENDMDL
MODEL 4
REMARK VINA RESULT:      -4.3      1.959      3.885
REMARK  2 active torsions:
REMARK  status: ('A' for Active; 'I' for Inactive)
REMARK    1  A    between atoms: C2_2  and  C5_5 
REMARK    2  A    between atoms: C2_2  and  C9_9 
ROOT
HETATM    1  C1  UNL     1     -33.062   5.658   2.814  1.00 20.00     0.225 C 
HETATM    2  C2  UNL     1     -33.223   6.902   3.177  1.00 20.00    -0.014 C 
HETATM    3  O10 UNL     1     -32.916   4.539   2.485  1.00 20.00    -0.284 OA
ENDROOT
BRANCH   2   4
HETATM    4  C5  UNL     1     -34.215   7.120   4.256  1.00 20.00     0.019 A 
HETATM    5  C3  UNL     1     -34.482   5.998   5.203  1.00 20.00     0.010 A 
HETATM    6  C4  UNL     1     -33.719   7.205   5.660  1.00 20.00     0.010 A 
ENDBRANCH   2   4
BRANCH   2   7
HETATM    7  C9  UNL     1     -32.437   8.088   2.611  1.00 20.00    -0.024 C 
HETATM    8  C6  UNL     1     -31.266   8.422   3.554  1.00 20.00     0.019 C 
HETATM    9  C7  UNL     1     -33.339   9.331   2.466  1.00 20.00     0.019 C 
HETATM   10  C8  UNL     1     -31.859   7.774   1.212  1.00 20.00     0.019 C 
ENDBRANCH   2   7
TORSDOF 2
ENDMDL
MODEL 5
REMARK VINA RESULT:      -4.2     11.492     12.664
REMARK  2 active torsions:
REMARK  status: ('A' for Active; 'I' for Inactive)
REMARK    1  A    between atoms: C2_2  and  C5_5 
REMARK    2  A    between atoms: C2_2  and  C9_9 
ROOT
HETATM    1  C1  UNL     1     -35.630  13.741  -4.877  1.00 20.00     0.225 C 
HETATM    2  C2  UNL     1     -35.343  14.932  -4.425  1.00 20.00    -0.014 C 
HETATM    3  O10 UNL     1     -35.886  12.668  -5.285  1.00 20.00    -0.284 OA
ENDROOT
BRANCH   2   4
HETATM    4  C5  UNL     1     -36.505  15.727  -3.960  1.00 20.00     0.019 A 
HETATM    5  C3  UNL     1     -37.250  16.538  -4.967  1.00 20.00     0.010 A 
HETATM    6  C4  UNL     1     -37.867  15.298  -4.392  1.00 20.00     0.010 A 
ENDBRANCH   2   4
BRANCH   2   7
HETATM    7  C9  UNL     1     -33.928  15.506  -4.305  1.00 20.00    -0.024 C 
HETATM    8  C6  UNL     1     -33.824  16.342  -3.016  1.00 20.00     0.019 C 
HETATM    9  C7  UNL     1     -33.589  16.399  -5.516  1.00 20.00     0.019 C 
HETATM   10  C8  UNL     1     -32.863  14.387  -4.245  1.00 20.00     0.019 C 
ENDBRANCH   2   7
TORSDOF 2
ENDMDL
MODEL 6
REMARK VINA RESULT:      -4.2      1.955      3.918
REMARK  2 active torsions:
REMARK  status: ('A' for Active; 'I' for Inactive)
REMARK    1  A    between atoms: C2_2  and  C5_5 
REMARK    2  A    between atoms: C2_2  and  C9_9 
ROOT
HETATM    1  C1  UNL     1     -33.034   5.649   2.799  1.00 20.00     0.225 C 
HETATM    2  C2  UNL     1     -33.213   6.891   3.159  1.00 20.00    -0.014 C 
HETATM    3  O10 UNL     1     -32.871   4.531   2.471  1.00 20.00    -0.284 OA
ENDROOT
BRANCH   2   4
HETATM    4  C5  UNL     1     -34.228   7.100   4.219  1.00 20.00     0.019 A 
HETATM    5  C3  UNL     1     -34.522   5.967   5.144  1.00 20.00     0.010 A 
HETATM    6  C4  UNL     1     -33.763   7.163   5.635  1.00 20.00     0.010 A 
ENDBRANCH   2   4
BRANCH   2   7
HETATM    7  C9  UNL     1     -32.426   8.085   2.610  1.00 20.00    -0.024 C 
HETATM    8  C6  UNL     1     -33.357   9.306   2.504  1.00 20.00     0.019 C 
HETATM    9  C7  UNL     1     -31.844   7.769   1.217  1.00 20.00     0.019 C 
HETATM   10  C8  UNL     1     -31.240   8.458   3.530  1.00 20.00     0.019 C 
ENDBRANCH   2   7
TORSDOF 2
ENDMDL
MODEL 7
REMARK VINA RESULT:      -4.2      1.893      4.190
REMARK  2 active torsions:
REMARK  status: ('A' for Active; 'I' for Inactive)
REMARK    1  A    between atoms: C2_2  and  C5_5 
REMARK    2  A    between atoms: C2_2  and  C9_9 
ROOT
HETATM    1  C1  UNL     1     -31.858   8.309   3.303  1.00 20.00     0.225 C 
HETATM    2  C2  UNL     1     -32.553   8.172   2.206  1.00 20.00    -0.014 C 
HETATM    3  O10 UNL     1     -31.229   8.435   4.289  1.00 20.00    -0.284 OA
ENDROOT
BRANCH   2   4
HETATM    4  C5  UNL     1     -33.595   7.118   2.249  1.00 20.00     0.019 A 
HETATM    5  C3  UNL     1     -33.224   5.786   2.809  1.00 20.00     0.010 A 
HETATM    6  C4  UNL     1     -34.121   6.705   3.582  1.00 20.00     0.010 A 
ENDBRANCH   2   4
BRANCH   2   7
HETATM    7  C9  UNL     1     -32.394   9.039   0.954  1.00 20.00    -0.024 C 
HETATM    8  C6  UNL     1     -30.993   8.819   0.355  1.00 20.00     0.019 C 
HETATM    9  C7  UNL     1     -32.572  10.534   1.290  1.00 20.00     0.019 C 
HETATM   10  C8  UNL     1     -33.444   8.681  -0.123  1.00 20.00     0.019 C 
ENDBRANCH   2   7
TORSDOF 2
ENDMDL
MODEL 8
REMARK VINA RESULT:      -4.0      0.767      3.380
REMARK  2 active torsions:
REMARK  status: ('A' for Active; 'I' for Inactive)
REMARK    1  A    between atoms: C2_2  and  C5_5 
REMARK    2  A    between atoms: C2_2  and  C9_9 
ROOT
HETATM    1  C1  UNL     1     -33.655   7.297   5.332  1.00 20.00     0.225 C 
HETATM    2  C2  UNL     1     -33.619   6.890   4.092  1.00 20.00    -0.014 C 
HETATM    3  O10 UNL     1     -33.684   7.666   6.448  1.00 20.00    -0.284 OA
ENDROOT
BRANCH   2   4
HETATM    4  C5  UNL     1     -34.527   5.764   3.771  1.00 20.00     0.019 A 
HETATM    5  C3  UNL     1     -34.044   4.376   4.027  1.00 20.00     0.010 A 
HETATM    6  C4  UNL     1     -35.099   4.979   4.904  1.00 20.00     0.010 A 
ENDBRANCH   2   4
BRANCH   2   7
HETATM    7  C9  UNL     1     -32.766   7.522   2.987  1.00 20.00    -0.024 C 
HETATM    8  C6  UNL     1     -32.407   6.449   1.942  1.00 20.00     0.019 C 
HETATM    9  C7  UNL     1     -31.467   8.120   3.565  1.00 20.00     0.019 C 
HETATM   10  C8  UNL     1     -33.520   8.665   2.269  1.00 20.00     0.019 C 
ENDBRANCH   2   7
TORSDOF 2
ENDMDL
MODEL 9
REMARK VINA RESULT:      -4.0     11.556     12.617
REMARK  2 active torsions:
REMARK  status: ('A' for Active; 'I' for Inactive)
REMARK    1  A    between atoms: C2_2  and  C5_5 
REMARK    2  A    between atoms: C2_2  and  C9_9 
ROOT
HETATM    1  C1  UNL     1     -35.715  13.696  -4.927  1.00 20.00     0.225 C 
HETATM    2  C2  UNL     1     -35.598  14.903  -4.443  1.00 20.00    -0.014 C 
HETATM    3  O10 UNL     1     -35.824  12.609  -5.363  1.00 20.00    -0.284 OA
ENDROOT
BRANCH   2   4
HETATM    4  C5  UNL     1     -34.262  15.234  -3.894  1.00 20.00     0.019 A 
HETATM    5  C3  UNL     1     -33.093  14.428  -4.353  1.00 20.00     0.010 A 
HETATM    6  C4  UNL     1     -33.257  15.846  -4.811  1.00 20.00     0.010 A 
ENDBRANCH   2   4
BRANCH   2   7
HETATM    7  C9  UNL     1     -36.701  15.965  -4.462  1.00 20.00    -0.024 C 
HETATM    8  C6  UNL     1     -36.533  16.898  -3.249  1.00 20.00     0.019 C 
HETATM    9  C7  UNL     1     -38.098  15.312  -4.407  1.00 20.00     0.019 C 
HETATM   10  C8  UNL     1     -36.645  16.823  -5.746  1.00 20.00     0.019 C 
ENDBRANCH   2   7
TORSDOF 2
ENDMDL
