MODEL 1
REMARK VINA RESULT:      -6.4      0.000      0.000
REMARK  1 active torsions:
REMARK  status: ('A' for Active; 'I' for Inactive)
REMARK    1  A    between atoms: C5_5  and  C7_7 
ROOT
HETATM    1  C1  UNL     1     -34.474   4.608   5.439  1.00 20.00    -0.003 A 
HETATM    2  C2  UNL     1     -34.604   5.971   5.911  1.00 20.00    -0.003 A 
HETATM    3  C3  UNL     1     -34.094   4.646   4.149  1.00 20.00    -0.012 A 
HETATM    4  C4  UNL     1     -34.299   6.797   4.893  1.00 20.00    -0.012 A 
HETATM    5  C6  UNL     1     -34.354   6.471   2.320  1.00 20.00     0.032 A 
HETATM    6  C7  UNL     1     -32.890   6.443   2.707  1.00 20.00     0.072 A 
HETATM    7  C8  UNL     1     -33.945   6.034   3.687  1.00 20.00     0.006 A 
ENDROOT
BRANCH   6   8
HETATM    8  C5  UNL     1     -32.169   7.713   2.857  1.00 20.00     0.128 C 
HETATM    9  C9  UNL     1     -32.094   8.598   1.643  1.00 20.00     0.091 C 
HETATM   10  O10 UNL     1     -31.651   8.039   3.925  1.00 20.00    -0.298 OA
ENDBRANCH   6   8
TORSDOF 1
ENDMDL
MODEL 2
REMARK VINA RESULT:      -6.1      1.309      3.912
REMARK  1 active torsions:
REMARK  status: ('A' for Active; 'I' for Inactive)
REMARK    1  A    between atoms: C5_5  and  C7_7 
ROOT
HETATM    1  C1  UNL     1     -32.218   8.934   1.784  1.00 20.00    -0.003 A 
HETATM    2  C2  UNL     1     -31.389   8.734   2.955  1.00 20.00    -0.003 A 
HETATM    3  C3  UNL     1     -33.169   7.982   1.776  1.00 20.00    -0.012 A 
HETATM    4  C4  UNL     1     -31.861   7.665   3.624  1.00 20.00    -0.012 A 
HETATM    5  C6  UNL     1     -33.268   5.624   2.858  1.00 20.00     0.032 A 
HETATM    6  C7  UNL     1     -34.217   6.506   3.643  1.00 20.00     0.072 A 
HETATM    7  C8  UNL     1     -33.033   7.095   2.941  1.00 20.00     0.006 A 
ENDROOT
BRANCH   6   8
HETATM    8  C5  UNL     1     -34.250   6.393   5.106  1.00 20.00     0.128 C 
HETATM    9  C9  UNL     1     -34.617   5.049   5.673  1.00 20.00     0.091 C 
HETATM   10  O10 UNL     1     -33.989   7.350   5.834  1.00 20.00    -0.298 OA
ENDBRANCH   6   8
TORSDOF 1
ENDMDL
MODEL 3
REMARK VINA RESULT:      -6.1      1.606      2.703
REMARK  1 active torsions:
REMARK  status: ('A' for Active; 'I' for Inactive)
REMARK    1  A    between atoms: C5_5  and  C7_7 
ROOT
HETATM    1  C1  UNL     1     -34.381   6.166   4.056  1.00 20.00    -0.003 A 
HETATM    2  C2  UNL     1     -33.734   5.441   2.983  1.00 20.00    -0.003 A 
HETATM    3  C3  UNL     1     -33.800   7.376   4.154  1.00 20.00    -0.012 A 
HETATM    4  C4  UNL     1     -32.778   6.231   2.460  1.00 20.00    -0.012 A 
HETATM    5  C6  UNL     1     -31.453   8.232   3.446  1.00 20.00     0.032 A 
HETATM    6  C7  UNL     1     -32.450   8.836   2.479  1.00 20.00     0.072 A 
HETATM    7  C8  UNL     1     -32.736   7.529   3.151  1.00 20.00     0.006 A 
ENDROOT
BRANCH   6   8
HETATM    8  C5  UNL     1     -32.113   8.895   1.052  1.00 20.00     0.128 C 
HETATM    9  C9  UNL     1     -33.145   9.494   0.136  1.00 20.00     0.091 C 
HETATM   10  O10 UNL     1     -31.037   8.477   0.625  1.00 20.00    -0.298 OA
ENDBRANCH   6   8
TORSDOF 1
ENDMDL
MODEL 4
REMARK VINA RESULT:      -5.6      1.678      4.478
REMARK  1 active torsions:
REMARK  status: ('A' for Active; 'I' for Inactive)
REMARK    1  A    between atoms: C5_5  and  C7_7 
ROOT
HETATM    1  C1  UNL     1     -32.064   9.499   0.157  1.00 20.00    -0.003 A 
HETATM    2  C2  UNL     1     -33.073  10.163   0.957  1.00 20.00    -0.003 A 
HETATM    3  C3  UNL     1     -31.506   8.531   0.906  1.00 20.00    -0.012 A 
HETATM    4  C4  UNL     1     -33.098   9.577   2.169  1.00 20.00    -0.012 A 
HETATM    5  C6  UNL     1     -31.313   8.224   3.477  1.00 20.00     0.032 A 
HETATM    6  C7  UNL     1     -32.323   7.207   2.990  1.00 20.00     0.072 A 
HETATM    7  C8  UNL     1     -32.112   8.489   2.245  1.00 20.00     0.006 A 
ENDROOT
BRANCH   6   8
HETATM    8  C5  UNL     1     -33.542   6.980   3.775  1.00 20.00     0.128 C 
HETATM    9  C9  UNL     1     -34.599   6.111   3.150  1.00 20.00     0.091 C 
HETATM   10  O10 UNL     1     -33.692   7.475   4.892  1.00 20.00    -0.298 OA
ENDBRANCH   6   8
TORSDOF 1
ENDMDL
MODEL 5
REMARK VINA RESULT:      -5.3      1.624      2.646
REMARK  1 active torsions:
REMARK  status: ('A' for Active; 'I' for Inactive)
REMARK    1  A    between atoms: C5_5  and  C7_7 
ROOT
HETATM    1  C1  UNL     1     -34.342   6.302   4.517  1.00 20.00    -0.003 A 
HETATM    2  C2  UNL     1     -34.170   5.743   3.192  1.00 20.00    -0.003 A 
HETATM    3  C3  UNL     1     -33.512   7.355   4.638  1.00 20.00    -0.012 A 
HETATM    4  C4  UNL     1     -33.241   6.472   2.547  1.00 20.00    -0.012 A 
HETATM    5  C6  UNL     1     -31.309   7.973   3.411  1.00 20.00     0.032 A 
HETATM    6  C7  UNL     1     -32.374   8.924   2.906  1.00 20.00     0.072 A 
HETATM    7  C8  UNL     1     -32.743   7.561   3.402  1.00 20.00     0.006 A 
ENDROOT
BRANCH   6   8
HETATM    8  C5  UNL     1     -32.420   9.247   1.474  1.00 20.00     0.128 C 
HETATM    9  C9  UNL     1     -31.334   8.663   0.613  1.00 20.00     0.091 C 
HETATM   10  O10 UNL     1     -33.305   9.959   1.001  1.00 20.00    -0.298 OA
ENDBRANCH   6   8
TORSDOF 1
ENDMDL
MODEL 6
REMARK VINA RESULT:      -4.7      1.841      4.080
REMARK  1 active torsions:
REMARK  status: ('A' for Active; 'I' for Inactive)
REMARK    1  A    between atoms: C5_5  and  C7_7 
ROOT
HETATM    1  C1  UNL     1     -31.408   8.422   2.608  1.00 20.00    -0.003 A 
HETATM    2  C2  UNL     1     -32.638   8.355   1.847  1.00 20.00    -0.003 A 
HETATM    3  C3  UNL     1     -31.651   7.938   3.840  1.00 20.00    -0.012 A 
HETATM    4  C4  UNL     1     -33.593   7.832   2.638  1.00 20.00    -0.012 A 
HETATM    5  C6  UNL     1     -33.842   7.733   5.219  1.00 20.00     0.032 A 
HETATM    6  C7  UNL     1     -33.462   6.331   4.788  1.00 20.00     0.072 A 
HETATM    7  C8  UNL     1     -33.054   7.517   3.970  1.00 20.00     0.006 A 
ENDROOT
BRANCH   6   8
HETATM    8  C5  UNL     1     -34.514   5.418   4.326  1.00 20.00     0.128 C 
HETATM    9  C9  UNL     1     -34.202   3.947   4.367  1.00 20.00     0.091 C 
HETATM   10  O10 UNL     1     -35.600   5.835   3.924  1.00 20.00    -0.298 OA
ENDBRANCH   6   8
TORSDOF 1
ENDMDL
MODEL 7
REMARK VINA RESULT:      -4.5     11.659     12.178
REMARK  1 active torsions:
REMARK  status: ('A' for Active; 'I' for Inactive)
REMARK    1  A    between atoms: C5_5  and  C7_7 
ROOT
HETATM    1  C1  UNL     1     -34.594  17.223  -1.090  1.00 20.00    -0.003 A 
HETATM    2  C2  UNL     1     -33.351  17.391  -1.814  1.00 20.00    -0.003 A 
HETATM    3  C3  UNL     1     -35.479  16.627  -1.910  1.00 20.00    -0.012 A 
HETATM    4  C4  UNL     1     -33.517  16.892  -3.053  1.00 20.00    -0.012 A 
HETATM    5  C6  UNL     1     -35.637  16.516  -4.499  1.00 20.00     0.032 A 
HETATM    6  C7  UNL     1     -35.213  15.141  -4.027  1.00 20.00     0.072 A 
HETATM    7  C8  UNL     1     -34.877  16.360  -3.225  1.00 20.00     0.006 A 
ENDROOT
BRANCH   6   8
HETATM    8  C5  UNL     1     -34.177  14.418  -4.775  1.00 20.00     0.128 C 
HETATM    9  C9  UNL     1     -34.237  14.510  -6.276  1.00 20.00     0.091 C 
HETATM   10  O10 UNL     1     -33.302  13.769  -4.203  1.00 20.00    -0.298 OA
ENDBRANCH   6   8
TORSDOF 1
ENDMDL
MODEL 8
REMARK VINA RESULT:      -4.4     11.582     12.513
REMARK  1 active torsions:
REMARK  status: ('A' for Active; 'I' for Inactive)
REMARK    1  A    between atoms: C5_5  and  C7_7 
ROOT
HETATM    1  C1  UNL     1     -33.806  17.778  -3.481  1.00 20.00    -0.003 A 
HETATM    2  C2  UNL     1     -34.620  17.078  -2.510  1.00 20.00    -0.003 A 
HETATM    3  C3  UNL     1     -33.513  16.923  -4.477  1.00 20.00    -0.012 A 
HETATM    4  C4  UNL     1     -34.798  15.816  -2.945  1.00 20.00    -0.012 A 
HETATM    5  C6  UNL     1     -33.417  14.330  -4.561  1.00 20.00     0.032 A 
HETATM    6  C7  UNL     1     -34.647  14.747  -5.338  1.00 20.00     0.072 A 
HETATM    7  C8  UNL     1     -34.117  15.605  -4.231  1.00 20.00     0.006 A 
ENDROOT
BRANCH   6   8
HETATM    8  C5  UNL     1     -35.888  13.981  -5.173  1.00 20.00     0.128 C 
HETATM    9  C9  UNL     1     -37.168  14.769  -5.114  1.00 20.00     0.091 C 
HETATM   10  O10 UNL     1     -35.883  12.754  -5.088  1.00 20.00    -0.298 OA
ENDBRANCH   6   8
TORSDOF 1
ENDMDL
MODEL 9
REMARK VINA RESULT:      -4.4     11.807     12.759
REMARK  1 active torsions:
REMARK  status: ('A' for Active; 'I' for Inactive)
REMARK    1  A    between atoms: C5_5  and  C7_7 
ROOT
HETATM    1  C1  UNL     1     -34.749  16.864  -2.137  1.00 20.00    -0.003 A 
HETATM    2  C2  UNL     1     -35.863  16.339  -2.899  1.00 20.00    -0.003 A 
HETATM    3  C3  UNL     1     -33.610  16.482  -2.742  1.00 20.00    -0.012 A 
HETATM    4  C4  UNL     1     -35.367  15.653  -3.946  1.00 20.00    -0.012 A 
HETATM    5  C6  UNL     1     -33.075  14.502  -4.335  1.00 20.00     0.032 A 
HETATM    6  C7  UNL     1     -33.051  15.760  -5.177  1.00 20.00     0.072 A 
HETATM    7  C8  UNL     1     -33.897  15.684  -3.944  1.00 20.00     0.006 A 
ENDROOT
BRANCH   6   8
HETATM    8  C5  UNL     1     -33.657  15.735  -6.514  1.00 20.00     0.128 C 
HETATM    9  C9  UNL     1     -33.951  17.067  -7.149  1.00 20.00     0.091 C 
HETATM   10  O10 UNL     1     -33.912  14.677  -7.087  1.00 20.00    -0.298 OA
ENDBRANCH   6   8
TORSDOF 1
ENDMDL
