MODEL 1
REMARK VINA RESULT:      -5.8      0.000      0.000
REMARK  3 active torsions:
REMARK  status: ('A' for Active; 'I' for Inactive)
REMARK    1  A    between atoms: C7_7  and  C8_8 
REMARK    2  A    between atoms: C8_8  and  C9_9 
REMARK    3  A    between atoms: C9_9  and  N10_10 
ROOT
HETATM    1  C1  UNL     1     -32.857  10.294   1.033  1.00 20.00     0.012 C 
HETATM    2  C3  UNL     1     -32.351   9.355   1.583  1.00 20.00    -0.117 C 
HETATM    3  C7  UNL     1     -31.729   8.204   2.253  1.00 20.00     0.096 C 
ENDROOT
BRANCH   3   4
HETATM    4  C8  UNL     1     -32.434   7.841   3.567  1.00 20.00     0.061 C 
BRANCH   4   5
HETATM    5  C9  UNL     1     -33.679   6.949   3.401  1.00 20.00     0.300 C 
HETATM    6  C4  UNL     1     -33.323   5.611   2.900  1.00 20.00    -0.081 C 
HETATM    7  C2  UNL     1     -33.038   4.519   2.486  1.00 20.00     0.014 C 
BRANCH   5   8
HETATM    8  N10 UNL     1     -34.345   6.820   4.700  1.00 20.00     0.095 N 
HETATM    9  C5  UNL     1     -33.494   7.350   5.763  1.00 20.00     0.310 C 
HETATM   10  C6  UNL     1     -34.684   5.422   4.961  1.00 20.00     0.310 C 
ENDBRANCH   5   8
ENDBRANCH   4   5
ENDBRANCH   3   4
TORSDOF 3
ENDMDL
MODEL 2
REMARK VINA RESULT:      -5.6      1.190      2.197
REMARK  3 active torsions:
REMARK  status: ('A' for Active; 'I' for Inactive)
REMARK    1  A    between atoms: C7_7  and  C8_8 
REMARK    2  A    between atoms: C8_8  and  C9_9 
REMARK    3  A    between atoms: C9_9  and  N10_10 
ROOT
HETATM    1  C1  UNL     1     -32.481  10.272   0.780  1.00 20.00     0.012 C 
HETATM    2  C3  UNL     1     -32.296   9.353   1.529  1.00 20.00    -0.117 C 
HETATM    3  C7  UNL     1     -32.064   8.229   2.447  1.00 20.00     0.096 C 
ENDROOT
BRANCH   3   4
HETATM    4  C8  UNL     1     -33.264   7.274   2.516  1.00 20.00     0.061 C 
BRANCH   4   5
HETATM    5  C9  UNL     1     -33.240   6.299   3.708  1.00 20.00     0.300 C 
HETATM    6  C4  UNL     1     -33.440   7.001   4.987  1.00 20.00    -0.081 C 
HETATM    7  C2  UNL     1     -33.599   7.571   6.033  1.00 20.00     0.014 C 
BRANCH   5   8
HETATM    8  N10 UNL     1     -34.301   5.304   3.529  1.00 20.00     0.095 N 
HETATM    9  C5  UNL     1     -35.614   5.934   3.650  1.00 20.00     0.310 C 
HETATM   10  C6  UNL     1     -34.156   4.225   4.504  1.00 20.00     0.310 C 
ENDBRANCH   5   8
ENDBRANCH   4   5
ENDBRANCH   3   4
TORSDOF 3
ENDMDL
MODEL 3
REMARK VINA RESULT:      -5.1      0.964      2.434
REMARK  3 active torsions:
REMARK  status: ('A' for Active; 'I' for Inactive)
REMARK    1  A    between atoms: C7_7  and  C8_8 
REMARK    2  A    between atoms: C8_8  and  C9_9 
REMARK    3  A    between atoms: C9_9  and  N10_10 
ROOT
HETATM    1  C1  UNL     1     -32.537  10.129   0.416  1.00 20.00     0.012 C 
HETATM    2  C3  UNL     1     -32.302   9.339   1.288  1.00 20.00    -0.117 C 
HETATM    3  C7  UNL     1     -32.010   8.372   2.355  1.00 20.00     0.096 C 
ENDROOT
BRANCH   3   4
HETATM    4  C8  UNL     1     -33.266   7.633   2.834  1.00 20.00     0.061 C 
BRANCH   4   5
HETATM    5  C9  UNL     1     -33.031   6.662   4.008  1.00 20.00     0.300 C 
HETATM    6  C4  UNL     1     -33.443   7.254   5.291  1.00 20.00    -0.081 C 
HETATM    7  C2  UNL     1     -33.774   7.736   6.341  1.00 20.00     0.014 C 
BRANCH   5   8
HETATM    8  N10 UNL     1     -33.798   5.436   3.770  1.00 20.00     0.095 N 
HETATM    9  C5  UNL     1     -33.305   4.752   2.576  1.00 20.00     0.310 C 
HETATM   10  C6  UNL     1     -35.221   5.744   3.635  1.00 20.00     0.310 C 
ENDBRANCH   5   8
ENDBRANCH   4   5
ENDBRANCH   3   4
TORSDOF 3
ENDMDL
MODEL 4
REMARK VINA RESULT:      -4.8      1.386      4.393
REMARK  3 active torsions:
REMARK  status: ('A' for Active; 'I' for Inactive)
REMARK    1  A    between atoms: C7_7  and  C8_8 
REMARK    2  A    between atoms: C8_8  and  C9_9 
REMARK    3  A    between atoms: C9_9  and  N10_10 
ROOT
HETATM    1  C1  UNL     1     -34.619   4.187   5.151  1.00 20.00     0.012 C 
HETATM    2  C3  UNL     1     -34.181   4.510   4.082  1.00 20.00    -0.117 C 
HETATM    3  C7  UNL     1     -33.646   4.902   2.770  1.00 20.00     0.096 C 
ENDROOT
BRANCH   3   4
HETATM    4  C8  UNL     1     -32.684   6.094   2.864  1.00 20.00     0.061 C 
BRANCH   4   5
HETATM    5  C9  UNL     1     -33.340   7.415   3.309  1.00 20.00     0.300 C 
HETATM    6  C4  UNL     1     -33.492   7.478   4.772  1.00 20.00    -0.081 C 
HETATM    7  C2  UNL     1     -33.621   7.532   5.965  1.00 20.00     0.014 C 
BRANCH   5   8
HETATM    8  N10 UNL     1     -32.508   8.534   2.857  1.00 20.00     0.095 N 
HETATM    9  C5  UNL     1     -32.509   8.610   1.397  1.00 20.00     0.310 C 
HETATM   10  C6  UNL     1     -31.144   8.390   3.364  1.00 20.00     0.310 C 
ENDBRANCH   5   8
ENDBRANCH   4   5
ENDBRANCH   3   4
TORSDOF 3
ENDMDL
MODEL 5
REMARK VINA RESULT:      -4.4      1.460      4.030
REMARK  3 active torsions:
REMARK  status: ('A' for Active; 'I' for Inactive)
REMARK    1  A    between atoms: C7_7  and  C8_8 
REMARK    2  A    between atoms: C8_8  and  C9_9 
REMARK    3  A    between atoms: C9_9  and  N10_10 
ROOT
HETATM    1  C1  UNL     1     -34.730   4.623   5.773  1.00 20.00     0.012 C 
HETATM    2  C3  UNL     1     -34.377   5.764   5.660  1.00 20.00    -0.117 C 
HETATM    3  C7  UNL     1     -33.945   7.163   5.527  1.00 20.00     0.096 C 
ENDROOT
BRANCH   3   4
HETATM    4  C8  UNL     1     -33.759   7.580   4.062  1.00 20.00     0.061 C 
BRANCH   4   5
HETATM    5  C9  UNL     1     -32.557   6.924   3.356  1.00 20.00     0.300 C 
HETATM    6  C4  UNL     1     -32.935   5.657   2.708  1.00 20.00    -0.081 C 
HETATM    7  C2  UNL     1     -33.238   4.620   2.182  1.00 20.00     0.014 C 
BRANCH   5   8
HETATM    8  N10 UNL     1     -32.037   7.850   2.346  1.00 20.00     0.095 N 
HETATM    9  C5  UNL     1     -31.182   8.858   2.972  1.00 20.00     0.310 C 
HETATM   10  C6  UNL     1     -33.138   8.487   1.625  1.00 20.00     0.310 C 
ENDBRANCH   5   8
ENDBRANCH   4   5
ENDBRANCH   3   4
TORSDOF 3
ENDMDL
MODEL 6
REMARK VINA RESULT:      -4.2     11.044     11.848
REMARK  3 active torsions:
REMARK  status: ('A' for Active; 'I' for Inactive)
REMARK    1  A    between atoms: C7_7  and  C8_8 
REMARK    2  A    between atoms: C8_8  and  C9_9 
REMARK    3  A    between atoms: C9_9  and  N10_10 
ROOT
HETATM    1  C1  UNL     1     -32.877  18.122  -1.381  1.00 20.00     0.012 C 
HETATM    2  C3  UNL     1     -33.909  17.511  -1.433  1.00 20.00    -0.117 C 
HETATM    3  C7  UNL     1     -35.173  16.764  -1.492  1.00 20.00     0.096 C 
ENDROOT
BRANCH   3   4
HETATM    4  C8  UNL     1     -35.603  16.456  -2.932  1.00 20.00     0.061 C 
BRANCH   4   5
HETATM    5  C9  UNL     1     -34.601  15.603  -3.733  1.00 20.00     0.300 C 
HETATM    6  C4  UNL     1     -35.268  14.481  -4.415  1.00 20.00    -0.081 C 
HETATM    7  C2  UNL     1     -35.808  13.563  -4.970  1.00 20.00     0.014 C 
BRANCH   5   8
HETATM    8  N10 UNL     1     -33.942  16.454  -4.728  1.00 20.00     0.095 N 
HETATM    9  C5  UNL     1     -34.935  17.072  -5.605  1.00 20.00     0.310 C 
HETATM   10  C6  UNL     1     -32.981  15.675  -5.507  1.00 20.00     0.310 C 
ENDBRANCH   5   8
ENDBRANCH   4   5
ENDBRANCH   3   4
TORSDOF 3
ENDMDL
MODEL 7
REMARK VINA RESULT:      -4.1     10.483     11.312
REMARK  3 active torsions:
REMARK  status: ('A' for Active; 'I' for Inactive)
REMARK    1  A    between atoms: C7_7  and  C8_8 
REMARK    2  A    between atoms: C8_8  and  C9_9 
REMARK    3  A    between atoms: C9_9  and  N10_10 
ROOT
HETATM    1  C1  UNL     1     -35.482  17.359  -0.285  1.00 20.00     0.012 C 
HETATM    2  C3  UNL     1     -35.047  16.976  -1.336  1.00 20.00    -0.117 C 
HETATM    3  C7  UNL     1     -34.509  16.509  -2.621  1.00 20.00     0.096 C 
ENDROOT
BRANCH   3   4
HETATM    4  C8  UNL     1     -35.553  15.750  -3.450  1.00 20.00     0.061 C 
BRANCH   4   5
HETATM    5  C9  UNL     1     -34.989  15.033  -4.691  1.00 20.00     0.300 C 
HETATM    6  C4  UNL     1     -33.638  14.501  -4.443  1.00 20.00    -0.081 C 
HETATM    7  C2  UNL     1     -32.534  14.070  -4.245  1.00 20.00     0.014 C 
BRANCH   5   8
HETATM    8  N10 UNL     1     -35.886  13.931  -5.051  1.00 20.00     0.095 N 
HETATM    9  C5  UNL     1     -35.552  13.417  -6.379  1.00 20.00     0.310 C 
HETATM   10  C6  UNL     1     -37.279  14.374  -5.007  1.00 20.00     0.310 C 
ENDBRANCH   5   8
ENDBRANCH   4   5
ENDBRANCH   3   4
TORSDOF 3
ENDMDL
MODEL 8
REMARK VINA RESULT:      -4.1     10.831     12.095
REMARK  3 active torsions:
REMARK  status: ('A' for Active; 'I' for Inactive)
REMARK    1  A    between atoms: C7_7  and  C8_8 
REMARK    2  A    between atoms: C8_8  and  C9_9 
REMARK    3  A    between atoms: C9_9  and  N10_10 
ROOT
HETATM    1  C1  UNL     1     -38.137  14.765  -4.900  1.00 20.00     0.012 C 
HETATM    2  C3  UNL     1     -37.059  14.245  -4.992  1.00 20.00    -0.117 C 
HETATM    3  C7  UNL     1     -35.741  13.606  -5.109  1.00 20.00     0.096 C 
ENDROOT
BRANCH   3   4
HETATM    4  C8  UNL     1     -34.690  14.265  -4.206  1.00 20.00     0.061 C 
BRANCH   4   5
HETATM    5  C9  UNL     1     -34.751  15.804  -4.168  1.00 20.00     0.300 C 
HETATM    6  C4  UNL     1     -35.006  16.302  -2.805  1.00 20.00    -0.081 C 
HETATM    7  C2  UNL     1     -35.218  16.713  -1.696  1.00 20.00     0.014 C 
BRANCH   5   8
HETATM    8  N10 UNL     1     -33.476  16.341  -4.651  1.00 20.00     0.095 N 
HETATM    9  C5  UNL     1     -33.530  17.801  -4.710  1.00 20.00     0.310 C 
HETATM   10  C6  UNL     1     -33.156  15.785  -5.965  1.00 20.00     0.310 C 
ENDBRANCH   5   8
ENDBRANCH   4   5
ENDBRANCH   3   4
TORSDOF 3
ENDMDL
MODEL 9
REMARK VINA RESULT:      -4.1     10.932     12.182
REMARK  3 active torsions:
REMARK  status: ('A' for Active; 'I' for Inactive)
REMARK    1  A    between atoms: C7_7  and  C8_8 
REMARK    2  A    between atoms: C8_8  and  C9_9 
REMARK    3  A    between atoms: C9_9  and  N10_10 
ROOT
HETATM    1  C1  UNL     1     -35.227  13.295  -7.593  1.00 20.00     0.012 C 
HETATM    2  C3  UNL     1     -35.503  13.404  -6.430  1.00 20.00    -0.117 C 
HETATM    3  C7  UNL     1     -35.846  13.536  -5.006  1.00 20.00     0.096 C 
ENDROOT
BRANCH   3   4
HETATM    4  C8  UNL     1     -34.798  14.340  -4.225  1.00 20.00     0.061 C 
BRANCH   4   5
HETATM    5  C9  UNL     1     -35.074  15.854  -4.155  1.00 20.00     0.300 C 
HETATM    6  C4  UNL     1     -35.039  16.348  -2.768  1.00 20.00    -0.081 C 
HETATM    7  C2  UNL     1     -35.017  16.753  -1.638  1.00 20.00     0.014 C 
BRANCH   5   8
HETATM    8  N10 UNL     1     -34.060  16.558  -4.947  1.00 20.00     0.095 N 
HETATM    9  C5  UNL     1     -34.645  17.065  -6.186  1.00 20.00     0.310 C 
HETATM   10  C6  UNL     1     -32.934  15.670  -5.235  1.00 20.00     0.310 C 
ENDBRANCH   5   8
ENDBRANCH   4   5
ENDBRANCH   3   4
TORSDOF 3
ENDMDL
