MODEL 1
REMARK VINA RESULT:      -5.0      0.000      0.000
REMARK  2 active torsions:
REMARK  status: ('A' for Active; 'I' for Inactive)
REMARK    1  A    between atoms: C1_1  and  N9_9 
REMARK    2  A    between atoms: C4_4  and  C8_8 
ROOT
HETATM    1  C2  UNL     1     -33.580   8.221   3.649  1.00 20.00     0.031 C 
HETATM    2  C3  UNL     1     -33.032   6.017   2.893  1.00 20.00     0.130 C 
HETATM    3  C4  UNL     1     -32.438   7.417   3.014  1.00 20.00     0.005 C 
HETATM    4  C5  UNL     1     -34.227   7.224   4.616  1.00 20.00     0.083 C 
HETATM    5  C6  UNL     1     -33.616   7.293   6.013  1.00 20.00     0.032 C 
HETATM    6  N9  UNL     1     -33.981   5.927   3.992  1.00 20.00    -0.355 N 
ENDROOT
BRANCH   3   7
HETATM    7  C8  UNL     1     -31.972   7.988   1.687  1.00 20.00     0.002 C 
HETATM    8  C7  UNL     1     -32.353   9.427   1.531  1.00 20.00     0.005 C 
ENDBRANCH   3   7
BRANCH   6   9
HETATM    9  C1  UNL     1     -34.634   4.766   4.333  1.00 20.00     0.351 C 
HETATM   10  O10 UNL     1     -34.222   3.620   4.193  1.00 20.00    -0.284 OA
ENDBRANCH   6   9
TORSDOF 2
ENDMDL
MODEL 2
REMARK VINA RESULT:      -4.4      1.561      2.311
REMARK  2 active torsions:
REMARK  status: ('A' for Active; 'I' for Inactive)
REMARK    1  A    between atoms: C1_1  and  N9_9 
REMARK    2  A    between atoms: C4_4  and  C8_8 
ROOT
HETATM    1  C2  UNL     1     -32.906   6.301   2.415  1.00 20.00     0.031 C 
HETATM    2  C3  UNL     1     -32.687   8.247   3.791  1.00 20.00     0.130 C 
HETATM    3  C4  UNL     1     -32.826   7.830   2.330  1.00 20.00     0.005 C 
HETATM    4  C5  UNL     1     -33.705   6.054   3.700  1.00 20.00     0.083 C 
HETATM    5  C6  UNL     1     -35.206   5.959   3.439  1.00 20.00     0.032 C 
HETATM    6  N9  UNL     1     -33.383   7.209   4.534  1.00 20.00    -0.355 N 
ENDROOT
BRANCH   3   7
HETATM    7  C8  UNL     1     -31.686   8.319   1.455  1.00 20.00     0.002 C 
HETATM    8  C7  UNL     1     -32.078   9.511   0.638  1.00 20.00     0.005 C 
ENDBRANCH   3   7
BRANCH   6   9
HETATM    9  C1  UNL     1     -33.620   7.279   5.887  1.00 20.00     0.351 C 
HETATM   10  O10 UNL     1     -34.425   6.615   6.529  1.00 20.00    -0.284 OA
ENDBRANCH   6   9
TORSDOF 2
ENDMDL
MODEL 3
REMARK VINA RESULT:      -4.4     11.471     11.956
REMARK  2 active torsions:
REMARK  status: ('A' for Active; 'I' for Inactive)
REMARK    1  A    between atoms: C1_1  and  N9_9 
REMARK    2  A    between atoms: C4_4  and  C8_8 
ROOT
HETATM    1  C2  UNL     1     -33.650  15.919  -3.318  1.00 20.00     0.031 C 
HETATM    2  C3  UNL     1     -35.983  15.514  -3.675  1.00 20.00     0.130 C 
HETATM    3  C4  UNL     1     -35.025  16.577  -3.146  1.00 20.00     0.005 C 
HETATM    4  C5  UNL     1     -33.791  15.132  -4.626  1.00 20.00     0.083 C 
HETATM    5  C6  UNL     1     -33.373  15.952  -5.843  1.00 20.00     0.032 C 
HETATM    6  N9  UNL     1     -35.211  14.794  -4.675  1.00 20.00    -0.355 N 
ENDROOT
BRANCH   3   7
HETATM    7  C8  UNL     1     -35.315  16.987  -1.713  1.00 20.00     0.002 C 
HETATM    8  C7  UNL     1     -34.088  17.483  -1.013  1.00 20.00     0.005 C 
ENDBRANCH   3   7
BRANCH   6   9
HETATM    9  C1  UNL     1     -35.752  13.838  -5.502  1.00 20.00     0.351 C 
HETATM   10  O10 UNL     1     -35.854  12.638  -5.275  1.00 20.00    -0.284 OA
ENDBRANCH   6   9
TORSDOF 2
ENDMDL
MODEL 4
REMARK VINA RESULT:      -4.0     11.260     11.977
REMARK  2 active torsions:
REMARK  status: ('A' for Active; 'I' for Inactive)
REMARK    1  A    between atoms: C1_1  and  N9_9 
REMARK    2  A    between atoms: C4_4  and  C8_8 
ROOT
HETATM    1  C2  UNL     1     -35.674  17.013  -3.975  1.00 20.00     0.031 C 
HETATM    2  C3  UNL     1     -34.407  14.997  -3.731  1.00 20.00     0.130 C 
HETATM    3  C4  UNL     1     -34.892  16.204  -2.933  1.00 20.00     0.005 C 
HETATM    4  C5  UNL     1     -36.342  15.937  -4.838  1.00 20.00     0.083 C 
HETATM    5  C6  UNL     1     -37.729  15.561  -4.323  1.00 20.00     0.032 C 
HETATM    6  N9  UNL     1     -35.421  14.807  -4.756  1.00 20.00    -0.355 N 
ENDROOT
BRANCH   3   7
HETATM    7  C8  UNL     1     -33.764  16.990  -2.290  1.00 20.00     0.002 C 
HETATM    8  C7  UNL     1     -34.154  17.538  -0.952  1.00 20.00     0.005 C 
ENDBRANCH   3   7
BRANCH   6   9
HETATM    9  C1  UNL     1     -35.442  13.727  -5.607  1.00 20.00     0.351 C 
HETATM   10  O10 UNL     1     -35.897  12.614  -5.374  1.00 20.00    -0.284 OA
ENDBRANCH   6   9
TORSDOF 2
ENDMDL
MODEL 5
REMARK VINA RESULT:      -4.0     11.534     12.107
REMARK  2 active torsions:
REMARK  status: ('A' for Active; 'I' for Inactive)
REMARK    1  A    between atoms: C1_1  and  N9_9 
REMARK    2  A    between atoms: C4_4  and  C8_8 
ROOT
HETATM    1  C2  UNL     1     -35.728  16.297  -4.444  1.00 20.00     0.031 C 
HETATM    2  C3  UNL     1     -34.000  14.647  -4.593  1.00 20.00     0.130 C 
HETATM    3  C4  UNL     1     -34.722  15.529  -3.578  1.00 20.00     0.005 C 
HETATM    4  C5  UNL     1     -36.158  15.267  -5.494  1.00 20.00     0.083 C 
HETATM    5  C6  UNL     1     -37.385  14.471  -5.056  1.00 20.00     0.032 C 
HETATM    6  N9  UNL     1     -34.988  14.405  -5.632  1.00 20.00    -0.355 N 
ENDROOT
BRANCH   3   7
HETATM    7  C8  UNL     1     -33.787  16.438  -2.800  1.00 20.00     0.002 C 
HETATM    8  C7  UNL     1     -34.442  17.001  -1.578  1.00 20.00     0.005 C 
ENDBRANCH   3   7
BRANCH   6   9
HETATM    9  C1  UNL     1     -34.789  13.528  -6.673  1.00 20.00     0.351 C 
HETATM   10  O10 UNL     1     -35.123  12.350  -6.719  1.00 20.00    -0.284 OA
ENDBRANCH   6   9
TORSDOF 2
ENDMDL
MODEL 6
REMARK VINA RESULT:      -3.8     11.937     12.650
REMARK  2 active torsions:
REMARK  status: ('A' for Active; 'I' for Inactive)
REMARK    1  A    between atoms: C1_1  and  N9_9 
REMARK    2  A    between atoms: C4_4  and  C8_8 
ROOT
HETATM    1  C2  UNL     1     -35.707  15.866  -3.709  1.00 20.00     0.031 C 
HETATM    2  C3  UNL     1     -33.442  16.214  -4.400  1.00 20.00     0.130 C 
HETATM    3  C4  UNL     1     -34.276  15.914  -3.158  1.00 20.00     0.005 C 
HETATM    4  C5  UNL     1     -35.539  15.225  -5.090  1.00 20.00     0.083 C 
HETATM    5  C6  UNL     1     -35.677  13.705  -5.044  1.00 20.00     0.032 C 
HETATM    6  N9  UNL     1     -34.195  15.624  -5.496  1.00 20.00    -0.355 N 
ENDROOT
BRANCH   3   7
HETATM    7  C8  UNL     1     -34.096  16.938  -2.052  1.00 20.00     0.002 C 
HETATM    8  C7  UNL     1     -35.290  17.007  -1.152  1.00 20.00     0.005 C 
ENDBRANCH   3   7
BRANCH   6   9
HETATM    9  C1  UNL     1     -33.717  15.543  -6.783  1.00 20.00     0.351 C 
HETATM   10  O10 UNL     1     -34.370  15.608  -7.817  1.00 20.00    -0.284 OA
ENDBRANCH   6   9
TORSDOF 2
ENDMDL
MODEL 7
REMARK VINA RESULT:      -3.7     11.812     12.780
REMARK  2 active torsions:
REMARK  status: ('A' for Active; 'I' for Inactive)
REMARK    1  A    between atoms: C1_1  and  N9_9 
REMARK    2  A    between atoms: C4_4  and  C8_8 
ROOT
HETATM    1  C2  UNL     1     -35.047  16.249  -2.490  1.00 20.00     0.031 C 
HETATM    2  C3  UNL     1     -33.446  17.669  -3.562  1.00 20.00     0.130 C 
HETATM    3  C4  UNL     1     -33.707  16.953  -2.240  1.00 20.00     0.005 C 
HETATM    4  C5  UNL     1     -34.962  15.826  -3.960  1.00 20.00     0.083 C 
HETATM    5  C6  UNL     1     -34.378  14.426  -4.128  1.00 20.00     0.032 C 
HETATM    6  N9  UNL     1     -34.098  16.838  -4.562  1.00 20.00    -0.355 N 
ENDROOT
BRANCH   3   7
HETATM    7  C8  UNL     1     -33.738  17.890  -1.046  1.00 20.00     0.002 C 
HETATM    8  C7  UNL     1     -34.963  17.689  -0.209  1.00 20.00     0.005 C 
ENDBRANCH   3   7
BRANCH   6   9
HETATM    9  C1  UNL     1     -33.979  17.052  -5.915  1.00 20.00     0.351 C 
HETATM   10  O10 UNL     1     -34.797  16.764  -6.782  1.00 20.00    -0.284 OA
ENDBRANCH   6   9
TORSDOF 2
ENDMDL
MODEL 8
REMARK VINA RESULT:      -3.6     11.229     12.275
REMARK  2 active torsions:
REMARK  status: ('A' for Active; 'I' for Inactive)
REMARK    1  A    between atoms: C1_1  and  N9_9 
REMARK    2  A    between atoms: C4_4  and  C8_8 
ROOT
HETATM    1  C2  UNL     1     -34.569  16.128  -3.014  1.00 20.00     0.031 C 
HETATM    2  C3  UNL     1     -36.121  16.234  -4.834  1.00 20.00     0.130 C 
HETATM    3  C4  UNL     1     -35.176  17.114  -4.021  1.00 20.00     0.005 C 
HETATM    4  C5  UNL     1     -34.429  14.832  -3.820  1.00 20.00     0.083 C 
HETATM    5  C6  UNL     1     -33.070  14.721  -4.505  1.00 20.00     0.032 C 
HETATM    6  N9  UNL     1     -35.512  14.914  -4.797  1.00 20.00    -0.355 N 
ENDROOT
BRANCH   3   7
HETATM    7  C8  UNL     1     -35.872  18.290  -3.360  1.00 20.00     0.002 C 
HETATM    8  C7  UNL     1     -37.269  17.952  -2.941  1.00 20.00     0.005 C 
ENDBRANCH   3   7
BRANCH   6   9
HETATM    9  C1  UNL     1     -35.973  13.848  -5.534  1.00 20.00     0.351 C 
HETATM   10  O10 UNL     1     -35.913  12.662  -5.232  1.00 20.00    -0.284 OA
ENDBRANCH   6   9
TORSDOF 2
ENDMDL
MODEL 9
REMARK VINA RESULT:      -3.6     11.050     12.564
REMARK  2 active torsions:
REMARK  status: ('A' for Active; 'I' for Inactive)
REMARK    1  A    between atoms: C1_1  and  N9_9 
REMARK    2  A    between atoms: C4_4  and  C8_8 
ROOT
HETATM    1  C2  UNL     1     -33.818  16.357  -3.895  1.00 20.00     0.031 C 
HETATM    2  C3  UNL     1     -34.802  16.118  -6.064  1.00 20.00     0.130 C 
HETATM    3  C4  UNL     1     -33.758  16.938  -5.312  1.00 20.00     0.005 C 
HETATM    4  C5  UNL     1     -34.068  14.863  -4.129  1.00 20.00     0.083 C 
HETATM    5  C6  UNL     1     -32.770  14.067  -4.228  1.00 20.00     0.032 C 
HETATM    6  N9  UNL     1     -34.809  14.830  -5.388  1.00 20.00    -0.355 N 
ENDROOT
BRANCH   3   7
HETATM    7  C8  UNL     1     -34.023  18.433  -5.357  1.00 20.00     0.002 C 
HETATM    8  C7  UNL     1     -33.105  19.192  -4.451  1.00 20.00     0.005 C 
ENDBRANCH   3   7
BRANCH   6   9
HETATM    9  C1  UNL     1     -35.513  13.741  -5.845  1.00 20.00     0.351 C 
HETATM   10  O10 UNL     1     -35.876  12.770  -5.191  1.00 20.00    -0.284 OA
ENDBRANCH   6   9
TORSDOF 2
ENDMDL
