MODEL 1
REMARK VINA RESULT:      -5.2      0.000      0.000
REMARK  2 active torsions:
REMARK  status: ('A' for Active; 'I' for Inactive)
REMARK    1  A    between atoms: C1_1  and  C7_7 
REMARK    2  A    between atoms: C4_4  and  C7_7 
ROOT
HETATM    1  C6  UNL     1     -33.621   5.935   2.301  1.00 20.00     0.018 C 
HETATM    2  C7  UNL     1     -32.982   6.628   3.501  1.00 20.00     0.055 C 
ENDROOT
BRANCH   2   3
HETATM    3  C1  UNL     1     -32.191   7.858   3.066  1.00 20.00     0.127 C 
HETATM    4  C5  UNL     1     -32.562   8.472   1.739  1.00 20.00     0.091 C 
HETATM    5  O8  UNL     1     -31.273   8.325   3.740  1.00 20.00    -0.298 OA
ENDBRANCH   2   3
BRANCH   2   6
HETATM    6  C4  UNL     1     -34.040   7.025   4.524  1.00 20.00    -0.004 A 
HETATM    7  C2  UNL     1     -34.407   6.085   5.638  1.00 20.00     0.006 A 
HETATM    8  C3  UNL     1     -33.644   7.345   5.938  1.00 20.00     0.006 A 
ENDBRANCH   2   6
TORSDOF 2
ENDMDL
MODEL 2
REMARK VINA RESULT:      -5.1      2.104      3.809
REMARK  2 active torsions:
REMARK  status: ('A' for Active; 'I' for Inactive)
REMARK    1  A    between atoms: C1_1  and  C7_7 
REMARK    2  A    between atoms: C4_4  and  C7_7 
ROOT
HETATM    1  C6  UNL     1     -33.928   7.289   6.008  1.00 20.00     0.018 C 
HETATM    2  C7  UNL     1     -33.551   6.604   4.697  1.00 20.00     0.055 C 
ENDROOT
BRANCH   2   3
HETATM    3  C1  UNL     1     -34.628   5.612   4.270  1.00 20.00     0.127 C 
HETATM    4  C5  UNL     1     -34.329   4.148   4.484  1.00 20.00     0.091 C 
HETATM    5  O8  UNL     1     -35.684   5.968   3.749  1.00 20.00    -0.298 OA
ENDBRANCH   2   3
BRANCH   2   6
HETATM    6  C4  UNL     1     -33.324   7.632   3.595  1.00 20.00    -0.004 A 
HETATM    7  C2  UNL     1     -31.927   8.029   3.206  1.00 20.00     0.006 A 
HETATM    8  C3  UNL     1     -32.764   7.206   2.267  1.00 20.00     0.006 A 
ENDBRANCH   2   6
TORSDOF 2
ENDMDL
MODEL 3
REMARK VINA RESULT:      -5.1      1.439      3.313
REMARK  2 active torsions:
REMARK  status: ('A' for Active; 'I' for Inactive)
REMARK    1  A    between atoms: C1_1  and  C7_7 
REMARK    2  A    between atoms: C4_4  and  C7_7 
ROOT
HETATM    1  C6  UNL     1     -34.820   6.069   3.034  1.00 20.00     0.018 C 
HETATM    2  C7  UNL     1     -33.960   7.077   3.794  1.00 20.00     0.055 C 
ENDROOT
BRANCH   2   3
HETATM    3  C1  UNL     1     -33.914   6.744   5.282  1.00 20.00     0.127 C 
HETATM    4  C5  UNL     1     -34.493   5.416   5.702  1.00 20.00     0.091 C 
HETATM    5  O8  UNL     1     -33.455   7.522   6.118  1.00 20.00    -0.298 OA
ENDBRANCH   2   3
BRANCH   2   6
HETATM    6  C4  UNL     1     -32.546   7.120   3.226  1.00 20.00    -0.004 A 
HETATM    7  C2  UNL     1     -32.186   8.122   2.165  1.00 20.00     0.006 A 
HETATM    8  C3  UNL     1     -31.634   8.267   3.555  1.00 20.00     0.006 A 
ENDBRANCH   2   6
TORSDOF 2
ENDMDL
MODEL 4
REMARK VINA RESULT:      -5.0      1.078      1.231
REMARK  2 active torsions:
REMARK  status: ('A' for Active; 'I' for Inactive)
REMARK    1  A    between atoms: C1_1  and  C7_7 
REMARK    2  A    between atoms: C4_4  and  C7_7 
ROOT
HETATM    1  C6  UNL     1     -33.562   5.384   2.540  1.00 20.00     0.018 C 
HETATM    2  C7  UNL     1     -33.045   6.391   3.565  1.00 20.00     0.055 C 
ENDROOT
BRANCH   2   3
HETATM    3  C1  UNL     1     -32.489   7.634   2.878  1.00 20.00     0.127 C 
HETATM    4  C5  UNL     1     -31.345   8.338   3.564  1.00 20.00     0.091 C 
HETATM    5  O8  UNL     1     -32.957   8.072   1.827  1.00 20.00    -0.298 OA
ENDBRANCH   2   3
BRANCH   2   6
HETATM    6  C4  UNL     1     -34.147   6.785   4.541  1.00 20.00    -0.004 A 
HETATM    7  C2  UNL     1     -34.439   5.927   5.741  1.00 20.00     0.006 A 
HETATM    8  C3  UNL     1     -33.799   7.276   5.917  1.00 20.00     0.006 A 
ENDBRANCH   2   6
TORSDOF 2
ENDMDL
MODEL 5
REMARK VINA RESULT:      -4.7      1.550      2.426
REMARK  2 active torsions:
REMARK  status: ('A' for Active; 'I' for Inactive)
REMARK    1  A    between atoms: C1_1  and  C7_7 
REMARK    2  A    between atoms: C4_4  and  C7_7 
ROOT
HETATM    1  C6  UNL     1     -33.498   7.329   5.743  1.00 20.00     0.018 C 
HETATM    2  C7  UNL     1     -34.202   7.045   4.418  1.00 20.00     0.055 C 
ENDROOT
BRANCH   2   3
HETATM    3  C1  UNL     1     -33.215   7.077   3.256  1.00 20.00     0.127 C 
HETATM    4  C5  UNL     1     -31.943   7.861   3.463  1.00 20.00     0.091 C 
HETATM    5  O8  UNL     1     -33.441   6.518   2.183  1.00 20.00    -0.298 OA
ENDBRANCH   2   3
BRANCH   2   6
HETATM    6  C4  UNL     1     -34.913   5.697   4.460  1.00 20.00    -0.004 A 
HETATM    7  C2  UNL     1     -34.129   4.423   4.314  1.00 20.00     0.006 A 
HETATM    8  C3  UNL     1     -34.736   4.785   5.641  1.00 20.00     0.006 A 
ENDBRANCH   2   6
TORSDOF 2
ENDMDL
MODEL 6
REMARK VINA RESULT:      -4.6      2.141      3.556
REMARK  2 active torsions:
REMARK  status: ('A' for Active; 'I' for Inactive)
REMARK    1  A    between atoms: C1_1  and  C7_7 
REMARK    2  A    between atoms: C4_4  and  C7_7 
ROOT
HETATM    1  C6  UNL     1     -32.979   5.039   2.537  1.00 20.00     0.018 C 
HETATM    2  C7  UNL     1     -34.021   5.924   3.217  1.00 20.00     0.055 C 
ENDROOT
BRANCH   2   3
HETATM    3  C1  UNL     1     -34.450   5.335   4.556  1.00 20.00     0.127 C 
HETATM    4  C5  UNL     1     -34.375   6.244   5.758  1.00 20.00     0.091 C 
HETATM    5  O8  UNL     1     -34.818   4.166   4.676  1.00 20.00    -0.298 OA
ENDBRANCH   2   3
BRANCH   2   6
HETATM    6  C4  UNL     1     -33.484   7.337   3.418  1.00 20.00    -0.004 A 
HETATM    7  C2  UNL     1     -32.004   7.597   3.376  1.00 20.00     0.006 A 
HETATM    8  C3  UNL     1     -32.887   8.091   2.264  1.00 20.00     0.006 A 
ENDBRANCH   2   6
TORSDOF 2
ENDMDL
MODEL 7
REMARK VINA RESULT:      -4.4      1.024      2.110
REMARK  2 active torsions:
REMARK  status: ('A' for Active; 'I' for Inactive)
REMARK    1  A    between atoms: C1_1  and  C7_7 
REMARK    2  A    between atoms: C4_4  and  C7_7 
ROOT
HETATM    1  C6  UNL     1     -33.612   7.172   5.395  1.00 20.00     0.018 C 
HETATM    2  C7  UNL     1     -33.791   7.358   3.891  1.00 20.00     0.055 C 
ENDROOT
BRANCH   2   3
HETATM    3  C1  UNL     1     -32.512   7.886   3.249  1.00 20.00     0.127 C 
HETATM    4  C5  UNL     1     -32.593   8.284   1.796  1.00 20.00     0.091 C 
HETATM    5  O8  UNL     1     -31.449   7.964   3.864  1.00 20.00    -0.298 OA
ENDBRANCH   2   3
BRANCH   2   6
HETATM    6  C4  UNL     1     -34.205   6.050   3.228  1.00 20.00    -0.004 A 
HETATM    7  C2  UNL     1     -33.199   4.951   3.026  1.00 20.00     0.006 A 
HETATM    8  C3  UNL     1     -34.298   4.787   4.038  1.00 20.00     0.006 A 
ENDBRANCH   2   6
TORSDOF 2
ENDMDL
MODEL 8
REMARK VINA RESULT:      -4.3      1.809      2.584
REMARK  2 active torsions:
REMARK  status: ('A' for Active; 'I' for Inactive)
REMARK    1  A    between atoms: C1_1  and  C7_7 
REMARK    2  A    between atoms: C4_4  and  C7_7 
ROOT
HETATM    1  C6  UNL     1     -32.042   7.759   3.075  1.00 20.00     0.018 C 
HETATM    2  C7  UNL     1     -33.362   7.265   3.662  1.00 20.00     0.055 C 
ENDROOT
BRANCH   2   3
HETATM    3  C1  UNL     1     -33.904   6.080   2.869  1.00 20.00     0.127 C 
HETATM    4  C5  UNL     1     -32.952   4.938   2.613  1.00 20.00     0.091 C 
HETATM    5  O8  UNL     1     -35.053   6.051   2.428  1.00 20.00    -0.298 OA
ENDBRANCH   2   3
BRANCH   2   6
HETATM    6  C4  UNL     1     -33.192   6.878   5.126  1.00 20.00    -0.004 A 
HETATM    7  C2  UNL     1     -33.958   7.605   6.196  1.00 20.00     0.006 A 
HETATM    8  C3  UNL     1     -34.304   6.181   5.858  1.00 20.00     0.006 A 
ENDBRANCH   2   6
TORSDOF 2
ENDMDL
MODEL 9
REMARK VINA RESULT:      -4.1      1.684      4.004
REMARK  2 active torsions:
REMARK  status: ('A' for Active; 'I' for Inactive)
REMARK    1  A    between atoms: C1_1  and  C7_7 
REMARK    2  A    between atoms: C4_4  and  C7_7 
ROOT
HETATM    1  C6  UNL     1     -31.397   8.458   3.613  1.00 20.00     0.018 C 
HETATM    2  C7  UNL     1     -32.122   7.792   2.446  1.00 20.00     0.055 C 
ENDROOT
BRANCH   2   3
HETATM    3  C1  UNL     1     -33.006   6.648   2.932  1.00 20.00     0.127 C 
HETATM    4  C5  UNL     1     -34.072   6.992   3.942  1.00 20.00     0.091 C 
HETATM    5  O8  UNL     1     -32.853   5.488   2.549  1.00 20.00    -0.298 OA
ENDBRANCH   2   3
BRANCH   2   6
HETATM    6  C4  UNL     1     -32.961   8.808   1.679  1.00 20.00    -0.004 A 
HETATM    7  C2  UNL     1     -32.365  10.125   1.265  1.00 20.00     0.006 A 
HETATM    8  C3  UNL     1     -32.678   9.082   0.229  1.00 20.00     0.006 A 
ENDBRANCH   2   6
TORSDOF 2
ENDMDL
