MODEL 1
REMARK VINA RESULT:      -5.1      0.000      0.000
REMARK  2 active torsions:
REMARK  status: ('A' for Active; 'I' for Inactive)
REMARK    1  A    between atoms: C3_3  and  C6_6 
REMARK    2  A    between atoms: C7_7  and  O11_11 
ROOT
HETATM    1  C1  UNL     1     -36.015  16.179  -3.275  1.00 20.00    -0.023 C 
HETATM    2  C2  UNL     1     -34.740  16.305  -2.873  1.00 20.00    -0.085 C 
HETATM    3  C4  UNL     1     -36.464  15.209  -4.326  1.00 20.00     0.042 C 
HETATM    4  C5  UNL     1     -33.631  15.479  -3.473  1.00 20.00     0.071 C 
HETATM    5  C6  UNL     1     -35.399  14.166  -4.700  1.00 20.00     0.084 C 
HETATM    6  C7  UNL     1     -33.989  14.788  -4.810  1.00 20.00     0.068 C 
HETATM    7  C8  UNL     1     -34.340  17.267  -1.792  1.00 20.00     0.043 C 
HETATM    8  C9  UNL     1     -33.849  15.773  -5.981  1.00 20.00     0.047 C 
ENDROOT
BRANCH   6   9
HETATM    9  O11 UNL     1     -33.022  13.746  -4.987  1.00 20.00    -0.389 OA
HETATM   10  H25 UNL     1     -32.159  14.174  -4.925  1.00 20.00     0.210 HD
ENDBRANCH   6   9
BRANCH   5  11
HETATM   11  C3  UNL     1     -35.822  13.454  -5.956  1.00 20.00     0.238 C 
HETATM   12  O10 UNL     1     -35.251  12.461  -6.395  1.00 20.00    -0.306 OA
ENDBRANCH   5  11
TORSDOF 2
ENDMDL
MODEL 2
REMARK VINA RESULT:      -4.6      1.120      1.120
REMARK  2 active torsions:
REMARK  status: ('A' for Active; 'I' for Inactive)
REMARK    1  A    between atoms: C3_3  and  C6_6 
REMARK    2  A    between atoms: C7_7  and  O11_11 
ROOT
HETATM    1  C1  UNL     1     -35.535  16.458  -2.860  1.00 20.00    -0.023 C 
HETATM    2  C2  UNL     1     -34.193  16.445  -2.903  1.00 20.00    -0.085 C 
HETATM    3  C4  UNL     1     -36.404  15.589  -3.718  1.00 20.00     0.042 C 
HETATM    4  C5  UNL     1     -33.436  15.552  -3.853  1.00 20.00     0.071 C 
HETATM    5  C6  UNL     1     -35.637  14.473  -4.444  1.00 20.00     0.084 C 
HETATM    6  C7  UNL     1     -34.285  14.966  -5.006  1.00 20.00     0.068 C 
HETATM    7  C8  UNL     1     -33.362  17.309  -2.000  1.00 20.00     0.043 C 
HETATM    8  C9  UNL     1     -34.437  15.993  -6.139  1.00 20.00     0.047 C 
ENDROOT
BRANCH   6   9
HETATM    9  O11 UNL     1     -33.545  13.850  -5.514  1.00 20.00    -0.389 OA
HETATM   10  H25 UNL     1     -34.047  13.064  -5.261  1.00 20.00     0.210 HD
ENDBRANCH   6   9
BRANCH   5  11
HETATM   11  C3  UNL     1     -36.522  13.869  -5.501  1.00 20.00     0.238 C 
HETATM   12  O10 UNL     1     -37.746  13.845  -5.425  1.00 20.00    -0.306 OA
ENDBRANCH   5  11
TORSDOF 2
ENDMDL
MODEL 3
REMARK VINA RESULT:      -4.2     11.365     11.953
REMARK  2 active torsions:
REMARK  status: ('A' for Active; 'I' for Inactive)
REMARK    1  A    between atoms: C3_3  and  C6_6 
REMARK    2  A    between atoms: C7_7  and  O11_11 
ROOT
HETATM    1  C1  UNL     1     -33.451   6.899   5.588  1.00 20.00    -0.023 C 
HETATM    2  C2  UNL     1     -34.384   5.977   5.299  1.00 20.00    -0.085 C 
HETATM    3  C4  UNL     1     -32.731   7.708   4.551  1.00 20.00     0.042 C 
HETATM    4  C5  UNL     1     -34.775   5.659   3.878  1.00 20.00     0.071 C 
HETATM    5  C6  UNL     1     -33.351   7.608   3.149  1.00 20.00     0.084 C 
HETATM    6  C7  UNL     1     -33.783   6.164   2.805  1.00 20.00     0.068 C 
HETATM    7  C8  UNL     1     -35.105   5.214   6.371  1.00 20.00     0.043 C 
HETATM    8  C9  UNL     1     -32.599   5.194   2.665  1.00 20.00     0.047 C 
ENDROOT
BRANCH   6   9
HETATM    9  O11 UNL     1     -34.505   6.166   1.568  1.00 20.00    -0.389 OA
HETATM   10  H25 UNL     1     -34.315   7.017   1.153  1.00 20.00     0.210 HD
ENDBRANCH   6   9
BRANCH   5  11
HETATM   11  C3  UNL     1     -32.395   8.186   2.141  1.00 20.00     0.238 C 
HETATM   12  O10 UNL     1     -32.755   8.763   1.120  1.00 20.00    -0.306 OA
ENDBRANCH   5  11
TORSDOF 2
ENDMDL
MODEL 4
REMARK VINA RESULT:      -4.2      1.457      2.053
REMARK  2 active torsions:
REMARK  status: ('A' for Active; 'I' for Inactive)
REMARK    1  A    between atoms: C3_3  and  C6_6 
REMARK    2  A    between atoms: C7_7  and  O11_11 
ROOT
HETATM    1  C1  UNL     1     -33.602  17.322  -4.983  1.00 20.00    -0.023 C 
HETATM    2  C2  UNL     1     -33.929  16.981  -3.726  1.00 20.00    -0.085 C 
HETATM    3  C4  UNL     1     -33.672  16.379  -6.146  1.00 20.00     0.042 C 
HETATM    4  C5  UNL     1     -34.380  15.587  -3.371  1.00 20.00     0.071 C 
HETATM    5  C6  UNL     1     -34.423  15.074  -5.840  1.00 20.00     0.084 C 
HETATM    6  C7  UNL     1     -34.072  14.514  -4.442  1.00 20.00     0.068 C 
HETATM    7  C8  UNL     1     -33.877  17.968  -2.596  1.00 20.00     0.043 C 
HETATM    8  C9  UNL     1     -32.615  14.040  -4.327  1.00 20.00     0.047 C 
ENDROOT
BRANCH   6   9
HETATM    9  O11 UNL     1     -34.926  13.403  -4.147  1.00 20.00    -0.389 OA
HETATM   10  H25 UNL     1     -35.119  12.986  -4.996  1.00 20.00     0.210 HD
ENDBRANCH   6   9
BRANCH   5  11
HETATM   11  C3  UNL     1     -34.169  14.084  -6.945  1.00 20.00     0.238 C 
HETATM   12  O10 UNL     1     -34.646  12.954  -6.963  1.00 20.00    -0.306 OA
ENDBRANCH   5  11
TORSDOF 2
ENDMDL
MODEL 5
REMARK VINA RESULT:      -4.1     11.775     12.368
REMARK  2 active torsions:
REMARK  status: ('A' for Active; 'I' for Inactive)
REMARK    1  A    between atoms: C3_3  and  C6_6 
REMARK    2  A    between atoms: C7_7  and  O11_11 
ROOT
HETATM    1  C1  UNL     1     -32.647   8.351   3.998  1.00 20.00    -0.023 C 
HETATM    2  C2  UNL     1     -32.386   7.737   2.833  1.00 20.00    -0.085 C 
HETATM    3  C4  UNL     1     -33.361   7.698   5.143  1.00 20.00     0.042 C 
HETATM    4  C5  UNL     1     -32.819   6.317   2.568  1.00 20.00     0.071 C 
HETATM    5  C6  UNL     1     -33.515   6.177   4.988  1.00 20.00     0.084 C 
HETATM    6  C7  UNL     1     -33.890   5.774   3.543  1.00 20.00     0.068 C 
HETATM    7  C8  UNL     1     -31.638   8.419   1.726  1.00 20.00     0.043 C 
HETATM    8  C9  UNL     1     -35.291   6.247   3.125  1.00 20.00     0.047 C 
ENDROOT
BRANCH   6   9
HETATM    9  O11 UNL     1     -33.848   4.347   3.422  1.00 20.00    -0.389 OA
HETATM   10  H25 UNL     1     -33.094   4.153   2.850  1.00 20.00     0.210 HD
ENDBRANCH   6   9
BRANCH   5  11
HETATM   11  C3  UNL     1     -34.499   5.671   6.008  1.00 20.00     0.238 C 
HETATM   12  O10 UNL     1     -34.921   4.519   6.027  1.00 20.00    -0.306 OA
ENDBRANCH   5  11
TORSDOF 2
ENDMDL
MODEL 6
REMARK VINA RESULT:      -4.0      1.526      1.910
REMARK  2 active torsions:
REMARK  status: ('A' for Active; 'I' for Inactive)
REMARK    1  A    between atoms: C3_3  and  C6_6 
REMARK    2  A    between atoms: C7_7  and  O11_11 
ROOT
HETATM    1  C1  UNL     1     -34.394  15.200  -3.415  1.00 20.00    -0.023 C 
HETATM    2  C2  UNL     1     -33.862  16.398  -3.703  1.00 20.00    -0.085 C 
HETATM    3  C4  UNL     1     -34.745  14.174  -4.450  1.00 20.00     0.042 C 
HETATM    4  C5  UNL     1     -33.588  16.827  -5.122  1.00 20.00     0.071 C 
HETATM    5  C6  UNL     1     -34.179  14.484  -5.844  1.00 20.00     0.084 C 
HETATM    6  C7  UNL     1     -34.304  15.983  -6.203  1.00 20.00     0.068 C 
HETATM    7  C8  UNL     1     -33.493  17.382  -2.631  1.00 20.00     0.043 C 
HETATM    8  C9  UNL     1     -35.759  16.447  -6.374  1.00 20.00     0.047 C 
ENDROOT
BRANCH   6   9
HETATM    9  O11 UNL     1     -33.609  16.238  -7.429  1.00 20.00    -0.389 OA
HETATM   10  H25 UNL     1     -33.502  17.197  -7.476  1.00 20.00     0.210 HD
ENDBRANCH   6   9
BRANCH   5  11
HETATM   11  C3  UNL     1     -34.836  13.586  -6.858  1.00 20.00     0.238 C 
HETATM   12  O10 UNL     1     -35.076  12.400  -6.655  1.00 20.00    -0.306 OA
ENDBRANCH   5  11
TORSDOF 2
ENDMDL
MODEL 7
REMARK VINA RESULT:      -4.0      1.672      2.628
REMARK  2 active torsions:
REMARK  status: ('A' for Active; 'I' for Inactive)
REMARK    1  A    between atoms: C3_3  and  C6_6 
REMARK    2  A    between atoms: C7_7  and  O11_11 
ROOT
HETATM    1  C1  UNL     1     -33.687  16.297  -3.232  1.00 20.00    -0.023 C 
HETATM    2  C2  UNL     1     -34.967  16.376  -2.834  1.00 20.00    -0.085 C 
HETATM    3  C4  UNL     1     -33.268  15.907  -4.617  1.00 20.00     0.042 C 
HETATM    4  C5  UNL     1     -36.110  16.050  -3.762  1.00 20.00     0.071 C 
HETATM    5  C6  UNL     1     -34.423  15.885  -5.630  1.00 20.00     0.084 C 
HETATM    6  C7  UNL     1     -35.708  15.266  -5.033  1.00 20.00     0.068 C 
HETATM    7  C8  UNL     1     -35.342  16.805  -1.446  1.00 20.00     0.043 C 
HETATM    8  C9  UNL     1     -35.571  13.767  -4.722  1.00 20.00     0.047 C 
ENDROOT
BRANCH   6   9
HETATM    9  O11 UNL     1     -36.789  15.431  -5.958  1.00 20.00    -0.389 OA
HETATM   10  H25 UNL     1     -37.473  14.809  -5.678  1.00 20.00     0.210 HD
ENDBRANCH   6   9
BRANCH   5  11
HETATM   11  C3  UNL     1     -33.970  15.191  -6.885  1.00 20.00     0.238 C 
HETATM   12  O10 UNL     1     -34.634  15.156  -7.916  1.00 20.00    -0.306 OA
ENDBRANCH   5  11
TORSDOF 2
ENDMDL
MODEL 8
REMARK VINA RESULT:      -4.0      2.379      4.251
REMARK  2 active torsions:
REMARK  status: ('A' for Active; 'I' for Inactive)
REMARK    1  A    between atoms: C3_3  and  C6_6 
REMARK    2  A    between atoms: C7_7  and  O11_11 
ROOT
HETATM    1  C1  UNL     1     -33.641  14.579  -5.357  1.00 20.00    -0.023 C 
HETATM    2  C2  UNL     1     -34.809  14.190  -5.893  1.00 20.00    -0.085 C 
HETATM    3  C4  UNL     1     -33.531  15.405  -4.111  1.00 20.00     0.042 C 
HETATM    4  C5  UNL     1     -36.133  14.581  -5.286  1.00 20.00     0.071 C 
HETATM    5  C6  UNL     1     -34.850  15.530  -3.333  1.00 20.00     0.084 C 
HETATM    6  C7  UNL     1     -36.060  15.745  -4.270  1.00 20.00     0.068 C 
HETATM    7  C8  UNL     1     -34.872  13.333  -7.123  1.00 20.00     0.043 C 
HETATM    8  C9  UNL     1     -36.030  17.097  -5.000  1.00 20.00     0.047 C 
ENDROOT
BRANCH   6   9
HETATM    9  O11 UNL     1     -37.271  15.679  -3.507  1.00 20.00    -0.389 OA
HETATM   10  H25 UNL     1     -37.888  16.283  -3.939  1.00 20.00     0.210 HD
ENDBRANCH   6   9
BRANCH   5  11
HETATM   11  C3  UNL     1     -34.715  16.613  -2.297  1.00 20.00     0.238 C 
HETATM   12  O10 UNL     1     -35.465  16.723  -1.332  1.00 20.00    -0.306 OA
ENDBRANCH   5  11
TORSDOF 2
ENDMDL
MODEL 9
REMARK VINA RESULT:      -3.8      2.142      3.654
REMARK  2 active torsions:
REMARK  status: ('A' for Active; 'I' for Inactive)
REMARK    1  A    between atoms: C3_3  and  C6_6 
REMARK    2  A    between atoms: C7_7  and  O11_11 
ROOT
HETATM    1  C1  UNL     1     -37.996  16.103  -6.706  1.00 20.00    -0.023 C 
HETATM    2  C2  UNL     1     -38.563  15.487  -5.656  1.00 20.00    -0.085 C 
HETATM    3  C4  UNL     1     -36.700  15.671  -7.324  1.00 20.00     0.042 C 
HETATM    4  C5  UNL     1     -37.918  14.301  -4.985  1.00 20.00     0.071 C 
HETATM    5  C6  UNL     1     -36.216  14.293  -6.846  1.00 20.00     0.084 C 
HETATM    6  C7  UNL     1     -36.423  14.098  -5.326  1.00 20.00     0.068 C 
HETATM    7  C8  UNL     1     -39.880  15.933  -5.091  1.00 20.00     0.043 C 
HETATM    8  C9  UNL     1     -35.544  15.023  -4.471  1.00 20.00     0.047 C 
ENDROOT
BRANCH   6   9
HETATM    9  O11 UNL     1     -36.118  12.744  -4.975  1.00 20.00    -0.389 OA
HETATM   10  H25 UNL     1     -35.583  12.794  -4.172  1.00 20.00     0.210 HD
ENDBRANCH   6   9
BRANCH   5  11
HETATM   11  C3  UNL     1     -34.786  14.095  -7.269  1.00 20.00     0.238 C 
HETATM   12  O10 UNL     1     -34.162  13.056  -7.079  1.00 20.00    -0.306 OA
ENDBRANCH   5  11
TORSDOF 2
ENDMDL
