MODEL 1
REMARK VINA RESULT:      -3.8      0.000      0.000
REMARK  1 active torsions:
REMARK  status: ('A' for Active; 'I' for Inactive)
REMARK    1  A    between atoms: C1_1  and  C3_3 
ROOT
HETATM    1  C2  UNL     1     -33.966  17.185  -5.007  1.00 20.00     0.090 C 
HETATM    2  C3  UNL     1     -34.758  14.688  -5.659  1.00 20.00     0.195 C 
HETATM    3  C4  UNL     1     -33.555  16.314  -3.826  1.00 20.00     0.054 C 
HETATM    4  C5  UNL     1     -34.516  16.394  -2.642  1.00 20.00     0.022 C 
HETATM    5  S7  UNL     1     -35.329  16.385  -5.895  1.00 20.00    -0.143 SA
HETATM    6  S8  UNL     1     -33.425  14.604  -4.438  1.00 20.00    -0.139 SA
ENDROOT
BRANCH   2   7
HETATM    7  C1  UNL     1     -35.901  13.863  -5.180  1.00 20.00     0.242 C 
HETATM    8  O6  UNL     1     -35.881  12.638  -5.233  1.00 20.00    -0.278 OA
HETATM    9 CL9  UNL     1     -37.201  14.841  -4.567  1.00 20.00    -0.042 Cl
ENDBRANCH   2   7
TORSDOF 1
ENDMDL
MODEL 2
REMARK VINA RESULT:      -3.8      1.416      2.633
REMARK  1 active torsions:
REMARK  status: ('A' for Active; 'I' for Inactive)
REMARK    1  A    between atoms: C1_1  and  C3_3 
ROOT
HETATM    1  C2  UNL     1     -33.075  15.698  -5.448  1.00 20.00     0.090 C 
HETATM    2  C3  UNL     1     -35.606  15.051  -4.763  1.00 20.00     0.195 C 
HETATM    3  C4  UNL     1     -33.906  15.957  -6.700  1.00 20.00     0.054 C 
HETATM    4  C5  UNL     1     -33.818  14.838  -7.736  1.00 20.00     0.022 C 
HETATM    5  S7  UNL     1     -33.929  14.487  -4.403  1.00 20.00    -0.143 SA
HETATM    6  S8  UNL     1     -35.629  16.202  -6.160  1.00 20.00    -0.139 SA
ENDROOT
BRANCH   2   7
HETATM    7  C1  UNL     1     -36.443  13.867  -5.102  1.00 20.00     0.242 C 
HETATM    8  O6  UNL     1     -35.958  12.746  -5.223  1.00 20.00    -0.278 OA
HETATM    9 CL9  UNL     1     -38.120  14.284  -5.293  1.00 20.00    -0.042 Cl
ENDBRANCH   2   7
TORSDOF 1
ENDMDL
MODEL 3
REMARK VINA RESULT:      -3.7      1.579      1.627
REMARK  1 active torsions:
REMARK  status: ('A' for Active; 'I' for Inactive)
REMARK    1  A    between atoms: C1_1  and  C3_3 
ROOT
HETATM    1  C2  UNL     1     -34.019  16.769  -5.583  1.00 20.00     0.090 C 
HETATM    2  C3  UNL     1     -35.894  14.962  -6.298  1.00 20.00     0.195 C 
HETATM    3  C4  UNL     1     -33.270  15.448  -5.719  1.00 20.00     0.054 C 
HETATM    4  C5  UNL     1     -33.001  14.757  -4.384  1.00 20.00     0.022 C 
HETATM    5  S7  UNL     1     -35.771  16.433  -5.258  1.00 20.00    -0.143 SA
HETATM    6  S8  UNL     1     -34.260  14.378  -6.811  1.00 20.00    -0.139 SA
ENDROOT
BRANCH   2   7
HETATM    7  C1  UNL     1     -36.567  13.885  -5.520  1.00 20.00     0.242 C 
HETATM    8  O6  UNL     1     -35.998  12.832  -5.249  1.00 20.00    -0.278 OA
HETATM    9 CL9  UNL     1     -38.191  14.315  -5.076  1.00 20.00    -0.042 Cl
ENDBRANCH   2   7
TORSDOF 1
ENDMDL
MODEL 4
REMARK VINA RESULT:      -3.5      2.074      2.368
REMARK  1 active torsions:
REMARK  status: ('A' for Active; 'I' for Inactive)
REMARK    1  A    between atoms: C1_1  and  C3_3 
ROOT
HETATM    1  C2  UNL     1     -37.440  16.955  -3.904  1.00 20.00     0.090 C 
HETATM    2  C3  UNL     1     -36.087  15.135  -5.370  1.00 20.00     0.195 C 
HETATM    3  C4  UNL     1     -35.969  17.202  -3.589  1.00 20.00     0.054 C 
HETATM    4  C5  UNL     1     -35.515  16.589  -2.267  1.00 20.00     0.022 C 
HETATM    5  S7  UNL     1     -37.652  15.247  -4.475  1.00 20.00    -0.143 SA
HETATM    6  S8  UNL     1     -35.001  16.528  -4.979  1.00 20.00    -0.139 SA
ENDROOT
BRANCH   2   7
HETATM    7  C1  UNL     1     -35.406  13.870  -4.980  1.00 20.00     0.242 C 
HETATM    8  O6  UNL     1     -35.922  12.773  -5.171  1.00 20.00    -0.278 OA
HETATM    9 CL9  UNL     1     -33.855  14.160  -4.251  1.00 20.00    -0.042 Cl
ENDBRANCH   2   7
TORSDOF 1
ENDMDL
MODEL 5
REMARK VINA RESULT:      -3.4      1.814      2.394
REMARK  1 active torsions:
REMARK  status: ('A' for Active; 'I' for Inactive)
REMARK    1  A    between atoms: C1_1  and  C3_3 
ROOT
HETATM    1  C2  UNL     1     -33.698  17.118  -4.735  1.00 20.00     0.090 C 
HETATM    2  C3  UNL     1     -34.618  14.594  -4.469  1.00 20.00     0.195 C 
HETATM    3  C4  UNL     1     -35.212  17.229  -4.871  1.00 20.00     0.054 C 
HETATM    4  C5  UNL     1     -35.691  17.334  -6.317  1.00 20.00     0.022 C 
HETATM    5  S7  UNL     1     -33.179  15.435  -5.165  1.00 20.00    -0.143 SA
HETATM    6  S8  UNL     1     -35.933  15.767  -4.058  1.00 20.00    -0.139 SA
ENDROOT
BRANCH   2   7
HETATM    7  C1  UNL     1     -35.135  13.626  -5.476  1.00 20.00     0.242 C 
HETATM    8  O6  UNL     1     -35.984  12.787  -5.189  1.00 20.00    -0.278 OA
HETATM    9 CL9  UNL     1     -34.400  13.847  -7.035  1.00 20.00    -0.042 Cl
ENDBRANCH   2   7
TORSDOF 1
ENDMDL
MODEL 6
REMARK VINA RESULT:      -3.4      2.104      2.458
REMARK  1 active torsions:
REMARK  status: ('A' for Active; 'I' for Inactive)
REMARK    1  A    between atoms: C1_1  and  C3_3 
ROOT
HETATM    1  C2  UNL     1     -35.816  17.109  -4.584  1.00 20.00     0.090 C 
HETATM    2  C3  UNL     1     -36.333  14.872  -6.006  1.00 20.00     0.195 C 
HETATM    3  C4  UNL     1     -34.743  17.067  -5.666  1.00 20.00     0.054 C 
HETATM    4  C5  UNL     1     -33.398  16.537  -5.175  1.00 20.00     0.022 C 
HETATM    5  S7  UNL     1     -36.438  15.431  -4.292  1.00 20.00    -0.143 SA
HETATM    6  S8  UNL     1     -35.388  16.033  -7.022  1.00 20.00    -0.139 SA
ENDROOT
BRANCH   2   7
HETATM    7  C1  UNL     1     -35.654  13.547  -6.033  1.00 20.00     0.242 C 
HETATM    8  O6  UNL     1     -35.920  12.668  -5.219  1.00 20.00    -0.278 OA
HETATM    9 CL9  UNL     1     -34.490  13.434  -7.319  1.00 20.00    -0.042 Cl
ENDBRANCH   2   7
TORSDOF 1
ENDMDL
MODEL 7
REMARK VINA RESULT:      -3.4      2.395      3.452
REMARK  1 active torsions:
REMARK  status: ('A' for Active; 'I' for Inactive)
REMARK    1  A    between atoms: C1_1  and  C3_3 
ROOT
HETATM    1  C2  UNL     1     -36.185  15.542  -7.263  1.00 20.00     0.090 C 
HETATM    2  C3  UNL     1     -35.509  15.114  -4.684  1.00 20.00     0.195 C 
HETATM    3  C4  UNL     1     -35.832  14.061  -7.183  1.00 20.00     0.054 C 
HETATM    4  C5  UNL     1     -34.426  13.739  -7.687  1.00 20.00     0.022 C 
HETATM    5  S7  UNL     1     -35.360  16.428  -5.914  1.00 20.00    -0.143 SA
HETATM    6  S8  UNL     1     -36.026  13.555  -5.444  1.00 20.00    -0.139 SA
ENDROOT
BRANCH   2   7
HETATM    7  C1  UNL     1     -34.183  14.916  -4.037  1.00 20.00     0.242 C 
HETATM    8  O6  UNL     1     -33.502  13.918  -4.251  1.00 20.00    -0.278 OA
HETATM    9 CL9  UNL     1     -33.763  16.236  -2.987  1.00 20.00    -0.042 Cl
ENDBRANCH   2   7
TORSDOF 1
ENDMDL
MODEL 8
REMARK VINA RESULT:      -3.4      2.127      2.524
REMARK  1 active torsions:
REMARK  status: ('A' for Active; 'I' for Inactive)
REMARK    1  A    between atoms: C1_1  and  C3_3 
ROOT
HETATM    1  C2  UNL     1     -34.136  14.275  -7.354  1.00 20.00     0.090 C 
HETATM    2  C3  UNL     1     -35.792  13.642  -5.317  1.00 20.00     0.195 C 
HETATM    3  C4  UNL     1     -33.774  15.239  -6.230  1.00 20.00     0.054 C 
HETATM    4  C5  UNL     1     -34.383  16.630  -6.396  1.00 20.00     0.022 C 
HETATM    5  S7  UNL     1     -35.839  13.698  -7.122  1.00 20.00    -0.143 SA
HETATM    6  S8  UNL     1     -34.323  14.476  -4.670  1.00 20.00    -0.139 SA
ENDROOT
BRANCH   2   7
HETATM    7  C1  UNL     1     -37.005  14.326  -4.789  1.00 20.00     0.242 C 
HETATM    8  O6  UNL     1     -38.136  13.921  -5.041  1.00 20.00    -0.278 OA
HETATM    9 CL9  UNL     1     -36.605  15.710  -3.817  1.00 20.00    -0.042 Cl
ENDBRANCH   2   7
TORSDOF 1
ENDMDL
MODEL 9
REMARK VINA RESULT:      -3.3      2.486      3.258
REMARK  1 active torsions:
REMARK  status: ('A' for Active; 'I' for Inactive)
REMARK    1  A    between atoms: C1_1  and  C3_3 
ROOT
HETATM    1  C2  UNL     1     -34.661  13.851  -6.636  1.00 20.00     0.090 C 
HETATM    2  C3  UNL     1     -34.442  14.704  -4.084  1.00 20.00     0.195 C 
HETATM    3  C4  UNL     1     -33.903  15.171  -6.720  1.00 20.00     0.054 C 
HETATM    4  C5  UNL     1     -34.779  16.355  -7.123  1.00 20.00     0.022 C 
HETATM    5  S7  UNL     1     -35.635  13.815  -5.108  1.00 20.00    -0.143 SA
HETATM    6  S8  UNL     1     -33.141  15.457  -5.090  1.00 20.00    -0.139 SA
ENDROOT
BRANCH   2   7
HETATM    7  C1  UNL     1     -35.159  15.778  -3.343  1.00 20.00     0.242 C 
HETATM    8  O6  UNL     1     -36.355  15.993  -3.513  1.00 20.00    -0.278 OA
HETATM    9 CL9  UNL     1     -34.108  16.638  -2.258  1.00 20.00    -0.042 Cl
ENDBRANCH   2   7
TORSDOF 1
ENDMDL
