MODEL 1
REMARK VINA RESULT:      -5.2      0.000      0.000
REMARK  1 active torsions:
REMARK  status: ('A' for Active; 'I' for Inactive)
REMARK    1  A    between atoms: C3_3  and  C8_8 
ROOT
HETATM    1  C1  UNL     1     -34.212   5.184   5.516  1.00 20.00    -0.025 C 
HETATM    2  C2  UNL     1     -34.259   6.511   5.706  1.00 20.00    -0.022 C 
HETATM    3  C4  UNL     1     -35.297   6.088   3.685  1.00 20.00     0.021 C 
HETATM    4  C5  UNL     1     -33.034   5.417   3.352  1.00 20.00     0.063 C 
HETATM    5  C6  UNL     1     -34.341   4.940   4.031  1.00 20.00     0.012 C 
HETATM    6  C7  UNL     1     -34.408   7.152   4.344  1.00 20.00     0.059 C 
HETATM    7  C8  UNL     1     -33.080   6.955   3.576  1.00 20.00     0.202 C 
HETATM    8  F11 UNL     1     -32.034   7.346   4.347  1.00 20.00    -0.231 F 
ENDROOT
BRANCH   7   9
HETATM    9  C3  UNL     1     -33.081   7.726   2.293  1.00 20.00     0.338 C 
HETATM   10  O9  UNL     1     -32.548   8.814   2.128  1.00 20.00    -0.256 OA
HETATM   11  F10 UNL     1     -33.680   7.168   1.231  1.00 20.00    -0.161 F 
ENDBRANCH   7   9
TORSDOF 1
ENDMDL
MODEL 2
REMARK VINA RESULT:      -4.8      2.366      3.650
REMARK  1 active torsions:
REMARK  status: ('A' for Active; 'I' for Inactive)
REMARK    1  A    between atoms: C3_3  and  C8_8 
ROOT
HETATM    1  C1  UNL     1     -32.894   8.074   2.164  1.00 20.00    -0.025 C 
HETATM    2  C2  UNL     1     -33.968   8.395   2.899  1.00 20.00    -0.022 C 
HETATM    3  C4  UNL     1     -32.476   7.348   4.319  1.00 20.00     0.021 C 
HETATM    4  C5  UNL     1     -33.075   5.672   2.734  1.00 20.00     0.063 C 
HETATM    5  C6  UNL     1     -32.193   6.937   2.870  1.00 20.00     0.012 C 
HETATM    6  C7  UNL     1     -33.989   7.463   4.090  1.00 20.00     0.059 C 
HETATM    7  C8  UNL     1     -34.327   6.042   3.578  1.00 20.00     0.202 C 
HETATM    8  F11 UNL     1     -35.429   6.082   2.788  1.00 20.00    -0.231 F 
ENDROOT
BRANCH   7   9
HETATM    9  C3  UNL     1     -34.554   5.100   4.719  1.00 20.00     0.338 C 
HETATM   10  O9  UNL     1     -34.493   3.881   4.644  1.00 20.00    -0.256 OA
HETATM   11  F10 UNL     1     -34.806   5.630   5.924  1.00 20.00    -0.161 F 
ENDBRANCH   7   9
TORSDOF 1
ENDMDL
MODEL 3
REMARK VINA RESULT:      -4.8     11.785     12.558
REMARK  1 active torsions:
REMARK  status: ('A' for Active; 'I' for Inactive)
REMARK    1  A    between atoms: C3_3  and  C8_8 
ROOT
HETATM    1  C1  UNL     1     -34.308  16.433  -3.830  1.00 20.00    -0.025 C 
HETATM    2  C2  UNL     1     -35.226  15.464  -3.703  1.00 20.00    -0.022 C 
HETATM    3  C4  UNL     1     -33.238  14.431  -4.268  1.00 20.00     0.021 C 
HETATM    4  C5  UNL     1     -33.773  15.781  -6.157  1.00 20.00     0.063 C 
HETATM    5  C6  UNL     1     -33.211  15.895  -4.719  1.00 20.00     0.012 C 
HETATM    6  C7  UNL     1     -34.745  14.283  -4.517  1.00 20.00     0.059 C 
HETATM    7  C8  UNL     1     -34.844  14.664  -6.013  1.00 20.00     0.202 C 
HETATM    8  F11 UNL     1     -36.077  15.161  -6.286  1.00 20.00    -0.231 F 
ENDROOT
BRANCH   7   9
HETATM    9  C3  UNL     1     -34.567  13.481  -6.888  1.00 20.00     0.338 C 
HETATM   10  O9  UNL     1     -35.075  12.378  -6.757  1.00 20.00    -0.256 OA
HETATM   11  F10 UNL     1     -33.726  13.652  -7.918  1.00 20.00    -0.161 F 
ENDBRANCH   7   9
TORSDOF 1
ENDMDL
MODEL 4
REMARK VINA RESULT:      -4.8     11.589     12.440
REMARK  1 active torsions:
REMARK  status: ('A' for Active; 'I' for Inactive)
REMARK    1  A    between atoms: C3_3  and  C8_8 
ROOT
HETATM    1  C1  UNL     1     -33.643  16.929  -3.900  1.00 20.00    -0.025 C 
HETATM    2  C2  UNL     1     -34.383  16.101  -3.148  1.00 20.00    -0.022 C 
HETATM    3  C4  UNL     1     -33.048  14.773  -4.487  1.00 20.00     0.021 C 
HETATM    4  C5  UNL     1     -34.464  15.934  -6.012  1.00 20.00     0.063 C 
HETATM    5  C6  UNL     1     -33.215  16.157  -5.125  1.00 20.00     0.012 C 
HETATM    6  C7  UNL     1     -34.457  14.779  -3.879  1.00 20.00     0.059 C 
HETATM    7  C8  UNL     1     -35.330  14.981  -5.141  1.00 20.00     0.202 C 
HETATM    8  F11 UNL     1     -36.498  15.585  -4.807  1.00 20.00    -0.231 F 
ENDROOT
BRANCH   7   9
HETATM    9  C3  UNL     1     -35.608  13.674  -5.816  1.00 20.00     0.338 C 
HETATM   10  O9  UNL     1     -35.980  12.657  -5.249  1.00 20.00    -0.256 OA
HETATM   11  F10 UNL     1     -35.478  13.622  -7.149  1.00 20.00    -0.161 F 
ENDBRANCH   7   9
TORSDOF 1
ENDMDL
MODEL 5
REMARK VINA RESULT:      -4.8      1.249      2.179
REMARK  1 active torsions:
REMARK  status: ('A' for Active; 'I' for Inactive)
REMARK    1  A    between atoms: C3_3  and  C8_8 
ROOT
HETATM    1  C1  UNL     1     -35.231   5.641   4.378  1.00 20.00    -0.025 C 
HETATM    2  C2  UNL     1     -35.252   6.017   3.091  1.00 20.00    -0.022 C 
HETATM    3  C4  UNL     1     -33.138   5.183   3.509  1.00 20.00     0.021 C 
HETATM    4  C5  UNL     1     -33.310   7.113   4.898  1.00 20.00     0.063 C 
HETATM    5  C6  UNL     1     -33.787   5.642   4.820  1.00 20.00     0.012 C 
HETATM    6  C7  UNL     1     -33.821   6.279   2.678  1.00 20.00     0.059 C 
HETATM    7  C8  UNL     1     -33.340   7.556   3.408  1.00 20.00     0.202 C 
HETATM    8  F11 UNL     1     -34.241   8.556   3.236  1.00 20.00    -0.231 F 
ENDROOT
BRANCH   7   9
HETATM    9  C3  UNL     1     -31.998   7.989   2.906  1.00 20.00     0.338 C 
HETATM   10  O9  UNL     1     -31.734   8.244   1.740  1.00 20.00    -0.256 OA
HETATM   11  F10 UNL     1     -31.017   8.145   3.807  1.00 20.00    -0.161 F 
ENDBRANCH   7   9
TORSDOF 1
ENDMDL
MODEL 6
REMARK VINA RESULT:      -4.6      2.428      3.643
REMARK  1 active torsions:
REMARK  status: ('A' for Active; 'I' for Inactive)
REMARK    1  A    between atoms: C3_3  and  C8_8 
ROOT
HETATM    1  C1  UNL     1     -33.091   7.774   2.288  1.00 20.00    -0.025 C 
HETATM    2  C2  UNL     1     -32.395   7.584   3.418  1.00 20.00    -0.022 C 
HETATM    3  C4  UNL     1     -32.902   5.489   2.586  1.00 20.00     0.021 C 
HETATM    4  C5  UNL     1     -35.016   6.454   3.114  1.00 20.00     0.063 C 
HETATM    5  C6  UNL     1     -33.898   6.520   2.044  1.00 20.00     0.012 C 
HETATM    6  C7  UNL     1     -32.747   6.206   3.934  1.00 20.00     0.059 C 
HETATM    7  C8  UNL     1     -34.213   6.242   4.428  1.00 20.00     0.202 C 
HETATM    8  F11 UNL     1     -34.397   7.295   5.263  1.00 20.00    -0.231 F 
ENDROOT
BRANCH   7   9
HETATM    9  C3  UNL     1     -34.575   4.969   5.128  1.00 20.00     0.338 C 
HETATM   10  O9  UNL     1     -34.700   3.881   4.585  1.00 20.00    -0.256 OA
HETATM   11  F10 UNL     1     -34.740   5.015   6.458  1.00 20.00    -0.161 F 
ENDBRANCH   7   9
TORSDOF 1
ENDMDL
MODEL 7
REMARK VINA RESULT:      -4.5     11.458     12.478
REMARK  1 active torsions:
REMARK  status: ('A' for Active; 'I' for Inactive)
REMARK    1  A    between atoms: C3_3  and  C8_8 
ROOT
HETATM    1  C1  UNL     1     -33.417  16.696  -4.559  1.00 20.00    -0.025 C 
HETATM    2  C2  UNL     1     -32.945  15.568  -5.108  1.00 20.00    -0.022 C 
HETATM    3  C4  UNL     1     -34.849  16.138  -6.286  1.00 20.00     0.021 C 
HETATM    4  C5  UNL     1     -35.622  15.680  -4.079  1.00 20.00     0.063 C 
HETATM    5  C6  UNL     1     -34.888  16.774  -4.892  1.00 20.00     0.012 C 
HETATM    6  C7  UNL     1     -34.106  14.887  -5.798  1.00 20.00     0.059 C 
HETATM    7  C8  UNL     1     -35.072  14.368  -4.706  1.00 20.00     0.202 C 
HETATM    8  F11 UNL     1     -34.385  13.658  -3.776  1.00 20.00    -0.231 F 
ENDROOT
BRANCH   7   9
HETATM    9  C3  UNL     1     -36.149  13.516  -5.302  1.00 20.00     0.338 C 
HETATM   10  O9  UNL     1     -37.328  13.549  -4.980  1.00 20.00    -0.256 OA
HETATM   11  F10 UNL     1     -35.805  12.679  -6.292  1.00 20.00    -0.161 F 
ENDBRANCH   7   9
TORSDOF 1
ENDMDL
MODEL 8
REMARK VINA RESULT:      -4.5     11.578     12.530
REMARK  1 active torsions:
REMARK  status: ('A' for Active; 'I' for Inactive)
REMARK    1  A    between atoms: C3_3  and  C8_8 
ROOT
HETATM    1  C1  UNL     1     -33.628  16.859  -4.029  1.00 20.00    -0.025 C 
HETATM    2  C2  UNL     1     -34.231  17.086  -5.204  1.00 20.00    -0.022 C 
HETATM    3  C4  UNL     1     -35.750  15.956  -3.880  1.00 20.00     0.021 C 
HETATM    4  C5  UNL     1     -33.962  14.412  -4.196  1.00 20.00     0.063 C 
HETATM    5  C6  UNL     1     -34.324  15.683  -3.388  1.00 20.00     0.012 C 
HETATM    6  C7  UNL     1     -35.325  16.051  -5.351  1.00 20.00     0.059 C 
HETATM    7  C8  UNL     1     -34.654  14.674  -5.563  1.00 20.00     0.202 C 
HETATM    8  F11 UNL     1     -33.724  14.756  -6.549  1.00 20.00    -0.231 F 
ENDROOT
BRANCH   7   9
HETATM    9  C3  UNL     1     -35.668  13.628  -5.907  1.00 20.00     0.338 C 
HETATM   10  O9  UNL     1     -35.907  12.635  -5.236  1.00 20.00    -0.256 OA
HETATM   11  F10 UNL     1     -36.399  13.811  -7.016  1.00 20.00    -0.161 F 
ENDBRANCH   7   9
TORSDOF 1
ENDMDL
MODEL 9
REMARK VINA RESULT:      -4.4     11.227     13.308
REMARK  1 active torsions:
REMARK  status: ('A' for Active; 'I' for Inactive)
REMARK    1  A    between atoms: C3_3  and  C8_8 
ROOT
HETATM    1  C1  UNL     1     -33.823  17.080  -7.189  1.00 20.00    -0.025 C 
HETATM    2  C2  UNL     1     -34.869  16.375  -7.644  1.00 20.00    -0.022 C 
HETATM    3  C4  UNL     1     -35.216  16.703  -5.383  1.00 20.00     0.021 C 
HETATM    4  C5  UNL     1     -33.250  15.362  -5.502  1.00 20.00     0.063 C 
HETATM    5  C6  UNL     1     -33.722  16.822  -5.704  1.00 20.00     0.012 C 
HETATM    6  C7  UNL     1     -35.460  15.638  -6.462  1.00 20.00     0.059 C 
HETATM    7  C8  UNL     1     -34.457  14.540  -6.035  1.00 20.00     0.202 C 
HETATM    8  F11 UNL     1     -34.083  13.807  -7.114  1.00 20.00    -0.231 F 
ENDROOT
BRANCH   7   9
HETATM    9  C3  UNL     1     -35.052  13.645  -4.993  1.00 20.00     0.338 C 
HETATM   10  O9  UNL     1     -35.931  12.820  -5.197  1.00 20.00    -0.256 OA
HETATM   11  F10 UNL     1     -34.559  13.724  -3.749  1.00 20.00    -0.161 F 
ENDBRANCH   7   9
TORSDOF 1
ENDMDL
