MODEL 1
REMARK VINA RESULT:      -6.5      0.000      0.000
REMARK  0 active torsions:
REMARK  status: ('A' for Active; 'I' for Inactive)
ROOT
HETATM    1  C1  UNL     1     -33.438   7.277   5.717  1.00 20.00     0.047 A 
HETATM    2  C2  UNL     1     -34.352   6.290   5.763  1.00 20.00     0.052 A 
HETATM    3  C3  UNL     1     -32.761   7.586   4.478  1.00 20.00     0.153 A 
HETATM    4  C4  UNL     1     -33.020   6.904   3.350  1.00 20.00     0.167 A 
HETATM    5  C5  UNL     1     -33.990   5.796   3.286  1.00 20.00     0.262 A 
HETATM    6  C6  UNL     1     -34.711   5.466   4.593  1.00 20.00     0.258 A 
HETATM    7  O7  UNL     1     -35.403   5.988   3.452  1.00 20.00    -0.327 OA
HETATM    8  F8  UNL     1     -31.861   8.589   4.481  1.00 20.00    -0.203 F 
HETATM    9  F9  UNL     1     -32.358   7.246   2.222  1.00 20.00    -0.204 F 
HETATM   10  F10 UNL     1     -34.901   4.112   4.849  1.00 20.00    -0.203 F 
ENDROOT
TORSDOF 0
ENDMDL
MODEL 2
REMARK VINA RESULT:      -6.1      1.654      2.337
REMARK  0 active torsions:
REMARK  status: ('A' for Active; 'I' for Inactive)
ROOT
HETATM    1  C1  UNL     1     -34.645   5.506   5.261  1.00 20.00     0.047 A 
HETATM    2  C2  UNL     1     -34.489   4.852   4.096  1.00 20.00     0.052 A 
HETATM    3  C3  UNL     1     -33.931   6.738   5.507  1.00 20.00     0.153 A 
HETATM    4  C4  UNL     1     -33.100   7.260   4.590  1.00 20.00     0.167 A 
HETATM    5  C5  UNL     1     -32.842   6.624   3.286  1.00 20.00     0.262 A 
HETATM    6  C6  UNL     1     -33.596   5.321   3.020  1.00 20.00     0.258 A 
HETATM    7  O7  UNL     1     -33.843   6.513   2.263  1.00 20.00    -0.327 OA
HETATM    8  F8  UNL     1     -34.128   7.361   6.687  1.00 20.00    -0.203 F 
HETATM    9  F9  UNL     1     -32.466   8.419   4.877  1.00 20.00    -0.204 F 
HETATM   10  F10 UNL     1     -32.871   4.329   2.368  1.00 20.00    -0.203 F 
ENDROOT
TORSDOF 0
ENDMDL
MODEL 3
REMARK VINA RESULT:      -6.1      1.629      2.872
REMARK  0 active torsions:
REMARK  status: ('A' for Active; 'I' for Inactive)
ROOT
HETATM    1  C1  UNL     1     -32.990   7.666   4.301  1.00 20.00     0.047 A 
HETATM    2  C2  UNL     1     -33.003   7.129   3.067  1.00 20.00     0.052 A 
HETATM    3  C3  UNL     1     -33.728   7.040   5.375  1.00 20.00     0.153 A 
HETATM    4  C4  UNL     1     -34.440   5.919   5.175  1.00 20.00     0.167 A 
HETATM    5  C5  UNL     1     -34.537   5.252   3.865  1.00 20.00     0.262 A 
HETATM    6  C6  UNL     1     -33.757   5.909   2.724  1.00 20.00     0.258 A 
HETATM    7  O7  UNL     1     -33.418   4.612   3.232  1.00 20.00    -0.327 OA
HETATM    8  F8  UNL     1     -33.676   7.610   6.596  1.00 20.00    -0.203 F 
HETATM    9  F9  UNL     1     -35.102   5.378   6.222  1.00 20.00    -0.204 F 
HETATM   10  F10 UNL     1     -34.398   5.927   1.490  1.00 20.00    -0.203 F 
ENDROOT
TORSDOF 0
ENDMDL
MODEL 4
REMARK VINA RESULT:      -6.0      1.545      3.513
REMARK  0 active torsions:
REMARK  status: ('A' for Active; 'I' for Inactive)
ROOT
HETATM    1  C1  UNL     1     -34.316   4.722   4.074  1.00 20.00     0.047 A 
HETATM    2  C2  UNL     1     -33.670   5.311   3.052  1.00 20.00     0.052 A 
HETATM    3  C3  UNL     1     -34.499   5.425   5.323  1.00 20.00     0.153 A 
HETATM    4  C4  UNL     1     -34.033   6.672   5.499  1.00 20.00     0.167 A 
HETATM    5  C5  UNL     1     -33.299   7.410   4.454  1.00 20.00     0.262 A 
HETATM    6  C6  UNL     1     -33.105   6.671   3.129  1.00 20.00     0.258 A 
HETATM    7  O7  UNL     1     -33.915   7.849   3.234  1.00 20.00    -0.327 OA
HETATM    8  F8  UNL     1     -35.161   4.796   6.315  1.00 20.00    -0.203 F 
HETATM    9  F9  UNL     1     -34.241   7.280   6.688  1.00 20.00    -0.204 F 
HETATM   10  F10 UNL     1     -31.865   6.841   2.523  1.00 20.00    -0.203 F 
ENDROOT
TORSDOF 0
ENDMDL
MODEL 5
REMARK VINA RESULT:      -5.9      1.382      3.236
REMARK  0 active torsions:
REMARK  status: ('A' for Active; 'I' for Inactive)
ROOT
HETATM    1  C1  UNL     1     -33.580   7.218   5.662  1.00 20.00     0.047 A 
HETATM    2  C2  UNL     1     -32.962   7.806   4.621  1.00 20.00     0.052 A 
HETATM    3  C3  UNL     1     -34.349   6.010   5.465  1.00 20.00     0.153 A 
HETATM    4  C4  UNL     1     -34.469   5.447   4.252  1.00 20.00     0.167 A 
HETATM    5  C5  UNL     1     -33.848   6.010   3.040  1.00 20.00     0.262 A 
HETATM    6  C6  UNL     1     -33.031   7.288   3.242  1.00 20.00     0.258 A 
HETATM    7  O7  UNL     1     -32.427   6.052   2.841  1.00 20.00    -0.327 OA
HETATM    8  F8  UNL     1     -34.942   5.453   6.540  1.00 20.00    -0.203 F 
HETATM    9  F9  UNL     1     -35.196   4.313   4.134  1.00 20.00    -0.204 F 
HETATM   10  F10 UNL     1     -33.163   8.249   2.246  1.00 20.00    -0.203 F 
ENDROOT
TORSDOF 0
ENDMDL
MODEL 6
REMARK VINA RESULT:      -5.8      1.349      2.344
REMARK  0 active torsions:
REMARK  status: ('A' for Active; 'I' for Inactive)
ROOT
HETATM    1  C1  UNL     1     -32.884   6.900   2.789  1.00 20.00     0.047 A 
HETATM    2  C2  UNL     1     -33.940   6.068   2.734  1.00 20.00     0.052 A 
HETATM    3  C3  UNL     1     -32.541   7.562   4.027  1.00 20.00     0.153 A 
HETATM    4  C4  UNL     1     -33.259   7.369   5.146  1.00 20.00     0.167 A 
HETATM    5  C5  UNL     1     -34.442   6.492   5.201  1.00 20.00     0.262 A 
HETATM    6  C6  UNL     1     -34.809   5.787   3.894  1.00 20.00     0.258 A 
HETATM    7  O7  UNL     1     -34.361   5.066   5.049  1.00 20.00    -0.327 OA
HETATM    8  F8  UNL     1     -31.469   8.379   4.034  1.00 20.00    -0.203 F 
HETATM    9  F9  UNL     1     -32.882   8.012   6.275  1.00 20.00    -0.204 F 
HETATM   10  F10 UNL     1     -36.169   5.704   3.618  1.00 20.00    -0.203 F 
ENDROOT
TORSDOF 0
ENDMDL
MODEL 7
REMARK VINA RESULT:      -5.5      1.655      3.218
REMARK  0 active torsions:
REMARK  status: ('A' for Active; 'I' for Inactive)
ROOT
HETATM    1  C1  UNL     1     -32.906   6.441   2.854  1.00 20.00     0.047 A 
HETATM    2  C2  UNL     1     -33.268   7.261   3.857  1.00 20.00     0.052 A 
HETATM    3  C3  UNL     1     -33.215   5.031   2.918  1.00 20.00     0.153 A 
HETATM    4  C4  UNL     1     -33.865   4.503   3.968  1.00 20.00     0.167 A 
HETATM    5  C5  UNL     1     -34.298   5.302   5.129  1.00 20.00     0.262 A 
HETATM    6  C6  UNL     1     -33.975   6.796   5.066  1.00 20.00     0.258 A 
HETATM    7  O7  UNL     1     -35.321   6.306   5.044  1.00 20.00    -0.327 OA
HETATM    8  F8  UNL     1     -32.839   4.251   1.884  1.00 20.00    -0.203 F 
HETATM    9  F9  UNL     1     -34.132   3.178   3.965  1.00 20.00    -0.204 F 
HETATM   10  F10 UNL     1     -33.559   7.371   6.262  1.00 20.00    -0.203 F 
ENDROOT
TORSDOF 0
ENDMDL
MODEL 8
REMARK VINA RESULT:      -5.4      1.866      3.297
REMARK  0 active torsions:
REMARK  status: ('A' for Active; 'I' for Inactive)
ROOT
HETATM    1  C1  UNL     1     -34.481   5.757   4.964  1.00 20.00     0.047 A 
HETATM    2  C2  UNL     1     -34.191   7.059   4.785  1.00 20.00     0.052 A 
HETATM    3  C3  UNL     1     -34.027   4.771   4.010  1.00 20.00     0.153 A 
HETATM    4  C4  UNL     1     -33.311   5.121   2.929  1.00 20.00     0.167 A 
HETATM    5  C5  UNL     1     -32.946   6.516   2.624  1.00 20.00     0.262 A 
HETATM    6  C6  UNL     1     -33.423   7.564   3.631  1.00 20.00     0.258 A 
HETATM    7  O7  UNL     1     -32.033   7.276   3.431  1.00 20.00    -0.327 OA
HETATM    8  F8  UNL     1     -34.335   3.479   4.238  1.00 20.00    -0.203 F 
HETATM    9  F9  UNL     1     -32.909   4.151   2.077  1.00 20.00    -0.204 F 
HETATM   10  F10 UNL     1     -33.878   8.759   3.085  1.00 20.00    -0.203 F 
ENDROOT
TORSDOF 0
ENDMDL
MODEL 9
REMARK VINA RESULT:      -5.0      1.889      2.743
REMARK  0 active torsions:
REMARK  status: ('A' for Active; 'I' for Inactive)
ROOT
HETATM    1  C1  UNL     1     -34.027   4.237   4.208  1.00 20.00     0.047 A 
HETATM    2  C2  UNL     1     -34.324   4.686   5.441  1.00 20.00     0.052 A 
HETATM    3  C3  UNL     1     -33.656   5.165   3.165  1.00 20.00     0.153 A 
HETATM    4  C4  UNL     1     -33.598   6.488   3.392  1.00 20.00     0.167 A 
HETATM    5  C5  UNL     1     -33.914   7.093   4.698  1.00 20.00     0.262 A 
HETATM    6  C6  UNL     1     -34.306   6.115   5.807  1.00 20.00     0.258 A 
HETATM    7  O7  UNL     1     -33.103   6.892   5.866  1.00 20.00    -0.327 OA
HETATM    8  F8  UNL     1     -33.359   4.667   1.948  1.00 20.00    -0.203 F 
HETATM    9  F9  UNL     1     -33.237   7.304   2.377  1.00 20.00    -0.204 F 
HETATM   10  F10 UNL     1     -35.339   6.534   6.640  1.00 20.00    -0.203 F 
ENDROOT
TORSDOF 0
ENDMDL
