MODEL 1
REMARK VINA RESULT:      -4.4      0.000      0.000
REMARK  3 active torsions:
REMARK  status: ('A' for Active; 'I' for Inactive)
REMARK    1  A    between atoms: C2_2  and  C5_5 
REMARK    2  A    between atoms: C3_3  and  C6_6 
REMARK    3  A    between atoms: C3_3  and  O10_10 
ROOT
HETATM    1  C4  UNL     1     -31.422   8.570   3.188  1.00 20.00     0.025 A 
HETATM    2  C5  UNL     1     -31.580   8.476   1.696  1.00 20.00     0.028 A 
HETATM    3  C6  UNL     1     -32.002   7.324   2.577  1.00 20.00     0.094 A 
ENDROOT
BRANCH   3   4
HETATM    4  C3  UNL     1     -33.420   7.010   2.797  1.00 20.00     0.263 C 
HETATM    5  O9  UNL     1     -34.079   6.277   2.073  1.00 20.00    -0.265 OA
BRANCH   4   6
HETATM    6  O10 UNL     1     -33.861   7.656   3.913  1.00 20.00    -0.326 OA
HETATM    7  C8  UNL     1     -34.016   6.838   5.077  1.00 20.00     0.213 C 
ENDBRANCH   4   6
ENDBRANCH   3   4
BRANCH   2   8
HETATM    8  C2  UNL     1     -32.573   9.313   1.040  1.00 20.00    -0.088 C 
HETATM    9  C1  UNL     1     -33.079  10.407   1.627  1.00 20.00     0.014 C 
HETATM   10  C7  UNL     1     -32.998   8.882  -0.333  1.00 20.00     0.043 C 
ENDBRANCH   2   8
TORSDOF 3
ENDMDL
MODEL 2
REMARK VINA RESULT:      -4.2      1.686      4.300
REMARK  3 active torsions:
REMARK  status: ('A' for Active; 'I' for Inactive)
REMARK    1  A    between atoms: C2_2  and  C5_5 
REMARK    2  A    between atoms: C3_3  and  C6_6 
REMARK    3  A    between atoms: C3_3  and  O10_10 
ROOT
HETATM    1  C4  UNL     1     -33.523   5.507   1.972  1.00 20.00     0.025 A 
HETATM    2  C5  UNL     1     -33.556   5.061   3.407  1.00 20.00     0.028 A 
HETATM    3  C6  UNL     1     -32.520   6.058   2.948  1.00 20.00     0.094 A 
ENDROOT
BRANCH   3   4
HETATM    4  C3  UNL     1     -32.597   7.473   3.335  1.00 20.00     0.263 C 
HETATM    5  O9  UNL     1     -32.291   7.899   4.439  1.00 20.00    -0.265 OA
BRANCH   4   6
HETATM    6  O10 UNL     1     -33.056   8.207   2.282  1.00 20.00    -0.326 OA
HETATM    7  C8  UNL     1     -32.057   8.926   1.552  1.00 20.00     0.213 C 
ENDBRANCH   4   6
ENDBRANCH   3   4
BRANCH   2   8
HETATM    8  C2  UNL     1     -34.669   5.477   4.248  1.00 20.00    -0.088 C 
HETATM    9  C1  UNL     1     -35.755   6.079   3.741  1.00 20.00     0.014 C 
HETATM   10  C7  UNL     1     -34.532   5.194   5.715  1.00 20.00     0.043 C 
ENDBRANCH   2   8
TORSDOF 3
ENDMDL
MODEL 3
REMARK VINA RESULT:      -4.2      9.423     10.583
REMARK  3 active torsions:
REMARK  status: ('A' for Active; 'I' for Inactive)
REMARK    1  A    between atoms: C2_2  and  C5_5 
REMARK    2  A    between atoms: C3_3  and  C6_6 
REMARK    3  A    between atoms: C3_3  and  O10_10 
ROOT
HETATM    1  C4  UNL     1     -34.546  14.807  -6.707  1.00 20.00     0.025 A 
HETATM    2  C5  UNL     1     -34.799  15.726  -5.544  1.00 20.00     0.028 A 
HETATM    3  C6  UNL     1     -35.914  14.864  -6.085  1.00 20.00     0.094 A 
ENDROOT
BRANCH   3   4
HETATM    4  C3  UNL     1     -36.412  13.701  -5.339  1.00 20.00     0.263 C 
HETATM    5  O9  UNL     1     -35.865  12.607  -5.331  1.00 20.00    -0.265 OA
BRANCH   4   6
HETATM    6  O10 UNL     1     -37.554  14.040  -4.676  1.00 20.00    -0.326 OA
HETATM    7  C8  UNL     1     -38.515  14.773  -5.443  1.00 20.00     0.213 C 
ENDBRANCH   4   6
ENDBRANCH   3   4
BRANCH   2   8
HETATM    8  C2  UNL     1     -34.181  15.424  -4.262  1.00 20.00    -0.088 C 
HETATM    9  C1  UNL     1     -34.634  15.948  -3.114  1.00 20.00     0.014 C 
HETATM   10  C7  UNL     1     -33.006  14.491  -4.297  1.00 20.00     0.043 C 
ENDBRANCH   2   8
TORSDOF 3
ENDMDL
MODEL 4
REMARK VINA RESULT:      -4.0      1.786      4.294
REMARK  3 active torsions:
REMARK  status: ('A' for Active; 'I' for Inactive)
REMARK    1  A    between atoms: C2_2  and  C5_5 
REMARK    2  A    between atoms: C3_3  and  C6_6 
REMARK    3  A    between atoms: C3_3  and  O10_10 
ROOT
HETATM    1  C4  UNL     1     -33.957   7.138   5.246  1.00 20.00     0.025 A 
HETATM    2  C5  UNL     1     -34.538   6.375   4.088  1.00 20.00     0.028 A 
HETATM    3  C6  UNL     1     -33.863   7.705   3.856  1.00 20.00     0.094 A 
ENDROOT
BRANCH   3   4
HETATM    4  C3  UNL     1     -32.549   7.791   3.204  1.00 20.00     0.263 C 
HETATM    5  O9  UNL     1     -31.483   7.711   3.798  1.00 20.00    -0.265 OA
BRANCH   4   6
HETATM    6  O10 UNL     1     -32.718   7.971   1.864  1.00 20.00    -0.326 OA
HETATM    7  C8  UNL     1     -32.156   9.174   1.330  1.00 20.00     0.213 C 
ENDBRANCH   4   6
ENDBRANCH   3   4
BRANCH   2   8
HETATM    8  C2  UNL     1     -33.901   5.134   3.673  1.00 20.00    -0.088 C 
HETATM    9  C1  UNL     1     -33.282   5.015   2.490  1.00 20.00     0.014 C 
HETATM   10  C7  UNL     1     -33.976   3.995   4.646  1.00 20.00     0.043 C 
ENDBRANCH   2   8
TORSDOF 3
ENDMDL
MODEL 5
REMARK VINA RESULT:      -4.0      9.382     10.549
REMARK  3 active torsions:
REMARK  status: ('A' for Active; 'I' for Inactive)
REMARK    1  A    between atoms: C2_2  and  C5_5 
REMARK    2  A    between atoms: C3_3  and  C6_6 
REMARK    3  A    between atoms: C3_3  and  O10_10 
ROOT
HETATM    1  C4  UNL     1     -34.018  15.605  -3.863  1.00 20.00     0.025 A 
HETATM    2  C5  UNL     1     -33.398  15.085  -5.130  1.00 20.00     0.028 A 
HETATM    3  C6  UNL     1     -34.267  14.184  -4.287  1.00 20.00     0.094 A 
ENDROOT
BRANCH   3   4
HETATM    4  C3  UNL     1     -35.613  13.792  -4.726  1.00 20.00     0.263 C 
HETATM    5  O9  UNL     1     -35.865  12.750  -5.315  1.00 20.00    -0.265 OA
BRANCH   4   6
HETATM    6  O10 UNL     1     -36.506  14.759  -4.374  1.00 20.00    -0.326 OA
HETATM    7  C8  UNL     1     -37.814  14.624  -4.940  1.00 20.00     0.213 C 
ENDBRANCH   4   6
ENDBRANCH   3   4
BRANCH   2   8
HETATM    8  C2  UNL     1     -33.874  15.596  -6.407  1.00 20.00    -0.088 C 
HETATM    9  C1  UNL     1     -33.785  14.879  -7.536  1.00 20.00     0.014 C 
HETATM   10  C7  UNL     1     -34.470  16.972  -6.387  1.00 20.00     0.043 C 
ENDBRANCH   2   8
TORSDOF 3
ENDMDL
MODEL 6
REMARK VINA RESULT:      -3.8      9.419     10.300
REMARK  3 active torsions:
REMARK  status: ('A' for Active; 'I' for Inactive)
REMARK    1  A    between atoms: C2_2  and  C5_5 
REMARK    2  A    between atoms: C3_3  and  C6_6 
REMARK    3  A    between atoms: C3_3  and  O10_10 
ROOT
HETATM    1  C4  UNL     1     -33.337  16.645  -5.216  1.00 20.00     0.025 A 
HETATM    2  C5  UNL     1     -34.628  16.740  -4.451  1.00 20.00     0.028 A 
HETATM    3  C6  UNL     1     -34.297  15.488  -5.227  1.00 20.00     0.094 A 
ENDROOT
BRANCH   3   4
HETATM    4  C3  UNL     1     -33.927  14.241  -4.543  1.00 20.00     0.263 C 
HETATM    5  O9  UNL     1     -32.782  13.947  -4.229  1.00 20.00    -0.265 OA
BRANCH   4   6
HETATM    6  O10 UNL     1     -35.044  13.491  -4.326  1.00 20.00    -0.326 OA
HETATM    7  C8  UNL     1     -35.954  13.412  -5.428  1.00 20.00     0.213 C 
ENDBRANCH   4   6
ENDBRANCH   3   4
BRANCH   2   8
HETATM    8  C2  UNL     1     -34.584  16.748  -2.997  1.00 20.00    -0.088 C 
HETATM    9  C1  UNL     1     -35.655  16.435  -2.253  1.00 20.00     0.014 C 
HETATM   10  C7  UNL     1     -33.272  17.125  -2.376  1.00 20.00     0.043 C 
ENDBRANCH   2   8
TORSDOF 3
ENDMDL
MODEL 7
REMARK VINA RESULT:      -3.8      9.155     10.740
REMARK  3 active torsions:
REMARK  status: ('A' for Active; 'I' for Inactive)
REMARK    1  A    between atoms: C2_2  and  C5_5 
REMARK    2  A    between atoms: C3_3  and  C6_6 
REMARK    3  A    between atoms: C3_3  and  O10_10 
ROOT
HETATM    1  C4  UNL     1     -36.037  16.217  -4.704  1.00 20.00     0.025 A 
HETATM    2  C5  UNL     1     -34.925  15.505  -3.984  1.00 20.00     0.028 A 
HETATM    3  C6  UNL     1     -36.181  14.759  -4.365  1.00 20.00     0.094 A 
ENDROOT
BRANCH   3   4
HETATM    4  C3  UNL     1     -36.182  13.767  -5.448  1.00 20.00     0.263 C 
HETATM    5  O9  UNL     1     -35.918  12.583  -5.293  1.00 20.00    -0.265 OA
BRANCH   4   6
HETATM    6  O10 UNL     1     -36.516  14.375  -6.622  1.00 20.00    -0.326 OA
HETATM    7  C8  UNL     1     -35.793  13.928  -7.773  1.00 20.00     0.213 C 
ENDBRANCH   4   6
ENDBRANCH   3   4
BRANCH   2   8
HETATM    8  C2  UNL     1     -33.674  15.263  -4.686  1.00 20.00    -0.088 C 
HETATM    9  C1  UNL     1     -33.293  16.006  -5.735  1.00 20.00     0.014 C 
HETATM   10  C7  UNL     1     -32.833  14.133  -4.168  1.00 20.00     0.043 C 
ENDBRANCH   2   8
TORSDOF 3
ENDMDL
MODEL 8
REMARK VINA RESULT:      -3.7      9.476     10.660
REMARK  3 active torsions:
REMARK  status: ('A' for Active; 'I' for Inactive)
REMARK    1  A    between atoms: C2_2  and  C5_5 
REMARK    2  A    between atoms: C3_3  and  C6_6 
REMARK    3  A    between atoms: C3_3  and  O10_10 
ROOT
HETATM    1  C4  UNL     1     -34.713  15.508  -3.367  1.00 20.00     0.025 A 
HETATM    2  C5  UNL     1     -33.811  15.502  -4.570  1.00 20.00     0.028 A 
HETATM    3  C6  UNL     1     -34.571  14.256  -4.187  1.00 20.00     0.094 A 
ENDROOT
BRANCH   3   4
HETATM    4  C3  UNL     1     -35.714  13.784  -4.980  1.00 20.00     0.263 C 
HETATM    5  O9  UNL     1     -36.839  14.259  -4.910  1.00 20.00    -0.265 OA
BRANCH   4   6
HETATM    6  O10 UNL     1     -35.318  12.756  -5.783  1.00 20.00    -0.326 OA
HETATM    7  C8  UNL     1     -35.413  13.003  -7.190  1.00 20.00     0.213 C 
ENDBRANCH   4   6
ENDBRANCH   3   4
BRANCH   2   8
HETATM    8  C2  UNL     1     -34.194  16.278  -5.740  1.00 20.00    -0.088 C 
HETATM    9  C1  UNL     1     -35.110  17.254  -5.676  1.00 20.00     0.014 C 
HETATM   10  C7  UNL     1     -33.504  15.922  -7.024  1.00 20.00     0.043 C 
ENDBRANCH   2   8
TORSDOF 3
ENDMDL
MODEL 9
REMARK VINA RESULT:      -3.7      9.477     10.867
REMARK  3 active torsions:
REMARK  status: ('A' for Active; 'I' for Inactive)
REMARK    1  A    between atoms: C2_2  and  C5_5 
REMARK    2  A    between atoms: C3_3  and  C6_6 
REMARK    3  A    between atoms: C3_3  and  O10_10 
ROOT
HETATM    1  C4  UNL     1     -33.471  16.780  -5.193  1.00 20.00     0.025 A 
HETATM    2  C5  UNL     1     -33.159  15.667  -6.154  1.00 20.00     0.028 A 
HETATM    3  C6  UNL     1     -33.329  15.373  -4.683  1.00 20.00     0.094 A 
ENDROOT
BRANCH   3   4
HETATM    4  C3  UNL     1     -34.515  14.670  -4.176  1.00 20.00     0.263 C 
HETATM    5  O9  UNL     1     -34.633  13.453  -4.157  1.00 20.00    -0.265 OA
BRANCH   4   6
HETATM    6  O10 UNL     1     -35.434  15.580  -3.746  1.00 20.00    -0.326 OA
HETATM    7  C8  UNL     1     -36.782  15.335  -4.158  1.00 20.00     0.213 C 
ENDBRANCH   4   6
ENDBRANCH   3   4
BRANCH   2   8
HETATM    8  C2  UNL     1     -34.173  15.263  -7.116  1.00 20.00    -0.088 C 
HETATM    9  C1  UNL     1     -34.154  14.058  -7.703  1.00 20.00     0.014 C 
HETATM   10  C7  UNL     1     -35.242  16.273  -7.412  1.00 20.00     0.043 C 
ENDBRANCH   2   8
TORSDOF 3
ENDMDL
