MODEL 1
REMARK VINA RESULT:      -4.9      0.000      0.000
REMARK  1 active torsions:
REMARK  status: ('A' for Active; 'I' for Inactive)
REMARK    1  A    between atoms: C5_5  and  C6_6 
ROOT
HETATM    1  C1  UNL     1     -35.500  16.838  -1.938  1.00 20.00    -0.003 A 
HETATM    2  C2  UNL     1     -34.053  16.835  -1.947  1.00 20.00    -0.003 A 
HETATM    3  C3  UNL     1     -35.926  16.313  -3.102  1.00 20.00    -0.012 A 
HETATM    4  C4  UNL     1     -33.645  16.310  -3.117  1.00 20.00    -0.012 A 
HETATM    5  C6  UNL     1     -34.769  14.685  -4.800  1.00 20.00     0.073 A 
HETATM    6  C7  UNL     1     -34.792  15.934  -3.966  1.00 20.00     0.013 A 
HETATM    7  C8  UNL     1     -34.800  16.058  -5.473  1.00 20.00    -0.021 A 
HETATM    8  C9  UNL     1     -33.544  16.501  -6.189  1.00 20.00     0.017 C 
HETATM    9  C10 UNL     1     -36.058  16.522  -6.173  1.00 20.00     0.017 C 
ENDROOT
BRANCH   5  10
HETATM   10  C5  UNL     1     -35.931  13.788  -4.866  1.00 20.00     0.237 C 
HETATM   11  O11 UNL     1     -35.871  12.633  -5.274  1.00 20.00    -0.306 OA
ENDBRANCH   5  10
TORSDOF 1
ENDMDL
MODEL 2
REMARK VINA RESULT:      -4.6      1.929      3.026
REMARK  1 active torsions:
REMARK  status: ('A' for Active; 'I' for Inactive)
REMARK    1  A    between atoms: C5_5  and  C6_6 
ROOT
HETATM    1  C1  UNL     1     -33.954  17.330  -1.284  1.00 20.00    -0.003 A 
HETATM    2  C2  UNL     1     -35.347  16.946  -1.214  1.00 20.00    -0.003 A 
HETATM    3  C3  UNL     1     -33.482  16.972  -2.493  1.00 20.00    -0.012 A 
HETATM    4  C4  UNL     1     -35.679  16.365  -2.382  1.00 20.00    -0.012 A 
HETATM    5  C6  UNL     1     -34.699  16.554  -4.778  1.00 20.00     0.073 A 
HETATM    6  C7  UNL     1     -34.527  16.319  -3.305  1.00 20.00     0.013 A 
HETATM    7  C8  UNL     1     -34.263  15.182  -4.264  1.00 20.00    -0.021 A 
HETATM    8  C9  UNL     1     -35.267  14.056  -4.377  1.00 20.00     0.017 C 
HETATM    9  C10 UNL     1     -32.843  14.713  -4.487  1.00 20.00     0.017 C 
ENDROOT
BRANCH   5  10
HETATM   10  C5  UNL     1     -33.767  17.407  -5.529  1.00 20.00     0.237 C 
HETATM   11  O11 UNL     1     -33.792  17.524  -6.750  1.00 20.00    -0.306 OA
ENDBRANCH   5  10
TORSDOF 1
ENDMDL
MODEL 3
REMARK VINA RESULT:      -4.4     10.679     11.624
REMARK  1 active torsions:
REMARK  status: ('A' for Active; 'I' for Inactive)
REMARK    1  A    between atoms: C5_5  and  C6_6 
ROOT
HETATM    1  C1  UNL     1     -32.839   9.557   1.446  1.00 20.00    -0.003 A 
HETATM    2  C2  UNL     1     -31.615   8.836   1.173  1.00 20.00    -0.003 A 
HETATM    3  C3  UNL     1     -33.543   8.858   2.356  1.00 20.00    -0.012 A 
HETATM    4  C4  UNL     1     -31.613   7.719   1.926  1.00 20.00    -0.012 A 
HETATM    5  C6  UNL     1     -32.796   7.098   4.150  1.00 20.00     0.073 A 
HETATM    6  C7  UNL     1     -32.838   7.621   2.743  1.00 20.00     0.013 A 
HETATM    7  C8  UNL     1     -33.533   6.317   3.063  1.00 20.00    -0.021 A 
HETATM    8  C9  UNL     1     -32.913   5.013   2.613  1.00 20.00     0.017 C 
HETATM    9  C10 UNL     1     -35.045   6.264   3.071  1.00 20.00     0.017 C 
ENDROOT
BRANCH   5  10
HETATM   10  C5  UNL     1     -33.535   7.761   5.234  1.00 20.00     0.237 C 
HETATM   11  O11 UNL     1     -33.916   7.181   6.245  1.00 20.00    -0.306 OA
ENDBRANCH   5  10
TORSDOF 1
ENDMDL
MODEL 4
REMARK VINA RESULT:      -4.3      2.224      3.698
REMARK  1 active torsions:
REMARK  status: ('A' for Active; 'I' for Inactive)
REMARK    1  A    between atoms: C5_5  and  C6_6 
ROOT
HETATM    1  C1  UNL     1     -34.791  14.101  -4.307  1.00 20.00    -0.003 A 
HETATM    2  C2  UNL     1     -33.414  14.456  -4.574  1.00 20.00    -0.003 A 
HETATM    3  C3  UNL     1     -35.374  15.137  -3.675  1.00 20.00    -0.012 A 
HETATM    4  C4  UNL     1     -33.202  15.696  -4.094  1.00 20.00    -0.012 A 
HETATM    5  C6  UNL     1     -34.792  17.693  -3.626  1.00 20.00     0.073 A 
HETATM    6  C7  UNL     1     -34.422  16.246  -3.471  1.00 20.00     0.013 A 
HETATM    7  C8  UNL     1     -34.414  17.140  -2.252  1.00 20.00    -0.021 A 
HETATM    8  C9  UNL     1     -33.094  17.590  -1.669  1.00 20.00     0.017 C 
HETATM    9  C10 UNL     1     -35.482  16.962  -1.195  1.00 20.00     0.017 C 
ENDROOT
BRANCH   5  10
HETATM   10  C5  UNL     1     -36.173  18.101  -3.920  1.00 20.00     0.237 C 
HETATM   11  O11 UNL     1     -36.637  18.149  -5.055  1.00 20.00    -0.306 OA
ENDBRANCH   5  10
TORSDOF 1
ENDMDL
MODEL 5
REMARK VINA RESULT:      -4.2      1.207      3.332
REMARK  1 active torsions:
REMARK  status: ('A' for Active; 'I' for Inactive)
REMARK    1  A    between atoms: C5_5  and  C6_6 
ROOT
HETATM    1  C1  UNL     1     -33.931  17.174  -7.538  1.00 20.00    -0.003 A 
HETATM    2  C2  UNL     1     -34.731  18.102  -6.767  1.00 20.00    -0.003 A 
HETATM    3  C3  UNL     1     -33.873  16.011  -6.862  1.00 20.00    -0.012 A 
HETATM    4  C4  UNL     1     -35.133  17.474  -5.646  1.00 20.00    -0.012 A 
HETATM    5  C6  UNL     1     -35.466  14.969  -5.059  1.00 20.00     0.073 A 
HETATM    6  C7  UNL     1     -34.622  16.090  -5.593  1.00 20.00     0.013 A 
HETATM    7  C8  UNL     1     -34.200  15.398  -4.318  1.00 20.00    -0.021 A 
HETATM    8  C9  UNL     1     -34.385  16.102  -2.993  1.00 20.00     0.017 C 
HETATM    9  C10 UNL     1     -32.982  14.500  -4.329  1.00 20.00     0.017 C 
ENDROOT
BRANCH   5  10
HETATM   10  C5  UNL     1     -35.533  13.670  -5.745  1.00 20.00     0.237 C 
HETATM   11  O11 UNL     1     -35.933  12.642  -5.208  1.00 20.00    -0.306 OA
ENDBRANCH   5  10
TORSDOF 1
ENDMDL
MODEL 6
REMARK VINA RESULT:      -4.2      1.517      1.938
REMARK  1 active torsions:
REMARK  status: ('A' for Active; 'I' for Inactive)
REMARK    1  A    between atoms: C5_5  and  C6_6 
ROOT
HETATM    1  C1  UNL     1     -34.929  15.499  -3.470  1.00 20.00    -0.003 A 
HETATM    2  C2  UNL     1     -33.558  15.899  -3.699  1.00 20.00    -0.003 A 
HETATM    3  C3  UNL     1     -35.483  15.205  -4.661  1.00 20.00    -0.012 A 
HETATM    4  C4  UNL     1     -33.321  15.837  -5.023  1.00 20.00    -0.012 A 
HETATM    5  C6  UNL     1     -34.414  14.473  -6.941  1.00 20.00     0.073 A 
HETATM    6  C7  UNL     1     -34.520  15.399  -5.763  1.00 20.00     0.013 A 
HETATM    7  C8  UNL     1     -34.897  15.911  -7.134  1.00 20.00    -0.021 A 
HETATM    8  C9  UNL     1     -33.965  16.858  -7.856  1.00 20.00     0.017 C 
HETATM    9  C10 UNL     1     -36.352  16.178  -7.453  1.00 20.00     0.017 C 
ENDROOT
BRANCH   5  10
HETATM   10  C5  UNL     1     -35.335  13.341  -7.108  1.00 20.00     0.237 C 
HETATM   11  O11 UNL     1     -35.051  12.187  -6.803  1.00 20.00    -0.306 OA
ENDBRANCH   5  10
TORSDOF 1
ENDMDL
MODEL 7
REMARK VINA RESULT:      -4.1      1.783      2.397
REMARK  1 active torsions:
REMARK  status: ('A' for Active; 'I' for Inactive)
REMARK    1  A    between atoms: C5_5  and  C6_6 
ROOT
HETATM    1  C1  UNL     1     -33.992  16.549  -4.023  1.00 20.00    -0.003 A 
HETATM    2  C2  UNL     1     -33.218  15.334  -3.891  1.00 20.00    -0.003 A 
HETATM    3  C3  UNL     1     -35.075  16.276  -4.775  1.00 20.00    -0.012 A 
HETATM    4  C4  UNL     1     -33.855  14.360  -4.569  1.00 20.00    -0.012 A 
HETATM    5  C6  UNL     1     -36.336  14.027  -5.252  1.00 20.00     0.073 A 
HETATM    6  C7  UNL     1     -35.090  14.863  -5.201  1.00 20.00     0.013 A 
HETATM    7  C8  UNL     1     -35.601  14.391  -6.542  1.00 20.00    -0.021 A 
HETATM    8  C9  UNL     1     -34.881  13.273  -7.261  1.00 20.00     0.017 C 
HETATM    9  C10 UNL     1     -36.213  15.391  -7.498  1.00 20.00     0.017 C 
ENDROOT
BRANCH   5  10
HETATM   10  C5  UNL     1     -37.654  14.602  -4.948  1.00 20.00     0.237 C 
HETATM   11  O11 UNL     1     -38.699  13.960  -4.998  1.00 20.00    -0.306 OA
ENDBRANCH   5  10
TORSDOF 1
ENDMDL
MODEL 8
REMARK VINA RESULT:      -4.0      1.098      2.619
REMARK  1 active torsions:
REMARK  status: ('A' for Active; 'I' for Inactive)
REMARK    1  A    between atoms: C5_5  and  C6_6 
ROOT
HETATM    1  C1  UNL     1     -37.453  17.206  -5.515  1.00 20.00    -0.003 A 
HETATM    2  C2  UNL     1     -37.659  17.409  -4.098  1.00 20.00    -0.003 A 
HETATM    3  C3  UNL     1     -36.352  16.448  -5.673  1.00 20.00    -0.012 A 
HETATM    4  C4  UNL     1     -36.676  16.768  -3.438  1.00 20.00    -0.012 A 
HETATM    5  C6  UNL     1     -35.165  14.753  -4.063  1.00 20.00     0.073 A 
HETATM    6  C7  UNL     1     -35.747  16.102  -4.372  1.00 20.00     0.013 A 
HETATM    7  C8  UNL     1     -34.259  15.983  -4.137  1.00 20.00    -0.021 A 
HETATM    8  C9  UNL     1     -33.669  16.481  -2.837  1.00 20.00     0.017 C 
HETATM    9  C10 UNL     1     -33.308  16.146  -5.302  1.00 20.00     0.017 C 
ENDROOT
BRANCH   5  10
HETATM   10  C5  UNL     1     -35.090  13.700  -5.085  1.00 20.00     0.237 C 
HETATM   11  O11 UNL     1     -35.917  12.801  -5.191  1.00 20.00    -0.306 OA
ENDBRANCH   5  10
TORSDOF 1
ENDMDL
MODEL 9
REMARK VINA RESULT:      -4.0      1.638      3.413
REMARK  1 active torsions:
REMARK  status: ('A' for Active; 'I' for Inactive)
REMARK    1  A    between atoms: C5_5  and  C6_6 
ROOT
HETATM    1  C1  UNL     1     -36.769  16.178  -6.255  1.00 20.00    -0.003 A 
HETATM    2  C2  UNL     1     -37.663  15.709  -5.220  1.00 20.00    -0.003 A 
HETATM    3  C3  UNL     1     -35.526  16.233  -5.740  1.00 20.00    -0.012 A 
HETATM    4  C4  UNL     1     -36.937  15.494  -4.107  1.00 20.00    -0.012 A 
HETATM    5  C6  UNL     1     -34.425  14.970  -3.724  1.00 20.00     0.073 A 
HETATM    6  C7  UNL     1     -35.512  15.812  -4.326  1.00 20.00     0.013 A 
HETATM    7  C8  UNL     1     -34.614  16.418  -3.273  1.00 20.00    -0.021 A 
HETATM    8  C9  UNL     1     -35.150  16.638  -1.876  1.00 20.00     0.017 C 
HETATM    9  C10 UNL     1     -33.603  17.468  -3.675  1.00 20.00     0.017 C 
ENDROOT
BRANCH   5  10
HETATM   10  C5  UNL     1     -33.244  14.573  -4.505  1.00 20.00     0.237 C 
HETATM   11  O11 UNL     1     -32.510  13.641  -4.194  1.00 20.00    -0.306 OA
ENDBRANCH   5  10
TORSDOF 1
ENDMDL
