MODEL 1
REMARK VINA RESULT:      -5.3      0.000      0.000
REMARK  1 active torsions:
REMARK  status: ('A' for Active; 'I' for Inactive)
REMARK    1  A    between atoms: C8_8  and  O11_11 
ROOT
HETATM    1  C1  UNL     1     -32.853   6.012   2.150  1.00 20.00     0.005 C 
HETATM    2  C2  UNL     1     -33.639   4.971   2.475  1.00 20.00     0.005 C 
HETATM    3  C3  UNL     1     -32.669   7.172   3.016  1.00 20.00    -0.063 C 
HETATM    4  C4  UNL     1     -31.755   8.113   2.734  1.00 20.00     0.019 C 
HETATM    5  C5  UNL     1     -34.059   7.440   6.576  1.00 20.00     0.001 C 
HETATM    6  C6  UNL     1     -33.206   8.035   5.446  1.00 20.00     0.010 C 
HETATM    7  C7  UNL     1     -34.582   6.091   6.066  1.00 20.00     0.008 C 
HETATM    8  C8  UNL     1     -34.369   4.861   3.792  1.00 20.00     0.145 C 
HETATM    9  C9  UNL     1     -33.593   7.224   4.209  1.00 20.00     0.024 C 
HETATM   10  C10 UNL     1     -33.761   5.825   4.809  1.00 20.00     0.026 C 
ENDROOT
BRANCH   8  11
HETATM   11  O11 UNL     1     -34.247   3.527   4.272  1.00 20.00    -0.391 OA
HETATM   12  H25 UNL     1     -34.207   2.952   3.491  1.00 20.00     0.210 HD
ENDBRANCH   8  11
TORSDOF 1
ENDMDL
MODEL 2
REMARK VINA RESULT:      -5.0     12.232     13.110
REMARK  1 active torsions:
REMARK  status: ('A' for Active; 'I' for Inactive)
REMARK    1  A    between atoms: C8_8  and  O11_11 
ROOT
HETATM    1  C1  UNL     1     -33.934  18.792   1.511  1.00 20.00     0.005 C 
HETATM    2  C2  UNL     1     -32.745  19.081   0.953  1.00 20.00     0.005 C 
HETATM    3  C3  UNL     1     -35.011  18.123   0.787  1.00 20.00    -0.063 C 
HETATM    4  C4  UNL     1     -36.120  17.708   1.418  1.00 20.00     0.019 C 
HETATM    5  C5  UNL     1     -34.661  16.687  -2.748  1.00 20.00     0.001 C 
HETATM    6  C6  UNL     1     -35.509  16.882  -1.483  1.00 20.00     0.010 C 
HETATM    7  C7  UNL     1     -33.302  17.345  -2.469  1.00 20.00     0.008 C 
HETATM    8  C8  UNL     1     -32.373  18.694  -0.458  1.00 20.00     0.145 C 
HETATM    9  C9  UNL     1     -34.778  17.971  -0.697  1.00 20.00     0.024 C 
HETATM   10  C10 UNL     1     -33.315  17.605  -0.967  1.00 20.00     0.026 C 
ENDROOT
BRANCH   8  11
HETATM   11  O11 UNL     1     -31.037  18.204  -0.460  1.00 20.00    -0.391 OA
HETATM   12  H25 UNL     1     -30.586  18.628  -1.208  1.00 20.00     0.210 HD
ENDBRANCH   8  11
TORSDOF 1
ENDMDL
MODEL 3
REMARK VINA RESULT:      -4.9      1.801      3.824
REMARK  1 active torsions:
REMARK  status: ('A' for Active; 'I' for Inactive)
REMARK    1  A    between atoms: C8_8  and  O11_11 
ROOT
HETATM    1  C1  UNL     1     -34.535   4.951   5.534  1.00 20.00     0.005 C 
HETATM    2  C2  UNL     1     -34.452   6.127   6.180  1.00 20.00     0.005 C 
HETATM    3  C3  UNL     1     -34.152   4.783   4.136  1.00 20.00    -0.063 C 
HETATM    4  C4  UNL     1     -34.095   3.567   3.571  1.00 20.00     0.019 C 
HETATM    5  C5  UNL     1     -32.486   7.506   2.018  1.00 20.00     0.001 C 
HETATM    6  C6  UNL     1     -32.976   6.058   2.152  1.00 20.00     0.010 C 
HETATM    7  C7  UNL     1     -32.756   8.187   3.367  1.00 20.00     0.008 C 
HETATM    8  C8  UNL     1     -33.901   7.384   5.551  1.00 20.00     0.145 C 
HETATM    9  C9  UNL     1     -33.861   6.069   3.399  1.00 20.00     0.024 C 
HETATM   10  C10 UNL     1     -33.090   7.034   4.306  1.00 20.00     0.026 C 
ENDROOT
BRANCH   8  11
HETATM   11  O11 UNL     1     -33.061   8.038   6.495  1.00 20.00    -0.391 OA
HETATM   12  H25 UNL     1     -32.315   8.407   5.996  1.00 20.00     0.210 HD
ENDBRANCH   8  11
TORSDOF 1
ENDMDL
MODEL 4
REMARK VINA RESULT:      -4.9      1.656      3.454
REMARK  1 active torsions:
REMARK  status: ('A' for Active; 'I' for Inactive)
REMARK    1  A    between atoms: C8_8  and  O11_11 
ROOT
HETATM    1  C1  UNL     1     -34.288   4.933   4.327  1.00 20.00     0.005 C 
HETATM    2  C2  UNL     1     -34.445   5.834   5.312  1.00 20.00     0.005 C 
HETATM    3  C3  UNL     1     -33.607   5.235   3.072  1.00 20.00    -0.063 C 
HETATM    4  C4  UNL     1     -33.329   4.271   2.181  1.00 20.00     0.019 C 
HETATM    5  C5  UNL     1     -31.771   8.522   2.358  1.00 20.00     0.001 C 
HETATM    6  C6  UNL     1     -32.154   7.102   1.913  1.00 20.00     0.010 C 
HETATM    7  C7  UNL     1     -32.376   8.721   3.754  1.00 20.00     0.008 C 
HETATM    8  C8  UNL     1     -33.883   7.235   5.253  1.00 20.00     0.145 C 
HETATM    9  C9  UNL     1     -33.279   6.695   2.865  1.00 20.00     0.024 C 
HETATM   10  C10 UNL     1     -32.801   7.320   4.179  1.00 20.00     0.026 C 
ENDROOT
BRANCH   8  11
HETATM   11  O11 UNL     1     -33.319   7.554   6.521  1.00 20.00    -0.391 OA
HETATM   12  H25 UNL     1     -33.243   8.521   6.555  1.00 20.00     0.210 HD
ENDBRANCH   8  11
TORSDOF 1
ENDMDL
MODEL 5
REMARK VINA RESULT:      -4.7     11.844     12.432
REMARK  1 active torsions:
REMARK  status: ('A' for Active; 'I' for Inactive)
REMARK    1  A    between atoms: C8_8  and  O11_11 
ROOT
HETATM    1  C1  UNL     1     -35.117  14.019  -5.072  1.00 20.00     0.005 C 
HETATM    2  C2  UNL     1     -36.408  14.393  -5.071  1.00 20.00     0.005 C 
HETATM    3  C3  UNL     1     -34.082  14.730  -4.328  1.00 20.00    -0.063 C 
HETATM    4  C4  UNL     1     -32.838  14.238  -4.223  1.00 20.00     0.019 C 
HETATM    5  C5  UNL     1     -34.773  17.612  -1.899  1.00 20.00     0.001 C 
HETATM    6  C6  UNL     1     -33.773  16.635  -2.534  1.00 20.00     0.010 C 
HETATM    7  C7  UNL     1     -36.151  17.263  -2.477  1.00 20.00     0.008 C 
HETATM    8  C8  UNL     1     -36.938  15.549  -4.257  1.00 20.00     0.145 C 
HETATM    9  C9  UNL     1     -34.522  16.045  -3.730  1.00 20.00     0.024 C 
HETATM   10  C10 UNL     1     -35.939  15.919  -3.162  1.00 20.00     0.026 C 
ENDROOT
BRANCH   8  11
HETATM   11  O11 UNL     1     -38.171  15.161  -3.662  1.00 20.00    -0.391 OA
HETATM   12  H25 UNL     1     -38.161  14.192  -3.607  1.00 20.00     0.210 HD
ENDBRANCH   8  11
TORSDOF 1
ENDMDL
MODEL 6
REMARK VINA RESULT:      -4.7     12.274     12.882
REMARK  1 active torsions:
REMARK  status: ('A' for Active; 'I' for Inactive)
REMARK    1  A    between atoms: C8_8  and  O11_11 
ROOT
HETATM    1  C1  UNL     1     -33.686  16.004  -3.494  1.00 20.00     0.005 C 
HETATM    2  C2  UNL     1     -33.258  15.368  -4.598  1.00 20.00     0.005 C 
HETATM    3  C3  UNL     1     -35.100  16.190  -3.180  1.00 20.00    -0.063 C 
HETATM    4  C4  UNL     1     -35.490  16.684  -1.996  1.00 20.00     0.019 C 
HETATM    5  C5  UNL     1     -37.971  14.638  -5.186  1.00 20.00     0.001 C 
HETATM    6  C6  UNL     1     -37.501  15.449  -3.971  1.00 20.00     0.010 C 
HETATM    7  C7  UNL     1     -36.707  14.220  -5.949  1.00 20.00     0.008 C 
HETATM    8  C8  UNL     1     -34.187  14.728  -5.601  1.00 20.00     0.145 C 
HETATM    9  C9  UNL     1     -36.050  15.810  -4.290  1.00 20.00     0.024 C 
HETATM   10  C10 UNL     1     -35.569  14.531  -4.983  1.00 20.00     0.026 C 
ENDROOT
BRANCH   8  11
HETATM   11  O11 UNL     1     -33.652  13.464  -5.978  1.00 20.00    -0.391 OA
HETATM   12  H25 UNL     1     -34.313  12.797  -5.732  1.00 20.00     0.210 HD
ENDBRANCH   8  11
TORSDOF 1
ENDMDL
MODEL 7
REMARK VINA RESULT:      -4.5     12.182     13.302
REMARK  1 active torsions:
REMARK  status: ('A' for Active; 'I' for Inactive)
REMARK    1  A    between atoms: C8_8  and  O11_11 
ROOT
HETATM    1  C1  UNL     1     -35.170  15.883  -3.461  1.00 20.00     0.005 C 
HETATM    2  C2  UNL     1     -33.893  15.512  -3.660  1.00 20.00     0.005 C 
HETATM    3  C3  UNL     1     -36.225  15.662  -4.445  1.00 20.00    -0.063 C 
HETATM    4  C4  UNL     1     -37.512  15.898  -4.150  1.00 20.00     0.019 C 
HETATM    5  C5  UNL     1     -35.763  13.669  -7.685  1.00 20.00     0.001 C 
HETATM    6  C6  UNL     1     -36.692  14.427  -6.725  1.00 20.00     0.010 C 
HETATM    7  C7  UNL     1     -34.368  13.682  -7.045  1.00 20.00     0.008 C 
HETATM    8  C8  UNL     1     -33.424  14.776  -4.891  1.00 20.00     0.145 C 
HETATM    9  C9  UNL     1     -35.743  15.183  -5.794  1.00 20.00     0.024 C 
HETATM   10  C10 UNL     1     -34.616  14.160  -5.619  1.00 20.00     0.026 C 
ENDROOT
BRANCH   8  11
HETATM   11  O11 UNL     1     -32.527  13.744  -4.493  1.00 20.00    -0.391 OA
HETATM   12  H25 UNL     1     -31.654  14.157  -4.395  1.00 20.00     0.210 HD
ENDBRANCH   8  11
TORSDOF 1
ENDMDL
MODEL 8
REMARK VINA RESULT:      -4.5     12.394     12.803
REMARK  1 active torsions:
REMARK  status: ('A' for Active; 'I' for Inactive)
REMARK    1  A    between atoms: C8_8  and  O11_11 
ROOT
HETATM    1  C1  UNL     1     -35.694  14.275  -5.650  1.00 20.00     0.005 C 
HETATM    2  C2  UNL     1     -34.360  14.254  -5.817  1.00 20.00     0.005 C 
HETATM    3  C3  UNL     1     -36.345  14.951  -4.532  1.00 20.00    -0.063 C 
HETATM    4  C4  UNL     1     -37.679  15.088  -4.484  1.00 20.00     0.019 C 
HETATM    5  C5  UNL     1     -34.511  17.140  -1.978  1.00 20.00     0.001 C 
HETATM    6  C6  UNL     1     -35.832  16.581  -2.527  1.00 20.00     0.010 C 
HETATM    7  C7  UNL     1     -33.397  16.602  -2.886  1.00 20.00     0.008 C 
HETATM    8  C8  UNL     1     -33.397  14.974  -4.905  1.00 20.00     0.145 C 
HETATM    9  C9  UNL     1     -35.407  15.443  -3.456  1.00 20.00     0.024 C 
HETATM   10  C10 UNL     1     -34.140  16.028  -4.087  1.00 20.00     0.026 C 
ENDROOT
BRANCH   8  11
HETATM   11  O11 UNL     1     -32.400  15.607  -5.700  1.00 20.00    -0.391 OA
HETATM   12  H25 UNL     1     -31.765  14.918  -5.951  1.00 20.00     0.210 HD
ENDBRANCH   8  11
TORSDOF 1
ENDMDL
MODEL 9
REMARK VINA RESULT:      -4.5      1.420      3.220
REMARK  1 active torsions:
REMARK  status: ('A' for Active; 'I' for Inactive)
REMARK    1  A    between atoms: C8_8  and  O11_11 
ROOT
HETATM    1  C1  UNL     1     -34.628   5.966   5.040  1.00 20.00     0.005 C 
HETATM    2  C2  UNL     1     -34.732   5.392   3.828  1.00 20.00     0.005 C 
HETATM    3  C3  UNL     1     -33.672   7.028   5.337  1.00 20.00    -0.063 C 
HETATM    4  C4  UNL     1     -33.705   7.687   6.505  1.00 20.00     0.019 C 
HETATM    5  C5  UNL     1     -31.455   8.724   2.712  1.00 20.00     0.001 C 
HETATM    6  C6  UNL     1     -31.956   8.646   4.162  1.00 20.00     0.010 C 
HETATM    7  C7  UNL     1     -32.208   7.641   1.929  1.00 20.00     0.008 C 
HETATM    8  C8  UNL     1     -33.916   5.820   2.633  1.00 20.00     0.145 C 
HETATM    9  C9  UNL     1     -32.657   7.289   4.250  1.00 20.00     0.024 C 
HETATM   10  C10 UNL     1     -33.324   7.207   2.873  1.00 20.00     0.026 C 
ENDROOT
BRANCH   8  11
HETATM   11  O11 UNL     1     -34.765   5.859   1.491  1.00 20.00    -0.391 OA
HETATM   12  H25 UNL     1     -35.198   6.728   1.495  1.00 20.00     0.210 HD
ENDBRANCH   8  11
TORSDOF 1
ENDMDL
