MODEL 1
REMARK VINA RESULT:      -5.0      0.000      0.000
REMARK  1 active torsions:
REMARK  status: ('A' for Active; 'I' for Inactive)
REMARK    1  A    between atoms: C1_1  and  C6_6 
ROOT
HETATM    1  C2  UNL     1     -34.345   6.574   5.508  1.00 20.00     0.002 C 
HETATM    2  C3  UNL     1     -33.083   7.207   4.923  1.00 20.00     0.013 C 
HETATM    3  C4  UNL     1     -35.189   5.809   4.484  1.00 20.00     0.020 C 
HETATM    4  C5  UNL     1     -33.621   6.359   2.575  1.00 20.00     0.033 C 
HETATM    5  C6  UNL     1     -33.244   7.565   3.449  1.00 20.00     0.073 C 
HETATM    6  C7  UNL     1     -34.377   5.250   3.318  1.00 20.00     0.083 C 
HETATM    7 CL10 UNL     1     -33.241   3.989   3.899  1.00 20.00    -0.125 Cl
ENDROOT
BRANCH   5   8
HETATM    8  C1  UNL     1     -31.977   8.176   2.934  1.00 20.00     0.223 C 
HETATM    9  O8  UNL     1     -30.960   8.228   3.621  1.00 20.00    -0.279 OA
HETATM   10 CL9  UNL     1     -32.148   8.768   1.311  1.00 20.00    -0.043 Cl
ENDBRANCH   5   8
TORSDOF 1
ENDMDL
MODEL 2
REMARK VINA RESULT:      -4.7      1.372      1.495
REMARK  1 active torsions:
REMARK  status: ('A' for Active; 'I' for Inactive)
REMARK    1  A    between atoms: C1_1  and  C6_6 
ROOT
HETATM    1  C2  UNL     1     -33.166   7.223   4.903  1.00 20.00     0.002 C 
HETATM    2  C3  UNL     1     -32.305   7.901   3.837  1.00 20.00     0.013 C 
HETATM    3  C4  UNL     1     -34.357   6.444   4.337  1.00 20.00     0.020 C 
HETATM    4  C5  UNL     1     -33.803   7.062   1.945  1.00 20.00     0.033 C 
HETATM    5  C6  UNL     1     -33.107   8.270   2.593  1.00 20.00     0.073 C 
HETATM    6  C7  UNL     1     -34.129   5.923   2.920  1.00 20.00     0.083 C 
HETATM    7 CL10 UNL     1     -32.826   4.691   2.913  1.00 20.00    -0.125 Cl
ENDROOT
BRANCH   5   8
HETATM    8  C1  UNL     1     -32.210   8.925   1.588  1.00 20.00     0.223 C 
HETATM    9  O8  UNL     1     -31.241   8.340   1.110  1.00 20.00    -0.279 OA
HETATM   10 CL9  UNL     1     -32.714  10.545   1.218  1.00 20.00    -0.043 Cl
ENDBRANCH   5   8
TORSDOF 1
ENDMDL
MODEL 3
REMARK VINA RESULT:      -4.5      1.432      2.124
REMARK  1 active torsions:
REMARK  status: ('A' for Active; 'I' for Inactive)
REMARK    1  A    between atoms: C1_1  and  C6_6 
ROOT
HETATM    1  C2  UNL     1     -33.493   4.440   2.929  1.00 20.00     0.002 C 
HETATM    2  C3  UNL     1     -32.940   5.794   2.484  1.00 20.00     0.013 C 
HETATM    3  C4  UNL     1     -34.219   4.478   4.277  1.00 20.00     0.020 C 
HETATM    4  C5  UNL     1     -33.782   6.950   4.600  1.00 20.00     0.033 C 
HETATM    5  C6  UNL     1     -32.590   6.693   3.665  1.00 20.00     0.073 C 
HETATM    6  C7  UNL     1     -34.837   5.836   4.600  1.00 20.00     0.083 C 
HETATM    7 CL10 UNL     1     -36.154   6.212   3.443  1.00 20.00    -0.125 Cl
ENDROOT
BRANCH   5   8
HETATM    8  C1  UNL     1     -32.059   8.002   3.165  1.00 20.00     0.223 C 
HETATM    9  O8  UNL     1     -31.290   8.685   3.837  1.00 20.00    -0.279 OA
HETATM   10 CL9  UNL     1     -32.659   8.391   1.583  1.00 20.00    -0.043 Cl
ENDBRANCH   5   8
TORSDOF 1
ENDMDL
MODEL 4
REMARK VINA RESULT:      -4.5     11.632     12.224
REMARK  1 active torsions:
REMARK  status: ('A' for Active; 'I' for Inactive)
REMARK    1  A    between atoms: C1_1  and  C6_6 
ROOT
HETATM    1  C2  UNL     1     -35.955  16.571  -2.771  1.00 20.00     0.002 C 
HETATM    2  C3  UNL     1     -36.109  15.674  -3.999  1.00 20.00     0.013 C 
HETATM    3  C4  UNL     1     -34.513  16.693  -2.268  1.00 20.00     0.020 C 
HETATM    4  C5  UNL     1     -33.613  15.138  -4.051  1.00 20.00     0.033 C 
HETATM    5  C6  UNL     1     -35.046  14.583  -4.057  1.00 20.00     0.073 C 
HETATM    6  C7  UNL     1     -33.465  16.502  -3.362  1.00 20.00     0.083 C 
HETATM    7 CL10 UNL     1     -33.568  17.831  -4.562  1.00 20.00    -0.125 Cl
ENDROOT
BRANCH   5   8
HETATM    8  C1  UNL     1     -35.248  13.742  -5.281  1.00 20.00     0.223 C 
HETATM    9  O8  UNL     1     -35.954  12.737  -5.264  1.00 20.00    -0.279 OA
HETATM   10 CL9  UNL     1     -34.383  14.364  -6.653  1.00 20.00    -0.043 Cl
ENDBRANCH   5   8
TORSDOF 1
ENDMDL
MODEL 5
REMARK VINA RESULT:      -4.5     11.660     12.379
REMARK  1 active torsions:
REMARK  status: ('A' for Active; 'I' for Inactive)
REMARK    1  A    between atoms: C1_1  and  C6_6 
ROOT
HETATM    1  C2  UNL     1     -35.173  16.420  -2.756  1.00 20.00     0.002 C 
HETATM    2  C3  UNL     1     -35.968  15.548  -3.728  1.00 20.00     0.013 C 
HETATM    3  C4  UNL     1     -33.668  16.455  -3.041  1.00 20.00     0.020 C 
HETATM    4  C5  UNL     1     -33.863  14.875  -5.009  1.00 20.00     0.033 C 
HETATM    5  C6  UNL     1     -35.135  14.400  -4.290  1.00 20.00     0.073 C 
HETATM    6  C7  UNL     1     -33.318  16.220  -4.508  1.00 20.00     0.083 C 
HETATM    7 CL10 UNL     1     -33.933  17.568  -5.519  1.00 20.00    -0.125 Cl
ENDROOT
BRANCH   5   8
HETATM    8  C1  UNL     1     -35.966  13.587  -5.236  1.00 20.00     0.223 C 
HETATM    9  O8  UNL     1     -35.512  12.601  -5.809  1.00 20.00    -0.279 OA
HETATM   10 CL9  UNL     1     -37.579  14.212  -5.394  1.00 20.00    -0.043 Cl
ENDBRANCH   5   8
TORSDOF 1
ENDMDL
MODEL 6
REMARK VINA RESULT:      -4.4      1.931      3.988
REMARK  1 active torsions:
REMARK  status: ('A' for Active; 'I' for Inactive)
REMARK    1  A    between atoms: C1_1  and  C6_6 
ROOT
HETATM    1  C2  UNL     1     -32.190   8.431   4.706  1.00 20.00     0.002 C 
HETATM    2  C3  UNL     1     -33.465   7.588   4.717  1.00 20.00     0.013 C 
HETATM    3  C4  UNL     1     -31.364   8.291   3.423  1.00 20.00     0.020 C 
HETATM    4  C5  UNL     1     -32.971   6.621   2.405  1.00 20.00     0.033 C 
HETATM    5  C6  UNL     1     -33.334   6.327   3.870  1.00 20.00     0.073 C 
HETATM    6  C7  UNL     1     -32.197   7.930   2.196  1.00 20.00     0.083 C 
HETATM    7 CL10 UNL     1     -33.318   9.269   1.788  1.00 20.00    -0.125 Cl
ENDROOT
BRANCH   5   8
HETATM    8  C1  UNL     1     -34.613   5.548   3.918  1.00 20.00     0.223 C 
HETATM    9  O8  UNL     1     -35.687   6.052   3.601  1.00 20.00    -0.279 OA
HETATM   10 CL9  UNL     1     -34.366   3.917   4.460  1.00 20.00    -0.043 Cl
ENDBRANCH   5   8
TORSDOF 1
ENDMDL
MODEL 7
REMARK VINA RESULT:      -4.3     11.693     12.554
REMARK  1 active torsions:
REMARK  status: ('A' for Active; 'I' for Inactive)
REMARK    1  A    between atoms: C1_1  and  C6_6 
ROOT
HETATM    1  C2  UNL     1     -32.913  15.538  -4.960  1.00 20.00     0.002 C 
HETATM    2  C3  UNL     1     -33.970  14.437  -4.868  1.00 20.00     0.013 C 
HETATM    3  C4  UNL     1     -33.477  16.954  -4.806  1.00 20.00     0.020 C 
HETATM    4  C5  UNL     1     -35.856  16.130  -4.553  1.00 20.00     0.033 C 
HETATM    5  C6  UNL     1     -35.342  14.911  -5.335  1.00 20.00     0.073 C 
HETATM    6  C7  UNL     1     -34.750  17.018  -3.967  1.00 20.00     0.083 C 
HETATM    7 CL10 UNL     1     -34.401  16.556  -2.270  1.00 20.00    -0.125 Cl
ENDROOT
BRANCH   5   8
HETATM    8  C1  UNL     1     -36.331  13.791  -5.217  1.00 20.00     0.223 C 
HETATM    9  O8  UNL     1     -35.976  12.616  -5.197  1.00 20.00    -0.279 OA
HETATM   10 CL9  UNL     1     -37.966  14.370  -5.120  1.00 20.00    -0.043 Cl
ENDBRANCH   5   8
TORSDOF 1
ENDMDL
MODEL 8
REMARK VINA RESULT:      -4.2     11.717     12.537
REMARK  1 active torsions:
REMARK  status: ('A' for Active; 'I' for Inactive)
REMARK    1  A    between atoms: C1_1  and  C6_6 
ROOT
HETATM    1  C2  UNL     1     -35.035  17.168  -3.791  1.00 20.00     0.002 C 
HETATM    2  C3  UNL     1     -35.985  16.427  -4.733  1.00 20.00     0.013 C 
HETATM    3  C4  UNL     1     -33.950  16.278  -3.177  1.00 20.00     0.020 C 
HETATM    4  C5  UNL     1     -34.798  14.199  -4.344  1.00 20.00     0.033 C 
HETATM    5  C6  UNL     1     -36.136  14.956  -4.363  1.00 20.00     0.073 C 
HETATM    6  C7  UNL     1     -33.578  15.080  -4.046  1.00 20.00     0.083 C 
HETATM    7 CL10 UNL     1     -32.807  15.630  -5.569  1.00 20.00    -0.125 Cl
ENDROOT
BRANCH   5   8
HETATM    8  C1  UNL     1     -37.072  14.286  -5.322  1.00 20.00     0.223 C 
HETATM    9  O8  UNL     1     -38.160  13.846  -4.960  1.00 20.00    -0.279 OA
HETATM   10 CL9  UNL     1     -36.427  14.225  -6.933  1.00 20.00    -0.043 Cl
ENDBRANCH   5   8
TORSDOF 1
ENDMDL
MODEL 9
REMARK VINA RESULT:      -4.1     11.818     12.509
REMARK  1 active torsions:
REMARK  status: ('A' for Active; 'I' for Inactive)
REMARK    1  A    between atoms: C1_1  and  C6_6 
ROOT
HETATM    1  C2  UNL     1     -34.937  16.987  -1.444  1.00 20.00     0.002 C 
HETATM    2  C3  UNL     1     -35.534  16.134  -2.564  1.00 20.00     0.013 C 
HETATM    3  C4  UNL     1     -33.585  17.615  -1.795  1.00 20.00     0.020 C 
HETATM    4  C5  UNL     1     -33.533  16.556  -4.094  1.00 20.00     0.033 C 
HETATM    5  C6  UNL     1     -34.462  15.513  -3.453  1.00 20.00     0.073 C 
HETATM    6  C7  UNL     1     -33.392  17.856  -3.290  1.00 20.00     0.083 C 
HETATM    7 CL10 UNL     1     -34.553  19.091  -3.876  1.00 20.00    -0.125 Cl
ENDROOT
BRANCH   5   8
HETATM    8  C1  UNL     1     -35.108  14.695  -4.530  1.00 20.00     0.223 C 
HETATM    9  O8  UNL     1     -35.057  13.468  -4.527  1.00 20.00    -0.279 OA
HETATM   10 CL9  UNL     1     -35.897  15.685  -5.720  1.00 20.00    -0.043 Cl
ENDBRANCH   5   8
TORSDOF 1
ENDMDL
