MODEL 1
REMARK VINA RESULT:      -5.7      0.000      0.000
REMARK  1 active torsions:
REMARK  status: ('A' for Active; 'I' for Inactive)
REMARK    1  A    between atoms: C2_2  and  C3_3 
ROOT
HETATM    1  C1  UNL     1     -33.516   7.637   4.905  1.00 20.00    -0.009 C 
HETATM    2  C2  UNL     1     -32.839   7.301   3.765  1.00 20.00    -0.007 C 
HETATM    3  C4  UNL     1     -34.454   4.041   4.569  1.00 20.00     0.002 C 
HETATM    4  C5  UNL     1     -34.847   5.250   5.463  1.00 20.00     0.009 C 
HETATM    5  C6  UNL     1     -33.438   4.609   3.528  1.00 20.00     0.015 C 
HETATM    6  C7  UNL     1     -33.696   6.165   5.161  1.00 20.00     0.021 C 
HETATM    7  C8  UNL     1     -33.743   6.097   3.577  1.00 20.00    -0.007 C 
HETATM    8  C10 UNL     1     -34.966   6.436   2.697  1.00 20.00     0.021 C 
ENDROOT
BRANCH   2   9
HETATM    9  C3  UNL     1     -32.041   8.166   2.911  1.00 20.00     0.152 C 
HETATM   10  C9  UNL     1     -32.675   8.719   1.654  1.00 20.00     0.096 C 
HETATM   11  O11 UNL     1     -30.868   8.440   3.196  1.00 20.00    -0.293 OA
ENDBRANCH   2   9
TORSDOF 1
ENDMDL
MODEL 2
REMARK VINA RESULT:      -5.1      1.063      1.963
REMARK  1 active torsions:
REMARK  status: ('A' for Active; 'I' for Inactive)
REMARK    1  A    between atoms: C2_2  and  C3_3 
ROOT
HETATM    1  C1  UNL     1     -32.178   6.174   2.651  1.00 20.00    -0.009 C 
HETATM    2  C2  UNL     1     -32.883   7.345   2.601  1.00 20.00    -0.007 C 
HETATM    3  C4  UNL     1     -35.347   5.155   4.339  1.00 20.00     0.002 C 
HETATM    4  C5  UNL     1     -33.944   4.544   4.067  1.00 20.00     0.009 C 
HETATM    5  C6  UNL     1     -35.283   6.607   3.768  1.00 20.00     0.015 C 
HETATM    6  C7  UNL     1     -33.469   5.481   2.995  1.00 20.00     0.021 C 
HETATM    7  C8  UNL     1     -33.784   6.856   3.721  1.00 20.00    -0.007 C 
HETATM    8  C10 UNL     1     -33.255   7.286   5.105  1.00 20.00     0.021 C 
ENDROOT
BRANCH   2   9
HETATM    9  C3  UNL     1     -32.446   8.631   2.084  1.00 20.00     0.152 C 
HETATM   10  C9  UNL     1     -32.873   9.029   0.689  1.00 20.00     0.096 C 
HETATM   11  O11 UNL     1     -31.735   9.384   2.763  1.00 20.00    -0.293 OA
ENDBRANCH   2   9
TORSDOF 1
ENDMDL
MODEL 3
REMARK VINA RESULT:      -4.9     11.742     12.449
REMARK  1 active torsions:
REMARK  status: ('A' for Active; 'I' for Inactive)
REMARK    1  A    between atoms: C2_2  and  C3_3 
ROOT
HETATM    1  C1  UNL     1     -33.291  15.031  -4.561  1.00 20.00    -0.009 C 
HETATM    2  C2  UNL     1     -34.594  14.633  -4.683  1.00 20.00    -0.007 C 
HETATM    3  C4  UNL     1     -34.940  17.257  -2.060  1.00 20.00     0.002 C 
HETATM    4  C5  UNL     1     -33.531  17.092  -2.697  1.00 20.00     0.009 C 
HETATM    5  C6  UNL     1     -35.843  16.203  -2.775  1.00 20.00     0.015 C 
HETATM    6  C7  UNL     1     -33.683  15.717  -3.281  1.00 20.00     0.021 C 
HETATM    7  C8  UNL     1     -35.056  15.931  -4.047  1.00 20.00    -0.007 C 
HETATM    8  C10 UNL     1     -35.335  17.017  -5.108  1.00 20.00     0.021 C 
ENDROOT
BRANCH   2   9
HETATM    9  C3  UNL     1     -35.148  13.653  -5.604  1.00 20.00     0.152 C 
HETATM   10  C9  UNL     1     -34.718  13.706  -7.054  1.00 20.00     0.096 C 
HETATM   11  O11 UNL     1     -35.957  12.800  -5.219  1.00 20.00    -0.293 OA
ENDBRANCH   2   9
TORSDOF 1
ENDMDL
MODEL 4
REMARK VINA RESULT:      -4.9     11.808     12.434
REMARK  1 active torsions:
REMARK  status: ('A' for Active; 'I' for Inactive)
REMARK    1  A    between atoms: C2_2  and  C3_3 
ROOT
HETATM    1  C1  UNL     1     -34.858  17.877  -0.619  1.00 20.00    -0.009 C 
HETATM    2  C2  UNL     1     -33.527  17.784  -0.921  1.00 20.00    -0.007 C 
HETATM    3  C4  UNL     1     -34.990  15.832  -3.738  1.00 20.00     0.002 C 
HETATM    4  C5  UNL     1     -35.995  16.537  -2.784  1.00 20.00     0.009 C 
HETATM    5  C6  UNL     1     -33.575  16.195  -3.187  1.00 20.00     0.015 C 
HETATM    6  C7  UNL     1     -35.098  16.764  -1.603  1.00 20.00     0.021 C 
HETATM    7  C8  UNL     1     -33.872  17.432  -2.356  1.00 20.00    -0.007 C 
HETATM    8  C10 UNL     1     -33.941  18.690  -3.249  1.00 20.00     0.021 C 
ENDROOT
BRANCH   2   9
HETATM    9  C3  UNL     1     -32.407  18.395  -0.224  1.00 20.00     0.152 C 
HETATM   10  C9  UNL     1     -32.692  19.227   1.007  1.00 20.00     0.096 C 
HETATM   11  O11 UNL     1     -31.246  18.247  -0.628  1.00 20.00    -0.293 OA
ENDBRANCH   2   9
TORSDOF 1
ENDMDL
MODEL 5
REMARK VINA RESULT:      -4.9     11.657     12.407
REMARK  1 active torsions:
REMARK  status: ('A' for Active; 'I' for Inactive)
REMARK    1  A    between atoms: C2_2  and  C3_3 
ROOT
HETATM    1  C1  UNL     1     -33.772  15.142  -4.399  1.00 20.00    -0.009 C 
HETATM    2  C2  UNL     1     -35.095  14.884  -4.172  1.00 20.00    -0.007 C 
HETATM    3  C4  UNL     1     -34.497  17.569  -1.658  1.00 20.00     0.002 C 
HETATM    4  C5  UNL     1     -33.321  17.244  -2.623  1.00 20.00     0.009 C 
HETATM    5  C6  UNL     1     -35.653  16.607  -2.078  1.00 20.00     0.015 C 
HETATM    6  C7  UNL     1     -33.753  15.885  -3.091  1.00 20.00     0.021 C 
HETATM    7  C8  UNL     1     -35.248  16.233  -3.495  1.00 20.00    -0.007 C 
HETATM    8  C10 UNL     1     -35.679  17.327  -4.495  1.00 20.00     0.021 C 
ENDROOT
BRANCH   2   9
HETATM    9  C3  UNL     1     -35.961  13.956  -4.881  1.00 20.00     0.152 C 
HETATM   10  C9  UNL     1     -37.406  14.346  -5.102  1.00 20.00     0.096 C 
HETATM   11  O11 UNL     1     -35.534  12.868  -5.290  1.00 20.00    -0.293 OA
ENDBRANCH   2   9
TORSDOF 1
ENDMDL
MODEL 6
REMARK VINA RESULT:      -4.7      2.021      4.204
REMARK  1 active torsions:
REMARK  status: ('A' for Active; 'I' for Inactive)
REMARK    1  A    between atoms: C2_2  and  C3_3 
ROOT
HETATM    1  C1  UNL     1     -34.045   5.985   2.288  1.00 20.00    -0.009 C 
HETATM    2  C2  UNL     1     -33.699   5.781   3.596  1.00 20.00    -0.007 C 
HETATM    3  C4  UNL     1     -31.605   8.761   2.806  1.00 20.00     0.002 C 
HETATM    4  C5  UNL     1     -32.593   8.293   1.701  1.00 20.00     0.009 C 
HETATM    5  C6  UNL     1     -31.817   7.773   3.996  1.00 20.00     0.015 C 
HETATM    6  C7  UNL     1     -32.850   6.892   2.175  1.00 20.00     0.021 C 
HETATM    7  C8  UNL     1     -33.196   7.210   3.690  1.00 20.00    -0.007 C 
HETATM    8  C10 UNL     1     -34.301   8.171   4.179  1.00 20.00     0.021 C 
ENDROOT
BRANCH   2   9
HETATM    9  C3  UNL     1     -34.222   4.784   4.515  1.00 20.00     0.152 C 
HETATM   10  C9  UNL     1     -34.616   5.226   5.907  1.00 20.00     0.096 C 
HETATM   11  O11 UNL     1     -34.338   3.599   4.175  1.00 20.00    -0.293 OA
ENDBRANCH   2   9
TORSDOF 1
ENDMDL
MODEL 7
REMARK VINA RESULT:      -4.6     11.832     12.776
REMARK  1 active torsions:
REMARK  status: ('A' for Active; 'I' for Inactive)
REMARK    1  A    between atoms: C2_2  and  C3_3 
ROOT
HETATM    1  C1  UNL     1     -35.359  14.910  -4.744  1.00 20.00    -0.009 C 
HETATM    2  C2  UNL     1     -36.531  15.264  -4.135  1.00 20.00    -0.007 C 
HETATM    3  C4  UNL     1     -34.082  17.017  -1.942  1.00 20.00     0.002 C 
HETATM    4  C5  UNL     1     -33.507  16.315  -3.204  1.00 20.00     0.009 C 
HETATM    5  C6  UNL     1     -35.621  16.761  -1.992  1.00 20.00     0.015 C 
HETATM    6  C7  UNL     1     -34.643  15.383  -3.508  1.00 20.00     0.021 C 
HETATM    7  C8  UNL     1     -35.834  16.431  -3.460  1.00 20.00    -0.007 C 
HETATM    8  C10 UNL     1     -35.934  17.720  -4.304  1.00 20.00     0.021 C 
ENDROOT
BRANCH   2   9
HETATM    9  C3  UNL     1     -37.888  14.942  -4.548  1.00 20.00     0.152 C 
HETATM   10  C9  UNL     1     -38.969  15.978  -4.336  1.00 20.00     0.096 C 
HETATM   11  O11 UNL     1     -38.158  13.845  -5.055  1.00 20.00    -0.293 OA
ENDBRANCH   2   9
TORSDOF 1
ENDMDL
MODEL 8
REMARK VINA RESULT:      -4.5     11.687     12.307
REMARK  1 active torsions:
REMARK  status: ('A' for Active; 'I' for Inactive)
REMARK    1  A    between atoms: C2_2  and  C3_3 
ROOT
HETATM    1  C1  UNL     1     -35.865  16.374  -3.159  1.00 20.00    -0.009 C 
HETATM    2  C2  UNL     1     -34.605  16.435  -2.630  1.00 20.00    -0.007 C 
HETATM    3  C4  UNL     1     -33.968  14.318  -5.629  1.00 20.00     0.002 C 
HETATM    4  C5  UNL     1     -35.401  14.903  -5.482  1.00 20.00     0.009 C 
HETATM    5  C6  UNL     1     -33.178  14.844  -4.390  1.00 20.00     0.015 C 
HETATM    6  C7  UNL     1     -35.384  15.237  -4.020  1.00 20.00     0.021 C 
HETATM    7  C8  UNL     1     -34.017  16.042  -3.972  1.00 20.00    -0.007 C 
HETATM    8  C10 UNL     1     -33.671  17.280  -4.827  1.00 20.00     0.021 C 
ENDROOT
BRANCH   2   9
HETATM    9  C3  UNL     1     -34.161  17.175  -1.459  1.00 20.00     0.152 C 
HETATM   10  C9  UNL     1     -35.153  17.418  -0.343  1.00 20.00     0.096 C 
HETATM   11  O11 UNL     1     -33.003  17.603  -1.376  1.00 20.00    -0.293 OA
ENDBRANCH   2   9
TORSDOF 1
ENDMDL
MODEL 9
REMARK VINA RESULT:      -4.5     11.289     12.429
REMARK  1 active torsions:
REMARK  status: ('A' for Active; 'I' for Inactive)
REMARK    1  A    between atoms: C2_2  and  C3_3 
ROOT
HETATM    1  C1  UNL     1     -33.713  16.951  -4.803  1.00 20.00    -0.009 C 
HETATM    2  C2  UNL     1     -34.197  16.352  -3.673  1.00 20.00    -0.007 C 
HETATM    3  C4  UNL     1     -35.063  13.774  -6.221  1.00 20.00     0.002 C 
HETATM    4  C5  UNL     1     -34.225  14.987  -6.715  1.00 20.00     0.009 C 
HETATM    5  C6  UNL     1     -35.290  14.023  -4.696  1.00 20.00     0.015 C 
HETATM    6  C7  UNL     1     -34.506  15.952  -5.601  1.00 20.00     0.021 C 
HETATM    7  C8  UNL     1     -34.175  15.005  -4.372  1.00 20.00    -0.007 C 
HETATM    8  C10 UNL     1     -32.841  14.265  -4.140  1.00 20.00     0.021 C 
ENDROOT
BRANCH   2   9
HETATM    9  C3  UNL     1     -34.119  16.831  -2.303  1.00 20.00     0.152 C 
HETATM   10  C9  UNL     1     -35.376  16.812  -1.462  1.00 20.00     0.096 C 
HETATM   11  O11 UNL     1     -33.053  17.252  -1.832  1.00 20.00    -0.293 OA
ENDBRANCH   2   9
TORSDOF 1
ENDMDL
