MODEL 1
REMARK VINA RESULT:      -5.9      0.000      0.000
REMARK  1 active torsions:
REMARK  status: ('A' for Active; 'I' for Inactive)
REMARK    1  A    between atoms: C1_1  and  C6_6 
ROOT
HETATM    1  C2  UNL     1     -32.293   7.981   2.149  1.00 20.00     0.005 C 
HETATM    2  C3  UNL     1     -31.916   8.428   3.570  1.00 20.00     0.005 C 
HETATM    3  C4  UNL     1     -33.963   5.967   2.414  1.00 20.00     0.018 C 
HETATM    4  C5  UNL     1     -34.159   7.289   4.428  1.00 20.00     0.018 C 
HETATM    5  C6  UNL     1     -34.735   6.060   3.730  1.00 20.00     0.073 C 
HETATM    6  C7  UNL     1     -32.588   6.565   2.711  1.00 20.00    -0.010 C 
HETATM    7  C8  UNL     1     -32.666   7.199   4.120  1.00 20.00    -0.010 C 
ENDROOT
BRANCH   5   8
HETATM    8  C1  UNL     1     -34.546   4.823   4.561  1.00 20.00     0.223 C 
HETATM    9  O9  UNL     1     -34.309   3.733   4.049  1.00 20.00    -0.279 OA
HETATM   10 CL10 UNL     1     -34.702   5.146   6.261  1.00 20.00    -0.043 Cl
ENDBRANCH   5   8
TORSDOF 1
ENDMDL
MODEL 2
REMARK VINA RESULT:      -5.3      2.757      4.051
REMARK  1 active torsions:
REMARK  status: ('A' for Active; 'I' for Inactive)
REMARK    1  A    between atoms: C1_1  and  C6_6 
ROOT
HETATM    1  C2  UNL     1     -34.822   4.996   5.460  1.00 20.00     0.005 C 
HETATM    2  C3  UNL     1     -34.303   4.080   4.340  1.00 20.00     0.005 C 
HETATM    3  C4  UNL     1     -33.914   7.408   4.938  1.00 20.00     0.018 C 
HETATM    4  C5  UNL     1     -34.021   6.244   2.823  1.00 20.00     0.018 C 
HETATM    5  C6  UNL     1     -33.687   7.600   3.438  1.00 20.00     0.073 C 
HETATM    6  C7  UNL     1     -33.612   5.934   5.205  1.00 20.00    -0.010 C 
HETATM    7  C8  UNL     1     -33.441   5.251   3.828  1.00 20.00    -0.010 C 
ENDROOT
BRANCH   5   8
HETATM    8  C1  UNL     1     -32.268   7.996   3.148  1.00 20.00     0.223 C 
HETATM    9  O9  UNL     1     -31.445   8.149   4.046  1.00 20.00    -0.279 OA
HETATM   10 CL10 UNL     1     -31.978   8.193   1.447  1.00 20.00    -0.043 Cl
ENDBRANCH   5   8
TORSDOF 1
ENDMDL
MODEL 3
REMARK VINA RESULT:      -4.8      3.002      4.010
REMARK  1 active torsions:
REMARK  status: ('A' for Active; 'I' for Inactive)
REMARK    1  A    between atoms: C1_1  and  C6_6 
ROOT
HETATM    1  C2  UNL     1     -34.363   5.075   4.607  1.00 20.00     0.005 C 
HETATM    2  C3  UNL     1     -34.604   6.278   5.532  1.00 20.00     0.005 C 
HETATM    3  C4  UNL     1     -33.018   5.977   2.536  1.00 20.00     0.018 C 
HETATM    4  C5  UNL     1     -32.531   7.471   4.373  1.00 20.00     0.018 C 
HETATM    5  C6  UNL     1     -32.184   7.202   2.911  1.00 20.00     0.073 C 
HETATM    6  C7  UNL     1     -34.268   6.058   3.411  1.00 20.00    -0.010 C 
HETATM    7  C8  UNL     1     -34.032   7.195   4.433  1.00 20.00    -0.010 C 
ENDROOT
BRANCH   5   8
HETATM    8  C1  UNL     1     -32.528   8.380   2.045  1.00 20.00     0.223 C 
HETATM    9  O9  UNL     1     -33.503   9.088   2.277  1.00 20.00    -0.279 OA
HETATM   10 CL10 UNL     1     -31.401   8.583   0.738  1.00 20.00    -0.043 Cl
ENDBRANCH   5   8
TORSDOF 1
ENDMDL
MODEL 4
REMARK VINA RESULT:      -4.5     12.256     12.962
REMARK  1 active torsions:
REMARK  status: ('A' for Active; 'I' for Inactive)
REMARK    1  A    between atoms: C1_1  and  C6_6 
ROOT
HETATM    1  C2  UNL     1     -35.776  17.047  -2.003  1.00 20.00     0.005 C 
HETATM    2  C3  UNL     1     -34.697  16.393  -2.881  1.00 20.00     0.005 C 
HETATM    3  C4  UNL     1     -34.513  18.551  -0.255  1.00 20.00     0.018 C 
HETATM    4  C5  UNL     1     -33.057  18.362  -2.174  1.00 20.00     0.018 C 
HETATM    5  C6  UNL     1     -33.170  19.030  -0.807  1.00 20.00     0.073 C 
HETATM    6  C7  UNL     1     -34.728  17.167  -0.865  1.00 20.00    -0.010 C 
HETATM    7  C8  UNL     1     -33.626  16.966  -1.932  1.00 20.00    -0.010 C 
ENDROOT
BRANCH   5   8
HETATM    8  C1  UNL     1     -32.037  18.626   0.092  1.00 20.00     0.223 C 
HETATM    9  O9  UNL     1     -30.957  18.258  -0.359  1.00 20.00    -0.279 OA
HETATM   10 CL10 UNL     1     -32.458  18.750   1.773  1.00 20.00    -0.043 Cl
ENDBRANCH   5   8
TORSDOF 1
ENDMDL
MODEL 5
REMARK VINA RESULT:      -4.4     12.027     12.670
REMARK  1 active torsions:
REMARK  status: ('A' for Active; 'I' for Inactive)
REMARK    1  A    between atoms: C1_1  and  C6_6 
ROOT
HETATM    1  C2  UNL     1     -33.651  17.377  -3.930  1.00 20.00     0.005 C 
HETATM    2  C3  UNL     1     -33.973  16.553  -2.673  1.00 20.00     0.005 C 
HETATM    3  C4  UNL     1     -34.547  16.000  -5.982  1.00 20.00     0.018 C 
HETATM    4  C5  UNL     1     -35.868  15.325  -4.075  1.00 20.00     0.018 C 
HETATM    5  C6  UNL     1     -35.722  15.109  -5.578  1.00 20.00     0.073 C 
HETATM    6  C7  UNL     1     -33.645  16.060  -4.750  1.00 20.00    -0.010 C 
HETATM    7  C8  UNL     1     -34.422  15.397  -3.589  1.00 20.00    -0.010 C 
ENDROOT
BRANCH   5   8
HETATM    8  C1  UNL     1     -35.447  13.667  -5.898  1.00 20.00     0.223 C 
HETATM    9  O9  UNL     1     -35.938  12.757  -5.238  1.00 20.00    -0.279 OA
HETATM   10 CL10 UNL     1     -34.390  13.490  -7.265  1.00 20.00    -0.043 Cl
ENDBRANCH   5   8
TORSDOF 1
ENDMDL
MODEL 6
REMARK VINA RESULT:      -4.3     11.771     12.526
REMARK  1 active torsions:
REMARK  status: ('A' for Active; 'I' for Inactive)
REMARK    1  A    between atoms: C1_1  and  C6_6 
ROOT
HETATM    1  C2  UNL     1     -35.465  16.474  -2.763  1.00 20.00     0.005 C 
HETATM    2  C3  UNL     1     -33.946  16.348  -2.963  1.00 20.00     0.005 C 
HETATM    3  C4  UNL     1     -36.589  14.881  -4.526  1.00 20.00     0.018 C 
HETATM    4  C5  UNL     1     -34.383  13.989  -4.107  1.00 20.00     0.018 C 
HETATM    5  C6  UNL     1     -35.666  13.717  -4.886  1.00 20.00     0.073 C 
HETATM    6  C7  UNL     1     -35.659  16.061  -4.246  1.00 20.00    -0.010 C 
HETATM    7  C8  UNL     1     -34.216  15.503  -4.223  1.00 20.00    -0.010 C 
ENDROOT
BRANCH   5   8
HETATM    8  C1  UNL     1     -35.405  13.666  -6.364  1.00 20.00     0.223 C 
HETATM    9  O9  UNL     1     -34.397  13.138  -6.822  1.00 20.00    -0.279 OA
HETATM   10 CL10 UNL     1     -36.673  14.422  -7.280  1.00 20.00    -0.043 Cl
ENDBRANCH   5   8
TORSDOF 1
ENDMDL
MODEL 7
REMARK VINA RESULT:      -4.2     11.779     12.335
REMARK  1 active torsions:
REMARK  status: ('A' for Active; 'I' for Inactive)
REMARK    1  A    between atoms: C1_1  and  C6_6 
ROOT
HETATM    1  C2  UNL     1     -33.609  16.634  -2.955  1.00 20.00     0.005 C 
HETATM    2  C3  UNL     1     -34.914  16.972  -2.215  1.00 20.00     0.005 C 
HETATM    3  C4  UNL     1     -34.255  15.000  -4.911  1.00 20.00     0.018 C 
HETATM    4  C5  UNL     1     -36.232  16.300  -4.423  1.00 20.00     0.018 C 
HETATM    5  C6  UNL     1     -35.696  15.227  -5.366  1.00 20.00     0.073 C 
HETATM    6  C7  UNL     1     -34.254  15.299  -3.412  1.00 20.00    -0.010 C 
HETATM    7  C8  UNL     1     -35.633  15.912  -3.073  1.00 20.00    -0.010 C 
ENDROOT
BRANCH   5   8
HETATM    8  C1  UNL     1     -36.503  13.964  -5.269  1.00 20.00     0.223 C 
HETATM    9  O9  UNL     1     -35.969  12.859  -5.243  1.00 20.00    -0.279 OA
HETATM   10 CL10 UNL     1     -38.210  14.281  -5.202  1.00 20.00    -0.043 Cl
ENDBRANCH   5   8
TORSDOF 1
ENDMDL
MODEL 8
REMARK VINA RESULT:      -4.2      1.961      2.920
REMARK  1 active torsions:
REMARK  status: ('A' for Active; 'I' for Inactive)
REMARK    1  A    between atoms: C1_1  and  C6_6 
ROOT
HETATM    1  C2  UNL     1     -31.480   9.250   0.941  1.00 20.00     0.005 C 
HETATM    2  C3  UNL     1     -32.850   9.028   0.280  1.00 20.00     0.005 C 
HETATM    3  C4  UNL     1     -31.565   8.036   3.272  1.00 20.00     0.018 C 
HETATM    4  C5  UNL     1     -33.167   6.911   1.855  1.00 20.00     0.018 C 
HETATM    5  C6  UNL     1     -32.548   6.865   3.249  1.00 20.00     0.073 C 
HETATM    6  C7  UNL     1     -32.159   9.079   2.325  1.00 20.00    -0.010 C 
HETATM    7  C8  UNL     1     -33.347   8.405   1.599  1.00 20.00    -0.010 C 
ENDROOT
BRANCH   5   8
HETATM    8  C1  UNL     1     -33.596   7.013   4.315  1.00 20.00     0.223 C 
HETATM    9  O9  UNL     1     -33.393   7.671   5.331  1.00 20.00    -0.279 OA
HETATM   10 CL10 UNL     1     -35.058   6.163   3.919  1.00 20.00    -0.043 Cl
ENDBRANCH   5   8
TORSDOF 1
ENDMDL
MODEL 9
REMARK VINA RESULT:      -4.1     12.235     12.847
REMARK  1 active torsions:
REMARK  status: ('A' for Active; 'I' for Inactive)
REMARK    1  A    between atoms: C1_1  and  C6_6 
ROOT
HETATM    1  C2  UNL     1     -33.601  16.748  -2.758  1.00 20.00     0.005 C 
HETATM    2  C3  UNL     1     -35.075  16.553  -2.368  1.00 20.00     0.005 C 
HETATM    3  C4  UNL     1     -33.307  15.674  -5.140  1.00 20.00     0.018 C 
HETATM    4  C5  UNL     1     -35.633  16.300  -4.954  1.00 20.00     0.018 C 
HETATM    5  C6  UNL     1     -34.619  15.704  -5.925  1.00 20.00     0.073 C 
HETATM    6  C7  UNL     1     -33.717  15.503  -3.678  1.00 20.00    -0.010 C 
HETATM    7  C8  UNL     1     -35.254  15.668  -3.617  1.00 20.00    -0.010 C 
ENDROOT
BRANCH   5   8
HETATM    8  C1  UNL     1     -35.025  14.325  -6.359  1.00 20.00     0.223 C 
HETATM    9  O9  UNL     1     -34.203  13.425  -6.501  1.00 20.00    -0.279 OA
HETATM   10 CL10 UNL     1     -36.739  14.198  -6.616  1.00 20.00    -0.043 Cl
ENDBRANCH   5   8
TORSDOF 1
ENDMDL
