MODEL 1
REMARK VINA RESULT:      -5.1      0.000      0.000
REMARK  3 active torsions:
REMARK  status: ('A' for Active; 'I' for Inactive)
REMARK    1  A    between atoms: C1_1  and  C6_6 
REMARK    2  A    between atoms: C7_7  and  C8_8 
REMARK    3  A    between atoms: C8_8  and  O10_10 
ROOT
HETATM    1  C2  UNL     1     -33.618   7.669   5.904  1.00 20.00     0.001 C 
HETATM    2  C3  UNL     1     -32.663   7.965   4.751  1.00 20.00     0.011 C 
HETATM    3  C4  UNL     1     -34.100   6.219   5.876  1.00 20.00     0.007 C 
HETATM    4  C5  UNL     1     -33.760   6.155   3.372  1.00 20.00     0.018 C 
HETATM    5  C6  UNL     1     -33.291   7.605   3.409  1.00 20.00     0.047 C 
HETATM    6  C7  UNL     1     -34.729   5.855   4.525  1.00 20.00     0.010 C 
ENDROOT
BRANCH   6   7
HETATM    7  C8  UNL     1     -35.153   4.387   4.506  1.00 20.00     0.168 C 
BRANCH   7   8
HETATM    8  O10 UNL     1     -34.021   3.597   4.192  1.00 20.00    -0.400 OA
HETATM    9  H24 UNL     1     -33.865   3.007   4.949  1.00 20.00     0.209 HD
ENDBRANCH   7   8
ENDBRANCH   6   7
BRANCH   5  10
HETATM   10  C1  UNL     1     -32.223   7.772   2.344  1.00 20.00     0.235 C 
HETATM   11  O9  UNL     1     -32.153   8.748   1.605  1.00 20.00    -0.306 OA
ENDBRANCH   5  10
TORSDOF 3
ENDMDL
MODEL 2
REMARK VINA RESULT:      -4.3      1.791      4.215
REMARK  3 active torsions:
REMARK  status: ('A' for Active; 'I' for Inactive)
REMARK    1  A    between atoms: C1_1  and  C6_6 
REMARK    2  A    between atoms: C7_7  and  C8_8 
REMARK    3  A    between atoms: C8_8  and  O10_10 
ROOT
HETATM    1  C2  UNL     1     -33.626   4.602   2.641  1.00 20.00     0.001 C 
HETATM    2  C3  UNL     1     -34.000   4.692   4.118  1.00 20.00     0.011 C 
HETATM    3  C4  UNL     1     -32.631   5.692   2.245  1.00 20.00     0.007 C 
HETATM    4  C5  UNL     1     -33.520   7.173   4.091  1.00 20.00     0.018 C 
HETATM    5  C6  UNL     1     -34.517   6.083   4.472  1.00 20.00     0.047 C 
HETATM    6  C7  UNL     1     -33.148   7.091   2.603  1.00 20.00     0.010 C 
ENDROOT
BRANCH   6   7
HETATM    7  C8  UNL     1     -32.113   8.156   2.247  1.00 20.00     0.168 C 
BRANCH   7   8
HETATM    8  O10 UNL     1     -31.296   8.386   3.380  1.00 20.00    -0.400 OA
HETATM    9  H24 UNL     1     -31.727   7.953   4.137  1.00 20.00     0.209 HD
ENDBRANCH   7   8
ENDBRANCH   6   7
BRANCH   5  10
HETATM   10  C1  UNL     1     -34.703   6.133   5.976  1.00 20.00     0.235 C 
HETATM   11  O9  UNL     1     -34.294   7.053   6.677  1.00 20.00    -0.306 OA
ENDBRANCH   5  10
TORSDOF 3
ENDMDL
MODEL 3
REMARK VINA RESULT:      -4.2     11.808     12.395
REMARK  3 active torsions:
REMARK  status: ('A' for Active; 'I' for Inactive)
REMARK    1  A    between atoms: C1_1  and  C6_6 
REMARK    2  A    between atoms: C7_7  and  C8_8 
REMARK    3  A    between atoms: C8_8  and  O10_10 
ROOT
HETATM    1  C2  UNL     1     -35.616  17.629  -0.505  1.00 20.00     0.001 C 
HETATM    2  C3  UNL     1     -34.381  18.028   0.298  1.00 20.00     0.011 C 
HETATM    3  C4  UNL     1     -35.263  16.670  -1.640  1.00 20.00     0.007 C 
HETATM    4  C5  UNL     1     -32.931  17.642  -1.735  1.00 20.00     0.018 C 
HETATM    5  C6  UNL     1     -33.297  18.602  -0.608  1.00 20.00     0.047 C 
HETATM    6  C7  UNL     1     -34.170  17.245  -2.551  1.00 20.00     0.010 C 
ENDROOT
BRANCH   6   7
HETATM    7  C8  UNL     1     -33.799  16.246  -3.645  1.00 20.00     0.168 C 
BRANCH   7   8
HETATM    8  O10 UNL     1     -34.663  15.129  -3.546  1.00 20.00    -0.400 OA
HETATM    9  H24 UNL     1     -35.569  15.474  -3.464  1.00 20.00     0.209 HD
ENDBRANCH   7   8
ENDBRANCH   6   7
BRANCH   5  10
HETATM   10  C1  UNL     1     -32.056  18.812   0.239  1.00 20.00     0.235 C 
HETATM   11  O9  UNL     1     -30.955  18.358  -0.053  1.00 20.00    -0.306 OA
ENDBRANCH   5  10
TORSDOF 3
ENDMDL
MODEL 4
REMARK VINA RESULT:      -4.2      1.342      2.337
REMARK  3 active torsions:
REMARK  status: ('A' for Active; 'I' for Inactive)
REMARK    1  A    between atoms: C1_1  and  C6_6 
REMARK    2  A    between atoms: C7_7  and  C8_8 
REMARK    3  A    between atoms: C8_8  and  O10_10 
ROOT
HETATM    1  C2  UNL     1     -33.120   4.905   2.571  1.00 20.00     0.001 C 
HETATM    2  C3  UNL     1     -32.943   6.255   1.882  1.00 20.00     0.011 C 
HETATM    3  C4  UNL     1     -34.056   5.007   3.775  1.00 20.00     0.007 C 
HETATM    4  C5  UNL     1     -33.418   7.436   4.064  1.00 20.00     0.018 C 
HETATM    5  C6  UNL     1     -32.479   7.321   2.868  1.00 20.00     0.047 C 
HETATM    6  C7  UNL     1     -33.592   6.081   4.767  1.00 20.00     0.010 C 
ENDROOT
BRANCH   6   7
HETATM    7  C8  UNL     1     -34.573   6.199   5.932  1.00 20.00     0.168 C 
BRANCH   7   8
HETATM    8  O10 UNL     1     -35.143   4.926   6.170  1.00 20.00    -0.400 OA
HETATM    9  H24 UNL     1     -34.521   4.264   5.822  1.00 20.00     0.209 HD
ENDBRANCH   7   8
ENDBRANCH   6   7
BRANCH   5  10
HETATM   10  C1  UNL     1     -32.491   8.653   2.143  1.00 20.00     0.235 C 
HETATM   11  O9  UNL     1     -31.813   8.886   1.148  1.00 20.00    -0.306 OA
ENDBRANCH   5  10
TORSDOF 3
ENDMDL
MODEL 5
REMARK VINA RESULT:      -4.2     11.763     12.527
REMARK  3 active torsions:
REMARK  status: ('A' for Active; 'I' for Inactive)
REMARK    1  A    between atoms: C1_1  and  C6_6 
REMARK    2  A    between atoms: C7_7  and  C8_8 
REMARK    3  A    between atoms: C8_8  and  O10_10 
ROOT
HETATM    1  C2  UNL     1     -33.305  16.602  -5.429  1.00 20.00     0.001 C 
HETATM    2  C3  UNL     1     -33.543  17.297  -4.091  1.00 20.00     0.011 C 
HETATM    3  C4  UNL     1     -34.516  15.775  -5.856  1.00 20.00     0.007 C 
HETATM    4  C5  UNL     1     -35.168  15.477  -3.432  1.00 20.00     0.018 C 
HETATM    5  C6  UNL     1     -33.950  16.296  -3.015  1.00 20.00     0.047 C 
HETATM    6  C7  UNL     1     -34.929  14.769  -4.773  1.00 20.00     0.010 C 
ENDROOT
BRANCH   6   7
HETATM    7  C8  UNL     1     -36.173  13.993  -5.203  1.00 20.00     0.168 C 
BRANCH   7   8
HETATM    8  O10 UNL     1     -35.928  12.612  -5.016  1.00 20.00    -0.400 OA
HETATM    9  H24 UNL     1     -35.986  12.189  -5.890  1.00 20.00     0.209 HD
ENDBRANCH   7   8
ENDBRANCH   6   7
BRANCH   5  10
HETATM   10  C1  UNL     1     -34.327  17.084  -1.775  1.00 20.00     0.235 C 
HETATM   11  O9  UNL     1     -35.294  16.814  -1.071  1.00 20.00    -0.306 OA
ENDBRANCH   5  10
TORSDOF 3
ENDMDL
MODEL 6
REMARK VINA RESULT:      -4.1     11.763     12.365
REMARK  3 active torsions:
REMARK  status: ('A' for Active; 'I' for Inactive)
REMARK    1  A    between atoms: C1_1  and  C6_6 
REMARK    2  A    between atoms: C7_7  and  C8_8 
REMARK    3  A    between atoms: C8_8  and  O10_10 
ROOT
HETATM    1  C2  UNL     1     -33.259  15.684  -3.941  1.00 20.00     0.001 C 
HETATM    2  C3  UNL     1     -34.112  14.524  -4.446  1.00 20.00     0.011 C 
HETATM    3  C4  UNL     1     -33.936  16.420  -2.786  1.00 20.00     0.007 C 
HETATM    4  C5  UNL     1     -36.199  15.716  -3.666  1.00 20.00     0.018 C 
HETATM    5  C6  UNL     1     -35.513  14.993  -4.820  1.00 20.00     0.047 C 
HETATM    6  C7  UNL     1     -35.348  16.890  -3.161  1.00 20.00     0.010 C 
ENDROOT
BRANCH   6   7
HETATM    7  C8  UNL     1     -36.022  17.574  -1.973  1.00 20.00     0.168 C 
BRANCH   7   8
HETATM    8  O10 UNL     1     -35.861  16.753  -0.832  1.00 20.00    -0.400 OA
HETATM    9  H24 UNL     1     -36.533  17.027  -0.184  1.00 20.00     0.209 HD
ENDBRANCH   7   8
ENDBRANCH   6   7
BRANCH   5  10
HETATM   10  C1  UNL     1     -36.337  13.761  -5.147  1.00 20.00     0.235 C 
HETATM   11  O9  UNL     1     -35.853  12.642  -5.280  1.00 20.00    -0.306 OA
ENDBRANCH   5  10
TORSDOF 3
ENDMDL
MODEL 7
REMARK VINA RESULT:      -4.1      0.891      4.090
REMARK  3 active torsions:
REMARK  status: ('A' for Active; 'I' for Inactive)
REMARK    1  A    between atoms: C1_1  and  C6_6 
REMARK    2  A    between atoms: C7_7  and  C8_8 
REMARK    3  A    between atoms: C8_8  and  O10_10 
ROOT
HETATM    1  C2  UNL     1     -32.618   8.091   5.377  1.00 20.00     0.001 C 
HETATM    2  C3  UNL     1     -33.799   7.126   5.322  1.00 20.00     0.011 C 
HETATM    3  C4  UNL     1     -32.334   8.712   4.010  1.00 20.00     0.007 C 
HETATM    4  C5  UNL     1     -33.321   6.675   2.882  1.00 20.00     0.018 C 
HETATM    5  C6  UNL     1     -33.590   6.061   4.252  1.00 20.00     0.047 C 
HETATM    6  C7  UNL     1     -32.127   7.640   2.931  1.00 20.00     0.010 C 
ENDROOT
BRANCH   6   7
HETATM    7  C8  UNL     1     -31.899   8.286   1.566  1.00 20.00     0.168 C 
BRANCH   7   8
HETATM    8  O10 UNL     1     -32.399   9.610   1.606  1.00 20.00    -0.400 OA
HETATM    9  H24 UNL     1     -33.369   9.550   1.609  1.00 20.00     0.209 HD
ENDBRANCH   7   8
ENDBRANCH   6   7
BRANCH   5  10
HETATM   10  C1  UNL     1     -34.871   5.255   4.152  1.00 20.00     0.235 C 
HETATM   11  O9  UNL     1     -34.946   4.066   4.443  1.00 20.00    -0.306 OA
ENDBRANCH   5  10
TORSDOF 3
ENDMDL
MODEL 8
REMARK VINA RESULT:      -4.0     11.612     12.370
REMARK  3 active torsions:
REMARK  status: ('A' for Active; 'I' for Inactive)
REMARK    1  A    between atoms: C1_1  and  C6_6 
REMARK    2  A    between atoms: C7_7  and  C8_8 
REMARK    3  A    between atoms: C8_8  and  O10_10 
ROOT
HETATM    1  C2  UNL     1     -35.301  16.721  -2.463  1.00 20.00     0.001 C 
HETATM    2  C3  UNL     1     -36.546  16.507  -3.319  1.00 20.00     0.011 C 
HETATM    3  C4  UNL     1     -34.023  16.421  -3.244  1.00 20.00     0.007 C 
HETATM    4  C5  UNL     1     -35.299  14.806  -4.711  1.00 20.00     0.018 C 
HETATM    5  C6  UNL     1     -36.568  15.105  -3.919  1.00 20.00     0.047 C 
HETATM    6  C7  UNL     1     -34.044  15.011  -3.850  1.00 20.00     0.010 C 
ENDROOT
BRANCH   6   7
HETATM    7  C8  UNL     1     -32.780  14.757  -4.669  1.00 20.00     0.168 C 
BRANCH   7   8
HETATM    8  O10 UNL     1     -32.219  13.524  -4.258  1.00 20.00    -0.400 OA
HETATM    9  H24 UNL     1     -32.935  13.003  -3.857  1.00 20.00     0.209 HD
ENDBRANCH   7   8
ENDBRANCH   6   7
BRANCH   5  10
HETATM   10  C1  UNL     1     -37.739  15.035  -4.880  1.00 20.00     0.235 C 
HETATM   11  O9  UNL     1     -38.424  14.030  -5.038  1.00 20.00    -0.306 OA
ENDBRANCH   5  10
TORSDOF 3
ENDMDL
MODEL 9
REMARK VINA RESULT:      -4.0     12.156     12.684
REMARK  3 active torsions:
REMARK  status: ('A' for Active; 'I' for Inactive)
REMARK    1  A    between atoms: C1_1  and  C6_6 
REMARK    2  A    between atoms: C7_7  and  C8_8 
REMARK    3  A    between atoms: C8_8  and  O10_10 
ROOT
HETATM    1  C2  UNL     1     -35.708  17.328  -0.474  1.00 20.00     0.001 C 
HETATM    2  C3  UNL     1     -35.668  17.047  -1.974  1.00 20.00     0.011 C 
HETATM    3  C4  UNL     1     -34.631  18.330  -0.061  1.00 20.00     0.007 C 
HETATM    4  C5  UNL     1     -33.202  17.599  -2.014  1.00 20.00     0.018 C 
HETATM    5  C6  UNL     1     -34.279  16.595  -2.413  1.00 20.00     0.047 C 
HETATM    6  C7  UNL     1     -33.233  17.877  -0.504  1.00 20.00     0.010 C 
ENDROOT
BRANCH   6   7
HETATM    7  C8  UNL     1     -32.183  18.921  -0.127  1.00 20.00     0.168 C 
BRANCH   7   8
HETATM    8  O10 UNL     1     -30.908  18.309  -0.164  1.00 20.00    -0.400 OA
HETATM    9  H24 UNL     1     -30.306  18.868   0.356  1.00 20.00     0.209 HD
ENDBRANCH   7   8
ENDBRANCH   6   7
BRANCH   5  10
HETATM   10  C1  UNL     1     -34.285  16.501  -3.927  1.00 20.00     0.235 C 
HETATM   11  O9  UNL     1     -33.273  16.316  -4.595  1.00 20.00    -0.306 OA
ENDBRANCH   5  10
TORSDOF 3
ENDMDL
