MODEL 1
REMARK VINA RESULT:      -5.3      0.000      0.000
REMARK  1 active torsions:
REMARK  status: ('A' for Active; 'I' for Inactive)
REMARK    1  A    between atoms: C1_1  and  C5_5 
ROOT
HETATM    1  C2  UNL     1     -33.612   7.908   4.613  1.00 20.00     0.015 C 
HETATM    2  C3  UNL     1     -33.830   6.526   5.229  1.00 20.00     0.026 C 
HETATM    3  C4  UNL     1     -33.368   6.142   2.923  1.00 20.00     0.038 C 
HETATM    4  C5  UNL     1     -33.218   7.653   3.153  1.00 20.00     0.074 C 
HETATM    5  C6  UNL     1     -34.282   5.660   4.054  1.00 20.00     0.034 C 
HETATM    6  C7  UNL     1     -35.764   5.857   3.719  1.00 20.00     0.032 C 
HETATM    7 CL10 UNL     1     -34.007   3.930   4.401  1.00 20.00    -0.120 Cl
ENDROOT
BRANCH   4   8
HETATM    8  C1  UNL     1     -31.818   8.107   2.872  1.00 20.00     0.223 C 
HETATM    9  O8  UNL     1     -30.963   8.140   3.752  1.00 20.00    -0.279 OA
HETATM   10 CL9  UNL     1     -31.596   8.555   1.208  1.00 20.00    -0.043 Cl
ENDBRANCH   4   8
TORSDOF 1
ENDMDL
MODEL 2
REMARK VINA RESULT:      -4.9      2.286      4.382
REMARK  1 active torsions:
REMARK  status: ('A' for Active; 'I' for Inactive)
REMARK    1  A    between atoms: C1_1  and  C5_5 
ROOT
HETATM    1  C2  UNL     1     -31.733   7.715   3.648  1.00 20.00     0.015 C 
HETATM    2  C3  UNL     1     -31.693   9.141   3.100  1.00 20.00     0.026 C 
HETATM    3  C4  UNL     1     -33.467   8.051   1.940  1.00 20.00     0.038 C 
HETATM    4  C5  UNL     1     -32.937   7.046   2.973  1.00 20.00     0.074 C 
HETATM    5  C6  UNL     1     -32.306   9.023   1.704  1.00 20.00     0.034 C 
HETATM    6  C7  UNL     1     -31.309   8.488   0.671  1.00 20.00     0.032 C 
HETATM    7 CL10 UNL     1     -32.907  10.608   1.142  1.00 20.00    -0.120 Cl
ENDROOT
BRANCH   4   8
HETATM    8  C1  UNL     1     -33.996   6.683   3.969  1.00 20.00     0.223 C 
HETATM    9  O8  UNL     1     -34.984   6.029   3.650  1.00 20.00    -0.279 OA
HETATM   10 CL9  UNL     1     -33.639   7.293   5.556  1.00 20.00    -0.043 Cl
ENDBRANCH   4   8
TORSDOF 1
ENDMDL
MODEL 3
REMARK VINA RESULT:      -4.9      2.325      4.211
REMARK  1 active torsions:
REMARK  status: ('A' for Active; 'I' for Inactive)
REMARK    1  A    between atoms: C1_1  and  C5_5 
ROOT
HETATM    1  C2  UNL     1     -33.465   5.487   2.494  1.00 20.00     0.015 C 
HETATM    2  C3  UNL     1     -32.162   6.283   2.546  1.00 20.00     0.026 C 
HETATM    3  C4  UNL     1     -33.623   7.328   4.113  1.00 20.00     0.038 C 
HETATM    4  C5  UNL     1     -34.368   6.099   3.573  1.00 20.00     0.074 C 
HETATM    5  C6  UNL     1     -32.589   7.668   3.035  1.00 20.00     0.034 C 
HETATM    6  C7  UNL     1     -33.187   8.524   1.914  1.00 20.00     0.032 C 
HETATM    7 CL10 UNL     1     -31.201   8.546   3.737  1.00 20.00    -0.120 Cl
ENDROOT
BRANCH   4   8
HETATM    8  C1  UNL     1     -34.661   5.118   4.667  1.00 20.00     0.223 C 
HETATM    9  O8  UNL     1     -34.792   3.919   4.441  1.00 20.00    -0.279 OA
HETATM   10 CL9  UNL     1     -34.780   5.888   6.221  1.00 20.00    -0.043 Cl
ENDBRANCH   4   8
TORSDOF 1
ENDMDL
MODEL 4
REMARK VINA RESULT:      -4.4      1.737      2.173
REMARK  1 active torsions:
REMARK  status: ('A' for Active; 'I' for Inactive)
REMARK    1  A    between atoms: C1_1  and  C5_5 
ROOT
HETATM    1  C2  UNL     1     -34.408   6.329   2.271  1.00 20.00     0.015 C 
HETATM    2  C3  UNL     1     -35.279   6.181   3.518  1.00 20.00     0.026 C 
HETATM    3  C4  UNL     1     -33.036   6.323   4.309  1.00 20.00     0.038 C 
HETATM    4  C5  UNL     1     -32.976   6.519   2.787  1.00 20.00     0.074 C 
HETATM    5  C6  UNL     1     -34.344   5.564   4.558  1.00 20.00     0.034 C 
HETATM    6  C7  UNL     1     -34.176   4.053   4.370  1.00 20.00     0.032 C 
HETATM    7 CL10 UNL     1     -34.950   5.864   6.211  1.00 20.00    -0.120 Cl
ENDROOT
BRANCH   4   8
HETATM    8  C1  UNL     1     -32.439   7.874   2.437  1.00 20.00     0.223 C 
HETATM    9  O8  UNL     1     -32.746   8.438   1.392  1.00 20.00    -0.279 OA
HETATM   10 CL9  UNL     1     -31.376   8.494   3.664  1.00 20.00    -0.043 Cl
ENDBRANCH   4   8
TORSDOF 1
ENDMDL
MODEL 5
REMARK VINA RESULT:      -4.4     11.623     12.431
REMARK  1 active torsions:
REMARK  status: ('A' for Active; 'I' for Inactive)
REMARK    1  A    between atoms: C1_1  and  C5_5 
ROOT
HETATM    1  C2  UNL     1     -33.896  14.488  -5.471  1.00 20.00     0.015 C 
HETATM    2  C3  UNL     1     -33.202  15.040  -4.227  1.00 20.00     0.026 C 
HETATM    3  C4  UNL     1     -35.419  15.913  -4.174  1.00 20.00     0.038 C 
HETATM    4  C5  UNL     1     -35.350  14.970  -5.384  1.00 20.00     0.074 C 
HETATM    5  C6  UNL     1     -33.967  16.326  -3.911  1.00 20.00     0.034 C 
HETATM    6  C7  UNL     1     -33.533  17.497  -4.798  1.00 20.00     0.032 C 
HETATM    7 CL10 UNL     1     -33.737  16.795  -2.203  1.00 20.00    -0.120 Cl
ENDROOT
BRANCH   4   8
HETATM    8  C1  UNL     1     -36.302  13.824  -5.232  1.00 20.00     0.223 C 
HETATM    9  O8  UNL     1     -35.914  12.659  -5.224  1.00 20.00    -0.279 OA
HETATM   10 CL9  UNL     1     -37.949  14.356  -5.076  1.00 20.00    -0.043 Cl
ENDBRANCH   4   8
TORSDOF 1
ENDMDL
MODEL 6
REMARK VINA RESULT:      -4.3      1.813      2.368
REMARK  1 active torsions:
REMARK  status: ('A' for Active; 'I' for Inactive)
REMARK    1  A    between atoms: C1_1  and  C5_5 
ROOT
HETATM    1  C2  UNL     1     -31.732   7.000   2.845  1.00 20.00     0.015 C 
HETATM    2  C3  UNL     1     -32.891   6.022   3.035  1.00 20.00     0.026 C 
HETATM    3  C4  UNL     1     -33.866   8.197   3.075  1.00 20.00     0.038 C 
HETATM    4  C5  UNL     1     -32.373   8.392   2.772  1.00 20.00     0.074 C 
HETATM    5  C6  UNL     1     -33.951   6.837   3.777  1.00 20.00     0.034 C 
HETATM    6  C7  UNL     1     -33.661   6.945   5.277  1.00 20.00     0.032 C 
HETATM    7 CL10 UNL     1     -35.569   6.111   3.564  1.00 20.00    -0.120 Cl
ENDROOT
BRANCH   4   8
HETATM    8  C1  UNL     1     -32.171   9.022   1.428  1.00 20.00     0.223 C 
HETATM    9  O8  UNL     1     -31.378   8.561   0.613  1.00 20.00    -0.279 OA
HETATM   10 CL9  UNL     1     -33.172  10.425   1.205  1.00 20.00    -0.043 Cl
ENDBRANCH   4   8
TORSDOF 1
ENDMDL
MODEL 7
REMARK VINA RESULT:      -4.3     11.468     12.202
REMARK  1 active torsions:
REMARK  status: ('A' for Active; 'I' for Inactive)
REMARK    1  A    between atoms: C1_1  and  C5_5 
ROOT
HETATM    1  C2  UNL     1     -34.554  18.304  -0.096  1.00 20.00     0.015 C 
HETATM    2  C3  UNL     1     -35.097  17.095  -0.856  1.00 20.00     0.026 C 
HETATM    3  C4  UNL     1     -33.137  17.772  -2.030  1.00 20.00     0.038 C 
HETATM    4  C5  UNL     1     -33.240  18.678  -0.795  1.00 20.00     0.074 C 
HETATM    5  C6  UNL     1     -34.566  17.277  -2.278  1.00 20.00     0.034 C 
HETATM    6  C7  UNL     1     -35.391  18.283  -3.085  1.00 20.00     0.032 C 
HETATM    7 CL10 UNL     1     -34.558  15.720  -3.154  1.00 20.00    -0.120 Cl
ENDROOT
BRANCH   4   8
HETATM    8  C1  UNL     1     -32.062  18.493   0.112  1.00 20.00     0.223 C 
HETATM    9  O8  UNL     1     -30.948  18.224  -0.325  1.00 20.00    -0.279 OA
HETATM   10 CL9  UNL     1     -32.483  18.706   1.784  1.00 20.00    -0.043 Cl
ENDBRANCH   4   8
TORSDOF 1
ENDMDL
MODEL 8
REMARK VINA RESULT:      -4.2     11.604     12.439
REMARK  1 active torsions:
REMARK  status: ('A' for Active; 'I' for Inactive)
REMARK    1  A    between atoms: C1_1  and  C5_5 
ROOT
HETATM    1  C2  UNL     1     -36.066  15.527  -3.762  1.00 20.00     0.015 C 
HETATM    2  C3  UNL     1     -35.581  16.956  -3.998  1.00 20.00     0.026 C 
HETATM    3  C4  UNL     1     -33.682  15.561  -4.353  1.00 20.00     0.038 C 
HETATM    4  C5  UNL     1     -34.869  14.624  -4.087  1.00 20.00     0.074 C 
HETATM    5  C6  UNL     1     -34.080  16.894  -3.712  1.00 20.00     0.034 C 
HETATM    6  C7  UNL     1     -33.769  16.928  -2.213  1.00 20.00     0.032 C 
HETATM    7 CL10 UNL     1     -33.231  18.256  -4.496  1.00 20.00    -0.120 Cl
ENDROOT
BRANCH   4   8
HETATM    8  C1  UNL     1     -35.144  13.748  -5.271  1.00 20.00     0.223 C 
HETATM    9  O8  UNL     1     -35.908  12.791  -5.201  1.00 20.00    -0.279 OA
HETATM   10 CL9  UNL     1     -34.269  14.262  -6.682  1.00 20.00    -0.043 Cl
ENDBRANCH   4   8
TORSDOF 1
ENDMDL
MODEL 9
REMARK VINA RESULT:      -4.1     11.862     12.665
REMARK  1 active torsions:
REMARK  status: ('A' for Active; 'I' for Inactive)
REMARK    1  A    between atoms: C1_1  and  C5_5 
ROOT
HETATM    1  C2  UNL     1     -34.164  15.751  -6.179  1.00 20.00     0.015 C 
HETATM    2  C3  UNL     1     -33.431  16.280  -4.947  1.00 20.00     0.026 C 
HETATM    3  C4  UNL     1     -35.488  15.387  -4.141  1.00 20.00     0.038 C 
HETATM    4  C5  UNL     1     -35.442  15.088  -5.647  1.00 20.00     0.074 C 
HETATM    5  C6  UNL     1     -34.547  16.580  -3.947  1.00 20.00     0.034 C 
HETATM    6  C7  UNL     1     -35.244  17.914  -4.232  1.00 20.00     0.032 C 
HETATM    7 CL10 UNL     1     -33.907  16.622  -2.280  1.00 20.00    -0.120 Cl
ENDROOT
BRANCH   4   8
HETATM    8  C1  UNL     1     -35.447  13.613  -5.907  1.00 20.00     0.223 C 
HETATM    9  O8  UNL     1     -35.970  12.823  -5.127  1.00 20.00    -0.279 OA
HETATM   10 CL9  UNL     1     -34.648  13.208  -7.395  1.00 20.00    -0.043 Cl
ENDBRANCH   4   8
TORSDOF 1
ENDMDL
