MODEL 1
REMARK VINA RESULT:      -4.2      0.000      0.000
REMARK  3 active torsions:
REMARK  status: ('A' for Active; 'I' for Inactive)
REMARK    1  A    between atoms: C1_1  and  C4_4 
REMARK    2  A    between atoms: C3_3  and  C10_10 
REMARK    3  A    between atoms: C5_5  and  C10_10 
ROOT
HETATM    1  C1  UNL     1     -32.542   8.297   2.229  1.00 20.00    -0.101 C 
HETATM    2  C2  UNL     1     -32.695   8.809   1.154  1.00 20.00    -0.111 C 
HETATM    3  C7  UNL     1     -32.881   9.434  -0.156  1.00 20.00     0.112 C 
ENDROOT
BRANCH   1   4
HETATM    4  C4  UNL     1     -32.358   7.685   3.512  1.00 20.00     0.078 A 
HETATM    5  C5  UNL     1     -32.631   6.210   3.714  1.00 20.00     0.017 A 
HETATM    6  C6  UNL     1     -33.556   7.239   4.342  1.00 20.00    -0.028 A 
HETATM    7  C8  UNL     1     -34.960   7.412   3.817  1.00 20.00     0.016 C 
HETATM    8  C9  UNL     1     -33.460   7.418   5.839  1.00 20.00     0.016 C 
BRANCH   5   9
HETATM    9  C10 UNL     1     -33.060   5.306   2.607  1.00 20.00     0.076 C 
BRANCH   9  10
HETATM   10  C3  UNL     1     -33.610   3.975   3.089  1.00 20.00     0.231 C 
HETATM   11  O11 UNL     1     -34.276   3.840   4.109  1.00 20.00    -0.307 OA
ENDBRANCH   9  10
ENDBRANCH   5   9
ENDBRANCH   1   4
TORSDOF 3
ENDMDL
MODEL 2
REMARK VINA RESULT:      -4.1     10.815     11.924
REMARK  3 active torsions:
REMARK  status: ('A' for Active; 'I' for Inactive)
REMARK    1  A    between atoms: C1_1  and  C4_4 
REMARK    2  A    between atoms: C3_3  and  C10_10 
REMARK    3  A    between atoms: C5_5  and  C10_10 
ROOT
HETATM    1  C1  UNL     1     -34.120  17.509  -1.175  1.00 20.00    -0.101 C 
HETATM    2  C2  UNL     1     -33.185  18.047  -0.649  1.00 20.00    -0.111 C 
HETATM    3  C7  UNL     1     -32.045  18.703  -0.010  1.00 20.00     0.112 C 
ENDROOT
BRANCH   1   4
HETATM    4  C4  UNL     1     -35.238  16.866  -1.802  1.00 20.00     0.078 A 
HETATM    5  C5  UNL     1     -35.052  16.035  -3.053  1.00 20.00     0.017 A 
HETATM    6  C6  UNL     1     -35.778  17.368  -3.137  1.00 20.00    -0.028 A 
HETATM    7  C8  UNL     1     -35.129  18.538  -3.835  1.00 20.00     0.016 C 
HETATM    8  C9  UNL     1     -37.274  17.318  -3.335  1.00 20.00     0.016 C 
BRANCH   5   9
HETATM    9  C10 UNL     1     -33.719  15.800  -3.680  1.00 20.00     0.076 C 
BRANCH   9  10
HETATM   10  C3  UNL     1     -33.591  14.441  -4.345  1.00 20.00     0.231 C 
HETATM   11  O11 UNL     1     -34.406  13.535  -4.211  1.00 20.00    -0.307 OA
ENDBRANCH   9  10
ENDBRANCH   5   9
ENDBRANCH   1   4
TORSDOF 3
ENDMDL
MODEL 3
REMARK VINA RESULT:      -4.0     11.173     12.053
REMARK  3 active torsions:
REMARK  status: ('A' for Active; 'I' for Inactive)
REMARK    1  A    between atoms: C1_1  and  C4_4 
REMARK    2  A    between atoms: C3_3  and  C10_10 
REMARK    3  A    between atoms: C5_5  and  C10_10 
ROOT
HETATM    1  C1  UNL     1     -34.484  14.681  -5.279  1.00 20.00    -0.101 C 
HETATM    2  C2  UNL     1     -34.320  14.359  -6.424  1.00 20.00    -0.111 C 
HETATM    3  C7  UNL     1     -34.121  13.967  -7.819  1.00 20.00     0.112 C 
ENDROOT
BRANCH   1   4
HETATM    4  C4  UNL     1     -34.680  15.066  -3.912  1.00 20.00     0.078 A 
HETATM    5  C5  UNL     1     -35.930  15.805  -3.487  1.00 20.00     0.017 A 
HETATM    6  C6  UNL     1     -34.593  16.528  -3.492  1.00 20.00    -0.028 A 
HETATM    7  C8  UNL     1     -34.321  17.604  -4.515  1.00 20.00     0.016 C 
HETATM    8  C9  UNL     1     -33.971  16.822  -2.148  1.00 20.00     0.016 C 
BRANCH   5   9
HETATM    9  C10 UNL     1     -37.034  16.142  -4.432  1.00 20.00     0.076 C 
BRANCH   9  10
HETATM   10  C3  UNL     1     -38.128  15.089  -4.488  1.00 20.00     0.231 C 
HETATM   11  O11 UNL     1     -37.954  13.944  -4.890  1.00 20.00    -0.307 OA
ENDBRANCH   9  10
ENDBRANCH   5   9
ENDBRANCH   1   4
TORSDOF 3
ENDMDL
MODEL 4
REMARK VINA RESULT:      -4.0     10.888     12.095
REMARK  3 active torsions:
REMARK  status: ('A' for Active; 'I' for Inactive)
REMARK    1  A    between atoms: C1_1  and  C4_4 
REMARK    2  A    between atoms: C3_3  and  C10_10 
REMARK    3  A    between atoms: C5_5  and  C10_10 
ROOT
HETATM    1  C1  UNL     1     -34.908  17.134  -3.000  1.00 20.00    -0.101 C 
HETATM    2  C2  UNL     1     -34.990  17.230  -1.806  1.00 20.00    -0.111 C 
HETATM    3  C7  UNL     1     -35.090  17.346  -0.351  1.00 20.00     0.112 C 
ENDROOT
BRANCH   1   4
HETATM    4  C4  UNL     1     -34.809  17.020  -4.425  1.00 20.00     0.078 A 
HETATM    5  C5  UNL     1     -35.549  15.930  -5.169  1.00 20.00     0.017 A 
HETATM    6  C6  UNL     1     -34.034  15.874  -5.065  1.00 20.00    -0.028 A 
HETATM    7  C8  UNL     1     -33.375  14.821  -4.206  1.00 20.00     0.016 C 
HETATM    8  C9  UNL     1     -33.252  16.187  -6.318  1.00 20.00     0.016 C 
BRANCH   5   9
HETATM    9  C10 UNL     1     -36.442  14.947  -4.489  1.00 20.00     0.076 C 
BRANCH   9  10
HETATM   10  C3  UNL     1     -36.682  13.683  -5.296  1.00 20.00     0.231 C 
HETATM   11  O11 UNL     1     -35.947  12.702  -5.263  1.00 20.00    -0.307 OA
ENDBRANCH   9  10
ENDBRANCH   5   9
ENDBRANCH   1   4
TORSDOF 3
ENDMDL
MODEL 5
REMARK VINA RESULT:      -3.9     10.632     12.204
REMARK  3 active torsions:
REMARK  status: ('A' for Active; 'I' for Inactive)
REMARK    1  A    between atoms: C1_1  and  C4_4 
REMARK    2  A    between atoms: C3_3  and  C10_10 
REMARK    3  A    between atoms: C5_5  and  C10_10 
ROOT
HETATM    1  C1  UNL     1     -33.998  16.944  -3.578  1.00 20.00    -0.101 C 
HETATM    2  C2  UNL     1     -33.664  17.298  -2.480  1.00 20.00    -0.111 C 
HETATM    3  C7  UNL     1     -33.258  17.730  -1.143  1.00 20.00     0.112 C 
ENDROOT
BRANCH   1   4
HETATM    4  C4  UNL     1     -34.397  16.521  -4.888  1.00 20.00     0.078 A 
HETATM    5  C5  UNL     1     -35.783  15.966  -5.134  1.00 20.00     0.017 A 
HETATM    6  C6  UNL     1     -34.579  15.042  -5.209  1.00 20.00    -0.028 A 
HETATM    7  C8  UNL     1     -34.363  13.995  -4.145  1.00 20.00     0.016 C 
HETATM    8  C9  UNL     1     -34.157  14.582  -6.584  1.00 20.00     0.016 C 
BRANCH   5   9
HETATM    9  C10 UNL     1     -36.816  15.861  -4.063  1.00 20.00     0.076 C 
BRANCH   9  10
HETATM   10  C3  UNL     1     -38.067  15.116  -4.497  1.00 20.00     0.231 C 
HETATM   11  O11 UNL     1     -38.070  13.951  -4.880  1.00 20.00    -0.307 OA
ENDBRANCH   9  10
ENDBRANCH   5   9
ENDBRANCH   1   4
TORSDOF 3
ENDMDL
MODEL 6
REMARK VINA RESULT:      -3.9     10.846     12.104
REMARK  3 active torsions:
REMARK  status: ('A' for Active; 'I' for Inactive)
REMARK    1  A    between atoms: C1_1  and  C4_4 
REMARK    2  A    between atoms: C3_3  and  C10_10 
REMARK    3  A    between atoms: C5_5  and  C10_10 
ROOT
HETATM    1  C1  UNL     1     -33.778  17.160  -5.243  1.00 20.00    -0.101 C 
HETATM    2  C2  UNL     1     -33.907  17.588  -6.357  1.00 20.00    -0.111 C 
HETATM    3  C7  UNL     1     -34.063  18.111  -7.715  1.00 20.00     0.112 C 
ENDROOT
BRANCH   1   4
HETATM    4  C4  UNL     1     -33.623  16.648  -3.913  1.00 20.00     0.078 A 
HETATM    5  C5  UNL     1     -34.537  15.561  -3.390  1.00 20.00     0.017 A 
HETATM    6  C6  UNL     1     -34.646  16.969  -2.829  1.00 20.00    -0.028 A 
HETATM    7  C8  UNL     1     -35.856  17.815  -3.144  1.00 20.00     0.016 C 
HETATM    8  C9  UNL     1     -34.120  17.189  -1.431  1.00 20.00     0.016 C 
BRANCH   5   9
HETATM    9  C10 UNL     1     -35.609  14.936  -4.218  1.00 20.00     0.076 C 
BRANCH   9  10
HETATM   10  C3  UNL     1     -35.194  13.624  -4.861  1.00 20.00     0.231 C 
HETATM   11  O11 UNL     1     -35.986  12.768  -5.239  1.00 20.00    -0.307 OA
ENDBRANCH   9  10
ENDBRANCH   5   9
ENDBRANCH   1   4
TORSDOF 3
ENDMDL
MODEL 7
REMARK VINA RESULT:      -3.8     11.426     12.675
REMARK  3 active torsions:
REMARK  status: ('A' for Active; 'I' for Inactive)
REMARK    1  A    between atoms: C1_1  and  C4_4 
REMARK    2  A    between atoms: C3_3  and  C10_10 
REMARK    3  A    between atoms: C5_5  and  C10_10 
ROOT
HETATM    1  C1  UNL     1     -34.710  16.637  -1.927  1.00 20.00    -0.101 C 
HETATM    2  C2  UNL     1     -35.157  17.267  -1.007  1.00 20.00    -0.111 C 
HETATM    3  C7  UNL     1     -35.700  18.034   0.114  1.00 20.00     0.112 C 
ENDROOT
BRANCH   1   4
HETATM    4  C4  UNL     1     -34.177  15.885  -3.025  1.00 20.00     0.078 A 
HETATM    5  C5  UNL     1     -34.057  16.502  -4.401  1.00 20.00     0.017 A 
HETATM    6  C6  UNL     1     -35.080  15.406  -4.155  1.00 20.00    -0.028 A 
HETATM    7  C8  UNL     1     -36.553  15.737  -4.151  1.00 20.00     0.016 C 
HETATM    8  C9  UNL     1     -34.782  14.049  -4.745  1.00 20.00     0.016 C 
BRANCH   5   9
HETATM    9  C10 UNL     1     -34.440  17.915  -4.692  1.00 20.00     0.076 C 
BRANCH   9  10
HETATM   10  C3  UNL     1     -33.292  18.899  -4.543  1.00 20.00     0.231 C 
HETATM   11  O11 UNL     1     -32.767  19.178  -3.471  1.00 20.00    -0.307 OA
ENDBRANCH   9  10
ENDBRANCH   5   9
ENDBRANCH   1   4
TORSDOF 3
ENDMDL
MODEL 8
REMARK VINA RESULT:      -3.7     11.366     12.110
REMARK  3 active torsions:
REMARK  status: ('A' for Active; 'I' for Inactive)
REMARK    1  A    between atoms: C1_1  and  C4_4 
REMARK    2  A    between atoms: C3_3  and  C10_10 
REMARK    3  A    between atoms: C5_5  and  C10_10 
ROOT
HETATM    1  C1  UNL     1     -35.000  16.424  -2.721  1.00 20.00    -0.101 C 
HETATM    2  C2  UNL     1     -34.084  16.989  -2.189  1.00 20.00    -0.111 C 
HETATM    3  C7  UNL     1     -32.967  17.678  -1.543  1.00 20.00     0.112 C 
ENDROOT
BRANCH   1   4
HETATM    4  C4  UNL     1     -36.095  15.749  -3.355  1.00 20.00     0.078 A 
HETATM    5  C5  UNL     1     -35.858  14.815  -4.521  1.00 20.00     0.017 A 
HETATM    6  C6  UNL     1     -36.552  16.147  -4.753  1.00 20.00    -0.028 A 
HETATM    7  C8  UNL     1     -35.843  17.246  -5.508  1.00 20.00     0.016 C 
HETATM    8  C9  UNL     1     -38.036  16.105  -5.029  1.00 20.00     0.016 C 
BRANCH   5   9
HETATM    9  C10 UNL     1     -34.498  14.509  -5.052  1.00 20.00     0.076 C 
BRANCH   9  10
HETATM   10  C3  UNL     1     -34.515  13.680  -6.325  1.00 20.00     0.231 C 
HETATM   11  O11 UNL     1     -35.131  12.626  -6.445  1.00 20.00    -0.307 OA
ENDBRANCH   9  10
ENDBRANCH   5   9
ENDBRANCH   1   4
TORSDOF 3
ENDMDL
MODEL 9
REMARK VINA RESULT:      -3.7     11.240     12.264
REMARK  3 active torsions:
REMARK  status: ('A' for Active; 'I' for Inactive)
REMARK    1  A    between atoms: C1_1  and  C4_4 
REMARK    2  A    between atoms: C3_3  and  C10_10 
REMARK    3  A    between atoms: C5_5  and  C10_10 
ROOT
HETATM    1  C1  UNL     1     -36.585  14.762  -4.682  1.00 20.00    -0.101 C 
HETATM    2  C2  UNL     1     -37.767  14.800  -4.893  1.00 20.00    -0.111 C 
HETATM    3  C7  UNL     1     -39.207  14.846  -5.149  1.00 20.00     0.112 C 
ENDROOT
BRANCH   1   4
HETATM    4  C4  UNL     1     -35.175  14.716  -4.430  1.00 20.00     0.078 A 
HETATM    5  C5  UNL     1     -34.556  15.561  -3.339  1.00 20.00     0.017 A 
HETATM    6  C6  UNL     1     -34.279  15.894  -4.795  1.00 20.00    -0.028 A 
HETATM    7  C8  UNL     1     -34.865  17.142  -5.409  1.00 20.00     0.016 C 
HETATM    8  C9  UNL     1     -32.899  15.571  -5.319  1.00 20.00     0.016 C 
BRANCH   5   9
HETATM    9  C10 UNL     1     -35.357  16.447  -2.446  1.00 20.00     0.076 C 
BRANCH   9  10
HETATM   10  C3  UNL     1     -34.527  17.159  -1.391  1.00 20.00     0.231 C 
HETATM   11  O11 UNL     1     -33.323  17.366  -1.495  1.00 20.00    -0.307 OA
ENDBRANCH   9  10
ENDBRANCH   5   9
ENDBRANCH   1   4
TORSDOF 3
ENDMDL
