MODEL 1
REMARK VINA RESULT:      -4.8      0.000      0.000
REMARK  1 active torsions:
REMARK  status: ('A' for Active; 'I' for Inactive)
REMARK    1  A    between atoms: C4_4  and  C7_7 
ROOT
HETATM    1  C1  UNL     1     -32.837   7.209   1.895  1.00 20.00     0.047 C 
HETATM    2  C2  UNL     1     -33.794   6.346   2.253  1.00 20.00    -0.006 C 
HETATM    3  C3  UNL     1     -32.087   7.962   2.925  1.00 20.00     0.149 C 
HETATM    4  C5  UNL     1     -32.353   7.658   4.382  1.00 20.00     0.088 C 
HETATM    5  C6  UNL     1     -33.810   7.242   4.617  1.00 20.00     0.007 C 
HETATM    6  C7  UNL     1     -34.249   6.090   3.671  1.00 20.00     0.031 C 
HETATM    7  C8  UNL     1     -34.032   6.946   6.105  1.00 20.00     0.012 C 
HETATM    8  C9  UNL     1     -35.776   5.911   3.694  1.00 20.00     0.027 C 
HETATM    9  O10 UNL     1     -31.223   8.768   2.582  1.00 20.00    -0.293 OA
ENDROOT
BRANCH   6  10
HETATM   10  C4  UNL     1     -33.608   4.774   4.035  1.00 20.00     0.244 C 
HETATM   11  O11 UNL     1     -34.245   3.788   4.389  1.00 20.00    -0.306 OA
ENDBRANCH   6  10
TORSDOF 1
ENDMDL
MODEL 2
REMARK VINA RESULT:      -4.7     11.260     12.542
REMARK  1 active torsions:
REMARK  status: ('A' for Active; 'I' for Inactive)
REMARK    1  A    between atoms: C4_4  and  C7_7 
ROOT
HETATM    1  C1  UNL     1     -33.937  14.040  -4.461  1.00 20.00     0.047 C 
HETATM    2  C2  UNL     1     -33.429  15.173  -3.961  1.00 20.00    -0.006 C 
HETATM    3  C3  UNL     1     -35.394  13.912  -4.692  1.00 20.00     0.149 C 
HETATM    4  C5  UNL     1     -36.273  15.117  -4.451  1.00 20.00     0.088 C 
HETATM    5  C6  UNL     1     -35.731  15.998  -3.318  1.00 20.00     0.007 C 
HETATM    6  C7  UNL     1     -34.239  16.375  -3.535  1.00 20.00     0.031 C 
HETATM    7  C8  UNL     1     -36.655  17.204  -3.110  1.00 20.00     0.012 C 
HETATM    8  C9  UNL     1     -33.632  16.973  -2.255  1.00 20.00     0.027 C 
HETATM    9  O10 UNL     1     -35.849  12.858  -5.132  1.00 20.00    -0.293 OA
ENDROOT
BRANCH   6  10
HETATM   10  C4  UNL     1     -34.055  17.364  -4.658  1.00 20.00     0.244 C 
HETATM   11  O11 UNL     1     -33.570  17.069  -5.746  1.00 20.00    -0.306 OA
ENDBRANCH   6  10
TORSDOF 1
ENDMDL
MODEL 3
REMARK VINA RESULT:      -4.6     11.687     12.608
REMARK  1 active torsions:
REMARK  status: ('A' for Active; 'I' for Inactive)
REMARK    1  A    between atoms: C4_4  and  C7_7 
ROOT
HETATM    1  C1  UNL     1     -35.988  13.627  -5.869  1.00 20.00     0.047 C 
HETATM    2  C2  UNL     1     -34.693  13.961  -5.829  1.00 20.00    -0.006 C 
HETATM    3  C3  UNL     1     -36.959  14.285  -4.965  1.00 20.00     0.149 C 
HETATM    4  C5  UNL     1     -36.475  15.408  -4.078  1.00 20.00     0.088 C 
HETATM    5  C6  UNL     1     -35.015  15.205  -3.651  1.00 20.00     0.007 C 
HETATM    6  C7  UNL     1     -34.081  14.953  -4.867  1.00 20.00     0.031 C 
HETATM    7  C8  UNL     1     -34.571  16.366  -2.752  1.00 20.00     0.012 C 
HETATM    8  C9  UNL     1     -32.707  14.438  -4.407  1.00 20.00     0.027 C 
HETATM    9  O10 UNL     1     -38.142  13.953  -4.998  1.00 20.00    -0.293 OA
ENDROOT
BRANCH   6  10
HETATM   10  C4  UNL     1     -33.872  16.194  -5.697  1.00 20.00     0.244 C 
HETATM   11  O11 UNL     1     -33.635  16.171  -6.900  1.00 20.00    -0.306 OA
ENDBRANCH   6  10
TORSDOF 1
ENDMDL
MODEL 4
REMARK VINA RESULT:      -4.3     11.571     12.898
REMARK  1 active torsions:
REMARK  status: ('A' for Active; 'I' for Inactive)
REMARK    1  A    between atoms: C4_4  and  C7_7 
ROOT
HETATM    1  C1  UNL     1     -36.615  15.361  -4.222  1.00 20.00     0.047 C 
HETATM    2  C2  UNL     1     -35.376  15.843  -4.370  1.00 20.00    -0.006 C 
HETATM    3  C3  UNL     1     -37.119  14.304  -5.128  1.00 20.00     0.149 C 
HETATM    4  C5  UNL     1     -36.173  13.713  -6.148  1.00 20.00     0.088 C 
HETATM    5  C6  UNL     1     -35.149  14.745  -6.637  1.00 20.00     0.007 C 
HETATM    6  C7  UNL     1     -34.409  15.437  -5.459  1.00 20.00     0.031 C 
HETATM    7  C8  UNL     1     -34.215  14.102  -7.669  1.00 20.00     0.012 C 
HETATM    8  C9  UNL     1     -33.638  16.674  -5.945  1.00 20.00     0.027 C 
HETATM    9  O10 UNL     1     -38.267  13.885  -4.994  1.00 20.00    -0.293 OA
ENDROOT
BRANCH   6  10
HETATM   10  C4  UNL     1     -33.440  14.511  -4.768  1.00 20.00     0.244 C 
HETATM   11  O11 UNL     1     -33.788  13.611  -4.011  1.00 20.00    -0.306 OA
ENDBRANCH   6  10
TORSDOF 1
ENDMDL
MODEL 5
REMARK VINA RESULT:      -4.3      1.267      3.684
REMARK  1 active torsions:
REMARK  status: ('A' for Active; 'I' for Inactive)
REMARK    1  A    between atoms: C4_4  and  C7_7 
ROOT
HETATM    1  C1  UNL     1     -33.195   4.958   2.866  1.00 20.00     0.047 C 
HETATM    2  C2  UNL     1     -32.581   6.126   2.643  1.00 20.00    -0.006 C 
HETATM    3  C3  UNL     1     -34.122   4.808   4.011  1.00 20.00     0.149 C 
HETATM    4  C5  UNL     1     -34.438   6.024   4.851  1.00 20.00     0.088 C 
HETATM    5  C6  UNL     1     -33.246   6.987   4.926  1.00 20.00     0.007 C 
HETATM    6  C7  UNL     1     -32.702   7.353   3.517  1.00 20.00     0.031 C 
HETATM    7  C8  UNL     1     -33.612   8.201   5.788  1.00 20.00     0.012 C 
HETATM    8  C9  UNL     1     -31.333   8.045   3.619  1.00 20.00     0.027 C 
HETATM    9  O10 UNL     1     -34.663   3.723   4.217  1.00 20.00    -0.293 OA
ENDROOT
BRANCH   6  10
HETATM   10  C4  UNL     1     -33.640   8.259   2.758  1.00 20.00     0.244 C 
HETATM   11  O11 UNL     1     -33.274   9.008   1.858  1.00 20.00    -0.306 OA
ENDBRANCH   6  10
TORSDOF 1
ENDMDL
MODEL 6
REMARK VINA RESULT:      -4.2     11.391     12.668
REMARK  1 active torsions:
REMARK  status: ('A' for Active; 'I' for Inactive)
REMARK    1  A    between atoms: C4_4  and  C7_7 
ROOT
HETATM    1  C1  UNL     1     -33.798  14.886  -3.880  1.00 20.00     0.047 C 
HETATM    2  C2  UNL     1     -33.820  14.346  -5.104  1.00 20.00    -0.006 C 
HETATM    3  C3  UNL     1     -34.855  15.836  -3.463  1.00 20.00     0.149 C 
HETATM    4  C5  UNL     1     -36.007  16.097  -4.407  1.00 20.00     0.088 C 
HETATM    5  C6  UNL     1     -35.571  15.999  -5.874  1.00 20.00     0.007 C 
HETATM    6  C7  UNL     1     -34.834  14.665  -6.178  1.00 20.00     0.031 C 
HETATM    7  C8  UNL     1     -36.769  16.273  -6.791  1.00 20.00     0.012 C 
HETATM    8  C9  UNL     1     -34.132  14.724  -7.544  1.00 20.00     0.027 C 
HETATM    9  O10 UNL     1     -34.811  16.341  -2.343  1.00 20.00    -0.293 OA
ENDROOT
BRANCH   6  10
HETATM   10  C4  UNL     1     -35.768  13.481  -6.171  1.00 20.00     0.244 C 
HETATM   11  O11 UNL     1     -35.843  12.686  -5.240  1.00 20.00    -0.306 OA
ENDBRANCH   6  10
TORSDOF 1
ENDMDL
MODEL 7
REMARK VINA RESULT:      -4.2     11.260     12.796
REMARK  1 active torsions:
REMARK  status: ('A' for Active; 'I' for Inactive)
REMARK    1  A    between atoms: C4_4  and  C7_7 
ROOT
HETATM    1  C1  UNL     1     -35.926  13.530  -5.633  1.00 20.00     0.047 C 
HETATM    2  C2  UNL     1     -35.294  13.971  -4.539  1.00 20.00    -0.006 C 
HETATM    3  C3  UNL     1     -35.804  14.262  -6.914  1.00 20.00     0.149 C 
HETATM    4  C5  UNL     1     -34.872  15.451  -6.982  1.00 20.00     0.088 C 
HETATM    5  C6  UNL     1     -34.801  16.193  -5.641  1.00 20.00     0.007 C 
HETATM    6  C7  UNL     1     -34.472  15.237  -4.461  1.00 20.00     0.031 C 
HETATM    7  C8  UNL     1     -33.848  17.389  -5.759  1.00 20.00     0.012 C 
HETATM    8  C9  UNL     1     -34.721  15.926  -3.110  1.00 20.00     0.027 C 
HETATM    9  O10 UNL     1     -36.406  13.857  -7.906  1.00 20.00    -0.293 OA
ENDROOT
BRANCH   6  10
HETATM   10  C4  UNL     1     -33.044  14.754  -4.495  1.00 20.00     0.244 C 
HETATM   11  O11 UNL     1     -32.711  13.608  -4.213  1.00 20.00    -0.306 OA
ENDBRANCH   6  10
TORSDOF 1
ENDMDL
MODEL 8
REMARK VINA RESULT:      -4.2     11.481     12.946
REMARK  1 active torsions:
REMARK  status: ('A' for Active; 'I' for Inactive)
REMARK    1  A    between atoms: C4_4  and  C7_7 
ROOT
HETATM    1  C1  UNL     1     -33.892  17.317  -2.135  1.00 20.00     0.047 C 
HETATM    2  C2  UNL     1     -34.505  16.216  -2.582  1.00 20.00    -0.006 C 
HETATM    3  C3  UNL     1     -33.267  18.264  -3.086  1.00 20.00     0.149 C 
HETATM    4  C5  UNL     1     -33.428  18.014  -4.568  1.00 20.00     0.088 C 
HETATM    5  C6  UNL     1     -33.503  16.515  -4.884  1.00 20.00     0.007 C 
HETATM    6  C7  UNL     1     -34.580  15.790  -4.030  1.00 20.00     0.031 C 
HETATM    7  C8  UNL     1     -33.664  16.311  -6.396  1.00 20.00     0.012 C 
HETATM    8  C9  UNL     1     -34.420  14.264  -4.124  1.00 20.00     0.027 C 
HETATM    9  O10 UNL     1     -32.689  19.262  -2.659  1.00 20.00    -0.293 OA
ENDROOT
BRANCH   6  10
HETATM   10  C4  UNL     1     -35.983  16.150  -4.451  1.00 20.00     0.244 C 
HETATM   11  O11 UNL     1     -36.975  15.519  -4.104  1.00 20.00    -0.306 OA
ENDBRANCH   6  10
TORSDOF 1
ENDMDL
MODEL 9
REMARK VINA RESULT:      -4.1      1.459      2.643
REMARK  1 active torsions:
REMARK  status: ('A' for Active; 'I' for Inactive)
REMARK    1  A    between atoms: C4_4  and  C7_7 
ROOT
HETATM    1  C1  UNL     1     -33.091   7.804   5.055  1.00 20.00     0.047 C 
HETATM    2  C2  UNL     1     -33.956   6.825   5.346  1.00 20.00    -0.006 C 
HETATM    3  C3  UNL     1     -32.332   7.777   3.784  1.00 20.00     0.149 C 
HETATM    4  C5  UNL     1     -32.631   6.684   2.785  1.00 20.00     0.088 C 
HETATM    5  C6  UNL     1     -33.050   5.381   3.478  1.00 20.00     0.007 C 
HETATM    6  C7  UNL     1     -34.207   5.605   4.491  1.00 20.00     0.031 C 
HETATM    7  C8  UNL     1     -33.340   4.303   2.427  1.00 20.00     0.012 C 
HETATM    8  C9  UNL     1     -34.391   4.375   5.396  1.00 20.00     0.027 C 
HETATM    9  O10 UNL     1     -31.525   8.673   3.539  1.00 20.00    -0.293 OA
ENDROOT
BRANCH   6  10
HETATM   10  C4  UNL     1     -35.520   5.894   3.807  1.00 20.00     0.244 C 
HETATM   11  O11 UNL     1     -35.606   6.475   2.730  1.00 20.00    -0.306 OA
ENDBRANCH   6  10
TORSDOF 1
ENDMDL
