MODEL 1
REMARK VINA RESULT:      -4.8      0.000      0.000
REMARK  3 active torsions:
REMARK  status: ('A' for Active; 'I' for Inactive)
REMARK    1  A    between atoms: C1_1  and  C4_4 
REMARK    2  A    between atoms: C2_2  and  C8_8 
REMARK    3  A    between atoms: C8_8  and  O10_10 
ROOT
HETATM    1  C1  UNL     1     -32.717   8.012   2.303  1.00 20.00    -0.069 C 
HETATM    2  C2  UNL     1     -33.288   7.274   3.058  1.00 20.00    -0.066 C 
ENDROOT
BRANCH   2   3
HETATM    3  C8  UNL     1     -33.988   6.368   3.987  1.00 20.00     0.116 C 
HETATM    4  C5  UNL     1     -35.455   6.215   3.588  1.00 20.00     0.060 C 
HETATM    5  C6  UNL     1     -33.873   6.888   5.419  1.00 20.00     0.060 C 
BRANCH   3   6
HETATM    6  O10 UNL     1     -33.370   5.081   3.950  1.00 20.00    -0.373 OA
HETATM    7  C7  UNL     1     -34.253   4.074   4.419  1.00 20.00     0.204 C 
ENDBRANCH   3   6
ENDBRANCH   2   3
BRANCH   1   8
HETATM    8  C4  UNL     1     -32.022   8.910   1.381  1.00 20.00     0.224 A 
HETATM    9  C3  UNL     1     -32.625  10.237   1.085  1.00 20.00     0.214 A 
HETATM   10  O9  UNL     1     -32.766   9.127   0.190  1.00 20.00    -0.368 OA
ENDBRANCH   1   8
TORSDOF 3
ENDMDL
MODEL 2
REMARK VINA RESULT:      -4.6      0.765      1.652
REMARK  3 active torsions:
REMARK  status: ('A' for Active; 'I' for Inactive)
REMARK    1  A    between atoms: C1_1  and  C4_4 
REMARK    2  A    between atoms: C2_2  and  C8_8 
REMARK    3  A    between atoms: C8_8  and  O10_10 
ROOT
HETATM    1  C1  UNL     1     -32.618   8.009   2.300  1.00 20.00    -0.069 C 
HETATM    2  C2  UNL     1     -33.147   7.110   2.895  1.00 20.00    -0.066 C 
ENDROOT
BRANCH   2   3
HETATM    3  C8  UNL     1     -33.796   6.006   3.624  1.00 20.00     0.116 C 
HETATM    4  C5  UNL     1     -33.377   4.656   3.042  1.00 20.00     0.060 C 
HETATM    5  C6  UNL     1     -35.315   6.162   3.577  1.00 20.00     0.060 C 
BRANCH   3   6
HETATM    6  O10 UNL     1     -33.405   6.049   4.998  1.00 20.00    -0.373 OA
HETATM    7  C7  UNL     1     -33.869   7.233   5.627  1.00 20.00     0.204 C 
ENDBRANCH   3   6
ENDBRANCH   2   3
BRANCH   1   8
HETATM    8  C4  UNL     1     -31.974   9.104   1.575  1.00 20.00     0.224 A 
HETATM    9  C3  UNL     1     -32.813  10.238   1.102  1.00 20.00     0.214 A 
HETATM   10  O9  UNL     1     -32.414   9.177   0.226  1.00 20.00    -0.368 OA
ENDBRANCH   1   8
TORSDOF 3
ENDMDL
MODEL 3
REMARK VINA RESULT:      -3.9      1.080      1.608
REMARK  3 active torsions:
REMARK  status: ('A' for Active; 'I' for Inactive)
REMARK    1  A    between atoms: C1_1  and  C4_4 
REMARK    2  A    between atoms: C2_2  and  C8_8 
REMARK    3  A    between atoms: C8_8  and  O10_10 
ROOT
HETATM    1  C1  UNL     1     -32.482   8.276   1.790  1.00 20.00    -0.069 C 
HETATM    2  C2  UNL     1     -32.932   7.470   2.558  1.00 20.00    -0.066 C 
ENDROOT
BRANCH   2   3
HETATM    3  C8  UNL     1     -33.480   6.480   3.501  1.00 20.00     0.116 C 
HETATM    4  C5  UNL     1     -33.271   6.937   4.945  1.00 20.00     0.060 C 
HETATM    5  C6  UNL     1     -32.832   5.115   3.272  1.00 20.00     0.060 C 
BRANCH   3   6
HETATM    6  O10 UNL     1     -34.882   6.330   3.271  1.00 20.00    -0.373 OA
HETATM    7  C7  UNL     1     -35.453   5.389   4.167  1.00 20.00     0.204 C 
ENDBRANCH   3   6
ENDBRANCH   2   3
BRANCH   1   8
HETATM    8  C4  UNL     1     -31.937   9.258   0.853  1.00 20.00     0.224 A 
HETATM    9  C3  UNL     1     -32.500  10.634   0.851  1.00 20.00     0.214 A 
HETATM   10  O9  UNL     1     -32.896   9.655  -0.118  1.00 20.00    -0.368 OA
ENDBRANCH   1   8
TORSDOF 3
ENDMDL
MODEL 4
REMARK VINA RESULT:      -3.9      1.219      4.952
REMARK  3 active torsions:
REMARK  status: ('A' for Active; 'I' for Inactive)
REMARK    1  A    between atoms: C1_1  and  C4_4 
REMARK    2  A    between atoms: C2_2  and  C8_8 
REMARK    3  A    between atoms: C8_8  and  O10_10 
ROOT
HETATM    1  C1  UNL     1     -34.016   6.451   3.473  1.00 20.00    -0.069 C 
HETATM    2  C2  UNL     1     -33.280   7.270   2.995  1.00 20.00    -0.066 C 
ENDROOT
BRANCH   2   3
HETATM    3  C8  UNL     1     -32.376   8.276   2.410  1.00 20.00     0.116 C 
HETATM    4  C5  UNL     1     -31.857   7.809   1.050  1.00 20.00     0.060 C 
HETATM    5  C6  UNL     1     -31.212   8.557   3.360  1.00 20.00     0.060 C 
BRANCH   3   6
HETATM    6  O10 UNL     1     -33.084   9.503   2.228  1.00 20.00    -0.373 OA
HETATM    7  C7  UNL     1     -32.656  10.175   1.054  1.00 20.00     0.204 C 
ENDBRANCH   3   6
ENDBRANCH   2   3
BRANCH   1   8
HETATM    8  C4  UNL     1     -34.913   5.453   4.055  1.00 20.00     0.224 A 
HETATM    9  C3  UNL     1     -34.619   4.936   5.418  1.00 20.00     0.214 A 
HETATM   10  O9  UNL     1     -34.265   4.202   4.240  1.00 20.00    -0.368 OA
ENDBRANCH   1   8
TORSDOF 3
ENDMDL
MODEL 5
REMARK VINA RESULT:      -3.8     10.303     11.095
REMARK  3 active torsions:
REMARK  status: ('A' for Active; 'I' for Inactive)
REMARK    1  A    between atoms: C1_1  and  C4_4 
REMARK    2  A    between atoms: C2_2  and  C8_8 
REMARK    3  A    between atoms: C8_8  and  O10_10 
ROOT
HETATM    1  C1  UNL     1     -34.941  16.386  -2.713  1.00 20.00    -0.069 C 
HETATM    2  C2  UNL     1     -34.560  15.576  -3.513  1.00 20.00    -0.066 C 
ENDROOT
BRANCH   2   3
HETATM    3  C8  UNL     1     -34.094  14.582  -4.496  1.00 20.00     0.116 C 
HETATM    4  C5  UNL     1     -32.637  14.204  -4.232  1.00 20.00     0.060 C 
HETATM    5  C6  UNL     1     -34.258  15.125  -5.915  1.00 20.00     0.060 C 
BRANCH   3   6
HETATM    6  O10 UNL     1     -34.895  13.403  -4.395  1.00 20.00    -0.373 OA
HETATM    7  C7  UNL     1     -36.036  13.484  -5.235  1.00 20.00     0.204 C 
ENDBRANCH   3   6
ENDBRANCH   2   3
BRANCH   1   8
HETATM    8  C4  UNL     1     -35.404  17.372  -1.737  1.00 20.00     0.224 A 
HETATM    9  C3  UNL     1     -34.533  17.691  -0.575  1.00 20.00     0.214 A 
HETATM   10  O9  UNL     1     -35.639  16.787  -0.463  1.00 20.00    -0.368 OA
ENDBRANCH   1   8
TORSDOF 3
ENDMDL
MODEL 6
REMARK VINA RESULT:      -3.8     10.582     11.737
REMARK  3 active torsions:
REMARK  status: ('A' for Active; 'I' for Inactive)
REMARK    1  A    between atoms: C1_1  and  C4_4 
REMARK    2  A    between atoms: C2_2  and  C8_8 
REMARK    3  A    between atoms: C8_8  and  O10_10 
ROOT
HETATM    1  C1  UNL     1     -33.618  15.791  -3.616  1.00 20.00    -0.069 C 
HETATM    2  C2  UNL     1     -33.692  16.763  -2.913  1.00 20.00    -0.066 C 
ENDROOT
BRANCH   2   3
HETATM    3  C8  UNL     1     -33.781  17.955  -2.052  1.00 20.00     0.116 C 
HETATM    4  C5  UNL     1     -34.412  17.601  -0.705  1.00 20.00     0.060 C 
HETATM    5  C6  UNL     1     -34.586  19.051  -2.748  1.00 20.00     0.060 C 
BRANCH   3   6
HETATM    6  O10 UNL     1     -32.470  18.471  -1.818  1.00 20.00    -0.373 OA
HETATM    7  C7  UNL     1     -32.179  18.527  -0.430  1.00 20.00     0.204 C 
ENDBRANCH   3   6
ENDBRANCH   2   3
BRANCH   1   8
HETATM    8  C4  UNL     1     -33.529  14.608  -4.470  1.00 20.00     0.224 A 
HETATM    9  C3  UNL     1     -34.712  14.224  -5.285  1.00 20.00     0.214 A 
HETATM   10  O9  UNL     1     -34.410  13.578  -4.043  1.00 20.00    -0.368 OA
ENDBRANCH   1   8
TORSDOF 3
ENDMDL
MODEL 7
REMARK VINA RESULT:      -3.7     10.581     11.587
REMARK  3 active torsions:
REMARK  status: ('A' for Active; 'I' for Inactive)
REMARK    1  A    between atoms: C1_1  and  C4_4 
REMARK    2  A    between atoms: C2_2  and  C8_8 
REMARK    3  A    between atoms: C8_8  and  O10_10 
ROOT
HETATM    1  C1  UNL     1     -33.608  17.020  -2.238  1.00 20.00    -0.069 C 
HETATM    2  C2  UNL     1     -33.883  16.377  -3.214  1.00 20.00    -0.066 C 
ENDROOT
BRANCH   2   3
HETATM    3  C8  UNL     1     -34.217  15.587  -4.413  1.00 20.00     0.116 C 
HETATM    4  C5  UNL     1     -33.039  15.560  -5.386  1.00 20.00     0.060 C 
HETATM    5  C6  UNL     1     -35.460  16.159  -5.092  1.00 20.00     0.060 C 
BRANCH   3   6
HETATM    6  O10 UNL     1     -34.520  14.246  -4.028  1.00 20.00    -0.373 OA
HETATM    7  C7  UNL     1     -35.589  13.719  -4.798  1.00 20.00     0.204 C 
ENDBRANCH   3   6
ENDBRANCH   2   3
BRANCH   1   8
HETATM    8  C4  UNL     1     -33.275  17.803  -1.049  1.00 20.00     0.224 A 
HETATM    9  C3  UNL     1     -33.033  19.263  -1.200  1.00 20.00     0.214 A 
HETATM   10  O9  UNL     1     -31.954  18.324  -1.110  1.00 20.00    -0.368 OA
ENDBRANCH   1   8
TORSDOF 3
ENDMDL
MODEL 8
REMARK VINA RESULT:      -3.7     10.653     11.754
REMARK  3 active torsions:
REMARK  status: ('A' for Active; 'I' for Inactive)
REMARK    1  A    between atoms: C1_1  and  C4_4 
REMARK    2  A    between atoms: C2_2  and  C8_8 
REMARK    3  A    between atoms: C8_8  and  O10_10 
ROOT
HETATM    1  C1  UNL     1     -33.584  17.043  -2.211  1.00 20.00    -0.069 C 
HETATM    2  C2  UNL     1     -33.852  16.407  -3.195  1.00 20.00    -0.066 C 
ENDROOT
BRANCH   2   3
HETATM    3  C8  UNL     1     -34.178  15.630  -4.403  1.00 20.00     0.116 C 
HETATM    4  C5  UNL     1     -34.353  14.150  -4.061  1.00 20.00     0.060 C 
HETATM    5  C6  UNL     1     -33.088  15.810  -5.458  1.00 20.00     0.060 C 
BRANCH   3   6
HETATM    6  O10 UNL     1     -35.399  16.114  -4.964  1.00 20.00    -0.373 OA
HETATM    7  C7  UNL     1     -36.519  15.681  -4.209  1.00 20.00     0.204 C 
ENDBRANCH   3   6
ENDBRANCH   2   3
BRANCH   1   8
HETATM    8  C4  UNL     1     -33.260  17.816  -1.013  1.00 20.00     0.224 A 
HETATM    9  C3  UNL     1     -32.943  19.261  -1.159  1.00 20.00     0.214 A 
HETATM   10  O9  UNL     1     -31.915  18.273  -1.025  1.00 20.00    -0.368 OA
ENDBRANCH   1   8
TORSDOF 3
ENDMDL
MODEL 9
REMARK VINA RESULT:      -3.7     10.623     11.736
REMARK  3 active torsions:
REMARK  status: ('A' for Active; 'I' for Inactive)
REMARK    1  A    between atoms: C1_1  and  C4_4 
REMARK    2  A    between atoms: C2_2  and  C8_8 
REMARK    3  A    between atoms: C8_8  and  O10_10 
ROOT
HETATM    1  C1  UNL     1     -33.668  15.794  -3.481  1.00 20.00    -0.069 C 
HETATM    2  C2  UNL     1     -33.791  16.685  -2.686  1.00 20.00    -0.066 C 
ENDROOT
BRANCH   2   3
HETATM    3  C8  UNL     1     -33.943  17.780  -1.712  1.00 20.00     0.116 C 
HETATM    4  C5  UNL     1     -32.595  18.138  -1.087  1.00 20.00     0.060 C 
HETATM    5  C6  UNL     1     -34.948  17.388  -0.630  1.00 20.00     0.060 C 
BRANCH   3   6
HETATM    6  O10 UNL     1     -34.458  18.936  -2.374  1.00 20.00    -0.373 OA
HETATM    7  C7  UNL     1     -35.820  18.760  -2.731  1.00 20.00     0.204 C 
ENDBRANCH   3   6
ENDBRANCH   2   3
BRANCH   1   8
HETATM    8  C4  UNL     1     -33.516  14.708  -4.449  1.00 20.00     0.224 A 
HETATM    9  C3  UNL     1     -34.643  14.413  -5.374  1.00 20.00     0.214 A 
HETATM   10  O9  UNL     1     -34.416  13.639  -4.191  1.00 20.00    -0.368 OA
ENDBRANCH   1   8
TORSDOF 3
ENDMDL
