MODEL 1
REMARK VINA RESULT:      -5.5      0.000      0.000
REMARK  1 active torsions:
REMARK  status: ('A' for Active; 'I' for Inactive)
REMARK    1  A    between atoms: C8_8  and  N10_10 
ROOT
HETATM    1  C1  UNL     1     -32.188   8.385   2.200  1.00 20.00     0.089 C 
HETATM    2  C8  UNL     1     -32.235   7.284   3.162  1.00 20.00     0.396 C 
HETATM    3  N9  UNL     1     -32.148   9.258   1.439  1.00 20.00    -0.195 NA
ENDROOT
BRANCH   2   4
HETATM    4  N10 UNL     1     -33.499   6.570   3.071  1.00 20.00     0.110 N 
HETATM    5  C5  UNL     1     -33.361   5.097   3.257  1.00 20.00     0.283 C 
HETATM    6  C6  UNL     1     -34.502   4.784   4.247  1.00 20.00     0.038 C 
HETATM    7  C2  UNL     1     -34.089   5.326   5.596  1.00 20.00    -0.022 C 
HETATM    8  C4  UNL     1     -35.518   5.857   3.862  1.00 20.00     0.050 C 
HETATM    9  C3  UNL     1     -34.087   6.663   5.488  1.00 20.00     0.005 C 
HETATM   10  C7  UNL     1     -34.512   6.991   4.071  1.00 20.00     0.247 C 
ENDBRANCH   2   4
TORSDOF 1
ENDMDL
MODEL 2
REMARK VINA RESULT:      -4.1     11.354     12.280
REMARK  1 active torsions:
REMARK  status: ('A' for Active; 'I' for Inactive)
REMARK    1  A    between atoms: C8_8  and  N10_10 
ROOT
HETATM    1  C1  UNL     1     -35.248  13.725  -4.785  1.00 20.00     0.089 C 
HETATM    2  C8  UNL     1     -34.362  14.722  -4.187  1.00 20.00     0.396 C 
HETATM    3  N9  UNL     1     -35.948  12.931  -5.259  1.00 20.00    -0.195 NA
ENDROOT
BRANCH   2   4
HETATM    4  N10 UNL     1     -34.993  16.033  -4.172  1.00 20.00     0.110 N 
HETATM    5  C5  UNL     1     -36.310  16.048  -3.473  1.00 20.00     0.283 C 
HETATM    6  C6  UNL     1     -36.190  17.297  -2.576  1.00 20.00     0.038 C 
HETATM    7  C2  UNL     1     -35.228  16.960  -1.459  1.00 20.00    -0.022 C 
HETATM    8  C4  UNL     1     -35.270  18.172  -3.424  1.00 20.00     0.050 C 
HETATM    9  C3  UNL     1     -34.019  16.826  -2.023  1.00 20.00     0.005 C 
HETATM   10  C7  UNL     1     -34.191  17.089  -3.504  1.00 20.00     0.247 C 
ENDBRANCH   2   4
TORSDOF 1
ENDMDL
MODEL 3
REMARK VINA RESULT:      -4.0     11.515     12.598
REMARK  1 active torsions:
REMARK  status: ('A' for Active; 'I' for Inactive)
REMARK    1  A    between atoms: C8_8  and  N10_10 
ROOT
HETATM    1  C1  UNL     1     -37.384  14.588  -5.454  1.00 20.00     0.089 C 
HETATM    2  C8  UNL     1     -36.309  15.438  -5.964  1.00 20.00     0.396 C 
HETATM    3  N9  UNL     1     -38.238  13.916  -5.051  1.00 20.00    -0.195 NA
ENDROOT
BRANCH   2   4
HETATM    4  N10 UNL     1     -35.009  14.841  -5.705  1.00 20.00     0.110 N 
HETATM    5  C5  UNL     1     -33.867  15.707  -6.118  1.00 20.00     0.283 C 
HETATM    6  C6  UNL     1     -32.936  15.628  -4.890  1.00 20.00     0.038 C 
HETATM    7  C2  UNL     1     -33.578  16.435  -3.785  1.00 20.00    -0.022 C 
HETATM    8  C4  UNL     1     -33.257  14.227  -4.377  1.00 20.00     0.050 C 
HETATM    9  C3  UNL     1     -34.684  15.771  -3.419  1.00 20.00     0.005 C 
HETATM   10  C7  UNL     1     -34.754  14.525  -4.277  1.00 20.00     0.247 C 
ENDBRANCH   2   4
TORSDOF 1
ENDMDL
MODEL 4
REMARK VINA RESULT:      -4.0     11.558     12.444
REMARK  1 active torsions:
REMARK  status: ('A' for Active; 'I' for Inactive)
REMARK    1  A    between atoms: C8_8  and  N10_10 
ROOT
HETATM    1  C1  UNL     1     -35.896  13.944  -5.011  1.00 20.00     0.089 C 
HETATM    2  C8  UNL     1     -35.946  15.362  -4.659  1.00 20.00     0.396 C 
HETATM    3  N9  UNL     1     -35.858  12.820  -5.293  1.00 20.00    -0.195 NA
ENDROOT
BRANCH   2   4
HETATM    4  N10 UNL     1     -35.288  15.604  -3.385  1.00 20.00     0.110 N 
HETATM    5  C5  UNL     1     -33.825  15.862  -3.514  1.00 20.00     0.283 C 
HETATM    6  C6  UNL     1     -33.631  17.099  -2.613  1.00 20.00     0.038 C 
HETATM    7  C2  UNL     1     -34.238  18.281  -3.332  1.00 20.00    -0.022 C 
HETATM    8  C4  UNL     1     -34.723  16.870  -1.571  1.00 20.00     0.050 C 
HETATM    9  C3  UNL     1     -35.564  18.077  -3.352  1.00 20.00     0.005 C 
HETATM   10  C7  UNL     1     -35.819  16.769  -2.634  1.00 20.00     0.247 C 
ENDBRANCH   2   4
TORSDOF 1
ENDMDL
MODEL 5
REMARK VINA RESULT:      -4.0      0.936      1.879
REMARK  1 active torsions:
REMARK  status: ('A' for Active; 'I' for Inactive)
REMARK    1  A    between atoms: C8_8  and  N10_10 
ROOT
HETATM    1  C1  UNL     1     -32.058   8.464   1.914  1.00 20.00     0.089 C 
HETATM    2  C8  UNL     1     -32.892   8.388   3.112  1.00 20.00     0.396 C 
HETATM    3  N9  UNL     1     -31.398   8.529   0.963  1.00 20.00    -0.195 NA
ENDROOT
BRANCH   2   4
HETATM    4  N10 UNL     1     -32.848   7.054   3.690  1.00 20.00     0.110 N 
HETATM    5  C5  UNL     1     -33.586   6.944   4.981  1.00 20.00     0.283 C 
HETATM    6  C6  UNL     1     -34.402   5.650   4.782  1.00 20.00     0.038 C 
HETATM    7  C2  UNL     1     -35.506   5.960   3.797  1.00 20.00    -0.022 C 
HETATM    8  C4  UNL     1     -33.474   4.866   3.858  1.00 20.00     0.050 C 
HETATM    9  C3  UNL     1     -34.913   6.176   2.614  1.00 20.00     0.005 C 
HETATM   10  C7  UNL     1     -33.424   5.995   2.826  1.00 20.00     0.247 C 
ENDBRANCH   2   4
TORSDOF 1
ENDMDL
MODEL 6
REMARK VINA RESULT:      -3.9     11.221     12.458
REMARK  1 active torsions:
REMARK  status: ('A' for Active; 'I' for Inactive)
REMARK    1  A    between atoms: C8_8  and  N10_10 
ROOT
HETATM    1  C1  UNL     1     -35.726  13.292  -6.087  1.00 20.00     0.089 C 
HETATM    2  C8  UNL     1     -36.482  14.272  -5.309  1.00 20.00     0.396 C 
HETATM    3  N9  UNL     1     -35.130  12.514  -6.706  1.00 20.00    -0.195 NA
ENDROOT
BRANCH   2   4
HETATM    4  N10 UNL     1     -35.675  14.805  -4.222  1.00 20.00     0.110 N 
HETATM    5  C5  UNL     1     -34.318  14.193  -4.139  1.00 20.00     0.283 C 
HETATM    6  C6  UNL     1     -33.411  15.429  -3.968  1.00 20.00     0.038 C 
HETATM    7  C2  UNL     1     -33.368  16.144  -5.299  1.00 20.00    -0.022 C 
HETATM    8  C4  UNL     1     -34.351  16.373  -3.223  1.00 20.00     0.050 C 
HETATM    9  C3  UNL     1     -34.595  16.645  -5.505  1.00 20.00     0.005 C 
HETATM   10  C7  UNL     1     -35.433  16.267  -4.301  1.00 20.00     0.247 C 
ENDBRANCH   2   4
TORSDOF 1
ENDMDL
MODEL 7
REMARK VINA RESULT:      -3.8     11.785     12.847
REMARK  1 active torsions:
REMARK  status: ('A' for Active; 'I' for Inactive)
REMARK    1  A    between atoms: C8_8  and  N10_10 
ROOT
HETATM    1  C1  UNL     1     -37.270  14.010  -5.275  1.00 20.00     0.089 C 
HETATM    2  C8  UNL     1     -35.910  13.754  -5.744  1.00 20.00     0.396 C 
HETATM    3  N9  UNL     1     -38.350  14.209  -4.901  1.00 20.00    -0.195 NA
ENDROOT
BRANCH   2   4
HETATM    4  N10 UNL     1     -35.203  15.002  -5.988  1.00 20.00     0.110 N 
HETATM    5  C5  UNL     1     -35.632  16.110  -5.088  1.00 20.00     0.283 C 
HETATM    6  C6  UNL     1     -34.283  16.699  -4.626  1.00 20.00     0.038 C 
HETATM    7  C2  UNL     1     -33.667  15.711  -3.661  1.00 20.00    -0.022 C 
HETATM    8  C4  UNL     1     -33.412  16.410  -5.846  1.00 20.00     0.050 C 
HETATM    9  C3  UNL     1     -33.340  14.627  -4.379  1.00 20.00     0.005 C 
HETATM   10  C7  UNL     1     -33.731  14.914  -5.814  1.00 20.00     0.247 C 
ENDBRANCH   2   4
TORSDOF 1
ENDMDL
MODEL 8
REMARK VINA RESULT:      -3.8     12.005     13.049
REMARK  1 active torsions:
REMARK  status: ('A' for Active; 'I' for Inactive)
REMARK    1  A    between atoms: C8_8  and  N10_10 
ROOT
HETATM    1  C1  UNL     1     -37.289  14.642  -5.502  1.00 20.00     0.089 C 
HETATM    2  C8  UNL     1     -36.249  15.467  -6.114  1.00 20.00     0.396 C 
HETATM    3  N9  UNL     1     -38.115  13.986  -5.020  1.00 20.00    -0.195 NA
ENDROOT
BRANCH   2   4
HETATM    4  N10 UNL     1     -35.530  16.228  -5.104  1.00 20.00     0.110 N 
HETATM    5  C5  UNL     1     -35.209  15.434  -3.884  1.00 20.00     0.283 C 
HETATM    6  C6  UNL     1     -33.726  15.787  -3.645  1.00 20.00     0.038 C 
HETATM    7  C2  UNL     1     -32.918  15.087  -4.714  1.00 20.00    -0.022 C 
HETATM    8  C4  UNL     1     -33.676  17.207  -4.203  1.00 20.00     0.050 C 
HETATM    9  C3  UNL     1     -33.228  15.679  -5.877  1.00 20.00     0.005 C 
HETATM   10  C7  UNL     1     -34.228  16.773  -5.562  1.00 20.00     0.247 C 
ENDBRANCH   2   4
TORSDOF 1
ENDMDL
MODEL 9
REMARK VINA RESULT:      -3.7     11.501     12.359
REMARK  1 active torsions:
REMARK  status: ('A' for Active; 'I' for Inactive)
REMARK    1  A    between atoms: C8_8  and  N10_10 
ROOT
HETATM    1  C1  UNL     1     -35.526  16.843  -1.732  1.00 20.00     0.089 C 
HETATM    2  C8  UNL     1     -35.742  16.435  -3.119  1.00 20.00     0.396 C 
HETATM    3  N9  UNL     1     -35.358  17.169  -0.632  1.00 20.00    -0.195 NA
ENDROOT
BRANCH   2   4
HETATM    4  N10 UNL     1     -34.846  15.349  -3.485  1.00 20.00     0.110 N 
HETATM    5  C5  UNL     1     -35.319  14.563  -4.661  1.00 20.00     0.283 C 
HETATM    6  C6  UNL     1     -34.040  14.455  -5.518  1.00 20.00     0.038 C 
HETATM    7  C2  UNL     1     -33.783  15.819  -6.116  1.00 20.00    -0.022 C 
HETATM    8  C4  UNL     1     -32.966  14.467  -4.433  1.00 20.00     0.050 C 
HETATM    9  C3  UNL     1     -33.446  16.626  -5.099  1.00 20.00     0.005 C 
HETATM   10  C7  UNL     1     -33.472  15.784  -3.841  1.00 20.00     0.247 C 
ENDBRANCH   2   4
TORSDOF 1
ENDMDL
