MODEL 1
REMARK VINA RESULT:      -3.7      0.000      0.000
REMARK  3 active torsions:
REMARK  status: ('A' for Active; 'I' for Inactive)
REMARK    1  A    between atoms: C2_2  and  N7_7 
REMARK    2  A    between atoms: C4_4  and  C5_5 
REMARK    3  A    between atoms: C5_5  and  N7_7 
ROOT
HETATM    1  C1  UNL     1     -32.412   9.432   1.429  1.00 20.00     0.060 C 
HETATM    2  C4  UNL     1     -32.128   8.041   1.818  1.00 20.00     0.143 C 
HETATM    3  N6  UNL     1     -32.635  10.527   1.120  1.00 20.00    -0.197 NA
ENDROOT
BRANCH   2   4
HETATM    4  C5  UNL     1     -32.451   7.783   3.285  1.00 20.00     0.138 C 
BRANCH   4   5
HETATM    5  N7  UNL     1     -33.231   6.551   3.440  1.00 20.00    -0.366 N 
HETATM    6  C3  UNL     1     -33.103   5.579   2.351  1.00 20.00     0.151 C 
BRANCH   5   7
HETATM    7  C2  UNL     1     -33.863   6.238   4.617  1.00 20.00     0.167 C 
HETATM    8  S8  UNL     1     -34.739   4.760   4.811  1.00 20.00    -0.048 SA
HETATM    9  S9  UNL     1     -33.817   7.303   5.980  1.00 20.00    -0.048 SA
ENDBRANCH   5   7
ENDBRANCH   4   5
ENDBRANCH   2   4
TORSDOF 3
ENDMDL
MODEL 2
REMARK VINA RESULT:      -3.7      1.370      2.167
REMARK  3 active torsions:
REMARK  status: ('A' for Active; 'I' for Inactive)
REMARK    1  A    between atoms: C2_2  and  N7_7 
REMARK    2  A    between atoms: C4_4  and  C5_5 
REMARK    3  A    between atoms: C5_5  and  N7_7 
ROOT
HETATM    1  C1  UNL     1     -32.792   9.216   0.154  1.00 20.00     0.060 C 
HETATM    2  C4  UNL     1     -32.057   8.754   1.342  1.00 20.00     0.143 C 
HETATM    3  N6  UNL     1     -33.369   9.582  -0.783  1.00 20.00    -0.197 NA
ENDROOT
BRANCH   2   4
HETATM    4  C5  UNL     1     -32.680   7.501   1.947  1.00 20.00     0.138 C 
BRANCH   4   5
HETATM    5  N7  UNL     1     -32.584   7.524   3.409  1.00 20.00    -0.366 N 
HETATM    6  C3  UNL     1     -31.521   8.367   3.962  1.00 20.00     0.151 C 
BRANCH   5   7
HETATM    7  C2  UNL     1     -33.553   6.966   4.206  1.00 20.00     0.167 C 
HETATM    8  S8  UNL     1     -33.670   7.345   5.889  1.00 20.00    -0.048 SA
HETATM    9  S9  UNL     1     -34.718   5.856   3.573  1.00 20.00    -0.048 SA
ENDBRANCH   5   7
ENDBRANCH   4   5
ENDBRANCH   2   4
TORSDOF 3
ENDMDL
MODEL 3
REMARK VINA RESULT:      -3.3     10.723     11.458
REMARK  3 active torsions:
REMARK  status: ('A' for Active; 'I' for Inactive)
REMARK    1  A    between atoms: C2_2  and  N7_7 
REMARK    2  A    between atoms: C4_4  and  C5_5 
REMARK    3  A    between atoms: C5_5  and  N7_7 
ROOT
HETATM    1  C1  UNL     1     -35.216  13.711  -4.739  1.00 20.00     0.060 C 
HETATM    2  C4  UNL     1     -34.301  14.682  -4.119  1.00 20.00     0.143 C 
HETATM    3  N6  UNL     1     -35.935  12.943  -5.229  1.00 20.00    -0.197 NA
ENDROOT
BRANCH   2   4
HETATM    4  C5  UNL     1     -35.052  15.744  -3.323  1.00 20.00     0.138 C 
BRANCH   4   5
HETATM    5  N7  UNL     1     -34.179  16.881  -3.017  1.00 20.00    -0.366 N 
HETATM    6  C3  UNL     1     -33.548  17.526  -4.172  1.00 20.00     0.151 C 
BRANCH   5   7
HETATM    7  C2  UNL     1     -34.128  17.436  -1.762  1.00 20.00     0.167 C 
HETATM    8  S8  UNL     1     -35.469  17.341  -0.674  1.00 20.00    -0.048 SA
HETATM    9  S9  UNL     1     -32.718  18.258  -1.192  1.00 20.00    -0.048 SA
ENDBRANCH   5   7
ENDBRANCH   4   5
ENDBRANCH   2   4
TORSDOF 3
ENDMDL
MODEL 4
REMARK VINA RESULT:      -3.3      1.456      2.122
REMARK  3 active torsions:
REMARK  status: ('A' for Active; 'I' for Inactive)
REMARK    1  A    between atoms: C2_2  and  N7_7 
REMARK    2  A    between atoms: C4_4  and  C5_5 
REMARK    3  A    between atoms: C5_5  and  N7_7 
ROOT
HETATM    1  C1  UNL     1     -31.869   8.714   1.502  1.00 20.00     0.060 C 
HETATM    2  C4  UNL     1     -31.995   8.164   2.860  1.00 20.00     0.143 C 
HETATM    3  N6  UNL     1     -31.765   9.147   0.430  1.00 20.00    -0.197 NA
ENDROOT
BRANCH   2   4
HETATM    4  C5  UNL     1     -33.450   7.904   3.236  1.00 20.00     0.138 C 
BRANCH   4   5
HETATM    5  N7  UNL     1     -33.543   6.915   4.314  1.00 20.00    -0.366 N 
HETATM    6  C3  UNL     1     -33.569   7.458   5.674  1.00 20.00     0.151 C 
BRANCH   5   7
HETATM    7  C2  UNL     1     -33.802   5.591   4.059  1.00 20.00     0.167 C 
HETATM    8  S8  UNL     1     -34.734   4.624   5.148  1.00 20.00    -0.048 SA
HETATM    9  S9  UNL     1     -33.217   4.813   2.629  1.00 20.00    -0.048 SA
ENDBRANCH   5   7
ENDBRANCH   4   5
ENDBRANCH   2   4
TORSDOF 3
ENDMDL
MODEL 5
REMARK VINA RESULT:      -3.3     10.846     11.583
REMARK  3 active torsions:
REMARK  status: ('A' for Active; 'I' for Inactive)
REMARK    1  A    between atoms: C2_2  and  N7_7 
REMARK    2  A    between atoms: C4_4  and  C5_5 
REMARK    3  A    between atoms: C5_5  and  N7_7 
ROOT
HETATM    1  C1  UNL     1     -36.700  13.918  -5.204  1.00 20.00     0.060 C 
HETATM    2  C4  UNL     1     -35.240  13.929  -5.382  1.00 20.00     0.143 C 
HETATM    3  N6  UNL     1     -37.852  13.908  -5.067  1.00 20.00    -0.197 NA
ENDROOT
BRANCH   2   4
HETATM    4  C5  UNL     1     -34.510  14.253  -4.082  1.00 20.00     0.138 C 
BRANCH   4   5
HETATM    5  N7  UNL     1     -34.078  15.654  -4.061  1.00 20.00    -0.366 N 
HETATM    6  C3  UNL     1     -33.281  16.090  -5.211  1.00 20.00     0.151 C 
BRANCH   5   7
HETATM    7  C2  UNL     1     -34.566  16.547  -3.139  1.00 20.00     0.167 C 
HETATM    8  S8  UNL     1     -36.240  16.980  -3.095  1.00 20.00    -0.048 SA
HETATM    9  S9  UNL     1     -33.537  17.287  -1.963  1.00 20.00    -0.048 SA
ENDBRANCH   5   7
ENDBRANCH   4   5
ENDBRANCH   2   4
TORSDOF 3
ENDMDL
MODEL 6
REMARK VINA RESULT:      -3.3     11.515     12.672
REMARK  3 active torsions:
REMARK  status: ('A' for Active; 'I' for Inactive)
REMARK    1  A    between atoms: C2_2  and  N7_7 
REMARK    2  A    between atoms: C4_4  and  C5_5 
REMARK    3  A    between atoms: C5_5  and  N7_7 
ROOT
HETATM    1  C1  UNL     1     -35.243  13.678  -4.724  1.00 20.00     0.060 C 
HETATM    2  C4  UNL     1     -34.372  14.633  -4.021  1.00 20.00     0.143 C 
HETATM    3  N6  UNL     1     -35.931  12.925  -5.276  1.00 20.00    -0.197 NA
ENDROOT
BRANCH   2   4
HETATM    4  C5  UNL     1     -33.273  15.177  -4.928  1.00 20.00     0.138 C 
BRANCH   4   5
HETATM    5  N7  UNL     1     -33.781  16.265  -5.769  1.00 20.00    -0.366 N 
HETATM    6  C3  UNL     1     -33.802  15.997  -7.209  1.00 20.00     0.151 C 
BRANCH   5   7
HETATM    7  C2  UNL     1     -34.392  17.370  -5.230  1.00 20.00     0.167 C 
HETATM    8  S8  UNL     1     -33.532  18.476  -4.215  1.00 20.00    -0.048 SA
HETATM    9  S9  UNL     1     -36.056  17.725  -5.538  1.00 20.00    -0.048 SA
ENDBRANCH   5   7
ENDBRANCH   4   5
ENDBRANCH   2   4
TORSDOF 3
ENDMDL
MODEL 7
REMARK VINA RESULT:      -3.3     11.516     12.625
REMARK  3 active torsions:
REMARK  status: ('A' for Active; 'I' for Inactive)
REMARK    1  A    between atoms: C2_2  and  N7_7 
REMARK    2  A    between atoms: C4_4  and  C5_5 
REMARK    3  A    between atoms: C5_5  and  N7_7 
ROOT
HETATM    1  C1  UNL     1     -35.246  13.680  -4.724  1.00 20.00     0.060 C 
HETATM    2  C4  UNL     1     -34.383  14.641  -4.021  1.00 20.00     0.143 C 
HETATM    3  N6  UNL     1     -35.929  12.922  -5.277  1.00 20.00    -0.197 NA
ENDROOT
BRANCH   2   4
HETATM    4  C5  UNL     1     -33.274  15.176  -4.921  1.00 20.00     0.138 C 
BRANCH   4   5
HETATM    5  N7  UNL     1     -33.771  16.262  -5.772  1.00 20.00    -0.366 N 
HETATM    6  C3  UNL     1     -33.780  15.986  -7.211  1.00 20.00     0.151 C 
BRANCH   5   7
HETATM    7  C2  UNL     1     -34.382  17.372  -5.244  1.00 20.00     0.167 C 
HETATM    8  S8  UNL     1     -36.041  17.733  -5.569  1.00 20.00    -0.048 SA
HETATM    9  S9  UNL     1     -33.530  18.472  -4.217  1.00 20.00    -0.048 SA
ENDBRANCH   5   7
ENDBRANCH   4   5
ENDBRANCH   2   4
TORSDOF 3
ENDMDL
MODEL 8
REMARK VINA RESULT:      -3.2     11.231     11.690
REMARK  3 active torsions:
REMARK  status: ('A' for Active; 'I' for Inactive)
REMARK    1  A    between atoms: C2_2  and  N7_7 
REMARK    2  A    between atoms: C4_4  and  C5_5 
REMARK    3  A    between atoms: C5_5  and  N7_7 
ROOT
HETATM    1  C1  UNL     1     -33.017  17.807  -1.501  1.00 20.00     0.060 C 
HETATM    2  C4  UNL     1     -34.128  16.961  -1.962  1.00 20.00     0.143 C 
HETATM    3  N6  UNL     1     -32.142  18.476  -1.134  1.00 20.00    -0.197 NA
ENDROOT
BRANCH   2   4
HETATM    4  C5  UNL     1     -33.771  16.194  -3.231  1.00 20.00     0.138 C 
BRANCH   4   5
HETATM    5  N7  UNL     1     -34.979  15.714  -3.909  1.00 20.00    -0.366 N 
HETATM    6  C3  UNL     1     -36.246  16.249  -3.402  1.00 20.00     0.151 C 
BRANCH   5   7
HETATM    7  C2  UNL     1     -34.915  14.986  -5.071  1.00 20.00     0.167 C 
HETATM    8  S8  UNL     1     -35.933  13.614  -5.338  1.00 20.00    -0.048 SA
HETATM    9  S9  UNL     1     -33.815  15.402  -6.340  1.00 20.00    -0.048 SA
ENDBRANCH   5   7
ENDBRANCH   4   5
ENDBRANCH   2   4
TORSDOF 3
ENDMDL
MODEL 9
REMARK VINA RESULT:      -3.2     11.638     12.275
REMARK  3 active torsions:
REMARK  status: ('A' for Active; 'I' for Inactive)
REMARK    1  A    between atoms: C2_2  and  N7_7 
REMARK    2  A    between atoms: C4_4  and  C5_5 
REMARK    3  A    between atoms: C5_5  and  N7_7 
ROOT
HETATM    1  C1  UNL     1     -34.768  13.351  -7.202  1.00 20.00     0.060 C 
HETATM    2  C4  UNL     1     -34.329  14.671  -7.681  1.00 20.00     0.143 C 
HETATM    3  N6  UNL     1     -35.113  12.309  -6.825  1.00 20.00    -0.197 NA
ENDROOT
BRANCH   2   4
HETATM    4  C5  UNL     1     -34.915  15.804  -6.847  1.00 20.00     0.138 C 
BRANCH   4   5
HETATM    5  N7  UNL     1     -34.486  15.700  -5.449  1.00 20.00    -0.366 N 
HETATM    6  C3  UNL     1     -33.044  15.811  -5.217  1.00 20.00     0.151 C 
BRANCH   5   7
HETATM    7  C2  UNL     1     -35.388  15.713  -4.414  1.00 20.00     0.167 C 
HETATM    8  S8  UNL     1     -34.981  16.367  -2.866  1.00 20.00    -0.048 SA
HETATM    9  S9  UNL     1     -36.988  15.082  -4.598  1.00 20.00    -0.048 SA
ENDBRANCH   5   7
ENDBRANCH   4   5
ENDBRANCH   2   4
TORSDOF 3
ENDMDL
