MODEL 1
REMARK VINA RESULT:      -6.5      0.000      0.000
REMARK  1 active torsions:
REMARK  status: ('A' for Active; 'I' for Inactive)
REMARK    1  A    between atoms: C3_3  and  C7_7 
ROOT
HETATM    1  C1  UNL     1     -34.629   5.461   4.295  1.00 20.00    -0.030 C 
HETATM    2  C2  UNL     1     -34.084   5.660   3.085  1.00 20.00    -0.025 C 
HETATM    3  C4  UNL     1     -34.143   6.215   5.501  1.00 20.00     0.027 C 
HETATM    4  C5  UNL     1     -33.568   7.596   5.160  1.00 20.00     0.010 C 
HETATM    5  C6  UNL     1     -32.959   6.572   2.849  1.00 20.00     0.025 A 
HETATM    6  C7  UNL     1     -33.203   8.039   2.616  1.00 20.00     0.085 A 
HETATM    7  C8  UNL     1     -32.670   7.565   3.951  1.00 20.00     0.007 A 
ENDROOT
BRANCH   6   8
HETATM    8  C3  UNL     1     -32.308   8.780   1.718  1.00 20.00     0.224 C 
HETATM    9  O9  UNL     1     -31.314   8.257   1.223  1.00 20.00    -0.279 OA
HETATM   10 CL10 UNL     1     -32.834  10.418   1.474  1.00 20.00    -0.043 Cl
ENDBRANCH   6   8
TORSDOF 1
ENDMDL
MODEL 2
REMARK VINA RESULT:      -6.1      0.712      1.740
REMARK  1 active torsions:
REMARK  status: ('A' for Active; 'I' for Inactive)
REMARK    1  A    between atoms: C3_3  and  C7_7 
ROOT
HETATM    1  C1  UNL     1     -34.214   5.948   5.578  1.00 20.00    -0.030 C 
HETATM    2  C2  UNL     1     -33.857   7.189   5.210  1.00 20.00    -0.025 C 
HETATM    3  C4  UNL     1     -34.508   4.887   4.555  1.00 20.00     0.027 C 
HETATM    4  C5  UNL     1     -33.740   5.084   3.241  1.00 20.00     0.010 C 
HETATM    5  C6  UNL     1     -33.775   7.620   3.810  1.00 20.00     0.025 A 
HETATM    6  C7  UNL     1     -32.523   7.378   3.010  1.00 20.00     0.085 A 
HETATM    7  C8  UNL     1     -33.746   6.516   2.777  1.00 20.00     0.007 A 
ENDROOT
BRANCH   6   8
HETATM    8  C3  UNL     1     -32.135   8.348   1.978  1.00 20.00     0.224 C 
HETATM    9  O9  UNL     1     -31.190   8.143   1.222  1.00 20.00    -0.279 OA
HETATM   10 CL10 UNL     1     -33.155   9.755   1.985  1.00 20.00    -0.043 Cl
ENDBRANCH   6   8
TORSDOF 1
ENDMDL
MODEL 3
REMARK VINA RESULT:      -4.6     10.875     11.403
REMARK  1 active torsions:
REMARK  status: ('A' for Active; 'I' for Inactive)
REMARK    1  A    between atoms: C3_3  and  C7_7 
ROOT
HETATM    1  C1  UNL     1     -33.325  18.384  -0.060  1.00 20.00    -0.030 C 
HETATM    2  C2  UNL     1     -32.708  18.181  -1.234  1.00 20.00    -0.025 C 
HETATM    3  C4  UNL     1     -34.802  18.149   0.095  1.00 20.00     0.027 C 
HETATM    4  C5  UNL     1     -35.347  17.078  -0.860  1.00 20.00     0.010 C 
HETATM    5  C6  UNL     1     -33.414  17.772  -2.454  1.00 20.00     0.025 A 
HETATM    6  C7  UNL     1     -33.689  16.317  -2.723  1.00 20.00     0.085 A 
HETATM    7  C8  UNL     1     -34.809  17.224  -2.259  1.00 20.00     0.007 A 
ENDROOT
BRANCH   6   8
HETATM    8  C3  UNL     1     -33.698  15.835  -4.110  1.00 20.00     0.224 C 
HETATM    9  O9  UNL     1     -33.219  16.497  -5.027  1.00 20.00    -0.279 OA
HETATM   10 CL10 UNL     1     -34.445  14.273  -4.256  1.00 20.00    -0.043 Cl
ENDBRANCH   6   8
TORSDOF 1
ENDMDL
MODEL 4
REMARK VINA RESULT:      -4.4     10.902     11.419
REMARK  1 active torsions:
REMARK  status: ('A' for Active; 'I' for Inactive)
REMARK    1  A    between atoms: C3_3  and  C7_7 
ROOT
HETATM    1  C1  UNL     1     -35.924  16.720  -2.910  1.00 20.00    -0.030 C 
HETATM    2  C2  UNL     1     -36.490  15.865  -3.776  1.00 20.00    -0.025 C 
HETATM    3  C4  UNL     1     -34.494  16.557  -2.476  1.00 20.00     0.027 C 
HETATM    4  C5  UNL     1     -33.616  15.876  -3.534  1.00 20.00     0.010 C 
HETATM    5  C6  UNL     1     -35.794  14.695  -4.322  1.00 20.00     0.025 A 
HETATM    6  C7  UNL     1     -34.916  14.828  -5.537  1.00 20.00     0.085 A 
HETATM    7  C8  UNL     1     -34.290  14.686  -4.166  1.00 20.00     0.007 A 
ENDROOT
BRANCH   6   8
HETATM    8  C3  UNL     1     -34.820  13.705  -6.478  1.00 20.00     0.224 C 
HETATM    9  O9  UNL     1     -35.319  12.611  -6.230  1.00 20.00    -0.279 OA
HETATM   10 CL10 UNL     1     -33.944  14.130  -7.917  1.00 20.00    -0.043 Cl
ENDBRANCH   6   8
TORSDOF 1
ENDMDL
MODEL 5
REMARK VINA RESULT:      -4.4     10.826     11.378
REMARK  1 active torsions:
REMARK  status: ('A' for Active; 'I' for Inactive)
REMARK    1  A    between atoms: C3_3  and  C7_7 
ROOT
HETATM    1  C1  UNL     1     -33.334  18.298  -0.375  1.00 20.00    -0.030 C 
HETATM    2  C2  UNL     1     -32.812  17.994  -1.574  1.00 20.00    -0.025 C 
HETATM    3  C4  UNL     1     -34.800  18.119  -0.095  1.00 20.00     0.027 C 
HETATM    4  C5  UNL     1     -35.441  16.999  -0.926  1.00 20.00     0.010 C 
HETATM    5  C6  UNL     1     -33.618  17.520  -2.705  1.00 20.00     0.025 A 
HETATM    6  C7  UNL     1     -33.949  16.059  -2.846  1.00 20.00     0.085 A 
HETATM    7  C8  UNL     1     -35.008  17.029  -2.368  1.00 20.00     0.007 A 
ENDROOT
BRANCH   6   8
HETATM    8  C3  UNL     1     -34.074  15.480  -4.190  1.00 20.00     0.224 C 
HETATM    9  O9  UNL     1     -34.668  14.424  -4.385  1.00 20.00    -0.279 OA
HETATM   10 CL10 UNL     1     -33.298  16.458  -5.399  1.00 20.00    -0.043 Cl
ENDBRANCH   6   8
TORSDOF 1
ENDMDL
MODEL 6
REMARK VINA RESULT:      -4.3     10.748     11.348
REMARK  1 active torsions:
REMARK  status: ('A' for Active; 'I' for Inactive)
REMARK    1  A    between atoms: C3_3  and  C7_7 
ROOT
HETATM    1  C1  UNL     1     -34.000  17.124  -2.077  1.00 20.00    -0.030 C 
HETATM    2  C2  UNL     1     -33.469  16.329  -3.019  1.00 20.00    -0.025 C 
HETATM    3  C4  UNL     1     -35.445  17.535  -2.130  1.00 20.00     0.027 C 
HETATM    4  C5  UNL     1     -36.342  16.505  -2.830  1.00 20.00     0.010 C 
HETATM    5  C6  UNL     1     -34.222  15.845  -4.183  1.00 20.00     0.025 A 
HETATM    6  C7  UNL     1     -35.068  14.605  -4.081  1.00 20.00     0.085 A 
HETATM    7  C8  UNL     1     -35.726  15.968  -4.095  1.00 20.00     0.007 A 
ENDROOT
BRANCH   6   8
HETATM    8  C3  UNL     1     -35.211  13.738  -5.258  1.00 20.00     0.224 C 
HETATM    9  O9  UNL     1     -35.958  12.764  -5.255  1.00 20.00    -0.279 OA
HETATM   10 CL10 UNL     1     -34.221  14.266  -6.584  1.00 20.00    -0.043 Cl
ENDBRANCH   6   8
TORSDOF 1
ENDMDL
MODEL 7
REMARK VINA RESULT:      -4.3     10.616     11.596
REMARK  1 active torsions:
REMARK  status: ('A' for Active; 'I' for Inactive)
REMARK    1  A    between atoms: C3_3  and  C7_7 
ROOT
HETATM    1  C1  UNL     1     -33.793  15.217  -6.607  1.00 20.00    -0.030 C 
HETATM    2  C2  UNL     1     -33.325  16.083  -5.694  1.00 20.00    -0.025 C 
HETATM    3  C4  UNL     1     -34.537  13.977  -6.195  1.00 20.00     0.027 C 
HETATM    4  C5  UNL     1     -35.283  14.134  -4.863  1.00 20.00     0.010 C 
HETATM    5  C6  UNL     1     -33.450  15.872  -4.247  1.00 20.00     0.025 A 
HETATM    6  C7  UNL     1     -34.699  16.292  -3.521  1.00 20.00     0.085 A 
HETATM    7  C8  UNL     1     -34.454  14.827  -3.814  1.00 20.00     0.007 A 
ENDROOT
BRANCH   6   8
HETATM    8  C3  UNL     1     -34.597  16.763  -2.134  1.00 20.00     0.224 C 
HETATM    9  O9  UNL     1     -35.528  16.646  -1.342  1.00 20.00    -0.279 OA
HETATM   10 CL10 UNL     1     -33.047  17.472  -1.796  1.00 20.00    -0.043 Cl
ENDBRANCH   6   8
TORSDOF 1
ENDMDL
MODEL 8
REMARK VINA RESULT:      -4.3     10.906     11.461
REMARK  1 active torsions:
REMARK  status: ('A' for Active; 'I' for Inactive)
REMARK    1  A    between atoms: C3_3  and  C7_7 
ROOT
HETATM    1  C1  UNL     1     -35.162  18.164   0.042  1.00 20.00    -0.030 C 
HETATM    2  C2  UNL     1     -35.563  17.287  -0.892  1.00 20.00    -0.025 C 
HETATM    3  C4  UNL     1     -33.716  18.549   0.178  1.00 20.00     0.027 C 
HETATM    4  C5  UNL     1     -32.939  18.457  -1.141  1.00 20.00     0.010 C 
HETATM    5  C6  UNL     1     -34.638  16.606  -1.806  1.00 20.00     0.025 A 
HETATM    6  C7  UNL     1     -34.205  17.268  -3.086  1.00 20.00     0.085 A 
HETATM    7  C8  UNL     1     -33.253  17.201  -1.911  1.00 20.00     0.007 A 
ENDROOT
BRANCH   6   8
HETATM    8  C3  UNL     1     -33.934  16.437  -4.265  1.00 20.00     0.224 C 
HETATM    9  O9  UNL     1     -33.352  16.884  -5.250  1.00 20.00    -0.279 OA
HETATM   10 CL10 UNL     1     -34.525  14.814  -4.073  1.00 20.00    -0.043 Cl
ENDBRANCH   6   8
TORSDOF 1
ENDMDL
MODEL 9
REMARK VINA RESULT:      -4.3     10.639     11.589
REMARK  1 active torsions:
REMARK  status: ('A' for Active; 'I' for Inactive)
REMARK    1  A    between atoms: C3_3  and  C7_7 
ROOT
HETATM    1  C1  UNL     1     -34.516  14.055  -5.587  1.00 20.00    -0.030 C 
HETATM    2  C2  UNL     1     -34.886  14.274  -4.316  1.00 20.00    -0.025 C 
HETATM    3  C4  UNL     1     -34.045  15.180  -6.466  1.00 20.00     0.027 C 
HETATM    4  C5  UNL     1     -33.386  16.323  -5.682  1.00 20.00     0.010 C 
HETATM    5  C6  UNL     1     -34.911  15.607  -3.703  1.00 20.00     0.025 A 
HETATM    6  C7  UNL     1     -33.665  16.189  -3.093  1.00 20.00     0.085 A 
HETATM    7  C8  UNL     1     -34.151  16.688  -4.438  1.00 20.00     0.007 A 
ENDROOT
BRANCH   6   8
HETATM    8  C3  UNL     1     -33.784  17.072  -1.926  1.00 20.00     0.224 C 
HETATM    9  O9  UNL     1     -32.875  17.826  -1.591  1.00 20.00    -0.279 OA
HETATM   10 CL10 UNL     1     -35.319  16.901  -1.130  1.00 20.00    -0.043 Cl
ENDBRANCH   6   8
TORSDOF 1
ENDMDL
