MODEL 1
REMARK VINA RESULT:      -5.6      0.000      0.000
REMARK  2 active torsions:
REMARK  status: ('A' for Active; 'I' for Inactive)
REMARK    1  A    between atoms: C3_3  and  C6_6 
REMARK    2  A    between atoms: C3_3  and  O10_10 
ROOT
HETATM    1  C1  UNL     1     -34.441   4.934   4.211  1.00 20.00    -0.002 C 
HETATM    2  C2  UNL     1     -34.732   5.376   5.440  1.00 20.00     0.130 C 
HETATM    3  C4  UNL     1     -33.645   5.756   3.248  1.00 20.00     0.046 C 
HETATM    4  C5  UNL     1     -33.283   7.224   5.245  1.00 20.00     0.189 C 
HETATM    5  C6  UNL     1     -33.532   7.199   3.738  1.00 20.00     0.113 C 
HETATM    6  O9  UNL     1     -34.319   6.563   5.986  1.00 20.00    -0.362 OA
ENDROOT
BRANCH   5   7
HETATM    7  C3  UNL     1     -32.426   7.913   3.025  1.00 20.00     0.265 C 
HETATM    8  O8  UNL     1     -31.367   8.230   3.549  1.00 20.00    -0.265 OA
BRANCH   7   9
HETATM    9  O10 UNL     1     -32.791   8.142   1.733  1.00 20.00    -0.326 OA
HETATM   10  C7  UNL     1     -32.307   9.363   1.165  1.00 20.00     0.213 C 
ENDBRANCH   7   9
ENDBRANCH   5   7
TORSDOF 2
ENDMDL
MODEL 2
REMARK VINA RESULT:      -5.1      1.008      1.606
REMARK  2 active torsions:
REMARK  status: ('A' for Active; 'I' for Inactive)
REMARK    1  A    between atoms: C3_3  and  C6_6 
REMARK    2  A    between atoms: C3_3  and  O10_10 
ROOT
HETATM    1  C1  UNL     1     -34.399   6.264   5.747  1.00 20.00    -0.002 C 
HETATM    2  C2  UNL     1     -34.797   5.207   5.032  1.00 20.00     0.130 C 
HETATM    3  C4  UNL     1     -33.460   7.284   5.187  1.00 20.00     0.046 C 
HETATM    4  C5  UNL     1     -33.853   6.048   3.044  1.00 20.00     0.189 C 
HETATM    5  C6  UNL     1     -32.815   6.771   3.899  1.00 20.00     0.113 C 
HETATM    6  O9  UNL     1     -34.461   4.944   3.729  1.00 20.00    -0.362 OA
ENDROOT
BRANCH   5   7
HETATM    7  C3  UNL     1     -32.211   7.901   3.125  1.00 20.00     0.265 C 
HETATM    8  O8  UNL     1     -31.258   8.563   3.511  1.00 20.00    -0.265 OA
BRANCH   7   9
HETATM    9  O10 UNL     1     -32.886   8.060   1.951  1.00 20.00    -0.326 OA
HETATM   10  C7  UNL     1     -32.445   9.147   1.132  1.00 20.00     0.213 C 
ENDBRANCH   7   9
ENDBRANCH   5   7
TORSDOF 2
ENDMDL
MODEL 3
REMARK VINA RESULT:      -4.2     11.107     11.912
REMARK  2 active torsions:
REMARK  status: ('A' for Active; 'I' for Inactive)
REMARK    1  A    between atoms: C3_3  and  C6_6 
REMARK    2  A    between atoms: C3_3  and  O10_10 
ROOT
HETATM    1  C1  UNL     1     -35.276  16.576  -2.958  1.00 20.00    -0.002 C 
HETATM    2  C2  UNL     1     -33.951  16.409  -3.030  1.00 20.00     0.130 C 
HETATM    3  C4  UNL     1     -36.222  15.690  -3.705  1.00 20.00     0.046 C 
HETATM    4  C5  UNL     1     -34.152  14.355  -4.166  1.00 20.00     0.189 C 
HETATM    5  C6  UNL     1     -35.471  14.861  -4.747  1.00 20.00     0.113 C 
HETATM    6  O9  UNL     1     -33.301  15.421  -3.721  1.00 20.00    -0.362 OA
ENDROOT
BRANCH   5   7
HETATM    7  C3  UNL     1     -36.306  13.705  -5.203  1.00 20.00     0.265 C 
HETATM    8  O8  UNL     1     -37.514  13.623  -5.028  1.00 20.00    -0.265 OA
BRANCH   7   9
HETATM    9  O10 UNL     1     -35.513  12.788  -5.826  1.00 20.00    -0.326 OA
HETATM   10  C7  UNL     1     -35.274  13.026  -7.217  1.00 20.00     0.213 C 
ENDBRANCH   7   9
ENDBRANCH   5   7
TORSDOF 2
ENDMDL
MODEL 4
REMARK VINA RESULT:      -4.2     11.285     12.549
REMARK  2 active torsions:
REMARK  status: ('A' for Active; 'I' for Inactive)
REMARK    1  A    between atoms: C3_3  and  C6_6 
REMARK    2  A    between atoms: C3_3  and  O10_10 
ROOT
HETATM    1  C1  UNL     1     -33.677  16.005  -3.781  1.00 20.00    -0.002 C 
HETATM    2  C2  UNL     1     -33.295  16.617  -4.908  1.00 20.00     0.130 C 
HETATM    3  C4  UNL     1     -34.687  14.902  -3.790  1.00 20.00     0.046 C 
HETATM    4  C5  UNL     1     -34.404  15.051  -6.274  1.00 20.00     0.189 C 
HETATM    5  C6  UNL     1     -35.404  14.839  -5.139  1.00 20.00     0.113 C 
HETATM    6  O9  UNL     1     -33.713  16.304  -6.175  1.00 20.00    -0.362 OA
ENDROOT
BRANCH   5   7
HETATM    7  C3  UNL     1     -36.098  13.524  -5.307  1.00 20.00     0.265 C 
HETATM    8  O8  UNL     1     -35.555  12.513  -5.730  1.00 20.00    -0.265 OA
BRANCH   7   9
HETATM    9  O10 UNL     1     -37.399  13.643  -4.919  1.00 20.00    -0.326 OA
HETATM   10  C7  UNL     1     -38.108  14.752  -5.480  1.00 20.00     0.213 C 
ENDBRANCH   7   9
ENDBRANCH   5   7
TORSDOF 2
ENDMDL
MODEL 5
REMARK VINA RESULT:      -4.2     11.208     11.895
REMARK  2 active torsions:
REMARK  status: ('A' for Active; 'I' for Inactive)
REMARK    1  A    between atoms: C3_3  and  C6_6 
REMARK    2  A    between atoms: C3_3  and  O10_10 
ROOT
HETATM    1  C1  UNL     1     -33.674  16.516  -3.068  1.00 20.00    -0.002 C 
HETATM    2  C2  UNL     1     -34.809  16.971  -2.525  1.00 20.00     0.130 C 
HETATM    3  C4  UNL     1     -33.665  15.356  -4.013  1.00 20.00     0.046 C 
HETATM    4  C5  UNL     1     -36.154  15.632  -3.921  1.00 20.00     0.189 C 
HETATM    5  C6  UNL     1     -35.007  14.624  -3.978  1.00 20.00     0.113 C 
HETATM    6  O9  UNL     1     -36.069  16.499  -2.781  1.00 20.00    -0.362 OA
ENDROOT
BRANCH   5   7
HETATM    7  C3  UNL     1     -35.159  13.745  -5.180  1.00 20.00     0.265 C 
HETATM    8  O8  UNL     1     -35.922  12.790  -5.237  1.00 20.00    -0.265 OA
BRANCH   7   9
HETATM    9  O10 UNL     1     -34.327  14.177  -6.168  1.00 20.00    -0.326 OA
HETATM   10  C7  UNL     1     -34.553  13.599  -7.458  1.00 20.00     0.213 C 
ENDBRANCH   7   9
ENDBRANCH   5   7
TORSDOF 2
ENDMDL
MODEL 6
REMARK VINA RESULT:      -4.2      1.275      4.214
REMARK  2 active torsions:
REMARK  status: ('A' for Active; 'I' for Inactive)
REMARK    1  A    between atoms: C3_3  and  C6_6 
REMARK    2  A    between atoms: C3_3  and  O10_10 
ROOT
HETATM    1  C1  UNL     1     -31.531   8.514   3.255  1.00 20.00    -0.002 C 
HETATM    2  C2  UNL     1     -31.900   8.362   1.979  1.00 20.00     0.130 C 
HETATM    3  C4  UNL     1     -32.303   7.895   4.376  1.00 20.00     0.046 C 
HETATM    4  C5  UNL     1     -33.513   6.730   2.517  1.00 20.00     0.189 C 
HETATM    5  C6  UNL     1     -33.662   7.398   3.883  1.00 20.00     0.113 C 
HETATM    6  O9  UNL     1     -32.955   7.611   1.531  1.00 20.00    -0.362 OA
ENDROOT
BRANCH   5   7
HETATM    7  C3  UNL     1     -34.258   6.434   4.860  1.00 20.00     0.265 C 
HETATM    8  O8  UNL     1     -34.229   6.584   6.074  1.00 20.00    -0.265 OA
BRANCH   7   9
HETATM    9  O10 UNL     1     -34.822   5.392   4.187  1.00 20.00    -0.326 OA
HETATM   10  C7  UNL     1     -34.426   4.089   4.628  1.00 20.00     0.213 C 
ENDBRANCH   7   9
ENDBRANCH   5   7
TORSDOF 2
ENDMDL
MODEL 7
REMARK VINA RESULT:      -4.1      1.264      3.971
REMARK  2 active torsions:
REMARK  status: ('A' for Active; 'I' for Inactive)
REMARK    1  A    between atoms: C3_3  and  C6_6 
REMARK    2  A    between atoms: C3_3  and  O10_10 
ROOT
HETATM    1  C1  UNL     1     -32.834   8.004   1.777  1.00 20.00    -0.002 C 
HETATM    2  C2  UNL     1     -31.695   8.520   2.252  1.00 20.00     0.130 C 
HETATM    3  C4  UNL     1     -33.779   7.244   2.652  1.00 20.00     0.046 C 
HETATM    4  C5  UNL     1     -32.286   8.068   4.488  1.00 20.00     0.189 C 
HETATM    5  C6  UNL     1     -33.111   6.887   3.981  1.00 20.00     0.113 C 
HETATM    6  O9  UNL     1     -31.274   8.475   3.555  1.00 20.00    -0.362 OA
ENDROOT
BRANCH   5   7
HETATM    7  C3  UNL     1     -34.137   6.504   5.001  1.00 20.00     0.265 C 
HETATM    8  O8  UNL     1     -34.205   6.994   6.119  1.00 20.00    -0.265 OA
BRANCH   7   9
HETATM    9  O10 UNL     1     -34.957   5.546   4.485  1.00 20.00    -0.326 OA
HETATM   10  C7  UNL     1     -34.444   4.210   4.528  1.00 20.00     0.213 C 
ENDBRANCH   7   9
ENDBRANCH   5   7
TORSDOF 2
ENDMDL
MODEL 8
REMARK VINA RESULT:      -3.8     10.854     12.383
REMARK  2 active torsions:
REMARK  status: ('A' for Active; 'I' for Inactive)
REMARK    1  A    between atoms: C3_3  and  C6_6 
REMARK    2  A    between atoms: C3_3  and  O10_10 
ROOT
HETATM    1  C1  UNL     1     -34.447  17.628  -2.995  1.00 20.00    -0.002 C 
HETATM    2  C2  UNL     1     -34.077  18.310  -4.085  1.00 20.00     0.130 C 
HETATM    3  C4  UNL     1     -34.457  16.133  -2.969  1.00 20.00     0.046 C 
HETATM    4  C5  UNL     1     -33.294  16.374  -5.175  1.00 20.00     0.189 C 
HETATM    5  C6  UNL     1     -34.324  15.570  -4.384  1.00 20.00     0.113 C 
HETATM    6  O9  UNL     1     -33.628  17.766  -5.259  1.00 20.00    -0.362 OA
ENDROOT
BRANCH   5   7
HETATM    7  C3  UNL     1     -33.926  14.128  -4.343  1.00 20.00     0.265 C 
HETATM    8  O8  UNL     1     -32.768  13.740  -4.275  1.00 20.00    -0.265 OA
BRANCH   7   9
HETATM    9  O10 UNL     1     -35.040  13.346  -4.393  1.00 20.00    -0.326 OA
HETATM   10  C7  UNL     1     -35.911  13.588  -5.503  1.00 20.00     0.213 C 
ENDBRANCH   7   9
ENDBRANCH   5   7
TORSDOF 2
ENDMDL
MODEL 9
REMARK VINA RESULT:      -3.8     11.214     12.290
REMARK  2 active torsions:
REMARK  status: ('A' for Active; 'I' for Inactive)
REMARK    1  A    between atoms: C3_3  and  C6_6 
REMARK    2  A    between atoms: C3_3  and  O10_10 
ROOT
HETATM    1  C1  UNL     1     -34.446  13.832  -7.425  1.00 20.00    -0.002 C 
HETATM    2  C2  UNL     1     -35.240  12.916  -6.859  1.00 20.00     0.130 C 
HETATM    3  C4  UNL     1     -33.977  15.037  -6.674  1.00 20.00     0.046 C 
HETATM    4  C5  UNL     1     -34.987  13.851  -4.712  1.00 20.00     0.189 C 
HETATM    5  C6  UNL     1     -34.773  15.208  -5.380  1.00 20.00     0.113 C 
HETATM    6  O9  UNL     1     -35.674  12.921  -5.560  1.00 20.00    -0.362 OA
ENDROOT
BRANCH   5   7
HETATM    7  C3  UNL     1     -34.064  16.134  -4.442  1.00 20.00     0.265 C 
HETATM    8  O8  UNL     1     -33.311  17.028  -4.802  1.00 20.00    -0.265 OA
BRANCH   7   9
HETATM    9  O10 UNL     1     -34.392  15.819  -3.157  1.00 20.00    -0.326 OA
HETATM   10  C7  UNL     1     -34.087  16.822  -2.182  1.00 20.00     0.213 C 
ENDBRANCH   7   9
ENDBRANCH   5   7
TORSDOF 2
ENDMDL
