MODEL 1
REMARK VINA RESULT:      -6.0      0.000      0.000
REMARK  2 active torsions:
REMARK  status: ('A' for Active; 'I' for Inactive)
REMARK    1  A    between atoms: C2_2  and  C5_5 
REMARK    2  A    between atoms: C4_4  and  C8_8 
ROOT
HETATM    1  C1  UNL     1     -32.770   5.757   2.607  1.00 20.00    -0.015 C 
HETATM    2  C2  UNL     1     -32.925   7.013   3.036  1.00 20.00    -0.009 C 
HETATM    3  C6  UNL     1     -33.837   4.870   3.157  1.00 20.00     0.028 C 
HETATM    4  C7  UNL     1     -34.866   5.871   3.697  1.00 20.00     0.017 C 
HETATM    5  C8  UNL     1     -34.108   7.189   3.932  1.00 20.00     0.044 C 
ENDROOT
BRANCH   2   6
HETATM    6  C5  UNL     1     -32.029   8.090   2.645  1.00 20.00     0.152 C 
HETATM    7  C9  UNL     1     -32.299   8.816   1.345  1.00 20.00     0.096 C 
HETATM    8  O10 UNL     1     -31.062   8.406   3.352  1.00 20.00    -0.293 OA
ENDBRANCH   2   6
BRANCH   5   9
HETATM    9  C4  UNL     1     -33.724   7.370   5.366  1.00 20.00    -0.027 C 
HETATM   10  C3  UNL     1     -34.185   6.613   6.366  1.00 20.00     0.007 C 
ENDBRANCH   5   9
TORSDOF 2
ENDMDL
MODEL 2
REMARK VINA RESULT:      -4.8      1.724      3.664
REMARK  2 active torsions:
REMARK  status: ('A' for Active; 'I' for Inactive)
REMARK    1  A    between atoms: C2_2  and  C5_5 
REMARK    2  A    between atoms: C4_4  and  C8_8 
ROOT
HETATM    1  C1  UNL     1     -32.141   7.844   4.275  1.00 20.00    -0.015 C 
HETATM    2  C2  UNL     1     -33.339   7.255   4.306  1.00 20.00    -0.009 C 
HETATM    3  C6  UNL     1     -31.735   8.153   2.872  1.00 20.00     0.028 C 
HETATM    4  C7  UNL     1     -33.044   7.979   2.093  1.00 20.00     0.017 C 
HETATM    5  C8  UNL     1     -33.942   7.071   2.951  1.00 20.00     0.044 C 
ENDROOT
BRANCH   2   6
HETATM    6  C5  UNL     1     -33.983   6.854   5.547  1.00 20.00     0.152 C 
HETATM    7  C9  UNL     1     -34.598   5.473   5.626  1.00 20.00     0.096 C 
HETATM    8  O10 UNL     1     -34.037   7.623   6.517  1.00 20.00    -0.293 OA
ENDBRANCH   2   6
BRANCH   5   9
HETATM    9  C4  UNL     1     -33.908   5.648   2.493  1.00 20.00    -0.027 C 
HETATM   10  C3  UNL     1     -32.846   4.847   2.617  1.00 20.00     0.007 C 
ENDBRANCH   5   9
TORSDOF 2
ENDMDL
MODEL 3
REMARK VINA RESULT:      -4.7      1.783      3.216
REMARK  2 active torsions:
REMARK  status: ('A' for Active; 'I' for Inactive)
REMARK    1  A    between atoms: C2_2  and  C5_5 
REMARK    2  A    between atoms: C4_4  and  C8_8 
ROOT
HETATM    1  C1  UNL     1     -33.022   7.766   1.807  1.00 20.00    -0.015 C 
HETATM    2  C2  UNL     1     -33.066   6.973   2.881  1.00 20.00    -0.009 C 
HETATM    3  C6  UNL     1     -32.143   8.947   2.052  1.00 20.00     0.028 C 
HETATM    4  C7  UNL     1     -31.381   8.547   3.321  1.00 20.00     0.017 C 
HETATM    5  C8  UNL     1     -32.233   7.472   4.017  1.00 20.00     0.044 C 
ENDROOT
BRANCH   2   6
HETATM    6  C5  UNL     1     -33.842   5.743   2.916  1.00 20.00     0.152 C 
HETATM    7  C9  UNL     1     -33.146   4.444   2.571  1.00 20.00     0.096 C 
HETATM    8  O10 UNL     1     -35.044   5.753   3.212  1.00 20.00    -0.293 OA
ENDBRANCH   2   6
BRANCH   5   9
HETATM    9  C4  UNL     1     -33.055   8.037   5.131  1.00 20.00    -0.027 C 
HETATM   10  C3  UNL     1     -33.726   7.295   6.017  1.00 20.00     0.007 C 
ENDBRANCH   5   9
TORSDOF 2
ENDMDL
MODEL 4
REMARK VINA RESULT:      -4.5      2.074      3.771
REMARK  2 active torsions:
REMARK  status: ('A' for Active; 'I' for Inactive)
REMARK    1  A    between atoms: C2_2  and  C5_5 
REMARK    2  A    between atoms: C4_4  and  C8_8 
ROOT
HETATM    1  C1  UNL     1     -33.997   5.995   5.700  1.00 20.00    -0.015 C 
HETATM    2  C2  UNL     1     -33.853   5.864   4.378  1.00 20.00    -0.009 C 
HETATM    3  C6  UNL     1     -33.936   7.431   6.104  1.00 20.00     0.028 C 
HETATM    4  C7  UNL     1     -34.091   8.167   4.768  1.00 20.00     0.017 C 
HETATM    5  C8  UNL     1     -33.676   7.169   3.672  1.00 20.00     0.044 C 
ENDROOT
BRANCH   2   6
HETATM    6  C5  UNL     1     -33.883   4.572   3.711  1.00 20.00     0.152 C 
HETATM    7  C9  UNL     1     -33.188   4.437   2.372  1.00 20.00     0.096 C 
HETATM    8  O10 UNL     1     -34.468   3.604   4.216  1.00 20.00    -0.293 OA
ENDBRANCH   2   6
BRANCH   5   9
HETATM    9  C4  UNL     1     -32.271   7.391   3.211  1.00 20.00    -0.027 C 
HETATM   10  C3  UNL     1     -31.913   8.325   2.324  1.00 20.00     0.007 C 
ENDBRANCH   5   9
TORSDOF 2
ENDMDL
MODEL 5
REMARK VINA RESULT:      -4.5     11.339     12.159
REMARK  2 active torsions:
REMARK  status: ('A' for Active; 'I' for Inactive)
REMARK    1  A    between atoms: C2_2  and  C5_5 
REMARK    2  A    between atoms: C4_4  and  C8_8 
ROOT
HETATM    1  C1  UNL     1     -34.682  15.320  -6.438  1.00 20.00    -0.015 C 
HETATM    2  C2  UNL     1     -35.010  14.698  -5.302  1.00 20.00    -0.009 C 
HETATM    3  C6  UNL     1     -33.470  16.171  -6.250  1.00 20.00     0.028 C 
HETATM    4  C7  UNL     1     -32.913  15.678  -4.909  1.00 20.00     0.017 C 
HETATM    5  C8  UNL     1     -34.087  15.014  -4.169  1.00 20.00     0.044 C 
ENDROOT
BRANCH   2   6
HETATM    6  C5  UNL     1     -36.146  13.796  -5.201  1.00 20.00     0.152 C 
HETATM    7  C9  UNL     1     -37.533  14.393  -5.095  1.00 20.00     0.096 C 
HETATM    8  O10 UNL     1     -35.988  12.567  -5.195  1.00 20.00    -0.293 OA
ENDBRANCH   2   6
BRANCH   5   9
HETATM    9  C4  UNL     1     -34.705  15.926  -3.158  1.00 20.00    -0.027 C 
HETATM   10  C3  UNL     1     -34.007  16.745  -2.364  1.00 20.00     0.007 C 
ENDBRANCH   5   9
TORSDOF 2
ENDMDL
MODEL 6
REMARK VINA RESULT:      -4.3     10.917     11.967
REMARK  2 active torsions:
REMARK  status: ('A' for Active; 'I' for Inactive)
REMARK    1  A    between atoms: C2_2  and  C5_5 
REMARK    2  A    between atoms: C4_4  and  C8_8 
ROOT
HETATM    1  C1  UNL     1     -33.638  16.900  -4.952  1.00 20.00    -0.015 C 
HETATM    2  C2  UNL     1     -33.763  15.982  -3.989  1.00 20.00    -0.009 C 
HETATM    3  C6  UNL     1     -33.523  18.270  -4.372  1.00 20.00     0.028 C 
HETATM    4  C7  UNL     1     -33.238  17.990  -2.891  1.00 20.00     0.017 C 
HETATM    5  C8  UNL     1     -33.750  16.566  -2.614  1.00 20.00     0.044 C 
ENDROOT
BRANCH   2   6
HETATM    6  C5  UNL     1     -33.884  14.561  -4.272  1.00 20.00     0.152 C 
HETATM    7  C9  UNL     1     -35.251  14.009  -4.617  1.00 20.00     0.096 C 
HETATM    8  O10 UNL     1     -32.897  13.813  -4.225  1.00 20.00    -0.293 OA
ENDBRANCH   2   6
BRANCH   5   9
HETATM    9  C4  UNL     1     -35.102  16.568  -1.974  1.00 20.00    -0.027 C 
HETATM   10  C3  UNL     1     -35.383  17.179  -0.819  1.00 20.00     0.007 C 
ENDBRANCH   5   9
TORSDOF 2
ENDMDL
MODEL 7
REMARK VINA RESULT:      -4.1     10.990     11.979
REMARK  2 active torsions:
REMARK  status: ('A' for Active; 'I' for Inactive)
REMARK    1  A    between atoms: C2_2  and  C5_5 
REMARK    2  A    between atoms: C4_4  and  C8_8 
ROOT
HETATM    1  C1  UNL     1     -33.324  17.215  -2.089  1.00 20.00    -0.015 C 
HETATM    2  C2  UNL     1     -34.214  16.482  -2.763  1.00 20.00    -0.009 C 
HETATM    3  C6  UNL     1     -33.961  17.882  -0.916  1.00 20.00     0.028 C 
HETATM    4  C7  UNL     1     -35.299  17.143  -0.789  1.00 20.00     0.017 C 
HETATM    5  C8  UNL     1     -35.584  16.524  -2.169  1.00 20.00     0.044 C 
ENDROOT
BRANCH   2   6
HETATM    6  C5  UNL     1     -33.861  15.715  -3.947  1.00 20.00     0.152 C 
HETATM    7  C9  UNL     1     -34.476  14.343  -4.126  1.00 20.00     0.096 C 
HETATM    8  O10 UNL     1     -33.072  16.164  -4.789  1.00 20.00    -0.293 OA
ENDBRANCH   2   6
BRANCH   5   9
HETATM    9  C4  UNL     1     -36.537  17.351  -2.972  1.00 20.00    -0.027 C 
HETATM   10  C3  UNL     1     -37.444  16.844  -3.812  1.00 20.00     0.007 C 
ENDBRANCH   5   9
TORSDOF 2
ENDMDL
MODEL 8
REMARK VINA RESULT:      -4.1     11.376     12.151
REMARK  2 active torsions:
REMARK  status: ('A' for Active; 'I' for Inactive)
REMARK    1  A    between atoms: C2_2  and  C5_5 
REMARK    2  A    between atoms: C4_4  and  C8_8 
ROOT
HETATM    1  C1  UNL     1     -33.716  15.179  -4.124  1.00 20.00    -0.015 C 
HETATM    2  C2  UNL     1     -34.950  14.828  -4.495  1.00 20.00    -0.009 C 
HETATM    3  C6  UNL     1     -33.754  16.291  -3.128  1.00 20.00     0.028 C 
HETATM    4  C7  UNL     1     -35.225  16.306  -2.693  1.00 20.00     0.017 C 
HETATM    5  C8  UNL     1     -36.018  15.626  -3.822  1.00 20.00     0.044 C 
ENDROOT
BRANCH   2   6
HETATM    6  C5  UNL     1     -35.207  13.762  -5.450  1.00 20.00     0.152 C 
HETATM    7  C9  UNL     1     -34.554  13.843  -6.814  1.00 20.00     0.096 C 
HETATM    8  O10 UNL     1     -35.947  12.811  -5.164  1.00 20.00    -0.293 OA
ENDBRANCH   2   6
BRANCH   5   9
HETATM    9  C4  UNL     1     -36.660  16.619  -4.737  1.00 20.00    -0.027 C 
HETATM   10  C3  UNL     1     -37.739  16.361  -5.484  1.00 20.00     0.007 C 
ENDBRANCH   5   9
TORSDOF 2
ENDMDL
MODEL 9
REMARK VINA RESULT:      -4.1      1.644      3.615
REMARK  2 active torsions:
REMARK  status: ('A' for Active; 'I' for Inactive)
REMARK    1  A    between atoms: C2_2  and  C5_5 
REMARK    2  A    between atoms: C4_4  and  C8_8 
ROOT
HETATM    1  C1  UNL     1     -35.100   6.122   3.291  1.00 20.00    -0.015 C 
HETATM    2  C2  UNL     1     -34.049   6.308   4.093  1.00 20.00    -0.009 C 
HETATM    3  C6  UNL     1     -34.685   6.130   1.857  1.00 20.00     0.028 C 
HETATM    4  C7  UNL     1     -33.160   5.990   1.944  1.00 20.00     0.017 C 
HETATM    5  C8  UNL     1     -32.761   6.465   3.352  1.00 20.00     0.044 C 
ENDROOT
BRANCH   2   6
HETATM    6  C5  UNL     1     -34.164   6.335   5.543  1.00 20.00     0.152 C 
HETATM    7  C9  UNL     1     -34.645   5.086   6.251  1.00 20.00     0.096 C 
HETATM    8  O10 UNL     1     -33.884   7.354   6.188  1.00 20.00    -0.293 OA
ENDBRANCH   2   6
BRANCH   5   9
HETATM    9  C4  UNL     1     -32.264   7.876   3.351  1.00 20.00    -0.027 C 
HETATM   10  C3  UNL     1     -31.839   8.519   2.259  1.00 20.00     0.007 C 
ENDBRANCH   5   9
TORSDOF 2
ENDMDL
