MODEL 1
REMARK VINA RESULT:      -4.9      0.000      0.000
REMARK  1 active torsions:
REMARK  status: ('A' for Active; 'I' for Inactive)
REMARK    1  A    between atoms: C5_5  and  N8_8 
ROOT
HETATM    1  C1  UNL     1     -34.417   6.012   5.472  1.00 20.00     0.069 A 
HETATM    2  C2  UNL     1     -33.760   7.063   4.975  1.00 20.00     0.095 A 
HETATM    3  C3  UNL     1     -34.312   5.007   4.390  1.00 20.00     0.168 A 
HETATM    4  C6  UNL     1     -33.535   5.560   3.211  1.00 20.00     0.211 A 
HETATM    5  N8  UNL     1     -33.232   6.898   3.711  1.00 20.00    -0.354 N 
HETATM    6  O9  UNL     1     -34.794   3.888   4.457  1.00 20.00    -0.291 OA
ENDROOT
BRANCH   5   7
HETATM    7  C5  UNL     1     -32.528   7.824   3.007  1.00 20.00    -0.002 C 
HETATM    8  C4  UNL     1     -32.917   8.190   1.779  1.00 20.00     0.038 C 
HETATM    9  C7  UNL     1     -31.318   8.388   3.683  1.00 20.00     0.067 C 
ENDBRANCH   5   7
TORSDOF 1
ENDMDL
MODEL 2
REMARK VINA RESULT:      -4.5      2.447      3.847
REMARK  1 active torsions:
REMARK  status: ('A' for Active; 'I' for Inactive)
REMARK    1  A    between atoms: C5_5  and  N8_8 
ROOT
HETATM    1  C1  UNL     1     -31.296   8.590   3.188  1.00 20.00     0.069 A 
HETATM    2  C2  UNL     1     -32.034   7.981   4.119  1.00 20.00     0.095 A 
HETATM    3  C3  UNL     1     -32.031   8.300   1.936  1.00 20.00     0.168 A 
HETATM    4  C6  UNL     1     -33.267   7.466   2.213  1.00 20.00     0.211 A 
HETATM    5  N8  UNL     1     -33.158   7.326   3.662  1.00 20.00    -0.354 N 
HETATM    6  O9  UNL     1     -31.672   8.690   0.836  1.00 20.00    -0.291 OA
ENDROOT
BRANCH   5   7
HETATM    7  C5  UNL     1     -34.055   6.641   4.421  1.00 20.00    -0.002 C 
HETATM    8  C4  UNL     1     -34.921   5.790   3.856  1.00 20.00     0.038 C 
HETATM    9  C7  UNL     1     -34.008   6.900   5.895  1.00 20.00     0.067 C 
ENDBRANCH   5   7
TORSDOF 1
ENDMDL
MODEL 3
REMARK VINA RESULT:      -4.5      2.402      3.968
REMARK  1 active torsions:
REMARK  status: ('A' for Active; 'I' for Inactive)
REMARK    1  A    between atoms: C5_5  and  N8_8 
ROOT
HETATM    1  C1  UNL     1     -31.334   8.607   3.343  1.00 20.00     0.069 A 
HETATM    2  C2  UNL     1     -32.093   8.030   4.278  1.00 20.00     0.095 A 
HETATM    3  C3  UNL     1     -32.001   8.216   2.081  1.00 20.00     0.168 A 
HETATM    4  C6  UNL     1     -33.219   7.356   2.355  1.00 20.00     0.211 A 
HETATM    5  N8  UNL     1     -33.172   7.307   3.814  1.00 20.00    -0.354 N 
HETATM    6  O9  UNL     1     -31.605   8.551   0.976  1.00 20.00    -0.291 OA
ENDROOT
BRANCH   5   7
HETATM    7  C5  UNL     1     -34.079   6.637   4.574  1.00 20.00    -0.002 C 
HETATM    8  C4  UNL     1     -34.076   6.759   5.908  1.00 20.00     0.038 C 
HETATM    9  C7  UNL     1     -35.053   5.775   3.834  1.00 20.00     0.067 C 
ENDBRANCH   5   7
TORSDOF 1
ENDMDL
MODEL 4
REMARK VINA RESULT:      -4.5      0.895      1.948
REMARK  1 active torsions:
REMARK  status: ('A' for Active; 'I' for Inactive)
REMARK    1  A    between atoms: C5_5  and  N8_8 
ROOT
HETATM    1  C1  UNL     1     -34.488   5.312   3.704  1.00 20.00     0.069 A 
HETATM    2  C2  UNL     1     -33.709   6.055   2.912  1.00 20.00     0.095 A 
HETATM    3  C3  UNL     1     -34.373   5.987   5.016  1.00 20.00     0.168 A 
HETATM    4  C6  UNL     1     -33.457   7.192   4.928  1.00 20.00     0.211 A 
HETATM    5  N8  UNL     1     -33.090   7.130   3.516  1.00 20.00    -0.354 N 
HETATM    6  O9  UNL     1     -34.948   5.607   6.024  1.00 20.00    -0.291 OA
ENDROOT
BRANCH   5   7
HETATM    7  C5  UNL     1     -32.258   8.020   2.915  1.00 20.00    -0.002 C 
HETATM    8  C4  UNL     1     -31.139   8.432   3.527  1.00 20.00     0.038 C 
HETATM    9  C7  UNL     1     -32.668   8.496   1.556  1.00 20.00     0.067 C 
ENDBRANCH   5   7
TORSDOF 1
ENDMDL
MODEL 5
REMARK VINA RESULT:      -4.2      2.233      3.893
REMARK  1 active torsions:
REMARK  status: ('A' for Active; 'I' for Inactive)
REMARK    1  A    between atoms: C5_5  and  N8_8 
ROOT
HETATM    1  C1  UNL     1     -33.178   6.474   1.870  1.00 20.00     0.069 A 
HETATM    2  C2  UNL     1     -33.800   6.013   2.958  1.00 20.00     0.095 A 
HETATM    3  C3  UNL     1     -32.399   7.620   2.389  1.00 20.00     0.168 A 
HETATM    4  C6  UNL     1     -32.618   7.794   3.880  1.00 20.00     0.211 A 
HETATM    5  N8  UNL     1     -33.544   6.693   4.130  1.00 20.00    -0.354 N 
HETATM    6  O9  UNL     1     -31.682   8.321   1.693  1.00 20.00    -0.291 OA
ENDROOT
BRANCH   5   7
HETATM    7  C5  UNL     1     -34.060   6.408   5.355  1.00 20.00    -0.002 C 
HETATM    8  C4  UNL     1     -33.997   7.303   6.350  1.00 20.00     0.038 C 
HETATM    9  C7  UNL     1     -34.687   5.058   5.510  1.00 20.00     0.067 C 
ENDBRANCH   5   7
TORSDOF 1
ENDMDL
MODEL 6
REMARK VINA RESULT:      -4.1     11.394     11.946
REMARK  1 active torsions:
REMARK  status: ('A' for Active; 'I' for Inactive)
REMARK    1  A    between atoms: C5_5  and  N8_8 
ROOT
HETATM    1  C1  UNL     1     -36.997  14.579  -4.846  1.00 20.00     0.069 A 
HETATM    2  C2  UNL     1     -36.588  15.616  -4.111  1.00 20.00     0.095 A 
HETATM    3  C3  UNL     1     -35.814  13.690  -4.860  1.00 20.00     0.168 A 
HETATM    4  C6  UNL     1     -34.671  14.296  -4.069  1.00 20.00     0.211 A 
HETATM    5  N8  UNL     1     -35.296  15.541  -3.634  1.00 20.00    -0.354 N 
HETATM    6  O9  UNL     1     -35.782  12.616  -5.440  1.00 20.00    -0.291 OA
ENDROOT
BRANCH   5   7
HETATM    7  C5  UNL     1     -34.666  16.472  -2.868  1.00 20.00    -0.002 C 
HETATM    8  C4  UNL     1     -33.549  17.072  -3.301  1.00 20.00     0.038 C 
HETATM    9  C7  UNL     1     -35.292  16.770  -1.542  1.00 20.00     0.067 C 
ENDBRANCH   5   7
TORSDOF 1
ENDMDL
MODEL 7
REMARK VINA RESULT:      -3.8     11.724     12.442
REMARK  1 active torsions:
REMARK  status: ('A' for Active; 'I' for Inactive)
REMARK    1  A    between atoms: C5_5  and  N8_8 
ROOT
HETATM    1  C1  UNL     1     -33.207  15.704  -5.772  1.00 20.00     0.069 A 
HETATM    2  C2  UNL     1     -33.303  16.525  -4.724  1.00 20.00     0.095 A 
HETATM    3  C3  UNL     1     -34.006  14.530  -5.353  1.00 20.00     0.168 A 
HETATM    4  C6  UNL     1     -34.580  14.733  -3.964  1.00 20.00     0.211 A 
HETATM    5  N8  UNL     1     -34.054  16.062  -3.664  1.00 20.00    -0.354 N 
HETATM    6  O9  UNL     1     -34.168  13.540  -6.048  1.00 20.00    -0.291 OA
ENDROOT
BRANCH   5   7
HETATM    7  C5  UNL     1     -34.290  16.719  -2.498  1.00 20.00    -0.002 C 
HETATM    8  C4  UNL     1     -35.496  16.669  -1.917  1.00 20.00     0.038 C 
HETATM    9  C7  UNL     1     -33.138  17.483  -1.924  1.00 20.00     0.067 C 
ENDBRANCH   5   7
TORSDOF 1
ENDMDL
MODEL 8
REMARK VINA RESULT:      -3.8      2.674      4.121
REMARK  1 active torsions:
REMARK  status: ('A' for Active; 'I' for Inactive)
REMARK    1  A    between atoms: C5_5  and  N8_8 
ROOT
HETATM    1  C1  UNL     1     -31.538   8.783   3.091  1.00 20.00     0.069 A 
HETATM    2  C2  UNL     1     -32.058   7.669   3.612  1.00 20.00     0.095 A 
HETATM    3  C3  UNL     1     -32.188   8.868   1.764  1.00 20.00     0.168 A 
HETATM    4  C6  UNL     1     -33.136   7.704   1.548  1.00 20.00     0.211 A 
HETATM    5  N8  UNL     1     -32.964   6.999   2.815  1.00 20.00    -0.354 N 
HETATM    6  O9  UNL     1     -31.974   9.764   0.963  1.00 20.00    -0.291 OA
ENDROOT
BRANCH   5   7
HETATM    7  C5  UNL     1     -33.618   5.850   3.132  1.00 20.00    -0.002 C 
HETATM    8  C4  UNL     1     -33.168   4.665   2.698  1.00 20.00     0.038 C 
HETATM    9  C7  UNL     1     -34.845   6.000   3.976  1.00 20.00     0.067 C 
ENDBRANCH   5   7
TORSDOF 1
ENDMDL
MODEL 9
REMARK VINA RESULT:      -3.7     11.901     12.303
REMARK  1 active torsions:
REMARK  status: ('A' for Active; 'I' for Inactive)
REMARK    1  A    between atoms: C5_5  and  N8_8 
ROOT
HETATM    1  C1  UNL     1     -35.966  13.429  -5.309  1.00 20.00     0.069 A 
HETATM    2  C2  UNL     1     -34.933  14.160  -4.885  1.00 20.00     0.095 A 
HETATM    3  C3  UNL     1     -37.138  14.230  -4.889  1.00 20.00     0.168 A 
HETATM    4  C6  UNL     1     -36.703  15.497  -4.179  1.00 20.00     0.211 A 
HETATM    5  N8  UNL     1     -35.253  15.336  -4.240  1.00 20.00    -0.354 N 
HETATM    6  O9  UNL     1     -38.294  13.896  -5.096  1.00 20.00    -0.291 OA
ENDROOT
BRANCH   5   7
HETATM    7  C5  UNL     1     -34.374  16.236  -3.725  1.00 20.00    -0.002 C 
HETATM    8  C4  UNL     1     -34.402  16.553  -2.424  1.00 20.00     0.038 C 
HETATM    9  C7  UNL     1     -33.398  16.834  -4.690  1.00 20.00     0.067 C 
ENDBRANCH   5   7
TORSDOF 1
ENDMDL
