MODEL 1
REMARK VINA RESULT:      -3.9      0.000      0.000
REMARK  1 active torsions:
REMARK  status: ('A' for Active; 'I' for Inactive)
REMARK    1  A    between atoms: C1_1  and  C4_4 
ROOT
HETATM    1  C2  UNL     1     -33.213  14.406  -4.289  1.00 20.00     0.180 C 
HETATM    2  C3  UNL     1     -33.554  15.879  -4.417  1.00 20.00     0.103 C 
HETATM    3  C4  UNL     1     -35.160  14.189  -5.554  1.00 20.00     0.165 C 
HETATM    4  C6  UNL     1     -36.642  14.101  -5.223  1.00 20.00     0.067 C 
HETATM    5  O8  UNL     1     -34.412  13.641  -4.467  1.00 20.00    -0.362 OA
HETATM    6  S9  UNL     1     -34.652  15.901  -5.840  1.00 20.00    -0.122 SA
ENDROOT
BRANCH   3   7
HETATM    7  C1  UNL     1     -34.850  13.391  -6.785  1.00 20.00     0.167 C 
HETATM    8  C5  UNL     1     -34.187  14.126  -7.918  1.00 20.00     0.095 C 
HETATM    9  O7  UNL     1     -35.122  12.195  -6.864  1.00 20.00    -0.294 OA
ENDBRANCH   3   7
TORSDOF 1
ENDMDL
MODEL 2
REMARK VINA RESULT:      -3.9      1.220      2.750
REMARK  1 active torsions:
REMARK  status: ('A' for Active; 'I' for Inactive)
REMARK    1  A    between atoms: C1_1  and  C4_4 
ROOT
HETATM    1  C2  UNL     1     -34.277  14.188  -7.861  1.00 20.00     0.180 C 
HETATM    2  C3  UNL     1     -34.004  15.678  -7.767  1.00 20.00     0.103 C 
HETATM    3  C4  UNL     1     -34.445  14.413  -5.545  1.00 20.00     0.165 C 
HETATM    4  C6  UNL     1     -33.449  14.382  -4.396  1.00 20.00     0.067 C 
HETATM    5  O8  UNL     1     -33.956  13.583  -6.601  1.00 20.00    -0.362 OA
HETATM    6  S9  UNL     1     -34.688  16.097  -6.158  1.00 20.00    -0.122 SA
ENDROOT
BRANCH   3   7
HETATM    7  C1  UNL     1     -35.772  13.874  -5.102  1.00 20.00     0.167 C 
HETATM    8  C5  UNL     1     -36.766  14.873  -4.577  1.00 20.00     0.095 C 
HETATM    9  O7  UNL     1     -36.036  12.675  -5.168  1.00 20.00    -0.294 OA
ENDBRANCH   3   7
TORSDOF 1
ENDMDL
MODEL 3
REMARK VINA RESULT:      -3.6      1.953      2.872
REMARK  1 active torsions:
REMARK  status: ('A' for Active; 'I' for Inactive)
REMARK    1  A    between atoms: C1_1  and  C4_4 
ROOT
HETATM    1  C2  UNL     1     -36.336  16.476  -6.523  1.00 20.00     0.180 C 
HETATM    2  C3  UNL     1     -35.003  17.162  -6.763  1.00 20.00     0.103 C 
HETATM    3  C4  UNL     1     -34.982  14.578  -6.540  1.00 20.00     0.165 C 
HETATM    4  C6  UNL     1     -34.453  13.656  -7.629  1.00 20.00     0.067 C 
HETATM    5  O8  UNL     1     -36.237  15.116  -6.963  1.00 20.00    -0.362 OA
HETATM    6  S9  UNL     1     -33.825  15.926  -6.204  1.00 20.00    -0.122 SA
ENDROOT
BRANCH   3   7
HETATM    7  C1  UNL     1     -35.203  13.814  -5.269  1.00 20.00     0.167 C 
HETATM    8  C5  UNL     1     -34.509  14.333  -4.040  1.00 20.00     0.095 C 
HETATM    9  O7  UNL     1     -35.919  12.815  -5.233  1.00 20.00    -0.294 OA
ENDBRANCH   3   7
TORSDOF 1
ENDMDL
MODEL 4
REMARK VINA RESULT:      -3.6      1.556      3.529
REMARK  1 active torsions:
REMARK  status: ('A' for Active; 'I' for Inactive)
REMARK    1  A    between atoms: C1_1  and  C4_4 
ROOT
HETATM    1  C2  UNL     1     -35.961  13.286  -5.585  1.00 20.00     0.180 C 
HETATM    2  C3  UNL     1     -35.195  13.370  -6.893  1.00 20.00     0.103 C 
HETATM    3  C4  UNL     1     -34.247  14.701  -4.879  1.00 20.00     0.165 C 
HETATM    4  C6  UNL     1     -32.846  14.485  -4.327  1.00 20.00     0.067 C 
HETATM    5  O8  UNL     1     -35.064  13.588  -4.509  1.00 20.00    -0.362 OA
HETATM    6  S9  UNL     1     -34.225  14.867  -6.679  1.00 20.00    -0.122 SA
ENDROOT
BRANCH   3   7
HETATM    7  C1  UNL     1     -34.853  15.941  -4.295  1.00 20.00     0.167 C 
HETATM    8  C5  UNL     1     -34.605  16.191  -2.832  1.00 20.00     0.095 C 
HETATM    9  O7  UNL     1     -35.518  16.717  -4.978  1.00 20.00    -0.294 OA
ENDBRANCH   3   7
TORSDOF 1
ENDMDL
MODEL 5
REMARK VINA RESULT:      -3.5      1.791      2.230
REMARK  1 active torsions:
REMARK  status: ('A' for Active; 'I' for Inactive)
REMARK    1  A    between atoms: C1_1  and  C4_4 
ROOT
HETATM    1  C2  UNL     1     -35.980  15.892  -4.093  1.00 20.00     0.180 C 
HETATM    2  C3  UNL     1     -34.670  15.782  -3.334  1.00 20.00     0.103 C 
HETATM    3  C4  UNL     1     -34.729  14.817  -5.741  1.00 20.00     0.165 C 
HETATM    4  C6  UNL     1     -33.795  15.286  -6.846  1.00 20.00     0.067 C 
HETATM    5  O8  UNL     1     -35.702  15.834  -5.498  1.00 20.00    -0.362 OA
HETATM    6  S9  UNL     1     -33.819  14.469  -4.217  1.00 20.00    -0.122 SA
ENDROOT
BRANCH   3   7
HETATM    7  C1  UNL     1     -35.448  13.570  -6.159  1.00 20.00     0.167 C 
HETATM    8  C5  UNL     1     -35.627  13.356  -7.637  1.00 20.00     0.095 C 
HETATM    9  O7  UNL     1     -35.869  12.761  -5.335  1.00 20.00    -0.294 OA
ENDBRANCH   3   7
TORSDOF 1
ENDMDL
MODEL 6
REMARK VINA RESULT:      -3.5      1.362      3.259
REMARK  1 active torsions:
REMARK  status: ('A' for Active; 'I' for Inactive)
REMARK    1  A    between atoms: C1_1  and  C4_4 
ROOT
HETATM    1  C2  UNL     1     -35.954  13.316  -5.331  1.00 20.00     0.180 C 
HETATM    2  C3  UNL     1     -36.878  14.482  -5.631  1.00 20.00     0.103 C 
HETATM    3  C4  UNL     1     -34.329  14.964  -5.617  1.00 20.00     0.165 C 
HETATM    4  C6  UNL     1     -33.585  15.530  -6.818  1.00 20.00     0.067 C 
HETATM    5  O8  UNL     1     -34.663  13.600  -5.884  1.00 20.00    -0.362 OA
HETATM    6  S9  UNL     1     -35.837  15.904  -5.278  1.00 20.00    -0.122 SA
ENDROOT
BRANCH   3   7
HETATM    7  C1  UNL     1     -33.460  15.004  -4.397  1.00 20.00     0.167 C 
HETATM    8  C5  UNL     1     -33.752  16.087  -3.394  1.00 20.00     0.095 C 
HETATM    9  O7  UNL     1     -32.555  14.191  -4.222  1.00 20.00    -0.294 OA
ENDBRANCH   3   7
TORSDOF 1
ENDMDL
MODEL 7
REMARK VINA RESULT:      -3.5      1.379      2.982
REMARK  1 active torsions:
REMARK  status: ('A' for Active; 'I' for Inactive)
REMARK    1  A    between atoms: C1_1  and  C4_4 
ROOT
HETATM    1  C2  UNL     1     -37.592  14.401  -5.012  1.00 20.00     0.180 C 
HETATM    2  C3  UNL     1     -37.784  15.320  -6.205  1.00 20.00     0.103 C 
HETATM    3  C4  UNL     1     -35.555  14.000  -6.074  1.00 20.00     0.165 C 
HETATM    4  C6  UNL     1     -35.090  13.046  -7.164  1.00 20.00     0.067 C 
HETATM    5  O8  UNL     1     -36.634  13.393  -5.360  1.00 20.00    -0.362 OA
HETATM    6  S9  UNL     1     -36.099  15.578  -6.772  1.00 20.00    -0.122 SA
ENDROOT
BRANCH   3   7
HETATM    7  C1  UNL     1     -34.443  14.268  -5.104  1.00 20.00     0.167 C 
HETATM    8  C5  UNL     1     -33.492  15.379  -5.457  1.00 20.00     0.095 C 
HETATM    9  O7  UNL     1     -34.317  13.615  -4.071  1.00 20.00    -0.294 OA
ENDBRANCH   3   7
TORSDOF 1
ENDMDL
MODEL 8
REMARK VINA RESULT:      -3.5     12.204     13.002
REMARK  1 active torsions:
REMARK  status: ('A' for Active; 'I' for Inactive)
REMARK    1  A    between atoms: C1_1  and  C4_4 
ROOT
HETATM    1  C2  UNL     1     -32.800   7.522   4.488  1.00 20.00     0.180 C 
HETATM    2  C3  UNL     1     -32.487   7.443   3.005  1.00 20.00     0.103 C 
HETATM    3  C4  UNL     1     -34.513   6.069   3.863  1.00 20.00     0.165 C 
HETATM    4  C6  UNL     1     -35.926   6.254   3.331  1.00 20.00     0.067 C 
HETATM    5  O8  UNL     1     -34.180   7.190   4.684  1.00 20.00    -0.362 OA
HETATM    6  S9  UNL     1     -33.318   5.927   2.513  1.00 20.00    -0.122 SA
ENDROOT
BRANCH   3   7
HETATM    7  C1  UNL     1     -34.428   4.831   4.704  1.00 20.00     0.167 C 
HETATM    8  C5  UNL     1     -34.637   5.003   6.184  1.00 20.00     0.095 C 
HETATM    9  O7  UNL     1     -34.202   3.729   4.208  1.00 20.00    -0.294 OA
ENDBRANCH   3   7
TORSDOF 1
ENDMDL
MODEL 9
REMARK VINA RESULT:      -3.5      1.916      2.446
REMARK  1 active torsions:
REMARK  status: ('A' for Active; 'I' for Inactive)
REMARK    1  A    between atoms: C1_1  and  C4_4 
ROOT
HETATM    1  C2  UNL     1     -35.598  16.656  -6.377  1.00 20.00     0.180 C 
HETATM    2  C3  UNL     1     -36.081  17.040  -4.990  1.00 20.00     0.103 C 
HETATM    3  C4  UNL     1     -34.753  14.823  -5.210  1.00 20.00     0.165 C 
HETATM    4  C6  UNL     1     -33.467  14.547  -4.445  1.00 20.00     0.067 C 
HETATM    5  O8  UNL     1     -34.479  15.770  -6.244  1.00 20.00    -0.362 OA
HETATM    6  S9  UNL     1     -36.039  15.470  -4.116  1.00 20.00    -0.122 SA
ENDROOT
BRANCH   3   7
HETATM    7  C1  UNL     1     -35.262  13.565  -5.848  1.00 20.00     0.167 C 
HETATM    8  C5  UNL     1     -34.841  13.312  -7.270  1.00 20.00     0.095 C 
HETATM    9  O7  UNL     1     -35.984  12.779  -5.239  1.00 20.00    -0.294 OA
ENDBRANCH   3   7
TORSDOF 1
ENDMDL
