MODEL 1
REMARK VINA RESULT:      -4.3      0.000      0.000
REMARK  0 active torsions:
REMARK  status: ('A' for Active; 'I' for Inactive)
ROOT
HETATM    1  C1  UNL     1     -33.642   7.629   5.497  1.00 20.00     0.029 C 
HETATM    2  C2  UNL     1     -33.930   6.129   5.557  1.00 20.00     0.046 C 
HETATM    3  C3  UNL     1     -32.594   7.930   4.436  1.00 20.00     0.167 C 
HETATM    4  C4  UNL     1     -33.139   6.000   3.166  1.00 20.00     0.209 C 
HETATM    5  C5  UNL     1     -34.207   5.549   4.165  1.00 20.00     0.134 C 
HETATM    6  O6  UNL     1     -32.996   7.423   3.164  1.00 20.00    -0.388 OA
HETATM    7 CL7  UNL     1     -34.230   3.759   4.253  1.00 20.00    -0.099 Cl
HETATM    8 CL8  UNL     1     -35.824   6.089   3.587  1.00 20.00    -0.099 Cl
ENDROOT
TORSDOF 0
ENDMDL
MODEL 2
REMARK VINA RESULT:      -3.8      1.796      2.608
REMARK  0 active torsions:
REMARK  status: ('A' for Active; 'I' for Inactive)
ROOT
HETATM    1  C1  UNL     1     -32.952   7.401   4.903  1.00 20.00     0.029 C 
HETATM    2  C2  UNL     1     -33.447   7.373   3.457  1.00 20.00     0.046 C 
HETATM    3  C3  UNL     1     -34.032   6.893   5.847  1.00 20.00     0.167 C 
HETATM    4  C4  UNL     1     -35.060   5.568   4.166  1.00 20.00     0.209 C 
HETATM    5  C5  UNL     1     -34.062   6.017   3.094  1.00 20.00     0.134 C 
HETATM    6  O6  UNL     1     -34.467   5.588   5.468  1.00 20.00    -0.388 OA
HETATM    7 CL7  UNL     1     -34.895   6.138   1.512  1.00 20.00    -0.099 Cl
HETATM    8 CL8  UNL     1     -32.766   4.778   2.937  1.00 20.00    -0.099 Cl
ENDROOT
TORSDOF 0
ENDMDL
MODEL 3
REMARK VINA RESULT:      -3.7      2.043      3.002
REMARK  0 active torsions:
REMARK  status: ('A' for Active; 'I' for Inactive)
ROOT
HETATM    1  C1  UNL     1     -34.277   4.068   4.381  1.00 20.00     0.029 C 
HETATM    2  C2  UNL     1     -33.396   4.867   3.421  1.00 20.00     0.046 C 
HETATM    3  C3  UNL     1     -34.337   4.746   5.741  1.00 20.00     0.167 C 
HETATM    4  C4  UNL     1     -33.897   6.896   4.833  1.00 20.00     0.209 C 
HETATM    5  C5  UNL     1     -33.774   6.353   3.407  1.00 20.00     0.134 C 
HETATM    6  O6  UNL     1     -34.785   6.096   5.619  1.00 20.00    -0.388 OA
HETATM    7 CL7  UNL     1     -32.527   7.283   2.516  1.00 20.00    -0.099 Cl
HETATM    8 CL8  UNL     1     -35.341   6.579   2.550  1.00 20.00    -0.099 Cl
ENDROOT
TORSDOF 0
ENDMDL
MODEL 4
REMARK VINA RESULT:      -3.4     12.312     13.129
REMARK  0 active torsions:
REMARK  status: ('A' for Active; 'I' for Inactive)
ROOT
HETATM    1  C1  UNL     1     -33.178  15.618  -5.578  1.00 20.00     0.029 C 
HETATM    2  C2  UNL     1     -34.542  15.767  -6.250  1.00 20.00     0.046 C 
HETATM    3  C3  UNL     1     -33.329  15.015  -4.189  1.00 20.00     0.167 C 
HETATM    4  C4  UNL     1     -35.355  13.910  -4.749  1.00 20.00     0.209 C 
HETATM    5  C5  UNL     1     -35.357  14.470  -6.174  1.00 20.00     0.134 C 
HETATM    6  O6  UNL     1     -34.023  13.769  -4.248  1.00 20.00    -0.388 OA
HETATM    7 CL7  UNL     1     -37.043  14.788  -6.692  1.00 20.00    -0.099 Cl
HETATM    8 CL8  UNL     1     -34.662  13.243  -7.293  1.00 20.00    -0.099 Cl
ENDROOT
TORSDOF 0
ENDMDL
MODEL 5
REMARK VINA RESULT:      -3.4     12.083     12.904
REMARK  0 active torsions:
REMARK  status: ('A' for Active; 'I' for Inactive)
ROOT
HETATM    1  C1  UNL     1     -36.722  14.733  -4.838  1.00 20.00     0.029 C 
HETATM    2  C2  UNL     1     -35.870  15.969  -5.124  1.00 20.00     0.046 C 
HETATM    3  C3  UNL     1     -35.912  13.463  -5.058  1.00 20.00     0.167 C 
HETATM    4  C4  UNL     1     -33.848  14.550  -4.618  1.00 20.00     0.209 C 
HETATM    5  C5  UNL     1     -34.520  15.908  -4.401  1.00 20.00     0.134 C 
HETATM    6  O6  UNL     1     -34.723  13.474  -4.269  1.00 20.00    -0.388 OA
HETATM    7 CL7  UNL     1     -33.452  17.212  -5.009  1.00 20.00    -0.099 Cl
HETATM    8 CL8  UNL     1     -34.758  16.175  -2.636  1.00 20.00    -0.099 Cl
ENDROOT
TORSDOF 0
ENDMDL
MODEL 6
REMARK VINA RESULT:      -3.4      9.089      9.738
REMARK  0 active torsions:
REMARK  status: ('A' for Active; 'I' for Inactive)
ROOT
HETATM    1  C1  UNL     1     -40.718   7.137  -0.009  1.00 20.00     0.029 C 
HETATM    2  C2  UNL     1     -41.276   5.727   0.181  1.00 20.00     0.046 C 
HETATM    3  C3  UNL     1     -41.445   7.852  -1.138  1.00 20.00     0.167 C 
HETATM    4  C4  UNL     1     -43.417   6.560  -0.859  1.00 20.00     0.209 C 
HETATM    5  C5  UNL     1     -42.806   5.730   0.273  1.00 20.00     0.134 C 
HETATM    6  O6  UNL     1     -42.853   7.873  -0.904  1.00 20.00    -0.388 OA
HETATM    7 CL7  UNL     1     -43.417   4.048   0.183  1.00 20.00    -0.099 Cl
HETATM    8 CL8  UNL     1     -43.323   6.416   1.855  1.00 20.00    -0.099 Cl
ENDROOT
TORSDOF 0
ENDMDL
MODEL 7
REMARK VINA RESULT:      -3.3     12.323     13.142
REMARK  0 active torsions:
REMARK  status: ('A' for Active; 'I' for Inactive)
ROOT
HETATM    1  C1  UNL     1     -35.854  13.600  -4.967  1.00 20.00     0.029 C 
HETATM    2  C2  UNL     1     -35.302  14.990  -4.653  1.00 20.00     0.046 C 
HETATM    3  C3  UNL     1     -35.686  13.279  -6.445  1.00 20.00     0.167 C 
HETATM    4  C4  UNL     1     -33.825  14.734  -6.681  1.00 20.00     0.209 C 
HETATM    5  C5  UNL     1     -33.889  15.181  -5.218  1.00 20.00     0.134 C 
HETATM    6  O6  UNL     1     -34.320  13.402  -6.841  1.00 20.00    -0.388 OA
HETATM    7 CL7  UNL     1     -33.420  16.906  -5.095  1.00 20.00    -0.099 Cl
HETATM    8 CL8  UNL     1     -32.710  14.222  -4.254  1.00 20.00    -0.099 Cl
ENDROOT
TORSDOF 0
ENDMDL
MODEL 8
REMARK VINA RESULT:      -3.3     12.424     13.145
REMARK  0 active torsions:
REMARK  status: ('A' for Active; 'I' for Inactive)
ROOT
HETATM    1  C1  UNL     1     -36.412  14.959  -4.420  1.00 20.00     0.029 C 
HETATM    2  C2  UNL     1     -35.391  15.794  -5.192  1.00 20.00     0.046 C 
HETATM    3  C3  UNL     1     -36.826  13.739  -5.230  1.00 20.00     0.167 C 
HETATM    4  C4  UNL     1     -34.782  13.687  -6.437  1.00 20.00     0.209 C 
HETATM    5  C5  UNL     1     -34.242  14.932  -5.728  1.00 20.00     0.134 C 
HETATM    6  O6  UNL     1     -35.686  12.963  -5.599  1.00 20.00    -0.388 OA
HETATM    7 CL7  UNL     1     -33.251  15.893  -6.871  1.00 20.00    -0.099 Cl
HETATM    8 CL8  UNL     1     -33.173  14.424  -4.371  1.00 20.00    -0.099 Cl
ENDROOT
TORSDOF 0
ENDMDL
MODEL 9
REMARK VINA RESULT:      -3.3     12.181     13.028
REMARK  0 active torsions:
REMARK  status: ('A' for Active; 'I' for Inactive)
ROOT
HETATM    1  C1  UNL     1     -35.733  14.791  -7.053  1.00 20.00     0.029 C 
HETATM    2  C2  UNL     1     -35.240  15.702  -5.929  1.00 20.00     0.046 C 
HETATM    3  C3  UNL     1     -35.238  13.367  -6.842  1.00 20.00     0.167 C 
HETATM    4  C4  UNL     1     -35.065  13.638  -4.490  1.00 20.00     0.209 C 
HETATM    5  C5  UNL     1     -35.519  15.099  -4.547  1.00 20.00     0.134 C 
HETATM    6  O6  UNL     1     -35.630  12.876  -5.561  1.00 20.00    -0.388 OA
HETATM    7 CL7  UNL     1     -34.656  16.046  -3.293  1.00 20.00    -0.099 Cl
HETATM    8 CL8  UNL     1     -37.280  15.188  -4.183  1.00 20.00    -0.099 Cl
ENDROOT
TORSDOF 0
ENDMDL
