MODEL 1
REMARK VINA RESULT:      -4.8      0.000      0.000
REMARK  1 active torsions:
REMARK  status: ('A' for Active; 'I' for Inactive)
REMARK    1  A    between atoms: C1_1  and  C8_8 
ROOT
HETATM    1  C2  UNL     1     -35.697  16.062  -3.770  1.00 20.00     0.019 A 
HETATM    2  C3  UNL     1     -34.822  15.984  -5.752  1.00 20.00     0.019 A 
HETATM    3  C4  UNL     1     -33.960  14.818  -4.140  1.00 20.00     0.019 A 
HETATM    4  C5  UNL     1     -35.160  17.107  -4.760  1.00 20.00     0.038 A 
HETATM    5  C6  UNL     1     -34.298  15.940  -3.147  1.00 20.00     0.038 A 
HETATM    6  C7  UNL     1     -33.423  15.862  -5.130  1.00 20.00     0.038 A 
HETATM    7  C8  UNL     1     -35.357  14.942  -4.762  1.00 20.00     0.050 A 
HETATM    8  C9  UNL     1     -33.773  16.969  -4.143  1.00 20.00     0.117 A 
HETATM    9  F11 UNL     1     -32.977  17.987  -3.831  1.00 20.00    -0.242 F 
ENDROOT
BRANCH   7  10
HETATM   10  C1  UNL     1     -36.253  13.796  -5.116  1.00 20.00     0.228 C 
HETATM   11  O10 UNL     1     -35.820  12.656  -5.249  1.00 20.00    -0.279 OA
HETATM   12 CL12 UNL     1     -37.908  14.293  -5.300  1.00 20.00    -0.043 Cl
ENDBRANCH   7  10
TORSDOF 1
ENDMDL
MODEL 2
REMARK VINA RESULT:      -4.8      1.424      1.566
REMARK  1 active torsions:
REMARK  status: ('A' for Active; 'I' for Inactive)
REMARK    1  A    between atoms: C1_1  and  C8_8 
ROOT
HETATM    1  C2  UNL     1     -35.393  15.792  -5.117  1.00 20.00     0.019 A 
HETATM    2  C3  UNL     1     -33.391  15.248  -5.744  1.00 20.00     0.019 A 
HETATM    3  C4  UNL     1     -34.384  14.114  -4.185  1.00 20.00     0.019 A 
HETATM    4  C5  UNL     1     -34.054  16.535  -5.231  1.00 20.00     0.038 A 
HETATM    5  C6  UNL     1     -35.048  15.401  -3.672  1.00 20.00     0.038 A 
HETATM    6  C7  UNL     1     -33.044  14.856  -4.300  1.00 20.00     0.038 A 
HETATM    7  C8  UNL     1     -34.729  14.508  -5.628  1.00 20.00     0.050 A 
HETATM    8  C9  UNL     1     -33.715  16.130  -3.800  1.00 20.00     0.117 A 
HETATM    9  F11 UNL     1     -33.206  16.946  -2.882  1.00 20.00    -0.242 F 
ENDROOT
BRANCH   7  10
HETATM   10  C1  UNL     1     -35.299  13.589  -6.664  1.00 20.00     0.228 C 
HETATM   11  O10 UNL     1     -35.104  12.378  -6.630  1.00 20.00    -0.279 OA
HETATM   12 CL12 UNL     1     -36.228  14.446  -7.856  1.00 20.00    -0.043 Cl
ENDBRANCH   7  10
TORSDOF 1
ENDMDL
MODEL 3
REMARK VINA RESULT:      -4.8      1.447      2.236
REMARK  1 active torsions:
REMARK  status: ('A' for Active; 'I' for Inactive)
REMARK    1  A    between atoms: C1_1  and  C8_8 
ROOT
HETATM    1  C2  UNL     1     -33.368  15.232  -5.735  1.00 20.00     0.019 A 
HETATM    2  C3  UNL     1     -34.402  14.105  -4.199  1.00 20.00     0.019 A 
HETATM    3  C4  UNL     1     -35.379  15.790  -5.151  1.00 20.00     0.019 A 
HETATM    4  C5  UNL     1     -33.055  14.838  -4.283  1.00 20.00     0.038 A 
HETATM    5  C6  UNL     1     -34.033  16.524  -5.236  1.00 20.00     0.038 A 
HETATM    6  C7  UNL     1     -35.068  15.396  -3.700  1.00 20.00     0.038 A 
HETATM    7  C8  UNL     1     -34.713  14.501  -5.648  1.00 20.00     0.050 A 
HETATM    8  C9  UNL     1     -33.729  16.117  -3.799  1.00 20.00     0.117 A 
HETATM    9  F11 UNL     1     -33.234  16.929  -2.870  1.00 20.00    -0.242 F 
ENDROOT
BRANCH   7  10
HETATM   10  C1  UNL     1     -35.270  13.583  -6.691  1.00 20.00     0.228 C 
HETATM   11  O10 UNL     1     -35.098  12.369  -6.642  1.00 20.00    -0.279 OA
HETATM   12 CL12 UNL     1     -36.150  14.445  -7.917  1.00 20.00    -0.043 Cl
ENDBRANCH   7  10
TORSDOF 1
ENDMDL
MODEL 4
REMARK VINA RESULT:      -4.8      1.454      1.803
REMARK  1 active torsions:
REMARK  status: ('A' for Active; 'I' for Inactive)
REMARK    1  A    between atoms: C1_1  and  C8_8 
ROOT
HETATM    1  C2  UNL     1     -34.537  14.020  -4.176  1.00 20.00     0.019 A 
HETATM    2  C3  UNL     1     -35.380  15.743  -5.187  1.00 20.00     0.019 A 
HETATM    3  C4  UNL     1     -33.371  15.081  -5.664  1.00 20.00     0.019 A 
HETATM    4  C5  UNL     1     -35.162  15.347  -3.719  1.00 20.00     0.038 A 
HETATM    5  C6  UNL     1     -33.152  14.684  -4.196  1.00 20.00     0.038 A 
HETATM    6  C7  UNL     1     -33.995  16.408  -5.208  1.00 20.00     0.038 A 
HETATM    7  C8  UNL     1     -34.754  14.418  -5.641  1.00 20.00     0.050 A 
HETATM    8  C9  UNL     1     -33.784  15.999  -3.755  1.00 20.00     0.117 A 
HETATM    9  F11 UNL     1     -33.297  16.794  -2.807  1.00 20.00    -0.242 F 
ENDROOT
BRANCH   7  10
HETATM   10  C1  UNL     1     -35.306  13.525  -6.709  1.00 20.00     0.228 C 
HETATM   11  O10 UNL     1     -35.130  12.311  -6.690  1.00 20.00    -0.279 OA
HETATM   12 CL12 UNL     1     -36.184  14.416  -7.915  1.00 20.00    -0.043 Cl
ENDBRANCH   7  10
TORSDOF 1
ENDMDL
MODEL 5
REMARK VINA RESULT:      -4.7      3.053      3.611
REMARK  1 active torsions:
REMARK  status: ('A' for Active; 'I' for Inactive)
REMARK    1  A    between atoms: C1_1  and  C8_8 
ROOT
HETATM    1  C2  UNL     1     -34.040  16.748  -4.788  1.00 20.00     0.019 A 
HETATM    2  C3  UNL     1     -35.480  15.268  -4.128  1.00 20.00     0.019 A 
HETATM    3  C4  UNL     1     -33.361  14.941  -3.801  1.00 20.00     0.019 A 
HETATM    4  C5  UNL     1     -35.167  15.955  -5.466  1.00 20.00     0.038 A 
HETATM    5  C6  UNL     1     -33.048  15.629  -5.138  1.00 20.00     0.038 A 
HETATM    6  C7  UNL     1     -34.489  14.148  -4.478  1.00 20.00     0.038 A 
HETATM    7  C8  UNL     1     -34.352  16.060  -3.454  1.00 20.00     0.050 A 
HETATM    8  C9  UNL     1     -34.177  14.844  -5.797  1.00 20.00     0.117 A 
HETATM    9  F11 UNL     1     -34.089  14.234  -6.975  1.00 20.00    -0.242 F 
ENDROOT
BRANCH   7  10
HETATM   10  C1  UNL     1     -34.455  16.746  -2.127  1.00 20.00     0.228 C 
HETATM   11  O10 UNL     1     -35.476  16.691  -1.449  1.00 20.00    -0.279 OA
HETATM   12 CL12 UNL     1     -32.992  17.587  -1.711  1.00 20.00    -0.043 Cl
ENDBRANCH   7  10
TORSDOF 1
ENDMDL
MODEL 6
REMARK VINA RESULT:      -4.7      3.043      3.684
REMARK  1 active torsions:
REMARK  status: ('A' for Active; 'I' for Inactive)
REMARK    1  A    between atoms: C1_1  and  C8_8 
ROOT
HETATM    1  C2  UNL     1     -35.502  15.285  -4.135  1.00 20.00     0.019 A 
HETATM    2  C3  UNL     1     -33.379  14.977  -3.824  1.00 20.00     0.019 A 
HETATM    3  C4  UNL     1     -34.083  16.790  -4.782  1.00 20.00     0.019 A 
HETATM    4  C5  UNL     1     -34.501  14.180  -4.507  1.00 20.00     0.038 A 
HETATM    5  C6  UNL     1     -35.205  15.995  -5.465  1.00 20.00     0.038 A 
HETATM    6  C7  UNL     1     -33.081  15.687  -5.153  1.00 20.00     0.038 A 
HETATM    7  C8  UNL     1     -34.380  16.079  -3.456  1.00 20.00     0.050 A 
HETATM    8  C9  UNL     1     -34.204  14.900  -5.818  1.00 20.00     0.117 A 
HETATM    9  F11 UNL     1     -34.116  14.307  -7.004  1.00 20.00    -0.242 F 
ENDROOT
BRANCH   7  10
HETATM   10  C1  UNL     1     -34.476  16.744  -2.118  1.00 20.00     0.228 C 
HETATM   11  O10 UNL     1     -35.494  16.678  -1.435  1.00 20.00    -0.279 OA
HETATM   12 CL12 UNL     1     -33.012  17.580  -1.697  1.00 20.00    -0.043 Cl
ENDBRANCH   7  10
TORSDOF 1
ENDMDL
MODEL 7
REMARK VINA RESULT:      -4.5      3.112      3.731
REMARK  1 active torsions:
REMARK  status: ('A' for Active; 'I' for Inactive)
REMARK    1  A    between atoms: C1_1  and  C8_8 
ROOT
HETATM    1  C2  UNL     1     -34.115  16.555  -5.291  1.00 20.00     0.019 A 
HETATM    2  C3  UNL     1     -35.286  15.314  -3.953  1.00 20.00     0.019 A 
HETATM    3  C4  UNL     1     -33.135  15.059  -4.067  1.00 20.00     0.019 A 
HETATM    4  C5  UNL     1     -35.328  15.627  -5.457  1.00 20.00     0.038 A 
HETATM    5  C6  UNL     1     -33.177  15.372  -5.570  1.00 20.00     0.038 A 
HETATM    6  C7  UNL     1     -34.348  14.130  -4.231  1.00 20.00     0.038 A 
HETATM    7  C8  UNL     1     -34.074  16.240  -3.791  1.00 20.00     0.050 A 
HETATM    8  C9  UNL     1     -34.386  14.456  -5.719  1.00 20.00     0.117 A 
HETATM    9  F11 UNL     1     -34.544  13.560  -6.689  1.00 20.00    -0.242 F 
ENDROOT
BRANCH   7  10
HETATM   10  C1  UNL     1     -33.900  17.248  -2.697  1.00 20.00     0.228 C 
HETATM   11  O10 UNL     1     -33.131  18.197  -2.811  1.00 20.00    -0.279 OA
HETATM   12 CL12 UNL     1     -34.897  16.895  -1.318  1.00 20.00    -0.043 Cl
ENDBRANCH   7  10
TORSDOF 1
ENDMDL
MODEL 8
REMARK VINA RESULT:      -4.5     11.696     12.547
REMARK  1 active torsions:
REMARK  status: ('A' for Active; 'I' for Inactive)
REMARK    1  A    between atoms: C1_1  and  C8_8 
ROOT
HETATM    1  C2  UNL     1     -34.042   6.147   2.233  1.00 20.00     0.019 A 
HETATM    2  C3  UNL     1     -34.233   7.263   4.082  1.00 20.00     0.019 A 
HETATM    3  C4  UNL     1     -32.528   5.959   3.773  1.00 20.00     0.019 A 
HETATM    4  C5  UNL     1     -35.126   6.277   3.314  1.00 20.00     0.038 A 
HETATM    5  C6  UNL     1     -33.421   4.973   3.005  1.00 20.00     0.038 A 
HETATM    6  C7  UNL     1     -33.611   6.090   4.855  1.00 20.00     0.038 A 
HETATM    7  C8  UNL     1     -33.151   7.130   3.002  1.00 20.00     0.050 A 
HETATM    8  C9  UNL     1     -34.493   5.120   4.079  1.00 20.00     0.117 A 
HETATM    9  F11 UNL     1     -35.168   4.110   4.620  1.00 20.00    -0.242 F 
ENDROOT
BRANCH   7  10
HETATM   10  C1  UNL     1     -32.394   8.270   2.395  1.00 20.00     0.228 C 
HETATM   11  O10 UNL     1     -31.418   8.764   2.951  1.00 20.00    -0.279 OA
HETATM   12 CL12 UNL     1     -33.065   8.763   0.871  1.00 20.00    -0.043 Cl
ENDBRANCH   7  10
TORSDOF 1
ENDMDL
MODEL 9
REMARK VINA RESULT:      -4.5     11.645     12.499
REMARK  1 active torsions:
REMARK  status: ('A' for Active; 'I' for Inactive)
REMARK    1  A    between atoms: C1_1  and  C8_8 
ROOT
HETATM    1  C2  UNL     1     -34.201   7.297   4.036  1.00 20.00     0.019 A 
HETATM    2  C3  UNL     1     -32.486   6.005   3.734  1.00 20.00     0.019 A 
HETATM    3  C4  UNL     1     -33.998   6.180   2.190  1.00 20.00     0.019 A 
HETATM    4  C5  UNL     1     -33.574   6.129   4.812  1.00 20.00     0.038 A 
HETATM    5  C6  UNL     1     -35.086   6.305   3.267  1.00 20.00     0.038 A 
HETATM    6  C7  UNL     1     -33.370   5.012   2.964  1.00 20.00     0.038 A 
HETATM    7  C8  UNL     1     -33.116   7.171   2.960  1.00 20.00     0.050 A 
HETATM    8  C9  UNL     1     -34.447   5.152   4.033  1.00 20.00     0.117 A 
HETATM    9  F11 UNL     1     -35.116   4.137   4.573  1.00 20.00    -0.242 F 
ENDROOT
BRANCH   7  10
HETATM   10  C1  UNL     1     -32.359   8.311   2.354  1.00 20.00     0.228 C 
HETATM   11  O10 UNL     1     -31.378   8.801   2.906  1.00 20.00    -0.279 OA
HETATM   12 CL12 UNL     1     -33.038   8.812   0.835  1.00 20.00    -0.043 Cl
ENDBRANCH   7  10
TORSDOF 1
ENDMDL
