MODEL 1
REMARK VINA RESULT:      -5.8      0.000      0.000
REMARK  1 active torsions:
REMARK  status: ('A' for Active; 'I' for Inactive)
REMARK    1  A    between atoms: C1_1  and  C2_2 
ROOT
HETATM    1  C2  UNL     1     -34.128   7.103   3.787  1.00 20.00     0.154 A 
HETATM    2  C3  UNL     1     -33.645   6.212   2.655  1.00 20.00     0.073 A 
HETATM    3  C4  UNL     1     -32.949   7.489   2.962  1.00 20.00     0.259 A 
HETATM    4  C5  UNL     1     -32.964   4.911   2.907  1.00 20.00     0.017 C 
HETATM    5  F7  UNL     1     -33.030   8.552   2.089  1.00 20.00    -0.205 F 
HETATM    6  F8  UNL     1     -31.681   7.498   3.498  1.00 20.00    -0.205 F 
ENDROOT
BRANCH   1   7
HETATM    7  C1  UNL     1     -33.940   6.707   5.186  1.00 20.00     0.229 C 
HETATM    8  O6  UNL     1     -33.261   7.376   5.960  1.00 20.00    -0.279 OA
HETATM    9 CL9  UNL     1     -34.777   5.233   5.568  1.00 20.00    -0.043 Cl
ENDBRANCH   1   7
TORSDOF 1
ENDMDL
MODEL 2
REMARK VINA RESULT:      -5.6      2.229      2.417
REMARK  1 active torsions:
REMARK  status: ('A' for Active; 'I' for Inactive)
REMARK    1  A    between atoms: C1_1  and  C2_2 
ROOT
HETATM    1  C2  UNL     1     -34.294   6.948   3.881  1.00 20.00     0.154 A 
HETATM    2  C3  UNL     1     -34.923   5.583   4.103  1.00 20.00     0.073 A 
HETATM    3  C4  UNL     1     -34.037   5.826   2.935  1.00 20.00     0.259 A 
HETATM    4  C5  UNL     1     -34.484   4.677   5.201  1.00 20.00     0.017 C 
HETATM    5  F7  UNL     1     -34.558   5.857   1.661  1.00 20.00    -0.205 F 
HETATM    6  F8  UNL     1     -32.793   5.240   2.853  1.00 20.00    -0.205 F 
ENDROOT
BRANCH   1   7
HETATM    7  C1  UNL     1     -33.217   7.429   4.752  1.00 20.00     0.229 C 
HETATM    8  O6  UNL     1     -33.330   7.434   5.974  1.00 20.00    -0.279 OA
HETATM    9 CL9  UNL     1     -31.832   7.960   3.849  1.00 20.00    -0.043 Cl
ENDBRANCH   1   7
TORSDOF 1
ENDMDL
MODEL 3
REMARK VINA RESULT:      -5.5      1.314      1.314
REMARK  1 active torsions:
REMARK  status: ('A' for Active; 'I' for Inactive)
REMARK    1  A    between atoms: C1_1  and  C2_2 
ROOT
HETATM    1  C2  UNL     1     -34.388   6.621   3.619  1.00 20.00     0.154 A 
HETATM    2  C3  UNL     1     -33.665   5.863   2.518  1.00 20.00     0.073 A 
HETATM    3  C4  UNL     1     -33.161   7.180   2.985  1.00 20.00     0.259 A 
HETATM    4  C5  UNL     1     -32.884   4.623   2.791  1.00 20.00     0.017 C 
HETATM    5  F7  UNL     1     -33.243   8.286   2.168  1.00 20.00    -0.205 F 
HETATM    6  F8  UNL     1     -31.982   7.281   3.691  1.00 20.00    -0.205 F 
ENDROOT
BRANCH   1   7
HETATM    7  C1  UNL     1     -34.342   6.152   5.007  1.00 20.00     0.229 C 
HETATM    8  O6  UNL     1     -34.760   5.044   5.328  1.00 20.00    -0.279 OA
HETATM    9 CL9  UNL     1     -33.645   7.333   6.074  1.00 20.00    -0.043 Cl
ENDBRANCH   1   7
TORSDOF 1
ENDMDL
MODEL 4
REMARK VINA RESULT:      -5.0      3.018      3.505
REMARK  1 active torsions:
REMARK  status: ('A' for Active; 'I' for Inactive)
REMARK    1  A    between atoms: C1_1  and  C2_2 
ROOT
HETATM    1  C2  UNL     1     -34.103   6.968   3.342  1.00 20.00     0.154 A 
HETATM    2  C3  UNL     1     -34.457   7.207   4.800  1.00 20.00     0.073 A 
HETATM    3  C4  UNL     1     -34.905   5.972   4.106  1.00 20.00     0.259 A 
HETATM    4  C5  UNL     1     -33.439   7.127   5.886  1.00 20.00     0.017 C 
HETATM    5  F7  UNL     1     -36.238   5.782   3.815  1.00 20.00    -0.205 F 
HETATM    6  F8  UNL     1     -34.381   4.741   4.434  1.00 20.00    -0.205 F 
ENDROOT
BRANCH   1   7
HETATM    7  C1  UNL     1     -32.728   6.647   2.946  1.00 20.00     0.229 C 
HETATM    8  O6  UNL     1     -32.386   5.501   2.673  1.00 20.00    -0.279 OA
HETATM    9 CL9  UNL     1     -31.709   8.054   2.922  1.00 20.00    -0.043 Cl
ENDBRANCH   1   7
TORSDOF 1
ENDMDL
MODEL 5
REMARK VINA RESULT:      -4.6      2.211      2.723
REMARK  1 active torsions:
REMARK  status: ('A' for Active; 'I' for Inactive)
REMARK    1  A    between atoms: C1_1  and  C2_2 
ROOT
HETATM    1  C2  UNL     1     -33.279   5.647   3.886  1.00 20.00     0.154 A 
HETATM    2  C3  UNL     1     -32.473   6.517   2.937  1.00 20.00     0.073 A 
HETATM    3  C4  UNL     1     -33.330   5.422   2.414  1.00 20.00     0.259 A 
HETATM    4  C5  UNL     1     -32.829   7.939   2.669  1.00 20.00     0.017 C 
HETATM    5  F7  UNL     1     -32.761   4.295   1.863  1.00 20.00    -0.205 F 
HETATM    6  F8  UNL     1     -34.472   5.695   1.695  1.00 20.00    -0.205 F 
ENDROOT
BRANCH   1   7
HETATM    7  C1  UNL     1     -34.452   6.184   4.583  1.00 20.00     0.229 C 
HETATM    8  O6  UNL     1     -35.593   5.962   4.189  1.00 20.00    -0.279 OA
HETATM    9 CL9  UNL     1     -34.012   7.128   5.973  1.00 20.00    -0.043 Cl
ENDBRANCH   1   7
TORSDOF 1
ENDMDL
MODEL 6
REMARK VINA RESULT:      -4.3      1.752      2.424
REMARK  1 active torsions:
REMARK  status: ('A' for Active; 'I' for Inactive)
REMARK    1  A    between atoms: C1_1  and  C2_2 
ROOT
HETATM    1  C2  UNL     1     -33.269   6.216   3.562  1.00 20.00     0.154 A 
HETATM    2  C3  UNL     1     -32.771   7.230   4.578  1.00 20.00     0.073 A 
HETATM    3  C4  UNL     1     -33.292   7.675   3.258  1.00 20.00     0.259 A 
HETATM    4  C5  UNL     1     -33.527   7.541   5.824  1.00 20.00     0.017 C 
HETATM    5  F7  UNL     1     -32.438   8.201   2.315  1.00 20.00    -0.205 F 
HETATM    6  F8  UNL     1     -34.483   8.359   3.158  1.00 20.00    -0.205 F 
ENDROOT
BRANCH   1   7
HETATM    7  C1  UNL     1     -34.529   5.496   3.776  1.00 20.00     0.229 C 
HETATM    8  O6  UNL     1     -35.610   5.978   3.453  1.00 20.00    -0.279 OA
HETATM    9 CL9  UNL     1     -34.278   3.944   4.515  1.00 20.00    -0.043 Cl
ENDBRANCH   1   7
TORSDOF 1
ENDMDL
MODEL 7
REMARK VINA RESULT:      -4.2      2.847      3.180
REMARK  1 active torsions:
REMARK  status: ('A' for Active; 'I' for Inactive)
REMARK    1  A    between atoms: C1_1  and  C2_2 
ROOT
HETATM    1  C2  UNL     1     -33.653   6.788   3.768  1.00 20.00     0.154 A 
HETATM    2  C3  UNL     1     -33.634   5.276   3.621  1.00 20.00     0.073 A 
HETATM    3  C4  UNL     1     -34.806   6.065   3.160  1.00 20.00     0.259 A 
HETATM    4  C5  UNL     1     -32.760   4.587   2.631  1.00 20.00     0.017 C 
HETATM    5  F7  UNL     1     -36.007   5.984   3.830  1.00 20.00    -0.205 F 
HETATM    6  F8  UNL     1     -35.095   6.193   1.820  1.00 20.00    -0.205 F 
ENDROOT
BRANCH   1   7
HETATM    7  C1  UNL     1     -32.799   7.634   2.929  1.00 20.00     0.229 C 
HETATM    8  O6  UNL     1     -33.105   7.915   1.774  1.00 20.00    -0.279 OA
HETATM    9 CL9  UNL     1     -31.368   8.153   3.766  1.00 20.00    -0.043 Cl
ENDBRANCH   1   7
TORSDOF 1
ENDMDL
MODEL 8
REMARK VINA RESULT:      -4.2      3.351      4.318
REMARK  1 active torsions:
REMARK  status: ('A' for Active; 'I' for Inactive)
REMARK    1  A    between atoms: C1_1  and  C2_2 
ROOT
HETATM    1  C2  UNL     1     -31.715   8.608   1.078  1.00 20.00     0.154 A 
HETATM    2  C3  UNL     1     -32.074  10.049   0.754  1.00 20.00     0.073 A 
HETATM    3  C4  UNL     1     -32.621   8.932  -0.060  1.00 20.00     0.259 A 
HETATM    4  C5  UNL     1     -32.978  10.854   1.623  1.00 20.00     0.017 C 
HETATM    5  F7  UNL     1     -32.201   8.747  -1.358  1.00 20.00    -0.205 F 
HETATM    6  F8  UNL     1     -33.959   8.608  -0.014  1.00 20.00    -0.205 F 
ENDROOT
BRANCH   1   7
HETATM    7  C1  UNL     1     -32.252   7.951   2.273  1.00 20.00     0.229 C 
HETATM    8  O6  UNL     1     -33.215   7.193   2.215  1.00 20.00    -0.279 OA
HETATM    9 CL9  UNL     1     -31.371   8.380   3.708  1.00 20.00    -0.043 Cl
ENDBRANCH   1   7
TORSDOF 1
ENDMDL
MODEL 9
REMARK VINA RESULT:      -4.2     11.695     12.284
REMARK  1 active torsions:
REMARK  status: ('A' for Active; 'I' for Inactive)
REMARK    1  A    between atoms: C1_1  and  C2_2 
ROOT
HETATM    1  C2  UNL     1     -35.747  15.040  -4.885  1.00 20.00     0.154 A 
HETATM    2  C3  UNL     1     -34.505  15.856  -5.200  1.00 20.00     0.073 A 
HETATM    3  C4  UNL     1     -34.572  15.027  -3.968  1.00 20.00     0.259 A 
HETATM    4  C5  UNL     1     -33.571  15.487  -6.301  1.00 20.00     0.017 C 
HETATM    5  F7  UNL     1     -34.650  15.625  -2.730  1.00 20.00    -0.205 F 
HETATM    6  F8  UNL     1     -33.795  13.899  -3.828  1.00 20.00    -0.205 F 
ENDROOT
BRANCH   1   7
HETATM    7  C1  UNL     1     -36.075  13.843  -5.665  1.00 20.00     0.229 C 
HETATM    8  O6  UNL     1     -35.892  12.713  -5.222  1.00 20.00    -0.279 OA
HETATM    9 CL9  UNL     1     -36.729  14.238  -7.226  1.00 20.00    -0.043 Cl
ENDBRANCH   1   7
TORSDOF 1
ENDMDL
