MODEL 1
REMARK VINA RESULT:      -4.9      0.000      0.000
REMARK  1 active torsions:
REMARK  status: ('A' for Active; 'I' for Inactive)
REMARK    1  A    between atoms: C3_3  and  C7_7 
ROOT
HETATM    1  C1  UNL     1     -34.545   4.691   5.314  1.00 20.00     0.006 C 
HETATM    2  C2  UNL     1     -34.337   5.926   5.793  1.00 20.00     0.007 C 
HETATM    3  C4  UNL     1     -33.227   5.138   3.262  1.00 20.00     0.054 C 
HETATM    4  C5  UNL     1     -34.630   4.821   3.815  1.00 20.00     0.244 C 
HETATM    5  C6  UNL     1     -34.279   6.844   4.597  1.00 20.00     0.255 C 
HETATM    6  C7  UNL     1     -32.965   6.558   3.842  1.00 20.00     0.094 C 
HETATM    7  N9  UNL     1     -35.225   6.172   3.664  1.00 20.00     0.100 N 
HETATM    8  H21 UNL     1     -35.119   6.516   2.710  1.00 20.00     0.317 HD
ENDROOT
BRANCH   6   9
HETATM    9  C3  UNL     1     -32.676   7.560   2.765  1.00 20.00     0.129 C 
HETATM   10  C8  UNL     1     -31.507   8.479   2.992  1.00 20.00     0.091 C 
HETATM   11  O10 UNL     1     -33.362   7.628   1.746  1.00 20.00    -0.298 OA
ENDBRANCH   6   9
TORSDOF 1
ENDMDL
MODEL 2
REMARK VINA RESULT:      -4.6     11.609     12.727
REMARK  1 active torsions:
REMARK  status: ('A' for Active; 'I' for Inactive)
REMARK    1  A    between atoms: C3_3  and  C7_7 
ROOT
HETATM    1  C1  UNL     1     -33.532  16.134  -3.891  1.00 20.00     0.006 C 
HETATM    2  C2  UNL     1     -34.590  15.425  -3.474  1.00 20.00     0.007 C 
HETATM    3  C4  UNL     1     -33.904  15.514  -6.263  1.00 20.00     0.054 C 
HETATM    4  C5  UNL     1     -32.948  15.385  -5.062  1.00 20.00     0.244 C 
HETATM    5  C6  UNL     1     -34.688  14.227  -4.385  1.00 20.00     0.255 C 
HETATM    6  C7  UNL     1     -35.149  14.721  -5.772  1.00 20.00     0.094 C 
HETATM    7  N9  UNL     1     -33.254  13.978  -4.701  1.00 20.00     0.100 N 
HETATM    8  H21 UNL     1     -33.148  13.361  -5.505  1.00 20.00     0.317 HD
ENDROOT
BRANCH   6   9
HETATM    9  C3  UNL     1     -35.507  13.604  -6.705  1.00 20.00     0.129 C 
HETATM   10  C8  UNL     1     -36.320  13.968  -7.917  1.00 20.00     0.091 C 
HETATM   11  O10 UNL     1     -35.153  12.446  -6.490  1.00 20.00    -0.298 OA
ENDBRANCH   6   9
TORSDOF 1
ENDMDL
MODEL 3
REMARK VINA RESULT:      -4.4     11.717     12.808
REMARK  1 active torsions:
REMARK  status: ('A' for Active; 'I' for Inactive)
REMARK    1  A    between atoms: C3_3  and  C7_7 
ROOT
HETATM    1  C1  UNL     1     -33.101  16.443  -4.956  1.00 20.00     0.006 C 
HETATM    2  C2  UNL     1     -33.550  15.893  -3.819  1.00 20.00     0.007 C 
HETATM    3  C4  UNL     1     -35.050  15.629  -6.255  1.00 20.00     0.054 C 
HETATM    4  C5  UNL     1     -33.524  15.523  -6.074  1.00 20.00     0.244 C 
HETATM    5  C6  UNL     1     -34.268  14.625  -4.212  1.00 20.00     0.255 C 
HETATM    6  C7  UNL     1     -35.578  15.023  -4.924  1.00 20.00     0.094 C 
HETATM    7  N9  UNL     1     -33.485  14.199  -5.404  1.00 20.00     0.100 N 
HETATM    8  H21 UNL     1     -33.983  13.497  -5.950  1.00 20.00     0.317 HD
ENDROOT
BRANCH   6   9
HETATM    9  C3  UNL     1     -36.494  13.860  -5.160  1.00 20.00     0.129 C 
HETATM   10  C8  UNL     1     -37.960  14.170  -5.295  1.00 20.00     0.091 C 
HETATM   11  O10 UNL     1     -36.068  12.709  -5.240  1.00 20.00    -0.298 OA
ENDBRANCH   6   9
TORSDOF 1
ENDMDL
MODEL 4
REMARK VINA RESULT:      -4.2      1.611      2.050
REMARK  1 active torsions:
REMARK  status: ('A' for Active; 'I' for Inactive)
REMARK    1  A    between atoms: C3_3  and  C7_7 
ROOT
HETATM    1  C1  UNL     1     -35.136   5.634   4.591  1.00 20.00     0.006 C 
HETATM    2  C2  UNL     1     -35.237   5.917   3.284  1.00 20.00     0.007 C 
HETATM    3  C4  UNL     1     -33.316   7.283   4.928  1.00 20.00     0.054 C 
HETATM    4  C5  UNL     1     -33.680   5.787   4.953  1.00 20.00     0.244 C 
HETATM    5  C6  UNL     1     -33.844   6.260   2.814  1.00 20.00     0.255 C 
HETATM    6  C7  UNL     1     -33.462   7.627   3.418  1.00 20.00     0.094 C 
HETATM    7  N9  UNL     1     -33.014   5.387   3.688  1.00 20.00     0.100 N 
HETATM    8  H21 UNL     1     -32.035   5.673   3.683  1.00 20.00     0.317 HD
ENDROOT
BRANCH   6   9
HETATM    9  C3  UNL     1     -32.197   8.189   2.844  1.00 20.00     0.129 C 
HETATM   10  C8  UNL     1     -32.289   8.798   1.471  1.00 20.00     0.091 C 
HETATM   11  O10 UNL     1     -31.136   8.155   3.465  1.00 20.00    -0.298 OA
ENDBRANCH   6   9
TORSDOF 1
ENDMDL
MODEL 5
REMARK VINA RESULT:      -4.1     11.890     12.932
REMARK  1 active torsions:
REMARK  status: ('A' for Active; 'I' for Inactive)
REMARK    1  A    between atoms: C3_3  and  C7_7 
ROOT
HETATM    1  C1  UNL     1     -36.108  14.060  -7.873  1.00 20.00     0.006 C 
HETATM    2  C2  UNL     1     -35.323  15.146  -7.831  1.00 20.00     0.007 C 
HETATM    3  C4  UNL     1     -35.750  13.563  -5.471  1.00 20.00     0.054 C 
HETATM    4  C5  UNL     1     -35.516  13.064  -6.909  1.00 20.00     0.244 C 
HETATM    5  C6  UNL     1     -34.233  14.846  -6.831  1.00 20.00     0.255 C 
HETATM    6  C7  UNL     1     -34.866  14.843  -5.424  1.00 20.00     0.094 C 
HETATM    7  N9  UNL     1     -34.068  13.377  -7.007  1.00 20.00     0.100 N 
HETATM    8  H21 UNL     1     -33.550  12.962  -6.233  1.00 20.00     0.317 HD
ENDROOT
BRANCH   6   9
HETATM    9  C3  UNL     1     -33.851  14.785  -4.324  1.00 20.00     0.129 C 
HETATM   10  C8  UNL     1     -33.864  15.916  -3.331  1.00 20.00     0.091 C 
HETATM   11  O10 UNL     1     -33.047  13.859  -4.236  1.00 20.00    -0.298 OA
ENDBRANCH   6   9
TORSDOF 1
ENDMDL
MODEL 6
REMARK VINA RESULT:      -4.0     11.474     12.780
REMARK  1 active torsions:
REMARK  status: ('A' for Active; 'I' for Inactive)
REMARK    1  A    between atoms: C3_3  and  C7_7 
ROOT
HETATM    1  C1  UNL     1     -33.602  16.754  -3.932  1.00 20.00     0.006 C 
HETATM    2  C2  UNL     1     -33.924  16.939  -5.219  1.00 20.00     0.007 C 
HETATM    3  C4  UNL     1     -34.051  14.318  -4.049  1.00 20.00     0.054 C 
HETATM    4  C5  UNL     1     -34.495  15.652  -3.419  1.00 20.00     0.244 C 
HETATM    5  C6  UNL     1     -35.019  15.948  -5.532  1.00 20.00     0.255 C 
HETATM    6  C7  UNL     1     -34.392  14.539  -5.550  1.00 20.00     0.094 C 
HETATM    7  N9  UNL     1     -35.724  15.864  -4.224  1.00 20.00     0.100 N 
HETATM    8  H21 UNL     1     -36.337  15.051  -4.179  1.00 20.00     0.317 HD
ENDROOT
BRANCH   6   9
HETATM    9  C3  UNL     1     -35.324  13.488  -6.075  1.00 20.00     0.129 C 
HETATM   10  C8  UNL     1     -35.434  13.367  -7.570  1.00 20.00     0.091 C 
HETATM   11  O10 UNL     1     -35.967  12.761  -5.320  1.00 20.00    -0.298 OA
ENDBRANCH   6   9
TORSDOF 1
ENDMDL
MODEL 7
REMARK VINA RESULT:      -3.9     11.980     12.405
REMARK  1 active torsions:
REMARK  status: ('A' for Active; 'I' for Inactive)
REMARK    1  A    between atoms: C3_3  and  C7_7 
ROOT
HETATM    1  C1  UNL     1     -35.816  13.510  -5.459  1.00 20.00     0.006 C 
HETATM    2  C2  UNL     1     -36.617  14.377  -4.825  1.00 20.00     0.007 C 
HETATM    3  C4  UNL     1     -33.782  14.406  -4.361  1.00 20.00     0.054 C 
HETATM    4  C5  UNL     1     -34.514  14.229  -5.705  1.00 20.00     0.244 C 
HETATM    5  C6  UNL     1     -35.822  15.649  -4.657  1.00 20.00     0.255 C 
HETATM    6  C7  UNL     1     -34.724  15.386  -3.606  1.00 20.00     0.094 C 
HETATM    7  N9  UNL     1     -34.973  15.629  -5.879  1.00 20.00     0.100 N 
HETATM    8  H21 UNL     1     -34.194  16.283  -5.806  1.00 20.00     0.317 HD
ENDROOT
BRANCH   6   9
HETATM    9  C3  UNL     1     -34.010  16.634  -3.179  1.00 20.00     0.129 C 
HETATM   10  C8  UNL     1     -34.118  17.010  -1.726  1.00 20.00     0.091 C 
HETATM   11  O10 UNL     1     -33.368  17.315  -3.976  1.00 20.00    -0.298 OA
ENDBRANCH   6   9
TORSDOF 1
ENDMDL
MODEL 8
REMARK VINA RESULT:      -3.9     11.751     12.331
REMARK  1 active torsions:
REMARK  status: ('A' for Active; 'I' for Inactive)
REMARK    1  A    between atoms: C3_3  and  C7_7 
ROOT
HETATM    1  C1  UNL     1     -35.322  13.665  -6.492  1.00 20.00     0.006 C 
HETATM    2  C2  UNL     1     -34.221  14.421  -6.376  1.00 20.00     0.007 C 
HETATM    3  C4  UNL     1     -36.475  14.851  -4.645  1.00 20.00     0.054 C 
HETATM    4  C5  UNL     1     -35.882  13.504  -5.102  1.00 20.00     0.244 C 
HETATM    5  C6  UNL     1     -34.084  14.751  -4.910  1.00 20.00     0.255 C 
HETATM    6  C7  UNL     1     -35.205  15.744  -4.539  1.00 20.00     0.094 C 
HETATM    7  N9  UNL     1     -34.649  13.527  -4.277  1.00 20.00     0.100 N 
HETATM    8  H21 UNL     1     -34.868  13.680  -3.293  1.00 20.00     0.317 HD
ENDROOT
BRANCH   6   9
HETATM    9  C3  UNL     1     -35.043  16.328  -3.169  1.00 20.00     0.129 C 
HETATM   10  C8  UNL     1     -33.642  16.678  -2.744  1.00 20.00     0.091 C 
HETATM   11  O10 UNL     1     -36.007  16.514  -2.428  1.00 20.00    -0.298 OA
ENDBRANCH   6   9
TORSDOF 1
ENDMDL
MODEL 9
REMARK VINA RESULT:      -3.8     12.074     12.825
REMARK  1 active torsions:
REMARK  status: ('A' for Active; 'I' for Inactive)
REMARK    1  A    between atoms: C3_3  and  C7_7 
ROOT
HETATM    1  C1  UNL     1     -33.532  18.441  -0.204  1.00 20.00     0.006 C 
HETATM    2  C2  UNL     1     -32.621  18.145  -1.143  1.00 20.00     0.007 C 
HETATM    3  C4  UNL     1     -35.240  16.964  -1.230  1.00 20.00     0.054 C 
HETATM    4  C5  UNL     1     -34.875  18.422  -0.888  1.00 20.00     0.244 C 
HETATM    5  C6  UNL     1     -33.386  17.928  -2.426  1.00 20.00     0.255 C 
HETATM    6  C7  UNL     1     -34.166  16.603  -2.296  1.00 20.00     0.094 C 
HETATM    7  N9  UNL     1     -34.522  18.875  -2.256  1.00 20.00     0.100 N 
HETATM    8  H21 UNL     1     -35.276  18.680  -2.914  1.00 20.00     0.317 HD
ENDROOT
BRANCH   6   9
HETATM    9  C3  UNL     1     -34.783  16.157  -3.586  1.00 20.00     0.129 C 
HETATM   10  C8  UNL     1     -34.487  14.749  -4.026  1.00 20.00     0.091 C 
HETATM   11  O10 UNL     1     -35.498  16.904  -4.252  1.00 20.00    -0.298 OA
ENDBRANCH   6   9
TORSDOF 1
ENDMDL
