MODEL 1
REMARK VINA RESULT:      -5.9      0.000      0.000
REMARK  1 active torsions:
REMARK  status: ('A' for Active; 'I' for Inactive)
REMARK    1  A    between atoms: C3_3  and  C9_9 
ROOT
HETATM    1  C1  UNL     1     -33.889   4.585   5.594  1.00 20.00    -0.030 C 
HETATM    2  C2  UNL     1     -34.250   5.849   5.864  1.00 20.00    -0.026 C 
HETATM    3  C4  UNL     1     -34.000   3.989   4.216  1.00 20.00     0.031 C 
HETATM    4  C5  UNL     1     -33.778   7.772   4.328  1.00 20.00     0.022 C 
HETATM    5  C6  UNL     1     -35.400   5.971   3.642  1.00 20.00     0.013 C 
HETATM    6  C7  UNL     1     -32.995   5.855   2.807  1.00 20.00     0.018 C 
HETATM    7  C8  UNL     1     -34.844   6.776   4.824  1.00 20.00     0.009 C 
HETATM    8  C9  UNL     1     -33.143   7.371   2.986  1.00 20.00     0.073 C 
HETATM    9  C10 UNL     1     -34.281   5.054   3.132  1.00 20.00    -0.010 C 
ENDROOT
BRANCH   8  10
HETATM   10  C3  UNL     1     -31.798   8.018   2.845  1.00 20.00     0.223 C 
HETATM   11  O11 UNL     1     -31.046   8.157   3.805  1.00 20.00    -0.279 OA
HETATM   12 CL12 UNL     1     -31.480   8.517   1.211  1.00 20.00    -0.043 Cl
ENDBRANCH   8  10
TORSDOF 1
ENDMDL
MODEL 2
REMARK VINA RESULT:      -5.3      1.093      1.093
REMARK  1 active torsions:
REMARK  status: ('A' for Active; 'I' for Inactive)
REMARK    1  A    between atoms: C3_3  and  C9_9 
ROOT
HETATM    1  C1  UNL     1     -33.837   4.668   5.635  1.00 20.00    -0.030 C 
HETATM    2  C2  UNL     1     -34.236   5.934   5.830  1.00 20.00    -0.026 C 
HETATM    3  C4  UNL     1     -33.962   3.977   4.304  1.00 20.00     0.031 C 
HETATM    4  C5  UNL     1     -33.874   7.763   4.157  1.00 20.00     0.022 C 
HETATM    5  C6  UNL     1     -35.447   5.866   3.639  1.00 20.00     0.013 C 
HETATM    6  C7  UNL     1     -33.062   5.776   2.745  1.00 20.00     0.018 C 
HETATM    7  C8  UNL     1     -34.890   6.768   4.749  1.00 20.00     0.009 C 
HETATM    8  C9  UNL     1     -33.260   7.295   2.826  1.00 20.00     0.073 C 
HETATM    9  C10 UNL     1     -34.310   4.955   3.160  1.00 20.00    -0.010 C 
ENDROOT
BRANCH   8  10
HETATM   10  C3  UNL     1     -31.944   7.977   2.604  1.00 20.00     0.223 C 
HETATM   11  O11 UNL     1     -31.507   8.182   1.475  1.00 20.00    -0.279 OA
HETATM   12 CL12 UNL     1     -31.170   8.408   4.098  1.00 20.00    -0.043 Cl
ENDBRANCH   8  10
TORSDOF 1
ENDMDL
MODEL 3
REMARK VINA RESULT:      -4.9     11.739     12.857
REMARK  1 active torsions:
REMARK  status: ('A' for Active; 'I' for Inactive)
REMARK    1  A    between atoms: C3_3  and  C9_9 
ROOT
HETATM    1  C1  UNL     1     -34.657  18.670  -3.875  1.00 20.00    -0.030 C 
HETATM    2  C2  UNL     1     -35.881  18.133  -3.756  1.00 20.00    -0.026 C 
HETATM    3  C4  UNL     1     -33.444  18.076  -3.211  1.00 20.00     0.031 C 
HETATM    4  C5  UNL     1     -36.308  15.664  -3.804  1.00 20.00     0.022 C 
HETATM    5  C6  UNL     1     -35.041  16.693  -1.886  1.00 20.00     0.013 C 
HETATM    6  C7  UNL     1     -33.740  15.615  -3.794  1.00 20.00     0.018 C 
HETATM    7  C8  UNL     1     -36.164  16.910  -2.908  1.00 20.00     0.009 C 
HETATM    8  C9  UNL     1     -35.037  14.800  -3.861  1.00 20.00     0.073 C 
HETATM    9  C10 UNL     1     -33.711  16.661  -2.650  1.00 20.00    -0.010 C 
ENDROOT
BRANCH   8  10
HETATM   10  C3  UNL     1     -35.037  13.976  -5.113  1.00 20.00     0.223 C 
HETATM   11  O11 UNL     1     -35.637  12.907  -5.181  1.00 20.00    -0.279 OA
HETATM   12 CL12 UNL     1     -34.112  14.715  -6.384  1.00 20.00    -0.043 Cl
ENDBRANCH   8  10
TORSDOF 1
ENDMDL
MODEL 4
REMARK VINA RESULT:      -4.8     11.752     13.069
REMARK  1 active torsions:
REMARK  status: ('A' for Active; 'I' for Inactive)
REMARK    1  A    between atoms: C3_3  and  C9_9 
ROOT
HETATM    1  C1  UNL     1     -35.278  17.686  -2.431  1.00 20.00    -0.030 C 
HETATM    2  C2  UNL     1     -34.425  16.657  -2.306  1.00 20.00    -0.026 C 
HETATM    3  C4  UNL     1     -35.591  18.319  -3.760  1.00 20.00     0.031 C 
HETATM    4  C5  UNL     1     -34.323  14.751  -3.930  1.00 20.00     0.022 C 
HETATM    5  C6  UNL     1     -33.628  17.064  -4.646  1.00 20.00     0.013 C 
HETATM    6  C7  UNL     1     -35.981  16.253  -5.194  1.00 20.00     0.018 C 
HETATM    7  C8  UNL     1     -33.666  16.069  -3.477  1.00 20.00     0.009 C 
HETATM    8  C9  UNL     1     -35.238  14.912  -5.156  1.00 20.00     0.073 C 
HETATM    9  C10 UNL     1     -35.071  17.484  -4.951  1.00 20.00    -0.010 C 
ENDROOT
BRANCH   8  10
HETATM   10  C3  UNL     1     -36.236  13.794  -5.197  1.00 20.00     0.223 C 
HETATM   11  O11 UNL     1     -35.887  12.621  -5.301  1.00 20.00    -0.279 OA
HETATM   12 CL12 UNL     1     -37.871  14.371  -5.083  1.00 20.00    -0.043 Cl
ENDBRANCH   8  10
TORSDOF 1
ENDMDL
MODEL 5
REMARK VINA RESULT:      -4.8     11.833     12.662
REMARK  1 active torsions:
REMARK  status: ('A' for Active; 'I' for Inactive)
REMARK    1  A    between atoms: C3_3  and  C9_9 
ROOT
HETATM    1  C1  UNL     1     -33.964  17.319  -1.231  1.00 20.00    -0.030 C 
HETATM    2  C2  UNL     1     -33.242  17.760  -2.273  1.00 20.00    -0.026 C 
HETATM    3  C4  UNL     1     -35.409  16.920  -1.359  1.00 20.00     0.031 C 
HETATM    4  C5  UNL     1     -33.400  16.772  -4.571  1.00 20.00     0.022 C 
HETATM    5  C6  UNL     1     -35.354  18.026  -3.593  1.00 20.00     0.013 C 
HETATM    6  C7  UNL     1     -35.322  15.481  -3.458  1.00 20.00     0.018 C 
HETATM    7  C8  UNL     1     -33.823  17.941  -3.659  1.00 20.00     0.009 C 
HETATM    8  C9  UNL     1     -34.484  15.692  -4.724  1.00 20.00     0.073 C 
HETATM    9  C10 UNL     1     -35.859  16.794  -2.832  1.00 20.00    -0.010 C 
ENDROOT
BRANCH   8  10
HETATM   10  C3  UNL     1     -33.853  14.391  -5.121  1.00 20.00     0.223 C 
HETATM   11  O11 UNL     1     -34.317  13.698  -6.022  1.00 20.00    -0.279 OA
HETATM   12 CL12 UNL     1     -32.447  14.028  -4.168  1.00 20.00    -0.043 Cl
ENDBRANCH   8  10
TORSDOF 1
ENDMDL
MODEL 6
REMARK VINA RESULT:      -4.7     11.598     12.571
REMARK  1 active torsions:
REMARK  status: ('A' for Active; 'I' for Inactive)
REMARK    1  A    between atoms: C3_3  and  C9_9 
ROOT
HETATM    1  C1  UNL     1     -33.991  17.477  -0.929  1.00 20.00    -0.030 C 
HETATM    2  C2  UNL     1     -33.166  17.616  -1.978  1.00 20.00    -0.026 C 
HETATM    3  C4  UNL     1     -35.488  17.438  -1.077  1.00 20.00     0.031 C 
HETATM    4  C5  UNL     1     -33.531  16.467  -4.175  1.00 20.00     0.022 C 
HETATM    5  C6  UNL     1     -35.123  18.260  -3.403  1.00 20.00     0.013 C 
HETATM    6  C7  UNL     1     -35.733  15.815  -3.022  1.00 20.00     0.018 C 
HETATM    7  C8  UNL     1     -33.661  17.791  -3.398  1.00 20.00     0.009 C 
HETATM    8  C9  UNL     1     -34.849  15.679  -4.268  1.00 20.00     0.073 C 
HETATM    9  C10 UNL     1     -35.933  17.276  -2.548  1.00 20.00    -0.010 C 
ENDROOT
BRANCH   8  10
HETATM   10  C3  UNL     1     -34.559  14.229  -4.512  1.00 20.00     0.223 C 
HETATM   11  O11 UNL     1     -33.453  13.745  -4.287  1.00 20.00    -0.279 OA
HETATM   12 CL12 UNL     1     -35.944  13.379  -5.128  1.00 20.00    -0.043 Cl
ENDBRANCH   8  10
TORSDOF 1
ENDMDL
MODEL 7
REMARK VINA RESULT:      -4.6     11.626     12.808
REMARK  1 active torsions:
REMARK  status: ('A' for Active; 'I' for Inactive)
REMARK    1  A    between atoms: C3_3  and  C9_9 
ROOT
HETATM    1  C1  UNL     1     -34.305  15.859  -6.409  1.00 20.00    -0.030 C 
HETATM    2  C2  UNL     1     -33.312  16.005  -5.518  1.00 20.00    -0.026 C 
HETATM    3  C4  UNL     1     -35.530  15.033  -6.126  1.00 20.00     0.031 C 
HETATM    4  C5  UNL     1     -33.701  16.313  -3.062  1.00 20.00     0.022 C 
HETATM    5  C6  UNL     1     -34.275  14.126  -4.171  1.00 20.00     0.013 C 
HETATM    6  C7  UNL     1     -36.121  15.840  -3.785  1.00 20.00     0.018 C 
HETATM    7  C8  UNL     1     -33.307  15.317  -4.170  1.00 20.00     0.009 C 
HETATM    8  C9  UNL     1     -35.175  16.203  -2.634  1.00 20.00     0.073 C 
HETATM    9  C10 UNL     1     -35.645  14.636  -4.637  1.00 20.00    -0.010 C 
ENDROOT
BRANCH   8  10
HETATM   10  C3  UNL     1     -35.623  17.491  -2.014  1.00 20.00     0.223 C 
HETATM   11  O11 UNL     1     -35.967  18.451  -2.698  1.00 20.00    -0.279 OA
HETATM   12 CL12 UNL     1     -35.585  17.430  -0.278  1.00 20.00    -0.043 Cl
ENDBRANCH   8  10
TORSDOF 1
ENDMDL
MODEL 8
REMARK VINA RESULT:      -4.6     11.981     13.351
REMARK  1 active torsions:
REMARK  status: ('A' for Active; 'I' for Inactive)
REMARK    1  A    between atoms: C3_3  and  C9_9 
ROOT
HETATM    1  C1  UNL     1     -33.901  17.441  -3.508  1.00 20.00    -0.030 C 
HETATM    2  C2  UNL     1     -33.921  16.172  -3.073  1.00 20.00    -0.026 C 
HETATM    3  C4  UNL     1     -33.665  17.797  -4.951  1.00 20.00     0.031 C 
HETATM    4  C5  UNL     1     -34.991  14.298  -4.346  1.00 20.00     0.022 C 
HETATM    5  C6  UNL     1     -32.933  15.433  -5.252  1.00 20.00     0.013 C 
HETATM    6  C7  UNL     1     -35.223  16.151  -6.110  1.00 20.00     0.018 C 
HETATM    7  C8  UNL     1     -33.662  14.986  -3.978  1.00 20.00     0.009 C 
HETATM    8  C9  UNL     1     -35.523  14.695  -5.733  1.00 20.00     0.073 C 
HETATM    9  C10 UNL     1     -33.747  16.569  -5.885  1.00 20.00    -0.010 C 
ENDROOT
BRANCH   8  10
HETATM   10  C3  UNL     1     -37.003  14.465  -5.796  1.00 20.00     0.223 C 
HETATM   11  O11 UNL     1     -37.578  13.740  -4.989  1.00 20.00    -0.279 OA
HETATM   12 CL12 UNL     1     -37.744  15.326  -7.110  1.00 20.00    -0.043 Cl
ENDBRANCH   8  10
TORSDOF 1
ENDMDL
MODEL 9
REMARK VINA RESULT:      -4.6     11.673     12.872
REMARK  1 active torsions:
REMARK  status: ('A' for Active; 'I' for Inactive)
REMARK    1  A    between atoms: C3_3  and  C9_9 
ROOT
HETATM    1  C1  UNL     1     -33.404  14.835  -4.870  1.00 20.00    -0.030 C 
HETATM    2  C2  UNL     1     -34.332  14.677  -3.913  1.00 20.00    -0.026 C 
HETATM    3  C4  UNL     1     -33.245  16.119  -5.638  1.00 20.00     0.031 C 
HETATM    4  C5  UNL     1     -34.908  16.459  -2.249  1.00 20.00     0.022 C 
HETATM    5  C6  UNL     1     -35.454  16.779  -4.687  1.00 20.00     0.013 C 
HETATM    6  C7  UNL     1     -33.326  17.820  -3.747  1.00 20.00     0.018 C 
HETATM    7  C8  UNL     1     -35.334  15.754  -3.551  1.00 20.00     0.009 C 
HETATM    8  C9  UNL     1     -34.195  17.802  -2.484  1.00 20.00     0.073 C 
HETATM    9  C10 UNL     1     -34.043  17.285  -5.013  1.00 20.00    -0.010 C 
ENDROOT
BRANCH   8  10
HETATM   10  C3  UNL     1     -33.347  18.143  -1.296  1.00 20.00     0.223 C 
HETATM   11  O11 UNL     1     -32.163  18.446  -1.415  1.00 20.00    -0.279 OA
HETATM   12 CL12 UNL     1     -34.238  18.050   0.193  1.00 20.00    -0.043 Cl
ENDBRANCH   8  10
TORSDOF 1
ENDMDL
