MODEL 1
REMARK VINA RESULT:      -5.2      0.000      0.000
REMARK  1 active torsions:
REMARK  status: ('A' for Active; 'I' for Inactive)
REMARK    1  A    between atoms: C1_1  and  C9_9 
ROOT
HETATM    1  C2  UNL     1     -33.567   4.013   3.471  1.00 20.00     0.002 C 
HETATM    2  C3  UNL     1     -34.237   4.295   4.821  1.00 20.00     0.005 C 
HETATM    3  C4  UNL     1     -35.747   6.066   3.781  1.00 20.00     0.006 C 
HETATM    4  C5  UNL     1     -32.736   5.195   2.961  1.00 20.00     0.018 C 
HETATM    5  C6  UNL     1     -34.851   6.588   2.647  1.00 20.00     0.019 C 
HETATM    6  C7  UNL     1     -33.656   6.722   4.715  1.00 20.00     0.023 C 
HETATM    7  C8  UNL     1     -34.792   5.725   4.935  1.00 20.00    -0.013 C 
HETATM    8  C9  UNL     1     -33.419   6.552   3.213  1.00 20.00     0.036 C 
ENDROOT
BRANCH   8   9
HETATM    9  C1  UNL     1     -32.578   7.663   2.664  1.00 20.00     0.227 C 
HETATM   10  O10 UNL     1     -32.739   8.092   1.526  1.00 20.00    -0.279 OA
HETATM   11 CL11 UNL     1     -31.404   8.226   3.816  1.00 20.00    -0.043 Cl
ENDBRANCH   8   9
TORSDOF 1
ENDMDL
MODEL 2
REMARK VINA RESULT:      -5.1      0.748      1.954
REMARK  1 active torsions:
REMARK  status: ('A' for Active; 'I' for Inactive)
REMARK    1  A    between atoms: C1_1  and  C9_9 
ROOT
HETATM    1  C2  UNL     1     -33.633   6.446   5.888  1.00 20.00     0.002 C 
HETATM    2  C3  UNL     1     -34.961   5.798   5.479  1.00 20.00     0.005 C 
HETATM    3  C4  UNL     1     -33.836   4.534   3.572  1.00 20.00     0.006 C 
HETATM    4  C5  UNL     1     -33.101   7.425   4.836  1.00 20.00     0.018 C 
HETATM    5  C6  UNL     1     -32.702   5.504   3.205  1.00 20.00     0.019 C 
HETATM    6  C7  UNL     1     -34.786   6.676   3.147  1.00 20.00     0.023 C 
HETATM    7  C8  UNL     1     -35.017   5.423   3.987  1.00 20.00    -0.013 C 
HETATM    8  C9  UNL     1     -33.296   6.912   3.398  1.00 20.00     0.036 C 
ENDROOT
BRANCH   8   9
HETATM    9  C1  UNL     1     -32.725   7.892   2.418  1.00 20.00     0.227 C 
HETATM   10  O10 UNL     1     -33.265   8.114   1.339  1.00 20.00    -0.279 OA
HETATM   11 CL11 UNL     1     -31.266   8.631   3.008  1.00 20.00    -0.043 Cl
ENDBRANCH   8   9
TORSDOF 1
ENDMDL
MODEL 3
REMARK VINA RESULT:      -4.9     11.467     12.594
REMARK  1 active torsions:
REMARK  status: ('A' for Active; 'I' for Inactive)
REMARK    1  A    between atoms: C1_1  and  C9_9 
ROOT
HETATM    1  C2  UNL     1     -35.173  16.975  -3.245  1.00 20.00     0.002 C 
HETATM    2  C3  UNL     1     -33.726  16.532  -2.994  1.00 20.00     0.005 C 
HETATM    3  C4  UNL     1     -33.371  16.048  -5.471  1.00 20.00     0.006 C 
HETATM    4  C5  UNL     1     -36.076  15.826  -3.702  1.00 20.00     0.018 C 
HETATM    5  C6  UNL     1     -34.792  15.648  -5.900  1.00 20.00     0.019 C 
HETATM    6  C7  UNL     1     -34.124  14.299  -4.041  1.00 20.00     0.023 C 
HETATM    7  C8  UNL     1     -33.213  15.524  -4.037  1.00 20.00    -0.013 C 
HETATM    8  C9  UNL     1     -35.376  14.883  -4.698  1.00 20.00     0.036 C 
ENDROOT
BRANCH   8   9
HETATM    9  C1  UNL     1     -36.318  13.802  -5.135  1.00 20.00     0.227 C 
HETATM   10  O10 UNL     1     -35.932  12.657  -5.346  1.00 20.00    -0.279 OA
HETATM   11 CL11 UNL     1     -37.950  14.380  -5.287  1.00 20.00    -0.043 Cl
ENDBRANCH   8   9
TORSDOF 1
ENDMDL
MODEL 4
REMARK VINA RESULT:      -4.8     11.599     12.568
REMARK  1 active torsions:
REMARK  status: ('A' for Active; 'I' for Inactive)
REMARK    1  A    between atoms: C1_1  and  C9_9 
ROOT
HETATM    1  C2  UNL     1     -36.128  16.446  -3.257  1.00 20.00     0.002 C 
HETATM    2  C3  UNL     1     -34.756  16.497  -2.575  1.00 20.00     0.005 C 
HETATM    3  C4  UNL     1     -33.574  16.783  -4.815  1.00 20.00     0.006 C 
HETATM    4  C5  UNL     1     -36.314  15.198  -4.126  1.00 20.00     0.018 C 
HETATM    5  C6  UNL     1     -34.527  16.022  -5.750  1.00 20.00     0.019 C 
HETATM    6  C7  UNL     1     -33.895  14.591  -3.941  1.00 20.00     0.023 C 
HETATM    7  C8  UNL     1     -33.610  16.019  -3.484  1.00 20.00    -0.013 C 
HETATM    8  C9  UNL     1     -35.046  14.833  -4.919  1.00 20.00     0.036 C 
ENDROOT
BRANCH   8   9
HETATM    9  C1  UNL     1     -35.300  13.629  -5.774  1.00 20.00     0.227 C 
HETATM   10  O10 UNL     1     -35.951  12.673  -5.365  1.00 20.00    -0.279 OA
HETATM   11 CL11 UNL     1     -34.575  13.780  -7.347  1.00 20.00    -0.043 Cl
ENDBRANCH   8   9
TORSDOF 1
ENDMDL
MODEL 5
REMARK VINA RESULT:      -4.5     11.657     13.032
REMARK  1 active torsions:
REMARK  status: ('A' for Active; 'I' for Inactive)
REMARK    1  A    between atoms: C1_1  and  C9_9 
ROOT
HETATM    1  C2  UNL     1     -33.664  16.440  -6.409  1.00 20.00     0.002 C 
HETATM    2  C3  UNL     1     -34.017  17.526  -5.385  1.00 20.00     0.005 C 
HETATM    3  C4  UNL     1     -33.700  15.899  -3.447  1.00 20.00     0.006 C 
HETATM    4  C5  UNL     1     -34.708  15.321  -6.472  1.00 20.00     0.018 C 
HETATM    5  C6  UNL     1     -34.093  14.570  -4.112  1.00 20.00     0.019 C 
HETATM    6  C7  UNL     1     -35.862  16.151  -4.414  1.00 20.00     0.023 C 
HETATM    7  C8  UNL     1     -34.611  16.960  -4.083  1.00 20.00    -0.013 C 
HETATM    8  C9  UNL     1     -35.236  14.924  -5.081  1.00 20.00     0.036 C 
ENDROOT
BRANCH   8   9
HETATM    9  C1  UNL     1     -36.225  13.805  -5.204  1.00 20.00     0.227 C 
HETATM   10  O10 UNL     1     -35.869  12.631  -5.243  1.00 20.00    -0.279 OA
HETATM   11 CL11 UNL     1     -37.862  14.384  -5.275  1.00 20.00    -0.043 Cl
ENDBRANCH   8   9
TORSDOF 1
ENDMDL
MODEL 6
REMARK VINA RESULT:      -4.4     11.728     13.038
REMARK  1 active torsions:
REMARK  status: ('A' for Active; 'I' for Inactive)
REMARK    1  A    between atoms: C1_1  and  C9_9 
ROOT
HETATM    1  C2  UNL     1     -34.504  13.541  -7.330  1.00 20.00     0.002 C 
HETATM    2  C3  UNL     1     -33.703  14.846  -7.416  1.00 20.00     0.005 C 
HETATM    3  C4  UNL     1     -33.420  14.921  -4.884  1.00 20.00     0.006 C 
HETATM    4  C5  UNL     1     -35.862  13.721  -6.643  1.00 20.00     0.018 C 
HETATM    5  C6  UNL     1     -34.708  14.221  -4.423  1.00 20.00     0.019 C 
HETATM    6  C7  UNL     1     -35.277  16.030  -5.880  1.00 20.00     0.023 C 
HETATM    7  C8  UNL     1     -33.809  15.706  -6.145  1.00 20.00    -0.013 C 
HETATM    8  C9  UNL     1     -35.790  14.662  -5.426  1.00 20.00     0.036 C 
ENDROOT
BRANCH   8   9
HETATM    9  C1  UNL     1     -37.136  14.771  -4.777  1.00 20.00     0.227 C 
HETATM   10  O10 UNL     1     -37.981  13.888  -4.892  1.00 20.00    -0.279 OA
HETATM   11 CL11 UNL     1     -37.312  16.251  -3.883  1.00 20.00    -0.043 Cl
ENDBRANCH   8   9
TORSDOF 1
ENDMDL
MODEL 7
REMARK VINA RESULT:      -4.3     11.823     13.007
REMARK  1 active torsions:
REMARK  status: ('A' for Active; 'I' for Inactive)
REMARK    1  A    between atoms: C1_1  and  C9_9 
ROOT
HETATM    1  C2  UNL     1     -34.226  17.290  -5.802  1.00 20.00     0.002 C 
HETATM    2  C3  UNL     1     -35.173  17.758  -4.691  1.00 20.00     0.005 C 
HETATM    3  C4  UNL     1     -34.321  15.950  -3.108  1.00 20.00     0.006 C 
HETATM    4  C5  UNL     1     -34.580  15.899  -6.337  1.00 20.00     0.018 C 
HETATM    5  C6  UNL     1     -33.941  14.843  -4.104  1.00 20.00     0.019 C 
HETATM    6  C7  UNL     1     -36.211  15.496  -4.485  1.00 20.00     0.023 C 
HETATM    7  C8  UNL     1     -35.556  16.636  -3.710  1.00 20.00    -0.013 C 
HETATM    8  C9  UNL     1     -34.998  14.924  -5.222  1.00 20.00     0.036 C 
ENDROOT
BRANCH   8   9
HETATM    9  C1  UNL     1     -35.296  13.574  -5.800  1.00 20.00     0.227 C 
HETATM   10  O10 UNL     1     -35.956  12.741  -5.187  1.00 20.00    -0.279 OA
HETATM   11 CL11 UNL     1     -34.609  13.376  -7.384  1.00 20.00    -0.043 Cl
ENDBRANCH   8   9
TORSDOF 1
ENDMDL
MODEL 8
REMARK VINA RESULT:      -4.3     11.758     12.851
REMARK  1 active torsions:
REMARK  status: ('A' for Active; 'I' for Inactive)
REMARK    1  A    between atoms: C1_1  and  C9_9 
ROOT
HETATM    1  C2  UNL     1     -34.024  16.226  -3.038  1.00 20.00     0.002 C 
HETATM    2  C3  UNL     1     -34.284  17.493  -3.861  1.00 20.00     0.005 C 
HETATM    3  C4  UNL     1     -36.719  16.838  -4.231  1.00 20.00     0.006 C 
HETATM    4  C5  UNL     1     -34.114  14.945  -3.874  1.00 20.00     0.018 C 
HETATM    5  C6  UNL     1     -36.618  15.305  -4.213  1.00 20.00     0.019 C 
HETATM    6  C7  UNL     1     -35.080  16.174  -5.827  1.00 20.00     0.023 C 
HETATM    7  C8  UNL     1     -35.419  17.327  -4.886  1.00 20.00    -0.013 C 
HETATM    8  C9  UNL     1     -35.272  14.981  -4.889  1.00 20.00     0.036 C 
ENDROOT
BRANCH   8   9
HETATM    9  C1  UNL     1     -35.331  13.691  -5.650  1.00 20.00     0.227 C 
HETATM   10  O10 UNL     1     -35.968  12.727  -5.237  1.00 20.00    -0.279 OA
HETATM   11 CL11 UNL     1     -34.415  13.762  -7.126  1.00 20.00    -0.043 Cl
ENDBRANCH   8   9
TORSDOF 1
ENDMDL
MODEL 9
REMARK VINA RESULT:      -4.2     11.631     12.714
REMARK  1 active torsions:
REMARK  status: ('A' for Active; 'I' for Inactive)
REMARK    1  A    between atoms: C1_1  and  C9_9 
ROOT
HETATM    1  C2  UNL     1     -34.539  14.287  -7.501  1.00 20.00     0.002 C 
HETATM    2  C3  UNL     1     -35.201  13.066  -6.852  1.00 20.00     0.005 C 
HETATM    3  C4  UNL     1     -36.989  14.523  -5.766  1.00 20.00     0.006 C 
HETATM    4  C5  UNL     1     -33.909  15.236  -6.477  1.00 20.00     0.018 C 
HETATM    5  C6  UNL     1     -36.215  15.836  -5.565  1.00 20.00     0.019 C 
HETATM    6  C7  UNL     1     -34.990  14.043  -4.563  1.00 20.00     0.023 C 
HETATM    7  C8  UNL     1     -35.958  13.405  -5.556  1.00 20.00    -0.013 C 
HETATM    8  C9  UNL     1     -34.777  15.410  -5.217  1.00 20.00     0.036 C 
ENDROOT
BRANCH   8   9
HETATM    9  C1  UNL     1     -34.128  16.373  -4.271  1.00 20.00     0.227 C 
HETATM   10  O10 UNL     1     -33.282  17.178  -4.649  1.00 20.00    -0.279 OA
HETATM   11 CL11 UNL     1     -34.720  16.193  -2.647  1.00 20.00    -0.043 Cl
ENDBRANCH   8   9
TORSDOF 1
ENDMDL
