MODEL 1
REMARK VINA RESULT:      -5.0      0.000      0.000
REMARK  1 active torsions:
REMARK  status: ('A' for Active; 'I' for Inactive)
REMARK    1  A    between atoms: C6_6  and  N10_10 
ROOT
HETATM    1  C1  UNL     1     -32.506   9.271   1.365  1.00 20.00     0.064 C 
HETATM    2  C2  UNL     1     -31.536   8.400   3.490  1.00 20.00     0.021 C 
HETATM    3  C3  UNL     1     -32.512   7.841   4.522  1.00 20.00     0.037 C 
HETATM    4  C4  UNL     1     -33.371   7.188   2.405  1.00 20.00     0.055 C 
HETATM    5  C5  UNL     1     -32.141   8.062   2.116  1.00 20.00     0.095 C 
HETATM    6  C6  UNL     1     -33.121   6.642   3.807  1.00 20.00     0.223 C 
HETATM    7  N9  UNL     1     -32.795  10.225   0.772  1.00 20.00    -0.197 NA
ENDROOT
BRANCH   6   8
HETATM    8  N10 UNL     1     -34.333   6.162   4.447  1.00 20.00     0.084 N 
HETATM    9  C7  UNL     1     -34.321   6.465   5.881  1.00 20.00     0.309 C 
HETATM   10  C8  UNL     1     -34.494   4.719   4.239  1.00 20.00     0.309 C 
ENDBRANCH   6   8
TORSDOF 1
ENDMDL
MODEL 2
REMARK VINA RESULT:      -4.8      1.458      4.440
REMARK  1 active torsions:
REMARK  status: ('A' for Active; 'I' for Inactive)
REMARK    1  A    between atoms: C6_6  and  N10_10 
ROOT
HETATM    1  C1  UNL     1     -34.353   4.390   4.286  1.00 20.00     0.064 C 
HETATM    2  C2  UNL     1     -34.190   6.733   5.121  1.00 20.00     0.021 C 
HETATM    3  C3  UNL     1     -33.038   7.582   4.589  1.00 20.00     0.037 C 
HETATM    4  C4  UNL     1     -33.757   6.252   2.755  1.00 20.00     0.055 C 
HETATM    5  C5  UNL     1     -34.593   5.803   3.964  1.00 20.00     0.095 C 
HETATM    6  C6  UNL     1     -33.340   7.678   3.099  1.00 20.00     0.223 C 
HETATM    7  N9  UNL     1     -34.163   3.274   4.541  1.00 20.00    -0.197 NA
ENDROOT
BRANCH   6   8
HETATM    8  N10 UNL     1     -32.200   8.133   2.323  1.00 20.00     0.084 N 
HETATM    9  C7  UNL     1     -31.089   8.514   3.201  1.00 20.00     0.309 C 
HETATM   10  C8  UNL     1     -32.571   9.262   1.464  1.00 20.00     0.309 C 
ENDBRANCH   6   8
TORSDOF 1
ENDMDL
MODEL 3
REMARK VINA RESULT:      -4.2     10.978     11.550
REMARK  1 active torsions:
REMARK  status: ('A' for Active; 'I' for Inactive)
REMARK    1  A    between atoms: C6_6  and  N10_10 
ROOT
HETATM    1  C1  UNL     1     -33.170  18.132  -2.328  1.00 20.00     0.064 C 
HETATM    2  C2  UNL     1     -35.221  16.773  -1.926  1.00 20.00     0.021 C 
HETATM    3  C3  UNL     1     -35.936  16.214  -3.154  1.00 20.00     0.037 C 
HETATM    4  C4  UNL     1     -33.615  16.072  -3.642  1.00 20.00     0.055 C 
HETATM    5  C5  UNL     1     -33.723  16.772  -2.278  1.00 20.00     0.095 C 
HETATM    6  C6  UNL     1     -34.905  15.266  -3.752  1.00 20.00     0.223 C 
HETATM    7  N9  UNL     1     -32.734  19.206  -2.368  1.00 20.00    -0.197 NA
ENDROOT
BRANCH   6   8
HETATM    8  N10 UNL     1     -35.216  14.888  -5.119  1.00 20.00     0.084 N 
HETATM    9  C7  UNL     1     -35.927  13.606  -5.156  1.00 20.00     0.309 C 
HETATM   10  C8  UNL     1     -33.996  14.809  -5.928  1.00 20.00     0.309 C 
ENDBRANCH   6   8
TORSDOF 1
ENDMDL
MODEL 4
REMARK VINA RESULT:      -4.1     10.841     11.600
REMARK  1 active torsions:
REMARK  status: ('A' for Active; 'I' for Inactive)
REMARK    1  A    between atoms: C6_6  and  N10_10 
ROOT
HETATM    1  C1  UNL     1     -33.245  18.091  -2.718  1.00 20.00     0.064 C 
HETATM    2  C2  UNL     1     -35.229  16.648  -2.274  1.00 20.00     0.021 C 
HETATM    3  C3  UNL     1     -35.820  15.893  -3.462  1.00 20.00     0.037 C 
HETATM    4  C4  UNL     1     -33.466  15.858  -3.784  1.00 20.00     0.055 C 
HETATM    5  C5  UNL     1     -33.713  16.711  -2.530  1.00 20.00     0.095 C 
HETATM    6  C6  UNL     1     -34.692  14.955  -3.870  1.00 20.00     0.223 C 
HETATM    7  N9  UNL     1     -32.876  19.180  -2.868  1.00 20.00    -0.197 NA
ENDROOT
BRANCH   6   8
HETATM    8  N10 UNL     1     -34.882  14.390  -5.195  1.00 20.00     0.084 N 
HETATM    9  C7  UNL     1     -34.907  15.444  -6.213  1.00 20.00     0.309 C 
HETATM   10  C8  UNL     1     -36.120  13.606  -5.253  1.00 20.00     0.309 C 
ENDBRANCH   6   8
TORSDOF 1
ENDMDL
MODEL 5
REMARK VINA RESULT:      -4.0     10.489     12.177
REMARK  1 active torsions:
REMARK  status: ('A' for Active; 'I' for Inactive)
REMARK    1  A    between atoms: C6_6  and  N10_10 
ROOT
HETATM    1  C1  UNL     1     -35.202  13.643  -4.699  1.00 20.00     0.064 C 
HETATM    2  C2  UNL     1     -33.133  15.008  -4.968  1.00 20.00     0.021 C 
HETATM    3  C3  UNL     1     -33.300  16.525  -4.992  1.00 20.00     0.037 C 
HETATM    4  C4  UNL     1     -34.870  15.731  -3.395  1.00 20.00     0.055 C 
HETATM    5  C5  UNL     1     -34.215  14.483  -4.008  1.00 20.00     0.095 C 
HETATM    6  C6  UNL     1     -33.838  16.834  -3.602  1.00 20.00     0.223 C 
HETATM    7  N9  UNL     1     -35.981  12.980  -5.246  1.00 20.00    -0.197 NA
ENDROOT
BRANCH   6   8
HETATM    8  N10 UNL     1     -34.412  18.165  -3.505  1.00 20.00     0.084 N 
HETATM    9  C7  UNL     1     -35.559  18.306  -4.407  1.00 20.00     0.309 C 
HETATM   10  C8  UNL     1     -33.406  19.189  -3.806  1.00 20.00     0.309 C 
ENDBRANCH   6   8
TORSDOF 1
ENDMDL
MODEL 6
REMARK VINA RESULT:      -3.8     11.040     12.120
REMARK  1 active torsions:
REMARK  status: ('A' for Active; 'I' for Inactive)
REMARK    1  A    between atoms: C6_6  and  N10_10 
ROOT
HETATM    1  C1  UNL     1     -36.923  13.936  -5.090  1.00 20.00     0.064 C 
HETATM    2  C2  UNL     1     -34.841  14.267  -6.421  1.00 20.00     0.021 C 
HETATM    3  C3  UNL     1     -34.082  15.575  -6.211  1.00 20.00     0.037 C 
HETATM    4  C4  UNL     1     -34.901  14.956  -4.068  1.00 20.00     0.055 C 
HETATM    5  C5  UNL     1     -35.454  13.915  -5.055  1.00 20.00     0.095 C 
HETATM    6  C6  UNL     1     -33.649  15.492  -4.753  1.00 20.00     0.223 C 
HETATM    7  N9  UNL     1     -38.082  13.954  -5.118  1.00 20.00    -0.197 NA
ENDROOT
BRANCH   6   8
HETATM    8  N10 UNL     1     -33.222  16.774  -4.220  1.00 20.00     0.084 N 
HETATM    9  C7  UNL     1     -33.679  16.943  -2.838  1.00 20.00     0.309 C 
HETATM   10  C8  UNL     1     -33.717  17.875  -5.052  1.00 20.00     0.309 C 
ENDBRANCH   6   8
TORSDOF 1
ENDMDL
MODEL 7
REMARK VINA RESULT:      -3.8      1.426      4.444
REMARK  1 active torsions:
REMARK  status: ('A' for Active; 'I' for Inactive)
REMARK    1  A    between atoms: C6_6  and  N10_10 
ROOT
HETATM    1  C1  UNL     1     -33.139   7.435   4.935  1.00 20.00     0.064 C 
HETATM    2  C2  UNL     1     -33.078   6.492   2.628  1.00 20.00     0.021 C 
HETATM    3  C3  UNL     1     -33.258   7.472   1.472  1.00 20.00     0.037 C 
HETATM    4  C4  UNL     1     -31.966   8.627   3.098  1.00 20.00     0.055 C 
HETATM    5  C5  UNL     1     -32.326   7.270   3.722  1.00 20.00     0.095 C 
HETATM    6  C6  UNL     1     -32.040   8.378   1.595  1.00 20.00     0.223 C 
HETATM    7  N9  UNL     1     -33.781   7.566   5.892  1.00 20.00    -0.197 NA
ENDROOT
BRANCH   6   8
HETATM    8  N10 UNL     1     -32.172   9.605   0.829  1.00 20.00     0.084 N 
HETATM    9  C7  UNL     1     -32.804  10.656   1.631  1.00 20.00     0.309 C 
HETATM   10  C8  UNL     1     -32.946   9.374  -0.395  1.00 20.00     0.309 C 
ENDBRANCH   6   8
TORSDOF 1
ENDMDL
MODEL 8
REMARK VINA RESULT:      -3.7     10.662     11.370
REMARK  1 active torsions:
REMARK  status: ('A' for Active; 'I' for Inactive)
REMARK    1  A    between atoms: C6_6  and  N10_10 
ROOT
HETATM    1  C1  UNL     1     -35.326  17.056  -1.420  1.00 20.00     0.064 C 
HETATM    2  C2  UNL     1     -33.851  16.156  -3.216  1.00 20.00     0.021 C 
HETATM    3  C3  UNL     1     -34.280  14.849  -3.878  1.00 20.00     0.037 C 
HETATM    4  C4  UNL     1     -36.287  16.057  -3.481  1.00 20.00     0.055 C 
HETATM    5  C5  UNL     1     -35.154  16.896  -2.870  1.00 20.00     0.095 C 
HETATM    6  C6  UNL     1     -35.596  15.218  -4.550  1.00 20.00     0.223 C 
HETATM    7  N9  UNL     1     -35.462  17.181  -0.275  1.00 20.00    -0.197 NA
ENDROOT
BRANCH   6   8
HETATM    8  N10 UNL     1     -36.373  14.055  -4.942  1.00 20.00     0.084 N 
HETATM    9  C7  UNL     1     -35.782  13.403  -6.114  1.00 20.00     0.309 C 
HETATM   10  C8  UNL     1     -37.763  14.428  -5.222  1.00 20.00     0.309 C 
ENDBRANCH   6   8
TORSDOF 1
ENDMDL
MODEL 9
REMARK VINA RESULT:      -3.6     10.855     11.746
REMARK  1 active torsions:
REMARK  status: ('A' for Active; 'I' for Inactive)
REMARK    1  A    between atoms: C6_6  and  N10_10 
ROOT
HETATM    1  C1  UNL     1     -33.400  18.534   2.796  1.00 20.00     0.064 C 
HETATM    2  C2  UNL     1     -32.024  19.262   0.849  1.00 20.00     0.021 C 
HETATM    3  C3  UNL     1     -31.997  18.339  -0.367  1.00 20.00     0.037 C 
HETATM    4  C4  UNL     1     -34.219  18.235   0.471  1.00 20.00     0.055 C 
HETATM    5  C5  UNL     1     -33.433  19.121   1.450  1.00 20.00     0.095 C 
HETATM    6  C6  UNL     1     -33.445  18.348  -0.839  1.00 20.00     0.223 C 
HETATM    7  N9  UNL     1     -33.373  18.070   3.859  1.00 20.00    -0.197 NA
ENDROOT
BRANCH   6   8
HETATM    8  N10 UNL     1     -33.742  17.267  -1.762  1.00 20.00     0.084 N 
HETATM    9  C7  UNL     1     -33.540  17.696  -3.150  1.00 20.00     0.309 C 
HETATM   10  C8  UNL     1     -35.116  16.788  -1.579  1.00 20.00     0.309 C 
ENDBRANCH   6   8
TORSDOF 1
ENDMDL
