MODEL 1
REMARK VINA RESULT:      -5.3      0.000      0.000
REMARK  1 active torsions:
REMARK  status: ('A' for Active; 'I' for Inactive)
REMARK    1  A    between atoms: C3_3  and  C7_7 
ROOT
HETATM    1  C1  UNL     1     -32.560   7.717   4.351  1.00 20.00    -0.020 C 
HETATM    2  C2  UNL     1     -33.642   7.307   5.037  1.00 20.00    -0.086 C 
HETATM    3  C4  UNL     1     -34.731   6.476   4.403  1.00 20.00     0.045 C 
HETATM    4  C5  UNL     1     -33.593   6.914   2.180  1.00 20.00     0.020 C 
HETATM    5  C6  UNL     1     -32.328   7.426   2.892  1.00 20.00     0.005 C 
HETATM    6  C7  UNL     1     -34.379   5.910   3.022  1.00 20.00     0.059 C 
HETATM    7  C8  UNL     1     -33.835   7.648   6.486  1.00 20.00     0.043 C 
HETATM    8  C10 UNL     1     -31.789   8.664   2.171  1.00 20.00     0.014 C 
ENDROOT
BRANCH   6   9
HETATM    9  C3  UNL     1     -33.612   4.622   3.146  1.00 20.00     0.127 C 
HETATM   10  C9  UNL     1     -33.912   3.770   4.348  1.00 20.00     0.091 C 
HETATM   11  O11 UNL     1     -32.783   4.283   2.304  1.00 20.00    -0.298 OA
ENDBRANCH   6   9
TORSDOF 1
ENDMDL
MODEL 2
REMARK VINA RESULT:      -4.5     11.474     13.079
REMARK  1 active torsions:
REMARK  status: ('A' for Active; 'I' for Inactive)
REMARK    1  A    between atoms: C3_3  and  C7_7 
ROOT
HETATM    1  C1  UNL     1     -34.930  16.875  -4.910  1.00 20.00    -0.020 C 
HETATM    2  C2  UNL     1     -34.333  16.697  -6.101  1.00 20.00    -0.086 C 
HETATM    3  C4  UNL     1     -33.721  15.377  -6.507  1.00 20.00     0.045 C 
HETATM    4  C5  UNL     1     -34.094  14.617  -4.117  1.00 20.00     0.020 C 
HETATM    5  C6  UNL     1     -35.029  15.810  -3.849  1.00 20.00     0.005 C 
HETATM    6  C7  UNL     1     -34.073  14.202  -5.588  1.00 20.00     0.059 C 
HETATM    7  C8  UNL     1     -34.242  17.802  -7.113  1.00 20.00     0.043 C 
HETATM    8  C10 UNL     1     -34.743  16.396  -2.465  1.00 20.00     0.014 C 
ENDROOT
BRANCH   6   9
HETATM    9  C3  UNL     1     -35.391  13.590  -5.974  1.00 20.00     0.127 C 
HETATM   10  C9  UNL     1     -35.945  13.972  -7.320  1.00 20.00     0.091 C 
HETATM   11  O11 UNL     1     -35.984  12.814  -5.227  1.00 20.00    -0.298 OA
ENDBRANCH   6   9
TORSDOF 1
ENDMDL
MODEL 3
REMARK VINA RESULT:      -4.5      1.864      3.164
REMARK  1 active torsions:
REMARK  status: ('A' for Active; 'I' for Inactive)
REMARK    1  A    between atoms: C3_3  and  C7_7 
ROOT
HETATM    1  C1  UNL     1     -32.225   6.279   2.665  1.00 20.00    -0.020 C 
HETATM    2  C2  UNL     1     -32.604   7.552   2.873  1.00 20.00    -0.086 C 
HETATM    3  C4  UNL     1     -33.937   7.906   3.489  1.00 20.00     0.045 C 
HETATM    4  C5  UNL     1     -34.549   5.457   3.257  1.00 20.00     0.020 C 
HETATM    5  C6  UNL     1     -33.080   5.081   2.988  1.00 20.00     0.005 C 
HETATM    6  C7  UNL     1     -34.689   6.721   4.104  1.00 20.00     0.059 C 
HETATM    7  C8  UNL     1     -31.720   8.709   2.509  1.00 20.00     0.043 C 
HETATM    8  C10 UNL     1     -33.005   4.043   1.865  1.00 20.00     0.014 C 
ENDROOT
BRANCH   6   9
HETATM    9  C3  UNL     1     -34.227   6.458   5.510  1.00 20.00     0.127 C 
HETATM   10  C9  UNL     1     -34.557   5.110   6.090  1.00 20.00     0.091 C 
HETATM   11  O11 UNL     1     -33.608   7.304   6.153  1.00 20.00    -0.298 OA
ENDBRANCH   6   9
TORSDOF 1
ENDMDL
MODEL 4
REMARK VINA RESULT:      -4.4     11.713     12.687
REMARK  1 active torsions:
REMARK  status: ('A' for Active; 'I' for Inactive)
REMARK    1  A    between atoms: C3_3  and  C7_7 
ROOT
HETATM    1  C1  UNL     1     -36.254  15.915  -3.978  1.00 20.00    -0.020 C 
HETATM    2  C2  UNL     1     -35.045  15.793  -3.403  1.00 20.00    -0.086 C 
HETATM    3  C4  UNL     1     -34.027  14.780  -3.870  1.00 20.00     0.045 C 
HETATM    4  C5  UNL     1     -35.860  13.804  -5.327  1.00 20.00     0.020 C 
HETATM    5  C6  UNL     1     -36.737  15.052  -5.114  1.00 20.00     0.005 C 
HETATM    6  C7  UNL     1     -34.366  14.106  -5.205  1.00 20.00     0.059 C 
HETATM    7  C8  UNL     1     -34.624  16.665  -2.256  1.00 20.00     0.043 C 
HETATM    8  C10 UNL     1     -38.193  14.633  -4.895  1.00 20.00     0.014 C 
ENDROOT
BRANCH   6   9
HETATM    9  C3  UNL     1     -33.909  14.945  -6.365  1.00 20.00     0.127 C 
HETATM   10  C9  UNL     1     -34.205  14.415  -7.742  1.00 20.00     0.091 C 
HETATM   11  O11 UNL     1     -33.324  16.013  -6.197  1.00 20.00    -0.298 OA
ENDBRANCH   6   9
TORSDOF 1
ENDMDL
MODEL 5
REMARK VINA RESULT:      -4.3     11.543     12.400
REMARK  1 active torsions:
REMARK  status: ('A' for Active; 'I' for Inactive)
REMARK    1  A    between atoms: C3_3  and  C7_7 
ROOT
HETATM    1  C1  UNL     1     -35.898  16.796  -2.627  1.00 20.00    -0.020 C 
HETATM    2  C2  UNL     1     -36.566  16.802  -3.794  1.00 20.00    -0.086 C 
HETATM    3  C4  UNL     1     -35.922  16.386  -5.095  1.00 20.00     0.045 C 
HETATM    4  C5  UNL     1     -33.718  16.351  -3.842  1.00 20.00     0.020 C 
HETATM    5  C6  UNL     1     -34.449  16.408  -2.488  1.00 20.00     0.005 C 
HETATM    6  C7  UNL     1     -34.559  15.701  -4.940  1.00 20.00     0.059 C 
HETATM    7  C8  UNL     1     -38.005  17.222  -3.878  1.00 20.00     0.043 C 
HETATM    8  C10 UNL     1     -33.720  17.366  -1.543  1.00 20.00     0.014 C 
ENDROOT
BRANCH   6   9
HETATM    9  C3  UNL     1     -34.721  14.231  -4.670  1.00 20.00     0.127 C 
HETATM   10  C9  UNL     1     -36.004  13.596  -5.132  1.00 20.00     0.091 C 
HETATM   11  O11 UNL     1     -33.846  13.580  -4.102  1.00 20.00    -0.298 OA
ENDBRANCH   6   9
TORSDOF 1
ENDMDL
MODEL 6
REMARK VINA RESULT:      -4.2     11.585     12.640
REMARK  1 active torsions:
REMARK  status: ('A' for Active; 'I' for Inactive)
REMARK    1  A    between atoms: C3_3  and  C7_7 
ROOT
HETATM    1  C1  UNL     1     -33.585  17.114  -4.434  1.00 20.00    -0.020 C 
HETATM    2  C2  UNL     1     -34.107  16.777  -3.242  1.00 20.00    -0.086 C 
HETATM    3  C4  UNL     1     -35.400  16.007  -3.116  1.00 20.00     0.045 C 
HETATM    4  C5  UNL     1     -35.698  16.354  -5.611  1.00 20.00     0.020 C 
HETATM    5  C6  UNL     1     -34.230  16.795  -5.757  1.00 20.00     0.005 C 
HETATM    6  C7  UNL     1     -35.914  15.407  -4.430  1.00 20.00     0.059 C 
HETATM    7  C8  UNL     1     -33.433  17.143  -1.952  1.00 20.00     0.043 C 
HETATM    8  C10 UNL     1     -34.138  17.991  -6.707  1.00 20.00     0.014 C 
ENDROOT
BRANCH   6   9
HETATM    9  C3  UNL     1     -35.270  14.077  -4.705  1.00 20.00     0.127 C 
HETATM   10  C9  UNL     1     -35.739  13.338  -5.929  1.00 20.00     0.091 C 
HETATM   11  O11 UNL     1     -34.401  13.617  -3.967  1.00 20.00    -0.298 OA
ENDBRANCH   6   9
TORSDOF 1
ENDMDL
MODEL 7
REMARK VINA RESULT:      -4.2     12.011     13.170
REMARK  1 active torsions:
REMARK  status: ('A' for Active; 'I' for Inactive)
REMARK    1  A    between atoms: C3_3  and  C7_7 
ROOT
HETATM    1  C1  UNL     1     -35.828  15.496  -3.659  1.00 20.00    -0.020 C 
HETATM    2  C2  UNL     1     -34.961  16.210  -2.920  1.00 20.00    -0.086 C 
HETATM    3  C4  UNL     1     -33.552  16.495  -3.381  1.00 20.00     0.045 C 
HETATM    4  C5  UNL     1     -33.978  14.860  -5.272  1.00 20.00     0.020 C 
HETATM    5  C6  UNL     1     -35.492  14.883  -4.993  1.00 20.00     0.005 C 
HETATM    6  C7  UNL     1     -33.281  16.154  -4.851  1.00 20.00     0.059 C 
HETATM    7  C8  UNL     1     -35.342  16.778  -1.584  1.00 20.00     0.043 C 
HETATM    8  C10 UNL     1     -36.063  13.467  -5.098  1.00 20.00     0.014 C 
ENDROOT
BRANCH   6   9
HETATM    9  C3  UNL     1     -33.694  17.284  -5.753  1.00 20.00     0.127 C 
HETATM   10  C9  UNL     1     -33.847  16.962  -7.215  1.00 20.00     0.091 C 
HETATM   11  O11 UNL     1     -33.898  18.415  -5.316  1.00 20.00    -0.298 OA
ENDBRANCH   6   9
TORSDOF 1
ENDMDL
MODEL 8
REMARK VINA RESULT:      -4.0     11.574     13.051
REMARK  1 active torsions:
REMARK  status: ('A' for Active; 'I' for Inactive)
REMARK    1  A    between atoms: C3_3  and  C7_7 
ROOT
HETATM    1  C1  UNL     1     -35.612  16.043  -5.815  1.00 20.00    -0.020 C 
HETATM    2  C2  UNL     1     -35.688  14.896  -5.118  1.00 20.00    -0.086 C 
HETATM    3  C4  UNL     1     -34.641  14.497  -4.105  1.00 20.00     0.045 C 
HETATM    4  C5  UNL     1     -33.263  16.449  -4.954  1.00 20.00     0.020 C 
HETATM    5  C6  UNL     1     -34.482  17.031  -5.692  1.00 20.00     0.005 C 
HETATM    6  C7  UNL     1     -33.654  15.611  -3.737  1.00 20.00     0.059 C 
HETATM    7  C8  UNL     1     -36.826  13.935  -5.299  1.00 20.00     0.043 C 
HETATM    8  C10 UNL     1     -34.060  17.546  -7.070  1.00 20.00     0.014 C 
ENDROOT
BRANCH   6   9
HETATM    9  C3  UNL     1     -34.214  16.494  -2.656  1.00 20.00     0.127 C 
HETATM   10  C9  UNL     1     -33.315  17.584  -2.140  1.00 20.00     0.091 C 
HETATM   11  O11 UNL     1     -35.352  16.333  -2.218  1.00 20.00    -0.298 OA
ENDBRANCH   6   9
TORSDOF 1
ENDMDL
MODEL 9
REMARK VINA RESULT:      -4.0     11.123     12.711
REMARK  1 active torsions:
REMARK  status: ('A' for Active; 'I' for Inactive)
REMARK    1  A    between atoms: C3_3  and  C7_7 
ROOT
HETATM    1  C1  UNL     1     -33.154  15.695  -5.425  1.00 20.00    -0.020 C 
HETATM    2  C2  UNL     1     -33.231  14.663  -4.567  1.00 20.00    -0.086 C 
HETATM    3  C4  UNL     1     -34.551  14.074  -4.130  1.00 20.00     0.045 C 
HETATM    4  C5  UNL     1     -35.663  16.037  -5.289  1.00 20.00     0.020 C 
HETATM    5  C6  UNL     1     -34.352  16.391  -6.016  1.00 20.00     0.005 C 
HETATM    6  C7  UNL     1     -35.762  14.552  -4.941  1.00 20.00     0.059 C 
HETATM    7  C8  UNL     1     -32.003  14.022  -3.990  1.00 20.00     0.043 C 
HETATM    8  C10 UNL     1     -34.152  17.908  -6.018  1.00 20.00     0.014 C 
ENDROOT
BRANCH   6   9
HETATM    9  C3  UNL     1     -35.930  13.735  -6.192  1.00 20.00     0.127 C 
HETATM   10  C9  UNL     1     -36.768  14.338  -7.286  1.00 20.00     0.091 C 
HETATM   11  O11 UNL     1     -35.406  12.629  -6.315  1.00 20.00    -0.298 OA
ENDBRANCH   6   9
TORSDOF 1
ENDMDL
