MODEL 1
REMARK VINA RESULT:      -4.5      0.000      0.000
REMARK  1 active torsions:
REMARK  status: ('A' for Active; 'I' for Inactive)
REMARK    1  A    between atoms: C3_3  and  C4_4 
ROOT
HETATM    1  C1  UNL     1     -33.498   7.218   5.122  1.00 20.00     0.142 A 
HETATM    2  C2  UNL     1     -33.829   6.079   3.156  1.00 20.00     0.087 A 
HETATM    3  C3  UNL     1     -33.150   7.123   3.744  1.00 20.00     0.052 A 
HETATM    4  N5  UNL     1     -34.375   6.334   5.591  1.00 20.00    -0.223 NA
HETATM    5  S7  UNL     1     -34.815   5.331   4.341  1.00 20.00    -0.000 SA
ENDROOT
BRANCH   3   6
HETATM    6  C4  UNL     1     -32.230   7.968   3.035  1.00 20.00     0.254 C 
HETATM    7  O6  UNL     1     -31.123   8.258   3.555  1.00 20.00    -0.274 OA
HETATM    8 CL8  UNL     1     -32.611   8.627   1.423  1.00 20.00    -0.038 Cl
ENDBRANCH   3   6
TORSDOF 1
ENDMDL
MODEL 2
REMARK VINA RESULT:      -4.4      0.981      1.480
REMARK  1 active torsions:
REMARK  status: ('A' for Active; 'I' for Inactive)
REMARK    1  A    between atoms: C3_3  and  C4_4 
ROOT
HETATM    1  C1  UNL     1     -33.328   5.667   2.907  1.00 20.00     0.142 A 
HETATM    2  C2  UNL     1     -33.744   7.115   4.639  1.00 20.00     0.087 A 
HETATM    3  C3  UNL     1     -33.062   6.955   3.453  1.00 20.00     0.052 A 
HETATM    4  N5  UNL     1     -34.144   4.870   3.593  1.00 20.00    -0.223 NA
HETATM    5  S7  UNL     1     -34.629   5.684   4.959  1.00 20.00    -0.000 SA
ENDROOT
BRANCH   3   6
HETATM    6  C4  UNL     1     -32.218   7.968   2.882  1.00 20.00     0.254 C 
HETATM    7  O6  UNL     1     -31.194   8.349   3.505  1.00 20.00    -0.274 OA
HETATM    8 CL8  UNL     1     -32.578   8.709   1.303  1.00 20.00    -0.038 Cl
ENDBRANCH   3   6
TORSDOF 1
ENDMDL
MODEL 3
REMARK VINA RESULT:      -4.0      3.524      3.698
REMARK  1 active torsions:
REMARK  status: ('A' for Active; 'I' for Inactive)
REMARK    1  A    between atoms: C3_3  and  C4_4 
ROOT
HETATM    1  C1  UNL     1     -32.891   7.623   4.794  1.00 20.00     0.142 A 
HETATM    2  C2  UNL     1     -33.193   6.902   2.636  1.00 20.00     0.087 A 
HETATM    3  C3  UNL     1     -33.637   6.769   3.933  1.00 20.00     0.052 A 
HETATM    4  N5  UNL     1     -31.938   8.367   4.239  1.00 20.00    -0.223 NA
HETATM    5  S7  UNL     1     -31.919   8.047   2.608  1.00 20.00    -0.000 SA
ENDROOT
BRANCH   3   6
HETATM    6  C4  UNL     1     -34.704   5.888   4.318  1.00 20.00     0.254 C 
HETATM    7  O6  UNL     1     -35.774   5.878   3.655  1.00 20.00    -0.274 OA
HETATM    8 CL8  UNL     1     -34.561   4.796   5.719  1.00 20.00    -0.038 Cl
ENDBRANCH   3   6
TORSDOF 1
ENDMDL
MODEL 4
REMARK VINA RESULT:      -3.8      3.333      3.522
REMARK  1 active torsions:
REMARK  status: ('A' for Active; 'I' for Inactive)
REMARK    1  A    between atoms: C3_3  and  C4_4 
ROOT
HETATM    1  C1  UNL     1     -32.027   8.064   4.220  1.00 20.00     0.142 A 
HETATM    2  C2  UNL     1     -33.460   7.215   2.639  1.00 20.00     0.087 A 
HETATM    3  C3  UNL     1     -33.186   7.270   3.988  1.00 20.00     0.052 A 
HETATM    4  N5  UNL     1     -31.429   8.594   3.156  1.00 20.00    -0.223 NA
HETATM    5  S7  UNL     1     -32.279   8.133   1.804  1.00 20.00    -0.000 SA
ENDROOT
BRANCH   3   6
HETATM    6  C4  UNL     1     -33.982   6.609   4.985  1.00 20.00     0.254 C 
HETATM    7  O6  UNL     1     -34.079   7.107   6.136  1.00 20.00    -0.274 OA
HETATM    8 CL8  UNL     1     -34.847   5.089   4.640  1.00 20.00    -0.038 Cl
ENDBRANCH   3   6
TORSDOF 1
ENDMDL
MODEL 5
REMARK VINA RESULT:      -3.5     11.180     11.531
REMARK  1 active torsions:
REMARK  status: ('A' for Active; 'I' for Inactive)
REMARK    1  A    between atoms: C3_3  and  C4_4 
ROOT
HETATM    1  C1  UNL     1     -34.727  13.931  -4.253  1.00 20.00     0.142 A 
HETATM    2  C2  UNL     1     -36.453  15.434  -4.436  1.00 20.00     0.087 A 
HETATM    3  C3  UNL     1     -35.218  15.211  -3.868  1.00 20.00     0.052 A 
HETATM    4  N5  UNL     1     -35.498  13.197  -5.052  1.00 20.00    -0.223 NA
HETATM    5  S7  UNL     1     -36.880  14.064  -5.371  1.00 20.00    -0.000 SA
ENDROOT
BRANCH   3   6
HETATM    6  C4  UNL     1     -34.554  16.161  -3.019  1.00 20.00     0.254 C 
HETATM    7  O6  UNL     1     -33.431  16.617  -3.353  1.00 20.00    -0.274 OA
HETATM    8 CL8  UNL     1     -35.279  16.721  -1.490  1.00 20.00    -0.038 Cl
ENDBRANCH   3   6
TORSDOF 1
ENDMDL
MODEL 6
REMARK VINA RESULT:      -3.5     11.596     12.035
REMARK  1 active torsions:
REMARK  status: ('A' for Active; 'I' for Inactive)
REMARK    1  A    between atoms: C3_3  and  C4_4 
ROOT
HETATM    1  C1  UNL     1     -35.396  13.810  -4.662  1.00 20.00     0.142 A 
HETATM    2  C2  UNL     1     -34.320  14.588  -6.535  1.00 20.00     0.087 A 
HETATM    3  C3  UNL     1     -34.539  14.816  -5.194  1.00 20.00     0.052 A 
HETATM    4  N5  UNL     1     -35.824  12.868  -5.498  1.00 20.00    -0.223 NA
HETATM    5  S7  UNL     1     -35.180  13.181  -6.998  1.00 20.00    -0.000 SA
ENDROOT
BRANCH   3   6
HETATM    6  C4  UNL     1     -33.964  15.918  -4.474  1.00 20.00     0.254 C 
HETATM    7  O6  UNL     1     -33.165  16.694  -5.058  1.00 20.00    -0.274 OA
HETATM    8 CL8  UNL     1     -34.350  16.224  -2.762  1.00 20.00    -0.038 Cl
ENDBRANCH   3   6
TORSDOF 1
ENDMDL
MODEL 7
REMARK VINA RESULT:      -3.5     11.408     11.632
REMARK  1 active torsions:
REMARK  status: ('A' for Active; 'I' for Inactive)
REMARK    1  A    between atoms: C3_3  and  C4_4 
ROOT
HETATM    1  C1  UNL     1     -36.128  13.630  -5.149  1.00 20.00     0.142 A 
HETATM    2  C2  UNL     1     -36.484  15.610  -4.043  1.00 20.00     0.087 A 
HETATM    3  C3  UNL     1     -35.529  14.684  -4.401  1.00 20.00     0.052 A 
HETATM    4  N5  UNL     1     -37.438  13.704  -5.366  1.00 20.00    -0.223 NA
HETATM    5  S7  UNL     1     -38.000  15.096  -4.652  1.00 20.00    -0.000 SA
ENDROOT
BRANCH   3   6
HETATM    6  C4  UNL     1     -34.140  14.803  -4.054  1.00 20.00     0.254 C 
HETATM    7  O6  UNL     1     -33.347  13.866  -4.325  1.00 20.00    -0.274 OA
HETATM    8 CL8  UNL     1     -33.497  16.254  -3.243  1.00 20.00    -0.038 Cl
ENDBRANCH   3   6
TORSDOF 1
ENDMDL
MODEL 8
REMARK VINA RESULT:      -3.5     11.976     12.165
REMARK  1 active torsions:
REMARK  status: ('A' for Active; 'I' for Inactive)
REMARK    1  A    between atoms: C3_3  and  C4_4 
ROOT
HETATM    1  C1  UNL     1     -33.910  14.953  -5.528  1.00 20.00     0.142 A 
HETATM    2  C2  UNL     1     -35.114  15.601  -3.684  1.00 20.00     0.087 A 
HETATM    3  C3  UNL     1     -35.102  14.759  -4.774  1.00 20.00     0.052 A 
HETATM    4  N5  UNL     1     -33.050  15.867  -5.085  1.00 20.00    -0.223 NA
HETATM    5  S7  UNL     1     -33.679  16.536  -3.699  1.00 20.00    -0.000 SA
ENDROOT
BRANCH   3   6
HETATM    6  C4  UNL     1     -36.158  13.830  -5.069  1.00 20.00     0.254 C 
HETATM    7  O6  UNL     1     -35.883  12.621  -5.279  1.00 20.00    -0.274 OA
HETATM    8 CL8  UNL     1     -37.863  14.341  -5.147  1.00 20.00    -0.038 Cl
ENDBRANCH   3   6
TORSDOF 1
ENDMDL
MODEL 9
REMARK VINA RESULT:      -3.5     11.699     11.800
REMARK  1 active torsions:
REMARK  status: ('A' for Active; 'I' for Inactive)
REMARK    1  A    between atoms: C3_3  and  C4_4 
ROOT
HETATM    1  C1  UNL     1     -33.681  15.214  -4.120  1.00 20.00     0.142 A 
HETATM    2  C2  UNL     1     -35.958  15.442  -3.938  1.00 20.00     0.087 A 
HETATM    3  C3  UNL     1     -34.949  14.741  -4.562  1.00 20.00     0.052 A 
HETATM    4  N5  UNL     1     -33.674  16.201  -3.228  1.00 20.00    -0.223 NA
HETATM    5  S7  UNL     1     -35.253  16.596  -2.887  1.00 20.00    -0.000 SA
ENDROOT
BRANCH   3   6
HETATM    6  C4  UNL     1     -35.187  13.691  -5.513  1.00 20.00     0.254 C 
HETATM    7  O6  UNL     1     -35.974  12.754  -5.223  1.00 20.00    -0.274 OA
HETATM    8 CL8  UNL     1     -34.393  13.672  -7.108  1.00 20.00    -0.038 Cl
ENDBRANCH   3   6
TORSDOF 1
ENDMDL
