MODEL 1
REMARK VINA RESULT:      -5.7      0.000      0.000
REMARK  1 active torsions:
REMARK  status: ('A' for Active; 'I' for Inactive)
REMARK    1  A    between atoms: C5_5  and  C7_7 
ROOT
HETATM    1  C1  UNL     1     -32.449   7.762   2.103  1.00 20.00    -0.026 A 
HETATM    2  C2  UNL     1     -33.554   7.018   2.252  1.00 20.00    -0.013 A 
HETATM    3  C3  UNL     1     -32.292   8.024   4.600  1.00 20.00    -0.019 A 
HETATM    4  C4  UNL     1     -33.400   7.279   4.767  1.00 20.00    -0.071 A 
HETATM    5  C6  UNL     1     -31.686   8.330   3.261  1.00 20.00     0.054 A 
HETATM    6  C7  UNL     1     -34.140   6.684   3.594  1.00 20.00     0.123 A 
HETATM    7  C8  UNL     1     -33.990   7.055   6.133  1.00 20.00     0.044 C 
ENDROOT
BRANCH   6   8
HETATM    8  C5  UNL     1     -34.064   5.190   3.703  1.00 20.00     0.230 C 
HETATM    9  O9  UNL     1     -34.782   4.561   4.475  1.00 20.00    -0.279 OA
HETATM   10 CL10 UNL     1     -32.873   4.517   2.631  1.00 20.00    -0.043 Cl
ENDBRANCH   6   8
TORSDOF 1
ENDMDL
MODEL 2
REMARK VINA RESULT:      -5.3      2.163      3.696
REMARK  1 active torsions:
REMARK  status: ('A' for Active; 'I' for Inactive)
REMARK    1  A    between atoms: C5_5  and  C7_7 
ROOT
HETATM    1  C1  UNL     1     -34.116   6.681   6.032  1.00 20.00    -0.026 A 
HETATM    2  C2  UNL     1     -33.927   7.649   5.125  1.00 20.00    -0.013 A 
HETATM    3  C3  UNL     1     -34.282   4.984   4.182  1.00 20.00    -0.019 A 
HETATM    4  C4  UNL     1     -34.093   5.945   3.258  1.00 20.00    -0.071 A 
HETATM    5  C6  UNL     1     -34.295   5.240   5.661  1.00 20.00     0.054 A 
HETATM    6  C7  UNL     1     -33.879   7.388   3.646  1.00 20.00     0.123 A 
HETATM    7  C8  UNL     1     -34.146   5.634   1.788  1.00 20.00     0.044 C 
ENDROOT
BRANCH   6   8
HETATM    8  C5  UNL     1     -32.501   7.789   3.213  1.00 20.00     0.230 C 
HETATM    9  O9  UNL     1     -31.517   7.578   3.916  1.00 20.00    -0.279 OA
HETATM   10 CL10 UNL     1     -32.503   8.556   1.654  1.00 20.00    -0.043 Cl
ENDBRANCH   6   8
TORSDOF 1
ENDMDL
MODEL 3
REMARK VINA RESULT:      -5.2      2.333      3.794
REMARK  1 active torsions:
REMARK  status: ('A' for Active; 'I' for Inactive)
REMARK    1  A    between atoms: C5_5  and  C7_7 
ROOT
HETATM    1  C1  UNL     1     -34.553   4.373   4.511  1.00 20.00    -0.026 A 
HETATM    2  C2  UNL     1     -34.780   5.665   4.784  1.00 20.00    -0.013 A 
HETATM    3  C3  UNL     1     -33.018   5.042   2.634  1.00 20.00    -0.019 A 
HETATM    4  C4  UNL     1     -33.235   6.345   2.895  1.00 20.00    -0.071 A 
HETATM    5  C6  UNL     1     -33.632   3.920   3.418  1.00 20.00     0.054 A 
HETATM    6  C7  UNL     1     -34.139   6.788   4.021  1.00 20.00     0.123 A 
HETATM    7  C8  UNL     1     -32.634   7.424   2.037  1.00 20.00     0.044 C 
ENDROOT
BRANCH   6   8
HETATM    8  C5  UNL     1     -33.306   7.529   5.024  1.00 20.00     0.230 C 
HETATM    9  O9  UNL     1     -32.255   8.079   4.710  1.00 20.00    -0.279 OA
HETATM   10 CL10 UNL     1     -34.012   7.497   6.611  1.00 20.00    -0.043 Cl
ENDBRANCH   6   8
TORSDOF 1
ENDMDL
MODEL 4
REMARK VINA RESULT:      -4.8     11.544     12.710
REMARK  1 active torsions:
REMARK  status: ('A' for Active; 'I' for Inactive)
REMARK    1  A    between atoms: C5_5  and  C7_7 
ROOT
HETATM    1  C1  UNL     1     -33.721  16.301  -3.722  1.00 20.00    -0.026 A 
HETATM    2  C2  UNL     1     -34.031  15.000  -3.810  1.00 20.00    -0.013 A 
HETATM    3  C3  UNL     1     -33.650  16.450  -6.233  1.00 20.00    -0.019 A 
HETATM    4  C4  UNL     1     -33.961  15.144  -6.338  1.00 20.00    -0.071 A 
HETATM    5  C6  UNL     1     -33.515  17.172  -4.925  1.00 20.00     0.054 A 
HETATM    6  C7  UNL     1     -34.199  14.285  -5.120  1.00 20.00     0.123 A 
HETATM    7  C8  UNL     1     -34.026  14.464  -7.678  1.00 20.00     0.044 C 
ENDROOT
BRANCH   6   8
HETATM    8  C5  UNL     1     -35.626  13.825  -5.145  1.00 20.00     0.230 C 
HETATM    9  O9  UNL     1     -35.921  12.639  -5.256  1.00 20.00    -0.279 OA
HETATM   10 CL10 UNL     1     -36.742  15.149  -4.998  1.00 20.00    -0.043 Cl
ENDBRANCH   6   8
TORSDOF 1
ENDMDL
MODEL 5
REMARK VINA RESULT:      -4.8      2.111      3.146
REMARK  1 active torsions:
REMARK  status: ('A' for Active; 'I' for Inactive)
REMARK    1  A    between atoms: C5_5  and  C7_7 
ROOT
HETATM    1  C1  UNL     1     -33.780   4.395   3.261  1.00 20.00    -0.026 A 
HETATM    2  C2  UNL     1     -32.908   5.378   2.994  1.00 20.00    -0.013 A 
HETATM    3  C3  UNL     1     -34.529   5.624   5.324  1.00 20.00    -0.019 A 
HETATM    4  C4  UNL     1     -33.659   6.619   5.071  1.00 20.00    -0.071 A 
HETATM    5  C6  UNL     1     -34.699   4.419   4.445  1.00 20.00     0.054 A 
HETATM    6  C7  UNL     1     -32.763   6.599   3.856  1.00 20.00     0.123 A 
HETATM    7  C8  UNL     1     -33.497   7.774   6.021  1.00 20.00     0.044 C 
ENDROOT
BRANCH   6   8
HETATM    8  C5  UNL     1     -33.139   7.755   2.978  1.00 20.00     0.230 C 
HETATM    9  O9  UNL     1     -34.304   8.124   2.861  1.00 20.00    -0.279 OA
HETATM   10 CL10 UNL     1     -31.757   8.458   2.195  1.00 20.00    -0.043 Cl
ENDBRANCH   6   8
TORSDOF 1
ENDMDL
MODEL 6
REMARK VINA RESULT:      -4.6      2.333      3.242
REMARK  1 active torsions:
REMARK  status: ('A' for Active; 'I' for Inactive)
REMARK    1  A    between atoms: C5_5  and  C7_7 
ROOT
HETATM    1  C1  UNL     1     -34.249   5.560   3.306  1.00 20.00    -0.026 A 
HETATM    2  C2  UNL     1     -33.249   6.064   2.570  1.00 20.00    -0.013 A 
HETATM    3  C3  UNL     1     -33.722   7.201   5.139  1.00 20.00    -0.019 A 
HETATM    4  C4  UNL     1     -32.714   7.719   4.412  1.00 20.00    -0.071 A 
HETATM    5  C6  UNL     1     -34.607   6.086   4.664  1.00 20.00     0.054 A 
HETATM    6  C7  UNL     1     -32.386   7.203   3.032  1.00 20.00     0.123 A 
HETATM    7  C8  UNL     1     -31.827   8.799   4.967  1.00 20.00     0.044 C 
ENDROOT
BRANCH   6   8
HETATM    8  C5  UNL     1     -32.625   8.310   2.050  1.00 20.00     0.230 C 
HETATM    9  O9  UNL     1     -33.665   8.963   2.053  1.00 20.00    -0.279 OA
HETATM   10 CL10 UNL     1     -31.284   8.524   0.965  1.00 20.00    -0.043 Cl
ENDBRANCH   6   8
TORSDOF 1
ENDMDL
MODEL 7
REMARK VINA RESULT:      -4.5     11.573     12.261
REMARK  1 active torsions:
REMARK  status: ('A' for Active; 'I' for Inactive)
REMARK    1  A    between atoms: C5_5  and  C7_7 
ROOT
HETATM    1  C1  UNL     1     -37.115  15.418  -4.134  1.00 20.00    -0.026 A 
HETATM    2  C2  UNL     1     -36.763  14.315  -4.809  1.00 20.00    -0.013 A 
HETATM    3  C3  UNL     1     -34.715  15.772  -3.468  1.00 20.00    -0.019 A 
HETATM    4  C4  UNL     1     -34.345  14.667  -4.141  1.00 20.00    -0.071 A 
HETATM    5  C6  UNL     1     -36.127  16.278  -3.405  1.00 20.00     0.054 A 
HETATM    6  C7  UNL     1     -35.345  13.828  -4.899  1.00 20.00     0.123 A 
HETATM    7  C8  UNL     1     -32.922  14.180  -4.119  1.00 20.00     0.044 C 
ENDROOT
BRANCH   6   8
HETATM    8  C5  UNL     1     -34.994  13.886  -6.356  1.00 20.00     0.230 C 
HETATM    9  O9  UNL     1     -34.755  12.871  -7.003  1.00 20.00    -0.279 OA
HETATM   10 CL10 UNL     1     -34.979  15.515  -6.960  1.00 20.00    -0.043 Cl
ENDBRANCH   6   8
TORSDOF 1
ENDMDL
MODEL 8
REMARK VINA RESULT:      -4.5     12.219     12.620
REMARK  1 active torsions:
REMARK  status: ('A' for Active; 'I' for Inactive)
REMARK    1  A    between atoms: C5_5  and  C7_7 
ROOT
HETATM    1  C1  UNL     1     -34.627  18.168   0.314  1.00 20.00    -0.026 A 
HETATM    2  C2  UNL     1     -35.545  17.430  -0.325  1.00 20.00    -0.013 A 
HETATM    3  C3  UNL     1     -32.984  17.724  -1.538  1.00 20.00    -0.019 A 
HETATM    4  C4  UNL     1     -33.894  16.980  -2.193  1.00 20.00    -0.071 A 
HETATM    5  C6  UNL     1     -33.252  18.412  -0.231  1.00 20.00     0.054 A 
HETATM    6  C7  UNL     1     -35.287  16.770  -1.649  1.00 20.00     0.123 A 
HETATM    7  C8  UNL     1     -33.546  16.270  -3.473  1.00 20.00     0.044 C 
ENDROOT
BRANCH   6   8
HETATM    8  C5  UNL     1     -36.260  17.395  -2.604  1.00 20.00     0.230 C 
HETATM    9  O9  UNL     1     -37.024  16.715  -3.284  1.00 20.00    -0.279 OA
HETATM   10 CL10 UNL     1     -36.153  19.129  -2.604  1.00 20.00    -0.043 Cl
ENDBRANCH   6   8
TORSDOF 1
ENDMDL
MODEL 9
REMARK VINA RESULT:      -4.4     11.399     12.150
REMARK  1 active torsions:
REMARK  status: ('A' for Active; 'I' for Inactive)
REMARK    1  A    between atoms: C5_5  and  C7_7 
ROOT
HETATM    1  C1  UNL     1     -36.601  14.235  -5.653  1.00 20.00    -0.026 A 
HETATM    2  C2  UNL     1     -35.558  13.646  -5.052  1.00 20.00    -0.013 A 
HETATM    3  C3  UNL     1     -36.237  16.296  -4.258  1.00 20.00    -0.019 A 
HETATM    4  C4  UNL     1     -35.186  15.719  -3.645  1.00 20.00    -0.071 A 
HETATM    5  C6  UNL     1     -37.043  15.631  -5.335  1.00 20.00     0.054 A 
HETATM    6  C7  UNL     1     -34.730  14.324  -3.998  1.00 20.00     0.123 A 
HETATM    7  C8  UNL     1     -34.453  16.417  -2.532  1.00 20.00     0.044 C 
ENDROOT
BRANCH   6   8
HETATM    8  C5  UNL     1     -33.348  14.417  -4.573  1.00 20.00     0.230 C 
HETATM    9  O9  UNL     1     -32.430  13.712  -4.164  1.00 20.00    -0.279 OA
HETATM   10 CL10 UNL     1     -33.244  15.603  -5.838  1.00 20.00    -0.043 Cl
ENDBRANCH   6   8
TORSDOF 1
ENDMDL
