MODEL 1
REMARK VINA RESULT:      -5.8      0.000      0.000
REMARK  3 active torsions:
REMARK  status: ('A' for Active; 'I' for Inactive)
REMARK    1  A    between atoms: C1_1  and  C7_7 
REMARK    2  A    between atoms: C2_2  and  C8_8 
REMARK    3  A    between atoms: C4_4  and  C9_9 
ROOT
HETATM    1  C8  UNL     1     -31.599   7.967   2.518  1.00 20.00     0.233 A 
HETATM    2  C9  UNL     1     -31.823   9.018   1.480  1.00 20.00     0.186 A 
HETATM    3  O10 UNL     1     -31.683   9.342   2.871  1.00 20.00    -0.358 OA
ENDROOT
BRANCH   1   4
HETATM    4  C2  UNL     1     -32.717   7.206   3.073  1.00 20.00    -0.071 C 
HETATM    5  C1  UNL     1     -33.635   6.581   3.529  1.00 20.00    -0.099 C 
BRANCH   5   6
HETATM    6  C7  UNL     1     -34.753   5.820   4.085  1.00 20.00     0.065 A 
HETATM    7  C5  UNL     1     -34.690   5.440   5.525  1.00 20.00     0.018 A 
HETATM    8  C6  UNL     1     -34.509   4.398   4.463  1.00 20.00     0.018 A 
ENDBRANCH   5   6
ENDBRANCH   1   4
BRANCH   2   9
HETATM    9  C4  UNL     1     -33.092   9.129   0.774  1.00 20.00    -0.002 C 
HETATM   10  C3  UNL     1     -33.200   9.382  -0.535  1.00 20.00     0.009 C 
ENDBRANCH   2   9
TORSDOF 3
ENDMDL
MODEL 2
REMARK VINA RESULT:      -5.7      1.924      5.126
REMARK  3 active torsions:
REMARK  status: ('A' for Active; 'I' for Inactive)
REMARK    1  A    between atoms: C1_1  and  C7_7 
REMARK    2  A    between atoms: C2_2  and  C8_8 
REMARK    3  A    between atoms: C4_4  and  C9_9 
ROOT
HETATM    1  C8  UNL     1     -34.247   5.509   3.265  1.00 20.00     0.233 A 
HETATM    2  C9  UNL     1     -34.603   5.309   4.702  1.00 20.00     0.186 A 
HETATM    3  O10 UNL     1     -35.489   5.967   3.785  1.00 20.00    -0.358 OA
ENDROOT
BRANCH   1   4
HETATM    4  C2  UNL     1     -33.401   6.625   2.847  1.00 20.00    -0.071 C 
HETATM    5  C1  UNL     1     -32.705   7.541   2.502  1.00 20.00    -0.099 C 
BRANCH   5   6
HETATM    6  C7  UNL     1     -31.859   8.657   2.084  1.00 20.00     0.065 A 
HETATM    7  C5  UNL     1     -32.506   9.788   1.358  1.00 20.00     0.018 A 
HETATM    8  C6  UNL     1     -31.611   8.835   0.623  1.00 20.00     0.018 A 
ENDBRANCH   5   6
ENDBRANCH   1   4
BRANCH   2   9
HETATM    9  C4  UNL     1     -33.904   6.021   5.763  1.00 20.00    -0.002 C 
HETATM   10  C3  UNL     1     -34.016   7.335   5.983  1.00 20.00     0.009 C 
ENDBRANCH   2   9
TORSDOF 3
ENDMDL
MODEL 3
REMARK VINA RESULT:      -5.7      1.916      5.107
REMARK  3 active torsions:
REMARK  status: ('A' for Active; 'I' for Inactive)
REMARK    1  A    between atoms: C1_1  and  C7_7 
REMARK    2  A    between atoms: C2_2  and  C8_8 
REMARK    3  A    between atoms: C4_4  and  C9_9 
ROOT
HETATM    1  C8  UNL     1     -33.337   5.834   3.011  1.00 20.00     0.233 A 
HETATM    2  C9  UNL     1     -34.110   5.936   4.285  1.00 20.00     0.186 A 
HETATM    3  O10 UNL     1     -34.757   5.760   3.017  1.00 20.00    -0.358 OA
ENDROOT
BRANCH   1   4
HETATM    4  C2  UNL     1     -32.869   7.031   2.315  1.00 20.00    -0.071 C 
HETATM    5  C1  UNL     1     -32.484   8.015   1.744  1.00 20.00    -0.099 C 
BRANCH   5   6
HETATM    6  C7  UNL     1     -32.016   9.212   1.047  1.00 20.00     0.065 A 
HETATM    7  C5  UNL     1     -32.783  10.476   1.242  1.00 20.00     0.018 A 
HETATM    8  C6  UNL     1     -32.856   9.745  -0.065  1.00 20.00     0.018 A 
ENDBRANCH   5   6
ENDBRANCH   1   4
BRANCH   2   9
HETATM    9  C4  UNL     1     -34.179   7.185   5.033  1.00 20.00    -0.002 C 
HETATM   10  C3  UNL     1     -33.668   7.353   6.256  1.00 20.00     0.009 C 
ENDBRANCH   2   9
TORSDOF 3
ENDMDL
MODEL 4
REMARK VINA RESULT:      -4.7      1.732      5.059
REMARK  3 active torsions:
REMARK  status: ('A' for Active; 'I' for Inactive)
REMARK    1  A    between atoms: C1_1  and  C7_7 
REMARK    2  A    between atoms: C2_2  and  C8_8 
REMARK    3  A    between atoms: C4_4  and  C9_9 
ROOT
HETATM    1  C8  UNL     1     -33.981   7.367   5.277  1.00 20.00     0.233 A 
HETATM    2  C9  UNL     1     -34.572   6.009   5.473  1.00 20.00     0.186 A 
HETATM    3  O10 UNL     1     -33.282   6.358   5.994  1.00 20.00    -0.358 OA
ENDROOT
BRANCH   1   4
HETATM    4  C2  UNL     1     -33.289   7.715   4.037  1.00 20.00    -0.071 C 
HETATM    5  C1  UNL     1     -32.721   8.002   3.019  1.00 20.00    -0.099 C 
BRANCH   5   6
HETATM    6  C7  UNL     1     -32.030   8.351   1.779  1.00 20.00     0.065 A 
HETATM    7  C5  UNL     1     -32.107   9.765   1.313  1.00 20.00     0.018 A 
HETATM    8  C6  UNL     1     -32.862   8.691   0.588  1.00 20.00     0.018 A 
ENDBRANCH   5   6
ENDBRANCH   1   4
BRANCH   2   9
HETATM    9  C4  UNL     1     -34.744   5.087   4.358  1.00 20.00    -0.002 C 
HETATM   10  C3  UNL     1     -34.105   3.918   4.249  1.00 20.00     0.009 C 
ENDBRANCH   2   9
TORSDOF 3
ENDMDL
MODEL 5
REMARK VINA RESULT:      -4.4     10.772     11.368
REMARK  3 active torsions:
REMARK  status: ('A' for Active; 'I' for Inactive)
REMARK    1  A    between atoms: C1_1  and  C7_7 
REMARK    2  A    between atoms: C2_2  and  C8_8 
REMARK    3  A    between atoms: C4_4  and  C9_9 
ROOT
HETATM    1  C8  UNL     1     -36.338  14.103  -5.186  1.00 20.00     0.233 A 
HETATM    2  C9  UNL     1     -35.655  13.470  -6.354  1.00 20.00     0.186 A 
HETATM    3  O10 UNL     1     -35.905  12.749  -5.140  1.00 20.00    -0.358 OA
ENDROOT
BRANCH   1   4
HETATM    4  C2  UNL     1     -35.595  14.931  -4.237  1.00 20.00    -0.071 C 
HETATM    5  C1  UNL     1     -34.984  15.612  -3.459  1.00 20.00    -0.099 C 
BRANCH   5   6
HETATM    6  C7  UNL     1     -34.241  16.440  -2.511  1.00 20.00     0.065 A 
HETATM    7  C5  UNL     1     -34.980  16.996  -1.342  1.00 20.00     0.018 A 
HETATM    8  C6  UNL     1     -34.557  17.898  -2.462  1.00 20.00     0.018 A 
ENDBRANCH   5   6
ENDBRANCH   1   4
BRANCH   2   9
HETATM    9  C4  UNL     1     -34.317  13.876  -6.762  1.00 20.00    -0.002 C 
HETATM   10  C3  UNL     1     -34.041  14.493  -7.916  1.00 20.00     0.009 C 
ENDBRANCH   2   9
TORSDOF 3
ENDMDL
MODEL 6
REMARK VINA RESULT:      -4.0     10.328     11.172
REMARK  3 active torsions:
REMARK  status: ('A' for Active; 'I' for Inactive)
REMARK    1  A    between atoms: C1_1  and  C7_7 
REMARK    2  A    between atoms: C2_2  and  C8_8 
REMARK    3  A    between atoms: C4_4  and  C9_9 
ROOT
HETATM    1  C8  UNL     1     -34.698  14.322  -4.326  1.00 20.00     0.233 A 
HETATM    2  C9  UNL     1     -33.941  14.414  -5.610  1.00 20.00     0.186 A 
HETATM    3  O10 UNL     1     -33.354  13.867  -4.421  1.00 20.00    -0.358 OA
ENDROOT
BRANCH   1   4
HETATM    4  C2  UNL     1     -34.807  15.474  -3.432  1.00 20.00    -0.071 C 
HETATM    5  C1  UNL     1     -34.898  16.421  -2.699  1.00 20.00    -0.099 C 
BRANCH   5   6
HETATM    6  C7  UNL     1     -35.008  17.572  -1.806  1.00 20.00     0.065 A 
HETATM    7  C5  UNL     1     -33.993  17.715  -0.723  1.00 20.00     0.018 A 
HETATM    8  C6  UNL     1     -35.400  17.321  -0.388  1.00 20.00     0.018 A 
ENDBRANCH   5   6
ENDBRANCH   1   4
BRANCH   2   9
HETATM    9  C4  UNL     1     -33.537  15.700  -6.163  1.00 20.00    -0.002 C 
HETATM   10  C3  UNL     1     -33.882  16.133  -7.380  1.00 20.00     0.009 C 
ENDBRANCH   2   9
TORSDOF 3
ENDMDL
MODEL 7
REMARK VINA RESULT:      -4.0     10.285     11.271
REMARK  3 active torsions:
REMARK  status: ('A' for Active; 'I' for Inactive)
REMARK    1  A    between atoms: C1_1  and  C7_7 
REMARK    2  A    between atoms: C2_2  and  C8_8 
REMARK    3  A    between atoms: C4_4  and  C9_9 
ROOT
HETATM    1  C8  UNL     1     -35.185  17.361  -0.442  1.00 20.00     0.233 A 
HETATM    2  C9  UNL     1     -34.206  18.326   0.142  1.00 20.00     0.186 A 
HETATM    3  O10 UNL     1     -35.372  18.765  -0.568  1.00 20.00    -0.358 OA
ENDROOT
BRANCH   1   4
HETATM    4  C2  UNL     1     -34.944  16.737  -1.742  1.00 20.00    -0.071 C 
HETATM    5  C1  UNL     1     -34.746  16.225  -2.810  1.00 20.00    -0.099 C 
BRANCH   5   6
HETATM    6  C7  UNL     1     -34.506  15.602  -4.110  1.00 20.00     0.065 A 
HETATM    7  C5  UNL     1     -34.554  14.114  -4.190  1.00 20.00     0.018 A 
HETATM    8  C6  UNL     1     -33.241  14.832  -4.292  1.00 20.00     0.018 A 
ENDBRANCH   5   6
ENDBRANCH   1   4
BRANCH   2   9
HETATM    9  C4  UNL     1     -32.861  18.463  -0.400  1.00 20.00    -0.002 C 
HETATM   10  C3  UNL     1     -31.782  18.746   0.338  1.00 20.00     0.009 C 
ENDBRANCH   2   9
TORSDOF 3
ENDMDL
MODEL 8
REMARK VINA RESULT:      -3.9     10.109     11.237
REMARK  3 active torsions:
REMARK  status: ('A' for Active; 'I' for Inactive)
REMARK    1  A    between atoms: C1_1  and  C7_7 
REMARK    2  A    between atoms: C2_2  and  C8_8 
REMARK    3  A    between atoms: C4_4  and  C9_9 
ROOT
HETATM    1  C8  UNL     1     -34.663  13.895  -4.208  1.00 20.00     0.233 A 
HETATM    2  C9  UNL     1     -35.731  13.686  -5.232  1.00 20.00     0.186 A 
HETATM    3  O10 UNL     1     -34.371  13.961  -5.599  1.00 20.00    -0.358 OA
ENDROOT
BRANCH   1   4
HETATM    4  C2  UNL     1     -34.481  15.195  -3.564  1.00 20.00    -0.071 C 
HETATM    5  C1  UNL     1     -34.332  16.262  -3.035  1.00 20.00    -0.099 C 
BRANCH   5   6
HETATM    6  C7  UNL     1     -34.149  17.562  -2.390  1.00 20.00     0.065 A 
HETATM    7  C5  UNL     1     -32.937  17.756  -1.544  1.00 20.00     0.018 A 
HETATM    8  C6  UNL     1     -34.289  17.630  -0.907  1.00 20.00     0.018 A 
ENDBRANCH   5   6
ENDBRANCH   1   4
BRANCH   2   9
HETATM    9  C4  UNL     1     -36.803  14.654  -5.419  1.00 20.00    -0.002 C 
HETATM   10  C3  UNL     1     -38.095  14.393  -5.192  1.00 20.00     0.009 C 
ENDBRANCH   2   9
TORSDOF 3
ENDMDL
MODEL 9
REMARK VINA RESULT:      -3.9     10.756     11.300
REMARK  3 active torsions:
REMARK  status: ('A' for Active; 'I' for Inactive)
REMARK    1  A    between atoms: C1_1  and  C7_7 
REMARK    2  A    between atoms: C2_2  and  C8_8 
REMARK    3  A    between atoms: C4_4  and  C9_9 
ROOT
HETATM    1  C8  UNL     1     -33.365  15.265  -5.101  1.00 20.00     0.233 A 
HETATM    2  C9  UNL     1     -34.388  14.341  -5.678  1.00 20.00     0.186 A 
HETATM    3  O10 UNL     1     -34.282  15.710  -6.092  1.00 20.00    -0.358 OA
ENDROOT
BRANCH   1   4
HETATM    4  C2  UNL     1     -33.594  15.937  -3.823  1.00 20.00    -0.071 C 
HETATM    5  C1  UNL     1     -33.782  16.491  -2.774  1.00 20.00    -0.099 C 
BRANCH   5   6
HETATM    6  C7  UNL     1     -34.011  17.164  -1.497  1.00 20.00     0.065 A 
HETATM    7  C5  UNL     1     -35.384  17.110  -0.917  1.00 20.00     0.018 A 
HETATM    8  C6  UNL     1     -34.862  18.390  -1.497  1.00 20.00     0.018 A 
ENDBRANCH   5   6
ENDBRANCH   1   4
BRANCH   2   9
HETATM    9  C4  UNL     1     -35.502  13.847  -4.880  1.00 20.00    -0.002 C 
HETATM   10  C3  UNL     1     -36.787  13.991  -5.219  1.00 20.00     0.009 C 
ENDBRANCH   2   9
TORSDOF 3
ENDMDL
