MODEL 1
REMARK VINA RESULT:      -5.3      0.000      0.000
REMARK  1 active torsions:
REMARK  status: ('A' for Active; 'I' for Inactive)
REMARK    1  A    between atoms: C2_2  and  C3_3 
ROOT
HETATM    1  C1  UNL     1     -33.472   7.249   4.883  1.00 20.00     0.011 C 
HETATM    2  C2  UNL     1     -33.094   7.021   3.619  1.00 20.00     0.004 C 
HETATM    3  C4  UNL     1     -34.400   6.309   5.598  1.00 20.00     0.195 C 
HETATM    4  C5  UNL     1     -33.544   5.812   2.863  1.00 20.00     0.069 C 
HETATM    5  C6  UNL     1     -34.114   4.764   3.817  1.00 20.00     0.172 C 
HETATM    6  O8  UNL     1     -35.042   5.383   4.711  1.00 20.00    -0.387 OA
ENDROOT
BRANCH   2   7
HETATM    7  C3  UNL     1     -32.193   7.977   2.974  1.00 20.00     0.248 C 
HETATM    8  O7  UNL     1     -31.156   8.312   3.558  1.00 20.00    -0.274 OA
HETATM    9 CL9  UNL     1     -32.665   8.581   1.400  1.00 20.00    -0.039 Cl
ENDBRANCH   2   7
TORSDOF 1
ENDMDL
MODEL 2
REMARK VINA RESULT:      -5.1      1.408      2.143
REMARK  1 active torsions:
REMARK  status: ('A' for Active; 'I' for Inactive)
REMARK    1  A    between atoms: C2_2  and  C3_3 
ROOT
HETATM    1  C1  UNL     1     -33.823   5.492   3.400  1.00 20.00     0.011 C 
HETATM    2  C2  UNL     1     -33.408   6.671   3.881  1.00 20.00     0.004 C 
HETATM    3  C4  UNL     1     -34.514   4.494   4.283  1.00 20.00     0.195 C 
HETATM    4  C5  UNL     1     -33.636   7.071   5.304  1.00 20.00     0.069 C 
HETATM    5  C6  UNL     1     -34.690   6.175   5.952  1.00 20.00     0.172 C 
HETATM    6  O8  UNL     1     -34.389   4.805   5.677  1.00 20.00    -0.387 OA
ENDROOT
BRANCH   2   7
HETATM    7  C3  UNL     1     -32.735   7.600   2.973  1.00 20.00     0.248 C 
HETATM    8  O7  UNL     1     -33.213   7.796   1.850  1.00 20.00    -0.274 OA
HETATM    9 CL9  UNL     1     -31.277   8.373   3.560  1.00 20.00    -0.039 Cl
ENDBRANCH   2   7
TORSDOF 1
ENDMDL
MODEL 3
REMARK VINA RESULT:      -5.0      0.520      1.690
REMARK  1 active torsions:
REMARK  status: ('A' for Active; 'I' for Inactive)
REMARK    1  A    between atoms: C2_2  and  C3_3 
ROOT
HETATM    1  C1  UNL     1     -33.720   6.013   3.318  1.00 20.00     0.011 C 
HETATM    2  C2  UNL     1     -33.123   7.025   3.961  1.00 20.00     0.004 C 
HETATM    3  C4  UNL     1     -34.591   5.034   4.051  1.00 20.00     0.195 C 
HETATM    4  C5  UNL     1     -33.315   7.256   5.427  1.00 20.00     0.069 C 
HETATM    5  C6  UNL     1     -34.520   6.470   5.941  1.00 20.00     0.172 C 
HETATM    6  O8  UNL     1     -34.448   5.121   5.475  1.00 20.00    -0.387 OA
ENDROOT
BRANCH   2   7
HETATM    7  C3  UNL     1     -32.282   7.943   3.195  1.00 20.00     0.248 C 
HETATM    8  O7  UNL     1     -31.250   8.387   3.712  1.00 20.00    -0.274 OA
HETATM    9 CL9  UNL     1     -32.811   8.347   1.575  1.00 20.00    -0.039 Cl
ENDBRANCH   2   7
TORSDOF 1
ENDMDL
MODEL 4
REMARK VINA RESULT:      -4.7      2.250      3.786
REMARK  1 active torsions:
REMARK  status: ('A' for Active; 'I' for Inactive)
REMARK    1  A    between atoms: C2_2  and  C3_3 
ROOT
HETATM    1  C1  UNL     1     -33.181   7.540   4.917  1.00 20.00     0.011 C 
HETATM    2  C2  UNL     1     -33.670   6.724   3.974  1.00 20.00     0.004 C 
HETATM    3  C4  UNL     1     -32.047   8.478   4.621  1.00 20.00     0.195 C 
HETATM    4  C5  UNL     1     -33.141   6.724   2.575  1.00 20.00     0.069 C 
HETATM    5  C6  UNL     1     -32.313   7.982   2.314  1.00 20.00     0.172 C 
HETATM    6  O8  UNL     1     -31.387   8.178   3.384  1.00 20.00    -0.387 OA
ENDROOT
BRANCH   2   7
HETATM    7  C3  UNL     1     -34.771   5.828   4.325  1.00 20.00     0.248 C 
HETATM    8  O7  UNL     1     -35.810   5.860   3.655  1.00 20.00    -0.274 OA
HETATM    9 CL9  UNL     1     -34.527   4.762   5.692  1.00 20.00    -0.039 Cl
ENDBRANCH   2   7
TORSDOF 1
ENDMDL
MODEL 5
REMARK VINA RESULT:      -4.3      2.225      3.949
REMARK  1 active torsions:
REMARK  status: ('A' for Active; 'I' for Inactive)
REMARK    1  A    between atoms: C2_2  and  C3_3 
ROOT
HETATM    1  C1  UNL     1     -33.544   6.501   2.854  1.00 20.00     0.011 C 
HETATM    2  C2  UNL     1     -33.480   6.810   4.156  1.00 20.00     0.004 C 
HETATM    3  C4  UNL     1     -32.775   7.285   1.830  1.00 20.00     0.195 C 
HETATM    4  C5  UNL     1     -32.619   7.923   4.664  1.00 20.00     0.069 C 
HETATM    5  C6  UNL     1     -31.601   8.341   3.604  1.00 20.00     0.172 C 
HETATM    6  O8  UNL     1     -32.260   8.519   2.349  1.00 20.00    -0.387 OA
ENDROOT
BRANCH   2   7
HETATM    7  C3  UNL     1     -34.257   6.013   5.104  1.00 20.00     0.248 C 
HETATM    8  O7  UNL     1     -34.569   6.510   6.193  1.00 20.00    -0.274 OA
HETATM    9 CL9  UNL     1     -34.692   4.389   4.614  1.00 20.00    -0.039 Cl
ENDBRANCH   2   7
TORSDOF 1
ENDMDL
MODEL 6
REMARK VINA RESULT:      -4.2      1.777      1.927
REMARK  1 active torsions:
REMARK  status: ('A' for Active; 'I' for Inactive)
REMARK    1  A    between atoms: C2_2  and  C3_3 
ROOT
HETATM    1  C1  UNL     1     -33.334   7.408   4.734  1.00 20.00     0.011 C 
HETATM    2  C2  UNL     1     -33.752   6.541   3.802  1.00 20.00     0.004 C 
HETATM    3  C4  UNL     1     -33.733   7.254   6.173  1.00 20.00     0.195 C 
HETATM    4  C5  UNL     1     -34.607   5.362   4.144  1.00 20.00     0.069 C 
HETATM    5  C6  UNL     1     -34.581   5.098   5.648  1.00 20.00     0.172 C 
HETATM    6  O8  UNL     1     -34.806   6.320   6.354  1.00 20.00    -0.387 OA
ENDROOT
BRANCH   2   7
HETATM    7  C3  UNL     1     -33.335   6.748   2.416  1.00 20.00     0.248 C 
HETATM    8  O7  UNL     1     -33.833   6.047   1.527  1.00 20.00    -0.274 OA
HETATM    9 CL9  UNL     1     -32.141   7.994   2.119  1.00 20.00    -0.039 Cl
ENDBRANCH   2   7
TORSDOF 1
ENDMDL
MODEL 7
REMARK VINA RESULT:      -4.0     11.706     12.428
REMARK  1 active torsions:
REMARK  status: ('A' for Active; 'I' for Inactive)
REMARK    1  A    between atoms: C2_2  and  C3_3 
ROOT
HETATM    1  C1  UNL     1     -34.058  14.742  -5.582  1.00 20.00     0.011 C 
HETATM    2  C2  UNL     1     -35.139  14.745  -4.791  1.00 20.00     0.004 C 
HETATM    3  C4  UNL     1     -32.934  15.713  -5.363  1.00 20.00     0.195 C 
HETATM    4  C5  UNL     1     -35.273  15.684  -3.634  1.00 20.00     0.069 C 
HETATM    5  C6  UNL     1     -33.919  16.299  -3.282  1.00 20.00     0.172 C 
HETATM    6  O8  UNL     1     -33.287  16.779  -4.470  1.00 20.00    -0.387 OA
ENDROOT
BRANCH   2   7
HETATM    7  C3  UNL     1     -36.205  13.779  -5.058  1.00 20.00     0.248 C 
HETATM    8  O7  UNL     1     -35.904  12.604  -5.298  1.00 20.00    -0.274 OA
HETATM    9 CL9  UNL     1     -37.850  14.375  -5.017  1.00 20.00    -0.039 Cl
ENDBRANCH   2   7
TORSDOF 1
ENDMDL
MODEL 8
REMARK VINA RESULT:      -3.9     11.560     12.405
REMARK  1 active torsions:
REMARK  status: ('A' for Active; 'I' for Inactive)
REMARK    1  A    between atoms: C2_2  and  C3_3 
ROOT
HETATM    1  C1  UNL     1     -33.995  14.780  -6.531  1.00 20.00     0.011 C 
HETATM    2  C2  UNL     1     -34.300  15.090  -5.265  1.00 20.00     0.004 C 
HETATM    3  C4  UNL     1     -34.564  13.556  -7.189  1.00 20.00     0.195 C 
HETATM    4  C5  UNL     1     -35.242  14.261  -4.450  1.00 20.00     0.069 C 
HETATM    5  C6  UNL     1     -36.048  13.325  -5.349  1.00 20.00     0.172 C 
HETATM    6  O8  UNL     1     -35.169  12.653  -6.254  1.00 20.00    -0.387 OA
ENDROOT
BRANCH   2   7
HETATM    7  C3  UNL     1     -33.709  16.292  -4.677  1.00 20.00     0.248 C 
HETATM    8  O7  UNL     1     -33.284  17.181  -5.424  1.00 20.00    -0.274 OA
HETATM    9 CL9  UNL     1     -33.648  16.377  -2.929  1.00 20.00    -0.039 Cl
ENDBRANCH   2   7
TORSDOF 1
ENDMDL
MODEL 9
REMARK VINA RESULT:      -3.9     11.531     11.971
REMARK  1 active torsions:
REMARK  status: ('A' for Active; 'I' for Inactive)
REMARK    1  A    between atoms: C2_2  and  C3_3 
ROOT
HETATM    1  C1  UNL     1     -36.172  15.407  -4.081  1.00 20.00     0.011 C 
HETATM    2  C2  UNL     1     -35.088  14.733  -4.484  1.00 20.00     0.004 C 
HETATM    3  C4  UNL     1     -36.074  16.484  -3.040  1.00 20.00     0.195 C 
HETATM    4  C5  UNL     1     -33.723  15.034  -3.951  1.00 20.00     0.069 C 
HETATM    5  C6  UNL     1     -33.710  16.390  -3.246  1.00 20.00     0.172 C 
HETATM    6  O8  UNL     1     -34.818  16.475  -2.348  1.00 20.00    -0.387 OA
ENDROOT
BRANCH   2   7
HETATM    7  C3  UNL     1     -35.248  13.689  -5.496  1.00 20.00     0.248 C 
HETATM    8  O7  UNL     1     -35.969  12.716  -5.247  1.00 20.00    -0.274 OA
HETATM    9 CL9  UNL     1     -34.391  13.905  -7.008  1.00 20.00    -0.039 Cl
ENDBRANCH   2   7
TORSDOF 1
ENDMDL
