MODEL 1
REMARK VINA RESULT:      -4.6      0.000      0.000
REMARK  2 active torsions:
REMARK  status: ('A' for Active; 'I' for Inactive)
REMARK    1  A    between atoms: C1_1  and  C8_8 
REMARK    2  A    between atoms: C3_3  and  C8_8 
ROOT
HETATM    1  C2  UNL     1     -32.594   8.027   1.980  1.00 20.00     0.153 A 
HETATM    2  C3  UNL     1     -33.021   7.127   3.124  1.00 20.00     0.093 A 
HETATM    3  C5  UNL     1     -32.283   9.472   2.146  1.00 20.00     0.042 C 
HETATM    4  C6  UNL     1     -33.160   7.650   4.518  1.00 20.00     0.049 C 
HETATM    5  O10 UNL     1     -31.674   7.138   2.626  1.00 20.00    -0.369 OA
ENDROOT
BRANCH   2   6
HETATM    6  C8  UNL     1     -33.772   5.871   2.806  1.00 20.00     0.087 C 
HETATM    7  C7  UNL     1     -32.836   4.657   2.708  1.00 20.00     0.021 C 
BRANCH   6   8
HETATM    8  C1  UNL     1     -34.867   5.608   3.849  1.00 20.00     0.129 C 
HETATM    9  C4  UNL     1     -34.528   4.643   4.958  1.00 20.00     0.091 C 
HETATM   10  O9  UNL     1     -35.988   6.111   3.773  1.00 20.00    -0.298 OA
ENDBRANCH   6   8
ENDBRANCH   2   6
TORSDOF 2
ENDMDL
MODEL 2
REMARK VINA RESULT:      -4.5      1.408      1.447
REMARK  2 active torsions:
REMARK  status: ('A' for Active; 'I' for Inactive)
REMARK    1  A    between atoms: C1_1  and  C8_8 
REMARK    2  A    between atoms: C3_3  and  C8_8 
ROOT
HETATM    1  C2  UNL     1     -33.010   8.740   1.662  1.00 20.00     0.153 A 
HETATM    2  C3  UNL     1     -32.633   7.741   2.740  1.00 20.00     0.093 A 
HETATM    3  C5  UNL     1     -32.400  10.091   1.547  1.00 20.00     0.042 C 
HETATM    4  C6  UNL     1     -31.603   8.063   3.776  1.00 20.00     0.049 C 
HETATM    5  O10 UNL     1     -32.112   7.653   1.404  1.00 20.00    -0.369 OA
ENDROOT
BRANCH   2   6
HETATM    6  C8  UNL     1     -33.605   6.655   3.082  1.00 20.00     0.087 C 
HETATM    7  C7  UNL     1     -33.058   5.266   2.719  1.00 20.00     0.021 C 
BRANCH   6   8
HETATM    8  C1  UNL     1     -33.976   6.701   4.572  1.00 20.00     0.129 C 
HETATM    9  C4  UNL     1     -34.553   5.439   5.164  1.00 20.00     0.091 C 
HETATM   10  O9  UNL     1     -33.861   7.720   5.251  1.00 20.00    -0.298 OA
ENDBRANCH   6   8
ENDBRANCH   2   6
TORSDOF 2
ENDMDL
MODEL 3
REMARK VINA RESULT:      -4.3     11.117     12.228
REMARK  2 active torsions:
REMARK  status: ('A' for Active; 'I' for Inactive)
REMARK    1  A    between atoms: C1_1  and  C8_8 
REMARK    2  A    between atoms: C3_3  and  C8_8 
ROOT
HETATM    1  C2  UNL     1     -34.175  16.827  -5.290  1.00 20.00     0.153 A 
HETATM    2  C3  UNL     1     -34.055  15.322  -5.443  1.00 20.00     0.093 A 
HETATM    3  C5  UNL     1     -33.592  17.584  -4.151  1.00 20.00     0.042 C 
HETATM    4  C6  UNL     1     -33.329  14.491  -4.432  1.00 20.00     0.049 C 
HETATM    5  O10 UNL     1     -33.211  16.230  -6.169  1.00 20.00    -0.369 OA
ENDROOT
BRANCH   2   6
HETATM    6  C8  UNL     1     -35.051  14.607  -6.301  1.00 20.00     0.087 C 
HETATM    7  C7  UNL     1     -34.367  13.678  -7.315  1.00 20.00     0.021 C 
BRANCH   6   8
HETATM    8  C1  UNL     1     -36.042  13.809  -5.442  1.00 20.00     0.129 C 
HETATM    9  C4  UNL     1     -37.156  14.590  -4.792  1.00 20.00     0.091 C 
HETATM   10  O9  UNL     1     -35.922  12.600  -5.244  1.00 20.00    -0.298 OA
ENDBRANCH   6   8
ENDBRANCH   2   6
TORSDOF 2
ENDMDL
MODEL 4
REMARK VINA RESULT:      -4.2      1.079      3.948
REMARK  2 active torsions:
REMARK  status: ('A' for Active; 'I' for Inactive)
REMARK    1  A    between atoms: C1_1  and  C8_8 
REMARK    2  A    between atoms: C3_3  and  C8_8 
ROOT
HETATM    1  C2  UNL     1     -34.321   5.121   4.557  1.00 20.00     0.153 A 
HETATM    2  C3  UNL     1     -33.749   6.469   4.160  1.00 20.00     0.093 A 
HETATM    3  C5  UNL     1     -34.741   4.784   5.944  1.00 20.00     0.042 C 
HETATM    4  C6  UNL     1     -33.568   7.564   5.163  1.00 20.00     0.049 C 
HETATM    5  O10 UNL     1     -35.121   6.122   3.915  1.00 20.00    -0.369 OA
ENDROOT
BRANCH   2   6
HETATM    6  C8  UNL     1     -32.918   6.557   2.919  1.00 20.00     0.087 C 
HETATM    7  C7  UNL     1     -33.765   6.373   1.651  1.00 20.00     0.021 C 
BRANCH   6   8
HETATM    8  C1  UNL     1     -32.164   7.894   2.857  1.00 20.00     0.129 C 
HETATM    9  C4  UNL     1     -32.582   8.857   1.775  1.00 20.00     0.091 C 
HETATM   10  O9  UNL     1     -31.231   8.162   3.614  1.00 20.00    -0.298 OA
ENDBRANCH   6   8
ENDBRANCH   2   6
TORSDOF 2
ENDMDL
MODEL 5
REMARK VINA RESULT:      -4.1      1.728      2.196
REMARK  2 active torsions:
REMARK  status: ('A' for Active; 'I' for Inactive)
REMARK    1  A    between atoms: C1_1  and  C8_8 
REMARK    2  A    between atoms: C3_3  and  C8_8 
ROOT
HETATM    1  C2  UNL     1     -32.405   8.146   3.378  1.00 20.00     0.153 A 
HETATM    2  C3  UNL     1     -33.296   6.924   3.260  1.00 20.00     0.093 A 
HETATM    3  C5  UNL     1     -30.966   8.150   3.001  1.00 20.00     0.042 C 
HETATM    4  C6  UNL     1     -32.769   5.620   2.749  1.00 20.00     0.049 C 
HETATM    5  O10 UNL     1     -33.311   7.974   2.280  1.00 20.00    -0.369 OA
ENDROOT
BRANCH   2   6
HETATM    6  C8  UNL     1     -34.537   6.860   4.094  1.00 20.00     0.087 C 
HETATM    7  C7  UNL     1     -35.574   5.894   3.500  1.00 20.00     0.021 C 
BRANCH   6   8
HETATM    8  C1  UNL     1     -34.208   6.453   5.538  1.00 20.00     0.129 C 
HETATM    9  C4  UNL     1     -34.525   5.031   5.930  1.00 20.00     0.091 C 
HETATM   10  O9  UNL     1     -33.753   7.247   6.361  1.00 20.00    -0.298 OA
ENDBRANCH   6   8
ENDBRANCH   2   6
TORSDOF 2
ENDMDL
MODEL 6
REMARK VINA RESULT:      -4.1     11.026     12.150
REMARK  2 active torsions:
REMARK  status: ('A' for Active; 'I' for Inactive)
REMARK    1  A    between atoms: C1_1  and  C8_8 
REMARK    2  A    between atoms: C3_3  and  C8_8 
ROOT
HETATM    1  C2  UNL     1     -35.690  13.658  -6.538  1.00 20.00     0.153 A 
HETATM    2  C3  UNL     1     -34.521  14.424  -5.947  1.00 20.00     0.093 A 
HETATM    3  C5  UNL     1     -36.334  14.013  -7.831  1.00 20.00     0.042 C 
HETATM    4  C6  UNL     1     -33.934  15.610  -6.644  1.00 20.00     0.049 C 
HETATM    5  O10 UNL     1     -34.341  13.184  -6.650  1.00 20.00    -0.369 OA
ENDROOT
BRANCH   2   6
HETATM    6  C8  UNL     1     -34.270  14.325  -4.475  1.00 20.00     0.087 C 
HETATM    7  C7  UNL     1     -32.772  14.205  -4.159  1.00 20.00     0.021 C 
BRANCH   6   8
HETATM    8  C1  UNL     1     -34.869  15.529  -3.734  1.00 20.00     0.129 C 
HETATM    9  C4  UNL     1     -33.903  16.408  -2.980  1.00 20.00     0.091 C 
HETATM   10  O9  UNL     1     -36.079  15.754  -3.706  1.00 20.00    -0.298 OA
ENDBRANCH   6   8
ENDBRANCH   2   6
TORSDOF 2
ENDMDL
MODEL 7
REMARK VINA RESULT:      -4.1     10.791     11.929
REMARK  2 active torsions:
REMARK  status: ('A' for Active; 'I' for Inactive)
REMARK    1  A    between atoms: C1_1  and  C8_8 
REMARK    2  A    between atoms: C3_3  and  C8_8 
ROOT
HETATM    1  C2  UNL     1     -36.402  14.154  -4.959  1.00 20.00     0.153 A 
HETATM    2  C3  UNL     1     -34.902  14.222  -5.177  1.00 20.00     0.093 A 
HETATM    3  C5  UNL     1     -37.398  14.348  -6.047  1.00 20.00     0.042 C 
HETATM    4  C6  UNL     1     -34.322  14.497  -6.528  1.00 20.00     0.049 C 
HETATM    5  O10 UNL     1     -35.602  12.970  -5.084  1.00 20.00    -0.369 OA
ENDROOT
BRANCH   2   6
HETATM    6  C8  UNL     1     -34.020  14.508  -4.002  1.00 20.00     0.087 C 
HETATM    7  C7  UNL     1     -32.577  14.042  -4.245  1.00 20.00     0.021 C 
BRANCH   6   8
HETATM    8  C1  UNL     1     -34.037  16.004  -3.655  1.00 20.00     0.129 C 
HETATM    9  C4  UNL     1     -34.896  16.418  -2.486  1.00 20.00     0.091 C 
HETATM   10  O9  UNL     1     -33.427  16.844  -4.316  1.00 20.00    -0.298 OA
ENDBRANCH   6   8
ENDBRANCH   2   6
TORSDOF 2
ENDMDL
MODEL 8
REMARK VINA RESULT:      -3.9     10.899     12.837
REMARK  2 active torsions:
REMARK  status: ('A' for Active; 'I' for Inactive)
REMARK    1  A    between atoms: C1_1  and  C8_8 
REMARK    2  A    between atoms: C3_3  and  C8_8 
ROOT
HETATM    1  C2  UNL     1     -33.858  16.563  -7.059  1.00 20.00     0.153 A 
HETATM    2  C3  UNL     1     -34.648  15.868  -5.965  1.00 20.00     0.093 A 
HETATM    3  C5  UNL     1     -34.400  17.680  -7.878  1.00 20.00     0.042 C 
HETATM    4  C6  UNL     1     -36.051  16.273  -5.640  1.00 20.00     0.049 C 
HETATM    5  O10 UNL     1     -33.666  16.874  -5.673  1.00 20.00    -0.369 OA
ENDROOT
BRANCH   2   6
HETATM    6  C8  UNL     1     -34.241  14.488  -5.553  1.00 20.00     0.087 C 
HETATM    7  C7  UNL     1     -34.083  14.371  -4.030  1.00 20.00     0.021 C 
BRANCH   6   8
HETATM    8  C1  UNL     1     -35.247  13.445  -6.059  1.00 20.00     0.129 C 
HETATM    9  C4  UNL     1     -35.352  13.274  -7.554  1.00 20.00     0.091 C 
HETATM   10  O9  UNL     1     -35.975  12.806  -5.300  1.00 20.00    -0.298 OA
ENDBRANCH   6   8
ENDBRANCH   2   6
TORSDOF 2
ENDMDL
MODEL 9
REMARK VINA RESULT:      -3.8      1.255      1.956
REMARK  2 active torsions:
REMARK  status: ('A' for Active; 'I' for Inactive)
REMARK    1  A    between atoms: C1_1  and  C8_8 
REMARK    2  A    between atoms: C3_3  and  C8_8 
ROOT
HETATM    1  C2  UNL     1     -32.115   8.119   2.928  1.00 20.00     0.153 A 
HETATM    2  C3  UNL     1     -33.165   7.033   3.068  1.00 20.00     0.093 A 
HETATM    3  C5  UNL     1     -31.472   8.476   1.635  1.00 20.00     0.042 C 
HETATM    4  C6  UNL     1     -33.626   6.237   1.889  1.00 20.00     0.049 C 
HETATM    5  O10 UNL     1     -33.513   8.426   3.008  1.00 20.00    -0.369 OA
ENDROOT
BRANCH   2   6
HETATM    6  C8  UNL     1     -33.381   6.415   4.415  1.00 20.00     0.087 C 
HETATM    7  C7  UNL     1     -33.650   7.476   5.492  1.00 20.00     0.021 C 
BRANCH   6   8
HETATM    8  C1  UNL     1     -34.535   5.403   4.374  1.00 20.00     0.129 C 
HETATM    9  C4  UNL     1     -34.177   3.959   4.623  1.00 20.00     0.091 C 
HETATM   10  O9  UNL     1     -35.691   5.728   4.107  1.00 20.00    -0.298 OA
ENDBRANCH   6   8
ENDBRANCH   2   6
TORSDOF 2
ENDMDL
