MODEL 1
REMARK VINA RESULT:      -5.0      0.000      0.000
REMARK  3 active torsions:
REMARK  status: ('A' for Active; 'I' for Inactive)
REMARK    1  A    between atoms: C2_2  and  C6_6 
REMARK    2  A    between atoms: C3_3  and  C5_5 
REMARK    3  A    between atoms: C3_3  and  O10_10 
ROOT
HETATM    1  C4  UNL     1     -34.286   6.290   2.260  1.00 20.00     0.033 A 
HETATM    2  C5  UNL     1     -32.834   6.390   2.641  1.00 20.00     0.101 A 
HETATM    3  C6  UNL     1     -33.834   5.783   3.611  1.00 20.00     0.023 A 
HETATM    4  C7  UNL     1     -33.788   4.293   3.822  1.00 20.00     0.023 C 
ENDROOT
BRANCH   2   5
HETATM    5  C3  UNL     1     -32.243   7.713   2.880  1.00 20.00     0.263 C 
HETATM    6  O9  UNL     1     -31.399   7.942   3.737  1.00 20.00    -0.265 OA
BRANCH   5   7
HETATM    7  O10 UNL     1     -32.780   8.617   2.011  1.00 20.00    -0.326 OA
HETATM    8  C8  UNL     1     -31.929   9.011   0.931  1.00 20.00     0.213 C 
ENDBRANCH   5   7
ENDBRANCH   2   5
BRANCH   3   9
HETATM    9  C2  UNL     1     -34.244   6.569   4.782  1.00 20.00     0.093 C 
HETATM   10  C1  UNL     1     -34.380   6.100   6.028  1.00 20.00     0.052 C 
HETATM   11  F11 UNL     1     -34.506   7.882   4.582  1.00 20.00    -0.211 F 
ENDBRANCH   3   9
TORSDOF 3
ENDMDL
MODEL 2
REMARK VINA RESULT:      -4.6     11.268     12.119
REMARK  3 active torsions:
REMARK  status: ('A' for Active; 'I' for Inactive)
REMARK    1  A    between atoms: C2_2  and  C6_6 
REMARK    2  A    between atoms: C3_3  and  C5_5 
REMARK    3  A    between atoms: C3_3  and  O10_10 
ROOT
HETATM    1  C4  UNL     1     -35.862  16.270  -5.073  1.00 20.00     0.033 A 
HETATM    2  C5  UNL     1     -36.141  14.890  -4.543  1.00 20.00     0.101 A 
HETATM    3  C6  UNL     1     -34.881  15.627  -4.118  1.00 20.00     0.023 A 
HETATM    4  C7  UNL     1     -34.821  16.155  -2.710  1.00 20.00     0.023 C 
ENDROOT
BRANCH   2   5
HETATM    5  C3  UNL     1     -36.084  13.744  -5.460  1.00 20.00     0.263 C 
HETATM    6  O9  UNL     1     -35.913  12.586  -5.100  1.00 20.00    -0.265 OA
BRANCH   5   7
HETATM    7  O10 UNL     1     -36.248  14.177  -6.743  1.00 20.00    -0.326 OA
HETATM    8  C8  UNL     1     -35.318  13.648  -7.693  1.00 20.00     0.213 C 
ENDBRANCH   5   7
ENDBRANCH   2   5
BRANCH   3   9
HETATM    9  C2  UNL     1     -33.594  15.201  -4.683  1.00 20.00     0.093 C 
HETATM   10  C1  UNL     1     -32.928  15.824  -5.662  1.00 20.00     0.052 C 
HETATM   11  F11 UNL     1     -33.034  14.082  -4.167  1.00 20.00    -0.211 F 
ENDBRANCH   3   9
TORSDOF 3
ENDMDL
MODEL 3
REMARK VINA RESULT:      -4.6     11.307     12.306
REMARK  3 active torsions:
REMARK  status: ('A' for Active; 'I' for Inactive)
REMARK    1  A    between atoms: C2_2  and  C6_6 
REMARK    2  A    between atoms: C3_3  and  C5_5 
REMARK    3  A    between atoms: C3_3  and  O10_10 
ROOT
HETATM    1  C4  UNL     1     -34.400  14.801  -6.567  1.00 20.00     0.033 A 
HETATM    2  C5  UNL     1     -35.820  14.857  -6.075  1.00 20.00     0.101 A 
HETATM    3  C6  UNL     1     -34.765  15.757  -5.453  1.00 20.00     0.023 A 
HETATM    4  C7  UNL     1     -34.818  17.225  -5.777  1.00 20.00     0.023 C 
ENDROOT
BRANCH   2   5
HETATM    5  C3  UNL     1     -36.374  13.710  -5.344  1.00 20.00     0.263 C 
HETATM    6  O9  UNL     1     -35.846  12.606  -5.298  1.00 20.00    -0.265 OA
BRANCH   5   7
HETATM    7  O10 UNL     1     -37.544  14.072  -4.745  1.00 20.00    -0.326 OA
HETATM    8  C8  UNL     1     -38.441  14.833  -5.559  1.00 20.00     0.213 C 
ENDBRANCH   5   7
ENDBRANCH   2   5
BRANCH   3   9
HETATM    9  C2  UNL     1     -34.263  15.429  -4.112  1.00 20.00     0.093 C 
HETATM   10  C1  UNL     1     -34.596  16.059  -2.979  1.00 20.00     0.052 C 
HETATM   11  F11 UNL     1     -33.389  14.400  -4.015  1.00 20.00    -0.211 F 
ENDBRANCH   3   9
TORSDOF 3
ENDMDL
MODEL 4
REMARK VINA RESULT:      -4.4     10.892     11.879
REMARK  3 active torsions:
REMARK  status: ('A' for Active; 'I' for Inactive)
REMARK    1  A    between atoms: C2_2  and  C6_6 
REMARK    2  A    between atoms: C3_3  and  C5_5 
REMARK    3  A    between atoms: C3_3  and  O10_10 
ROOT
HETATM    1  C4  UNL     1     -33.376  16.655  -5.153  1.00 20.00     0.033 A 
HETATM    2  C5  UNL     1     -34.319  15.483  -5.144  1.00 20.00     0.101 A 
HETATM    3  C6  UNL     1     -34.626  16.713  -4.304  1.00 20.00     0.023 A 
HETATM    4  C7  UNL     1     -35.744  17.610  -4.760  1.00 20.00     0.023 C 
ENDROOT
BRANCH   2   5
HETATM    5  C3  UNL     1     -33.892  14.221  -4.525  1.00 20.00     0.263 C 
HETATM    6  O9  UNL     1     -32.730  13.951  -4.251  1.00 20.00    -0.265 OA
BRANCH   5   7
HETATM    7  O10 UNL     1     -34.980  13.425  -4.315  1.00 20.00    -0.326 OA
HETATM    8  C8  UNL     1     -35.985  13.477  -5.332  1.00 20.00     0.213 C 
ENDBRANCH   5   7
ENDBRANCH   2   5
BRANCH   3   9
HETATM    9  C2  UNL     1     -34.439  16.634  -2.849  1.00 20.00     0.093 C 
HETATM   10  C1  UNL     1     -35.418  16.581  -1.939  1.00 20.00     0.052 C 
HETATM   11  F11 UNL     1     -33.165  16.615  -2.392  1.00 20.00    -0.211 F 
ENDBRANCH   3   9
TORSDOF 3
ENDMDL
MODEL 5
REMARK VINA RESULT:      -4.4      1.936      4.309
REMARK  3 active torsions:
REMARK  status: ('A' for Active; 'I' for Inactive)
REMARK    1  A    between atoms: C2_2  and  C6_6 
REMARK    2  A    between atoms: C3_3  and  C5_5 
REMARK    3  A    between atoms: C3_3  and  O10_10 
ROOT
HETATM    1  C4  UNL     1     -31.089   8.820   0.818  1.00 20.00     0.033 A 
HETATM    2  C5  UNL     1     -32.190   8.003   1.436  1.00 20.00     0.101 A 
HETATM    3  C6  UNL     1     -32.526   9.266   0.659  1.00 20.00     0.023 A 
HETATM    4  C7  UNL     1     -33.166   9.105  -0.693  1.00 20.00     0.023 C 
ENDROOT
BRANCH   2   5
HETATM    5  C3  UNL     1     -32.311   7.951   2.899  1.00 20.00     0.263 C 
HETATM    6  O9  UNL     1     -31.443   8.332   3.673  1.00 20.00    -0.265 OA
BRANCH   5   7
HETATM    7  O10 UNL     1     -33.520   7.418   3.239  1.00 20.00    -0.326 OA
HETATM    8  C8  UNL     1     -33.699   6.038   2.905  1.00 20.00     0.213 C 
ENDBRANCH   5   7
ENDBRANCH   2   5
BRANCH   3   9
HETATM    9  C2  UNL     1     -32.932  10.463   1.406  1.00 20.00     0.093 C 
HETATM   10  C1  UNL     1     -32.105  11.396   1.894  1.00 20.00     0.052 C 
HETATM   11  F11 UNL     1     -34.257  10.638   1.618  1.00 20.00    -0.211 F 
ENDBRANCH   3   9
TORSDOF 3
ENDMDL
MODEL 6
REMARK VINA RESULT:      -4.3     11.046     12.188
REMARK  3 active torsions:
REMARK  status: ('A' for Active; 'I' for Inactive)
REMARK    1  A    between atoms: C2_2  and  C6_6 
REMARK    2  A    between atoms: C3_3  and  C5_5 
REMARK    3  A    between atoms: C3_3  and  O10_10 
ROOT
HETATM    1  C4  UNL     1     -34.373  15.471  -3.693  1.00 20.00     0.033 A 
HETATM    2  C5  UNL     1     -34.669  14.052  -4.096  1.00 20.00     0.101 A 
HETATM    3  C6  UNL     1     -33.512  14.799  -4.739  1.00 20.00     0.023 A 
HETATM    4  C7  UNL     1     -32.116  14.396  -4.347  1.00 20.00     0.023 C 
ENDROOT
BRANCH   2   5
HETATM    5  C3  UNL     1     -35.900  13.759  -4.843  1.00 20.00     0.263 C 
HETATM    6  O9  UNL     1     -36.065  12.757  -5.525  1.00 20.00    -0.265 OA
BRANCH   5   7
HETATM    7  O10 UNL     1     -36.799  14.767  -4.653  1.00 20.00    -0.326 OA
HETATM    8  C8  UNL     1     -38.122  14.508  -5.134  1.00 20.00     0.213 C 
ENDBRANCH   5   7
ENDBRANCH   2   5
BRANCH   3   9
HETATM    9  C2  UNL     1     -33.663  15.273  -6.121  1.00 20.00     0.093 C 
HETATM   10  C1  UNL     1     -33.792  16.550  -6.498  1.00 20.00     0.052 C 
HETATM   11  F11 UNL     1     -33.671  14.335  -7.097  1.00 20.00    -0.211 F 
ENDBRANCH   3   9
TORSDOF 3
ENDMDL
MODEL 7
REMARK VINA RESULT:      -4.2      1.933      2.833
REMARK  3 active torsions:
REMARK  status: ('A' for Active; 'I' for Inactive)
REMARK    1  A    between atoms: C2_2  and  C6_6 
REMARK    2  A    between atoms: C3_3  and  C5_5 
REMARK    3  A    between atoms: C3_3  and  O10_10 
ROOT
HETATM    1  C4  UNL     1     -31.224   7.913   3.699  1.00 20.00     0.033 A 
HETATM    2  C5  UNL     1     -32.170   8.803   2.939  1.00 20.00     0.101 A 
HETATM    3  C6  UNL     1     -32.705   7.602   3.703  1.00 20.00     0.023 A 
HETATM    4  C7  UNL     1     -33.474   7.866   4.969  1.00 20.00     0.023 C 
ENDROOT
BRANCH   2   5
HETATM    5  C3  UNL     1     -32.121   8.816   1.471  1.00 20.00     0.263 C 
HETATM    6  O9  UNL     1     -31.201   8.351   0.811  1.00 20.00    -0.265 OA
BRANCH   5   7
HETATM    7  O10 UNL     1     -33.243   9.418   0.982  1.00 20.00    -0.326 OA
HETATM    8  C8  UNL     1     -33.302   9.545  -0.441  1.00 20.00     0.213 C 
ENDBRANCH   5   7
ENDBRANCH   2   5
BRANCH   3   9
HETATM    9  C2  UNL     1     -33.132   6.420   2.944  1.00 20.00     0.093 C 
HETATM   10  C1  UNL     1     -34.397   6.094   2.654  1.00 20.00     0.052 C 
HETATM   11  F11 UNL     1     -32.161   5.589   2.499  1.00 20.00    -0.211 F 
ENDBRANCH   3   9
TORSDOF 3
ENDMDL
MODEL 8
REMARK VINA RESULT:      -4.2      1.494      2.127
REMARK  3 active torsions:
REMARK  status: ('A' for Active; 'I' for Inactive)
REMARK    1  A    between atoms: C2_2  and  C6_6 
REMARK    2  A    between atoms: C3_3  and  C5_5 
REMARK    3  A    between atoms: C3_3  and  O10_10 
ROOT
HETATM    1  C4  UNL     1     -33.880   7.039   5.043  1.00 20.00     0.033 A 
HETATM    2  C5  UNL     1     -33.740   7.629   3.666  1.00 20.00     0.101 A 
HETATM    3  C6  UNL     1     -34.369   6.257   3.844  1.00 20.00     0.023 A 
HETATM    4  C7  UNL     1     -35.855   6.138   3.643  1.00 20.00     0.023 C 
ENDROOT
BRANCH   2   5
HETATM    5  C3  UNL     1     -32.401   7.787   3.084  1.00 20.00     0.263 C 
HETATM    6  O9  UNL     1     -31.364   7.772   3.735  1.00 20.00    -0.265 OA
BRANCH   5   7
HETATM    7  O10 UNL     1     -32.506   7.952   1.734  1.00 20.00    -0.326 OA
HETATM    8  C8  UNL     1     -32.195   9.261   1.249  1.00 20.00     0.213 C 
ENDBRANCH   5   7
ENDBRANCH   2   5
BRANCH   3   9
HETATM    9  C2  UNL     1     -33.588   5.072   3.466  1.00 20.00     0.093 C 
HETATM   10  C1  UNL     1     -33.603   3.893   4.100  1.00 20.00     0.052 C 
HETATM   11  F11 UNL     1     -32.784   5.183   2.383  1.00 20.00    -0.211 F 
ENDBRANCH   3   9
TORSDOF 3
ENDMDL
MODEL 9
REMARK VINA RESULT:      -4.2     11.571     12.606
REMARK  3 active torsions:
REMARK  status: ('A' for Active; 'I' for Inactive)
REMARK    1  A    between atoms: C2_2  and  C6_6 
REMARK    2  A    between atoms: C3_3  and  C5_5 
REMARK    3  A    between atoms: C3_3  and  O10_10 
ROOT
HETATM    1  C4  UNL     1     -35.073  15.385  -3.565  1.00 20.00     0.033 A 
HETATM    2  C5  UNL     1     -34.837  14.342  -4.623  1.00 20.00     0.101 A 
HETATM    3  C6  UNL     1     -34.681  15.816  -4.961  1.00 20.00     0.023 A 
HETATM    4  C7  UNL     1     -33.286  16.341  -5.168  1.00 20.00     0.023 C 
ENDROOT
BRANCH   2   5
HETATM    5  C3  UNL     1     -35.974  13.559  -5.126  1.00 20.00     0.263 C 
HETATM    6  O9  UNL     1     -37.138  13.758  -4.806  1.00 20.00    -0.265 OA
BRANCH   5   7
HETATM    7  O10 UNL     1     -35.522  12.599  -5.983  1.00 20.00    -0.326 OA
HETATM    8  C8  UNL     1     -35.050  13.076  -7.247  1.00 20.00     0.213 C 
ENDBRANCH   5   7
ENDBRANCH   2   5
BRANCH   3   9
HETATM    9  C2  UNL     1     -35.721  16.467  -5.767  1.00 20.00     0.093 C 
HETATM   10  C1  UNL     1     -36.709  17.235  -5.293  1.00 20.00     0.052 C 
HETATM   11  F11 UNL     1     -35.676  16.272  -7.106  1.00 20.00    -0.211 F 
ENDBRANCH   3   9
TORSDOF 3
ENDMDL
