MODEL 1
REMARK VINA RESULT:      -4.3      0.000      0.000
REMARK  1 active torsions:
REMARK  status: ('A' for Active; 'I' for Inactive)
REMARK    1  A    between atoms: C1_1  and  C4_4 
ROOT
HETATM    1  C1  UNL     1     -34.412  15.959  -3.201  1.00 20.00    -0.068 C 
HETATM    2  C2  UNL     1     -34.373  16.622  -2.201  1.00 20.00    -0.108 C 
HETATM    3  C6  UNL     1     -34.324  17.428  -0.983  1.00 20.00     0.112 C 
ENDROOT
BRANCH   1   4
HETATM    4  C4  UNL     1     -34.460  15.158  -4.411  1.00 20.00     0.129 C 
HETATM    5  C5  UNL     1     -35.872  15.019  -5.095  1.00 20.00     0.016 C 
HETATM    6  C3  UNL     1     -35.574  13.506  -4.999  1.00 20.00     0.182 C 
HETATM    7  C8  UNL     1     -36.013  15.542  -6.522  1.00 20.00     0.021 C 
HETATM    8  C9  UNL     1     -37.092  15.414  -4.255  1.00 20.00     0.021 C 
HETATM    9  O10 UNL     1     -34.498  13.744  -4.055  1.00 20.00    -0.366 OA
HETATM   10  C7  UNL     1     -33.239  15.432  -5.285  1.00 20.00     0.061 C 
ENDBRANCH   1   4
TORSDOF 1
ENDMDL
MODEL 2
REMARK VINA RESULT:      -4.3     11.472     12.347
REMARK  1 active torsions:
REMARK  status: ('A' for Active; 'I' for Inactive)
REMARK    1  A    between atoms: C1_1  and  C4_4 
ROOT
HETATM    1  C1  UNL     1     -32.992   7.427   3.291  1.00 20.00    -0.068 C 
HETATM    2  C2  UNL     1     -32.270   8.002   2.523  1.00 20.00    -0.108 C 
HETATM    3  C6  UNL     1     -31.390   8.702   1.589  1.00 20.00     0.112 C 
ENDROOT
BRANCH   1   4
HETATM    4  C4  UNL     1     -33.866   6.732   4.219  1.00 20.00     0.129 C 
HETATM    5  C5  UNL     1     -34.013   5.179   4.003  1.00 20.00     0.016 C 
HETATM    6  C3  UNL     1     -35.523   5.502   3.985  1.00 20.00     0.182 C 
HETATM    7  C8  UNL     1     -33.578   4.269   5.148  1.00 20.00     0.021 C 
HETATM    8  C9  UNL     1     -33.534   4.617   2.659  1.00 20.00     0.021 C 
HETATM    9  O10 UNL     1     -35.253   6.916   3.807  1.00 20.00    -0.366 OA
HETATM   10  C7  UNL     1     -33.679   7.267   5.636  1.00 20.00     0.061 C 
ENDBRANCH   1   4
TORSDOF 1
ENDMDL
MODEL 3
REMARK VINA RESULT:      -4.2      1.128      1.300
REMARK  1 active torsions:
REMARK  status: ('A' for Active; 'I' for Inactive)
REMARK    1  A    between atoms: C1_1  and  C4_4 
ROOT
HETATM    1  C1  UNL     1     -34.627  15.612  -3.364  1.00 20.00    -0.068 C 
HETATM    2  C2  UNL     1     -34.939  16.299  -2.430  1.00 20.00    -0.108 C 
HETATM    3  C6  UNL     1     -35.319  17.136  -1.294  1.00 20.00     0.112 C 
ENDROOT
BRANCH   1   4
HETATM    4  C4  UNL     1     -34.248  14.781  -4.493  1.00 20.00     0.129 C 
HETATM    5  C5  UNL     1     -34.832  15.206  -5.893  1.00 20.00     0.016 C 
HETATM    6  C3  UNL     1     -35.321  13.741  -5.936  1.00 20.00     0.182 C 
HETATM    7  C8  UNL     1     -33.833  15.568  -6.988  1.00 20.00     0.021 C 
HETATM    8  C9  UNL     1     -36.002  16.198  -5.885  1.00 20.00     0.021 C 
HETATM    9  O10 UNL     1     -35.081  13.583  -4.514  1.00 20.00    -0.366 OA
HETATM   10  C7  UNL     1     -32.779  14.379  -4.396  1.00 20.00     0.061 C 
ENDBRANCH   1   4
TORSDOF 1
ENDMDL
MODEL 4
REMARK VINA RESULT:      -3.8      1.399      2.488
REMARK  1 active torsions:
REMARK  status: ('A' for Active; 'I' for Inactive)
REMARK    1  A    between atoms: C1_1  and  C4_4 
ROOT
HETATM    1  C1  UNL     1     -35.551  16.370  -3.006  1.00 20.00    -0.068 C 
HETATM    2  C2  UNL     1     -35.181  16.798  -1.947  1.00 20.00    -0.108 C 
HETATM    3  C6  UNL     1     -34.729  17.319  -0.658  1.00 20.00     0.112 C 
ENDROOT
BRANCH   1   4
HETATM    4  C4  UNL     1     -36.000  15.853  -4.286  1.00 20.00     0.129 C 
HETATM    5  C5  UNL     1     -35.148  14.678  -4.898  1.00 20.00     0.016 C 
HETATM    6  C3  UNL     1     -35.086  15.600  -6.135  1.00 20.00     0.182 C 
HETATM    7  C8  UNL     1     -35.860  13.350  -5.139  1.00 20.00     0.021 C 
HETATM    8  C9  UNL     1     -33.759  14.440  -4.293  1.00 20.00     0.021 C 
HETATM    9  O10 UNL     1     -35.539  16.736  -5.353  1.00 20.00    -0.366 OA
HETATM   10  C7  UNL     1     -37.523  15.760  -4.324  1.00 20.00     0.061 C 
ENDBRANCH   1   4
TORSDOF 1
ENDMDL
MODEL 5
REMARK VINA RESULT:      -3.8      2.201      3.342
REMARK  1 active torsions:
REMARK  status: ('A' for Active; 'I' for Inactive)
REMARK    1  A    between atoms: C1_1  and  C4_4 
ROOT
HETATM    1  C1  UNL     1     -36.981  14.680  -4.966  1.00 20.00    -0.068 C 
HETATM    2  C2  UNL     1     -38.040  15.154  -4.659  1.00 20.00    -0.108 C 
HETATM    3  C6  UNL     1     -39.330  15.731  -4.286  1.00 20.00     0.112 C 
ENDROOT
BRANCH   1   4
HETATM    4  C4  UNL     1     -35.700  14.106  -5.336  1.00 20.00     0.129 C 
HETATM    5  C5  UNL     1     -35.242  14.333  -6.826  1.00 20.00     0.016 C 
HETATM    6  C3  UNL     1     -35.088  12.796  -6.828  1.00 20.00     0.182 C 
HETATM    7  C8  UNL     1     -33.939  15.095  -7.050  1.00 20.00     0.021 C 
HETATM    8  C9  UNL     1     -36.314  14.800  -7.818  1.00 20.00     0.021 C 
HETATM    9  O10 UNL     1     -35.868  12.682  -5.609  1.00 20.00    -0.366 OA
HETATM   10  C7  UNL     1     -34.683  14.293  -4.214  1.00 20.00     0.061 C 
ENDBRANCH   1   4
TORSDOF 1
ENDMDL
MODEL 6
REMARK VINA RESULT:      -3.7      1.609      2.641
REMARK  1 active torsions:
REMARK  status: ('A' for Active; 'I' for Inactive)
REMARK    1  A    between atoms: C1_1  and  C4_4 
ROOT
HETATM    1  C1  UNL     1     -34.859  15.570  -4.292  1.00 20.00    -0.068 C 
HETATM    2  C2  UNL     1     -34.368  16.129  -3.349  1.00 20.00    -0.108 C 
HETATM    3  C6  UNL     1     -33.770  16.808  -2.202  1.00 20.00     0.112 C 
ENDROOT
BRANCH   1   4
HETATM    4  C4  UNL     1     -35.453  14.896  -5.433  1.00 20.00     0.129 C 
HETATM    5  C5  UNL     1     -34.743  15.125  -6.820  1.00 20.00     0.016 C 
HETATM    6  C3  UNL     1     -36.158  15.542  -7.277  1.00 20.00     0.182 C 
HETATM    7  C8  UNL     1     -34.189  13.896  -7.534  1.00 20.00     0.021 C 
HETATM    8  C9  UNL     1     -33.749  16.290  -6.908  1.00 20.00     0.021 C 
HETATM    9  O10 UNL     1     -36.604  15.660  -5.901  1.00 20.00    -0.366 OA
HETATM   10  C7  UNL     1     -35.896  13.486  -5.053  1.00 20.00     0.061 C 
ENDBRANCH   1   4
TORSDOF 1
ENDMDL
MODEL 7
REMARK VINA RESULT:      -3.7      1.632      2.575
REMARK  1 active torsions:
REMARK  status: ('A' for Active; 'I' for Inactive)
REMARK    1  A    between atoms: C1_1  and  C4_4 
ROOT
HETATM    1  C1  UNL     1     -34.073  16.947  -3.193  1.00 20.00    -0.068 C 
HETATM    2  C2  UNL     1     -33.462  17.408  -2.268  1.00 20.00    -0.108 C 
HETATM    3  C6  UNL     1     -32.718  17.970  -1.143  1.00 20.00     0.112 C 
ENDROOT
BRANCH   1   4
HETATM    4  C4  UNL     1     -34.813  16.387  -4.310  1.00 20.00     0.129 C 
HETATM    5  C5  UNL     1     -34.357  14.960  -4.798  1.00 20.00     0.016 C 
HETATM    6  C3  UNL     1     -34.263  15.655  -6.175  1.00 20.00     0.182 C 
HETATM    7  C8  UNL     1     -35.386  13.836  -4.730  1.00 20.00     0.021 C 
HETATM    8  C9  UNL     1     -32.989  14.465  -4.314  1.00 20.00     0.021 C 
HETATM    9  O10 UNL     1     -34.319  16.966  -5.555  1.00 20.00    -0.366 OA
HETATM   10  C7  UNL     1     -36.304  16.678  -4.167  1.00 20.00     0.061 C 
ENDBRANCH   1   4
TORSDOF 1
ENDMDL
MODEL 8
REMARK VINA RESULT:      -3.6      1.690      2.389
REMARK  1 active torsions:
REMARK  status: ('A' for Active; 'I' for Inactive)
REMARK    1  A    between atoms: C1_1  and  C4_4 
ROOT
HETATM    1  C1  UNL     1     -35.742  15.477  -3.939  1.00 20.00    -0.068 C 
HETATM    2  C2  UNL     1     -35.034  16.064  -3.168  1.00 20.00    -0.108 C 
HETATM    3  C6  UNL     1     -34.171  16.780  -2.229  1.00 20.00     0.112 C 
ENDROOT
BRANCH   1   4
HETATM    4  C4  UNL     1     -36.599  14.766  -4.871  1.00 20.00     0.129 C 
HETATM    5  C5  UNL     1     -37.259  15.634  -6.007  1.00 20.00     0.016 C 
HETATM    6  C3  UNL     1     -38.569  15.006  -5.483  1.00 20.00     0.182 C 
HETATM    7  C8  UNL     1     -36.922  15.271  -7.450  1.00 20.00     0.021 C 
HETATM    8  C9  UNL     1     -37.240  17.155  -5.818  1.00 20.00     0.021 C 
HETATM    9  O10 UNL     1     -37.911  14.567  -4.266  1.00 20.00    -0.366 OA
HETATM   10  C7  UNL     1     -35.993  13.412  -5.232  1.00 20.00     0.061 C 
ENDBRANCH   1   4
TORSDOF 1
ENDMDL
MODEL 9
REMARK VINA RESULT:      -3.5      1.740      3.758
REMARK  1 active torsions:
REMARK  status: ('A' for Active; 'I' for Inactive)
REMARK    1  A    between atoms: C1_1  and  C4_4 
ROOT
HETATM    1  C1  UNL     1     -36.247  14.820  -5.622  1.00 20.00    -0.068 C 
HETATM    2  C2  UNL     1     -37.427  14.742  -5.413  1.00 20.00    -0.108 C 
HETATM    3  C6  UNL     1     -38.863  14.648  -5.158  1.00 20.00     0.112 C 
ENDROOT
BRANCH   1   4
HETATM    4  C4  UNL     1     -34.820  14.912  -5.874  1.00 20.00     0.129 C 
HETATM    5  C5  UNL     1     -33.914  15.223  -4.623  1.00 20.00     0.016 C 
HETATM    6  C3  UNL     1     -33.388  16.373  -5.510  1.00 20.00     0.182 C 
HETATM    7  C8  UNL     1     -32.860  14.186  -4.248  1.00 20.00     0.021 C 
HETATM    8  C9  UNL     1     -34.620  15.748  -3.367  1.00 20.00     0.021 C 
HETATM    9  O10 UNL     1     -34.510  16.229  -6.420  1.00 20.00    -0.366 OA
HETATM   10  C7  UNL     1     -34.377  13.834  -6.858  1.00 20.00     0.061 C 
ENDBRANCH   1   4
TORSDOF 1
ENDMDL
