MODEL 1
REMARK VINA RESULT:      -5.4      0.000      0.000
REMARK  2 active torsions:
REMARK  status: ('A' for Active; 'I' for Inactive)
REMARK    1  A    between atoms: C3_3  and  C10_10 
REMARK    2  A    between atoms: C7_7  and  O11_11 
ROOT
HETATM    1  C1  UNL     1     -32.868  10.349   1.107  1.00 20.00     0.012 C 
HETATM    2  C2  UNL     1     -32.517   9.219   1.317  1.00 20.00    -0.113 C 
HETATM    3  C10 UNL     1     -32.081   7.843   1.561  1.00 20.00     0.127 C 
ENDROOT
BRANCH   3   4
HETATM    4  C3  UNL     1     -32.724   7.318   2.800  1.00 20.00    -0.060 C 
HETATM    5  C4  UNL     1     -32.546   7.715   4.072  1.00 20.00    -0.052 C 
HETATM    6  C7  UNL     1     -33.390   6.901   5.014  1.00 20.00     0.147 C 
HETATM    7  C8  UNL     1     -31.623   8.758   4.602  1.00 20.00     0.046 C 
HETATM    8  C5  UNL     1     -34.393   6.230   4.077  1.00 20.00     0.045 C 
HETATM    9  C6  UNL     1     -33.715   6.185   2.703  1.00 20.00     0.014 C 
HETATM   10  C9  UNL     1     -33.040   4.843   2.437  1.00 20.00     0.015 C 
BRANCH   6  11
HETATM   11  O11 UNL     1     -34.086   7.709   5.948  1.00 20.00    -0.391 OA
HETATM   12  H25 UNL     1     -34.667   8.296   5.437  1.00 20.00     0.210 HD
ENDBRANCH   6  11
ENDBRANCH   3   4
TORSDOF 2
ENDMDL
MODEL 2
REMARK VINA RESULT:      -5.3     10.238     11.308
REMARK  2 active torsions:
REMARK  status: ('A' for Active; 'I' for Inactive)
REMARK    1  A    between atoms: C3_3  and  C10_10 
REMARK    2  A    between atoms: C7_7  and  O11_11 
ROOT
HETATM    1  C1  UNL     1     -35.536  17.343  -0.432  1.00 20.00     0.012 C 
HETATM    2  C2  UNL     1     -34.892  17.026  -1.395  1.00 20.00    -0.113 C 
HETATM    3  C10 UNL     1     -34.097  16.646  -2.564  1.00 20.00     0.127 C 
ENDROOT
BRANCH   3   4
HETATM    4  C3  UNL     1     -34.918  15.817  -3.491  1.00 20.00    -0.060 C 
HETATM    5  C4  UNL     1     -34.551  14.736  -4.201  1.00 20.00    -0.052 C 
HETATM    6  C7  UNL     1     -35.698  14.212  -5.020  1.00 20.00     0.147 C 
HETATM    7  C8  UNL     1     -33.208  14.095  -4.295  1.00 20.00     0.046 C 
HETATM    8  C5  UNL     1     -36.907  14.900  -4.388  1.00 20.00     0.045 C 
HETATM    9  C6  UNL     1     -36.365  16.172  -3.727  1.00 20.00     0.014 C 
HETATM   10  C9  UNL     1     -36.525  17.398  -4.619  1.00 20.00     0.015 C 
BRANCH   6  11
HETATM   11  O11 UNL     1     -35.843  12.806  -4.907  1.00 20.00    -0.391 OA
HETATM   12  H25 UNL     1     -36.794  12.626  -4.826  1.00 20.00     0.210 HD
ENDBRANCH   6  11
ENDBRANCH   3   4
TORSDOF 2
ENDMDL
MODEL 3
REMARK VINA RESULT:      -5.3      1.702      2.201
REMARK  2 active torsions:
REMARK  status: ('A' for Active; 'I' for Inactive)
REMARK    1  A    between atoms: C3_3  and  C10_10 
REMARK    2  A    between atoms: C7_7  and  O11_11 
ROOT
HETATM    1  C1  UNL     1     -31.074   8.421   2.995  1.00 20.00     0.012 C 
HETATM    2  C2  UNL     1     -32.228   8.089   2.947  1.00 20.00    -0.113 C 
HETATM    3  C10 UNL     1     -33.636   7.694   2.879  1.00 20.00     0.127 C 
ENDROOT
BRANCH   3   4
HETATM    4  C3  UNL     1     -33.872   6.502   3.742  1.00 20.00    -0.060 C 
HETATM    5  C4  UNL     1     -33.939   6.435   5.083  1.00 20.00    -0.052 C 
HETATM    6  C7  UNL     1     -34.184   5.024   5.542  1.00 20.00     0.147 C 
HETATM    7  C8  UNL     1     -33.749   7.525   6.081  1.00 20.00     0.046 C 
HETATM    8  C5  UNL     1     -34.649   4.328   4.263  1.00 20.00     0.045 C 
HETATM    9  C6  UNL     1     -34.066   5.148   3.106  1.00 20.00     0.014 C 
HETATM   10  C9  UNL     1     -32.761   4.559   2.583  1.00 20.00     0.015 C 
BRANCH   6  11
HETATM   11  O11 UNL     1     -35.208   4.945   6.519  1.00 20.00    -0.391 OA
HETATM   12  H25 UNL     1     -34.797   4.610   7.333  1.00 20.00     0.210 HD
ENDBRANCH   6  11
ENDBRANCH   3   4
TORSDOF 2
ENDMDL
MODEL 4
REMARK VINA RESULT:      -5.0      1.557      2.896
REMARK  2 active torsions:
REMARK  status: ('A' for Active; 'I' for Inactive)
REMARK    1  A    between atoms: C3_3  and  C10_10 
REMARK    2  A    between atoms: C7_7  and  O11_11 
ROOT
HETATM    1  C1  UNL     1     -32.697   9.200   1.433  1.00 20.00     0.012 C 
HETATM    2  C2  UNL     1     -32.327   8.492   2.330  1.00 20.00    -0.113 C 
HETATM    3  C10 UNL     1     -31.863   7.633   3.421  1.00 20.00     0.127 C 
ENDROOT
BRANCH   3   4
HETATM    4  C3  UNL     1     -33.022   6.932   4.045  1.00 20.00    -0.060 C 
HETATM    5  C4  UNL     1     -33.930   6.129   3.464  1.00 20.00    -0.052 C 
HETATM    6  C7  UNL     1     -34.940   5.642   4.466  1.00 20.00     0.147 C 
HETATM    7  C8  UNL     1     -34.059   5.755   2.027  1.00 20.00     0.046 C 
HETATM    8  C5  UNL     1     -34.267   5.953   5.802  1.00 20.00     0.045 C 
HETATM    9  C6  UNL     1     -33.287   7.096   5.521  1.00 20.00     0.014 C 
HETATM   10  C9  UNL     1     -33.881   8.460   5.856  1.00 20.00     0.015 C 
BRANCH   6  11
HETATM   11  O11 UNL     1     -35.168   4.246   4.366  1.00 20.00    -0.391 OA
HETATM   12  H25 UNL     1     -34.344   3.806   4.630  1.00 20.00     0.210 HD
ENDBRANCH   6  11
ENDBRANCH   3   4
TORSDOF 2
ENDMDL
MODEL 5
REMARK VINA RESULT:      -4.7     10.541     11.443
REMARK  2 active torsions:
REMARK  status: ('A' for Active; 'I' for Inactive)
REMARK    1  A    between atoms: C3_3  and  C10_10 
REMARK    2  A    between atoms: C7_7  and  O11_11 
ROOT
HETATM    1  C1  UNL     1     -33.794  15.339  -3.711  1.00 20.00     0.012 C 
HETATM    2  C2  UNL     1     -34.438  15.974  -2.919  1.00 20.00    -0.113 C 
HETATM    3  C10 UNL     1     -35.232  16.742  -1.959  1.00 20.00     0.127 C 
ENDROOT
BRANCH   3   4
HETATM    4  C3  UNL     1     -34.337  17.579  -1.111  1.00 20.00    -0.060 C 
HETATM    5  C4  UNL     1     -34.511  17.970   0.163  1.00 20.00    -0.052 C 
HETATM    6  C7  UNL     1     -33.361  18.819   0.629  1.00 20.00     0.147 C 
HETATM    7  C8  UNL     1     -35.668  17.713   1.067  1.00 20.00     0.046 C 
HETATM    8  C5  UNL     1     -32.290  18.547  -0.425  1.00 20.00     0.045 C 
HETATM    9  C6  UNL     1     -33.045  18.106  -1.684  1.00 20.00     0.014 C 
HETATM   10  C9  UNL     1     -33.268  19.260  -2.656  1.00 20.00     0.015 C 
BRANCH   6  11
HETATM   11  O11 UNL     1     -32.880  18.424   1.903  1.00 20.00    -0.391 OA
HETATM   12  H25 UNL     1     -31.938  18.659   1.935  1.00 20.00     0.210 HD
ENDBRANCH   6  11
ENDBRANCH   3   4
TORSDOF 2
ENDMDL
MODEL 6
REMARK VINA RESULT:      -4.5     10.704     12.284
REMARK  2 active torsions:
REMARK  status: ('A' for Active; 'I' for Inactive)
REMARK    1  A    between atoms: C3_3  and  C10_10 
REMARK    2  A    between atoms: C7_7  and  O11_11 
ROOT
HETATM    1  C1  UNL     1     -32.801  18.140  -0.917  1.00 20.00     0.012 C 
HETATM    2  C2  UNL     1     -33.619  17.461  -1.477  1.00 20.00    -0.113 C 
HETATM    3  C10 UNL     1     -34.622  16.634  -2.149  1.00 20.00     0.127 C 
ENDROOT
BRANCH   3   4
HETATM    4  C3  UNL     1     -34.297  16.515  -3.599  1.00 20.00    -0.060 C 
HETATM    5  C4  UNL     1     -34.618  17.350  -4.603  1.00 20.00    -0.052 C 
HETATM    6  C7  UNL     1     -34.096  16.839  -5.917  1.00 20.00     0.147 C 
HETATM    7  C8  UNL     1     -35.427  18.600  -4.552  1.00 20.00     0.046 C 
HETATM    8  C5  UNL     1     -33.078  15.783  -5.490  1.00 20.00     0.045 C 
HETATM    9  C6  UNL     1     -33.511  15.326  -4.093  1.00 20.00     0.014 C 
HETATM   10  C9  UNL     1     -34.349  14.053  -4.136  1.00 20.00     0.015 C 
BRANCH   6  11
HETATM   11  O11 UNL     1     -33.441  17.849  -6.667  1.00 20.00    -0.391 OA
HETATM   12  H25 UNL     1     -32.849  18.315  -6.055  1.00 20.00     0.210 HD
ENDBRANCH   6  11
ENDBRANCH   3   4
TORSDOF 2
ENDMDL
MODEL 7
REMARK VINA RESULT:      -4.4     10.186     12.353
REMARK  2 active torsions:
REMARK  status: ('A' for Active; 'I' for Inactive)
REMARK    1  A    between atoms: C3_3  and  C10_10 
REMARK    2  A    between atoms: C7_7  and  O11_11 
ROOT
HETATM    1  C1  UNL     1     -34.790  18.737  -7.035  1.00 20.00     0.012 C 
HETATM    2  C2  UNL     1     -34.266  17.656  -7.044  1.00 20.00    -0.113 C 
HETATM    3  C10 UNL     1     -33.620  16.343  -7.064  1.00 20.00     0.127 C 
ENDROOT
BRANCH   3   4
HETATM    4  C3  UNL     1     -34.222  15.463  -6.023  1.00 20.00    -0.060 C 
HETATM    5  C4  UNL     1     -35.364  14.756  -6.078  1.00 20.00    -0.052 C 
HETATM    6  C7  UNL     1     -35.600  14.010  -4.793  1.00 20.00     0.147 C 
HETATM    7  C8  UNL     1     -36.368  14.692  -7.177  1.00 20.00     0.046 C 
HETATM    8  C5  UNL     1     -34.232  14.063  -4.115  1.00 20.00     0.045 C 
HETATM    9  C6  UNL     1     -33.524  15.292  -4.696  1.00 20.00     0.014 C 
HETATM   10  C9  UNL     1     -33.669  16.517  -3.801  1.00 20.00     0.015 C 
BRANCH   6  11
HETATM   11  O11 UNL     1     -35.965  12.658  -5.014  1.00 20.00    -0.391 OA
HETATM   12  H25 UNL     1     -35.722  12.166  -4.213  1.00 20.00     0.210 HD
ENDBRANCH   6  11
ENDBRANCH   3   4
TORSDOF 2
ENDMDL
MODEL 8
REMARK VINA RESULT:      -4.3     10.635     11.598
REMARK  2 active torsions:
REMARK  status: ('A' for Active; 'I' for Inactive)
REMARK    1  A    between atoms: C3_3  and  C10_10 
REMARK    2  A    between atoms: C7_7  and  O11_11 
ROOT
HETATM    1  C1  UNL     1     -35.544  13.696  -7.836  1.00 20.00     0.012 C 
HETATM    2  C2  UNL     1     -35.604  13.515  -6.650  1.00 20.00    -0.113 C 
HETATM    3  C10 UNL     1     -35.678  13.282  -5.207  1.00 20.00     0.127 C 
ENDROOT
BRANCH   3   4
HETATM    4  C3  UNL     1     -35.551  14.575  -4.475  1.00 20.00    -0.060 C 
HETATM    5  C4  UNL     1     -36.505  15.481  -4.198  1.00 20.00    -0.052 C 
HETATM    6  C7  UNL     1     -35.936  16.652  -3.446  1.00 20.00     0.147 C 
HETATM    7  C8  UNL     1     -37.944  15.467  -4.587  1.00 20.00     0.046 C 
HETATM    8  C5  UNL     1     -34.583  16.123  -2.969  1.00 20.00     0.045 C 
HETATM    9  C6  UNL     1     -34.205  15.004  -3.946  1.00 20.00     0.014 C 
HETATM   10  C9  UNL     1     -33.275  15.493  -5.051  1.00 20.00     0.015 C 
BRANCH   6  11
HETATM   11  O11 UNL     1     -36.725  17.006  -2.323  1.00 20.00    -0.391 OA
HETATM   12  H25 UNL     1     -36.427  16.454  -1.582  1.00 20.00     0.210 HD
ENDBRANCH   6  11
ENDBRANCH   3   4
TORSDOF 2
ENDMDL
MODEL 9
REMARK VINA RESULT:      -4.3     10.868     12.040
REMARK  2 active torsions:
REMARK  status: ('A' for Active; 'I' for Inactive)
REMARK    1  A    between atoms: C3_3  and  C10_10 
REMARK    2  A    between atoms: C7_7  and  O11_11 
ROOT
HETATM    1  C1  UNL     1     -35.030  16.664  -1.690  1.00 20.00     0.012 C 
HETATM    2  C2  UNL     1     -35.270  16.835  -2.854  1.00 20.00    -0.113 C 
HETATM    3  C10 UNL     1     -35.562  17.056  -4.271  1.00 20.00     0.127 C 
ENDROOT
BRANCH   3   4
HETATM    4  C3  UNL     1     -35.557  15.756  -5.001  1.00 20.00    -0.060 C 
HETATM    5  C4  UNL     1     -34.826  15.395  -6.070  1.00 20.00    -0.052 C 
HETATM    6  C7  UNL     1     -35.145  13.988  -6.494  1.00 20.00     0.147 C 
HETATM    7  C8  UNL     1     -33.852  16.210  -6.851  1.00 20.00     0.046 C 
HETATM    8  C5  UNL     1     -35.884  13.429  -5.278  1.00 20.00     0.045 C 
HETATM    9  C6  UNL     1     -36.470  14.643  -4.550  1.00 20.00     0.014 C 
HETATM   10  C9  UNL     1     -37.925  14.895  -4.929  1.00 20.00     0.015 C 
BRANCH   6  11
HETATM   11  O11 UNL     1     -33.979  13.219  -6.731  1.00 20.00    -0.391 OA
HETATM   12  H25 UNL     1     -34.259  12.420  -7.206  1.00 20.00     0.210 HD
ENDBRANCH   6  11
ENDBRANCH   3   4
TORSDOF 2
ENDMDL
