MODEL 1
REMARK VINA RESULT:      -5.8      0.000      0.000
REMARK  0 active torsions:
REMARK  status: ('A' for Active; 'I' for Inactive)
ROOT
HETATM    1  C1  UNL     1     -34.313   5.707   5.338  1.00 20.00     0.057 C 
HETATM    2  C2  UNL     1     -32.268   8.410   3.866  1.00 20.00    -0.019 C 
HETATM    3  C3  UNL     1     -33.086   7.370   4.071  1.00 20.00    -0.051 C 
HETATM    4  C4  UNL     1     -33.718   6.912   5.289  1.00 20.00    -0.052 C 
HETATM    5  C5  UNL     1     -34.267   4.769   4.179  1.00 20.00     0.150 C 
HETATM    6  C6  UNL     1     -31.845   8.500   2.435  1.00 20.00     0.028 C 
HETATM    7  C7  UNL     1     -33.387   5.129   2.997  1.00 20.00     0.092 C 
HETATM    8  C8  UNL     1     -32.234   7.127   1.882  1.00 20.00     0.013 C 
HETATM    9  C9  UNL     1     -33.364   6.636   2.791  1.00 20.00     0.026 C 
HETATM   10  C10 UNL     1     -33.715   7.823   6.483  1.00 20.00     0.049 C 
HETATM   11  O11 UNL     1     -34.878   3.704   4.231  1.00 20.00    -0.293 OA
ENDROOT
TORSDOF 0
ENDMDL
MODEL 2
REMARK VINA RESULT:      -5.7      2.065      4.292
REMARK  0 active torsions:
REMARK  status: ('A' for Active; 'I' for Inactive)
ROOT
HETATM    1  C1  UNL     1     -32.508   6.563   2.228  1.00 20.00     0.057 C 
HETATM    2  C2  UNL     1     -34.273   4.544   4.771  1.00 20.00    -0.019 C 
HETATM    3  C3  UNL     1     -33.791   5.535   4.009  1.00 20.00    -0.051 C 
HETATM    4  C4  UNL     1     -33.135   5.480   2.721  1.00 20.00    -0.052 C 
HETATM    5  C5  UNL     1     -32.390   7.821   3.020  1.00 20.00     0.150 C 
HETATM    6  C6  UNL     1     -34.866   5.068   6.039  1.00 20.00     0.028 C 
HETATM    7  C7  UNL     1     -32.842   7.805   4.468  1.00 20.00     0.092 C 
HETATM    8  C8  UNL     1     -34.326   6.498   6.098  1.00 20.00     0.013 C 
HETATM    9  C9  UNL     1     -34.032   6.875   4.643  1.00 20.00     0.026 C 
HETATM   10  C10 UNL     1     -33.193   4.198   1.943  1.00 20.00     0.049 C 
HETATM   11  O11 UNL     1     -31.871   8.814   2.515  1.00 20.00    -0.293 OA
ENDROOT
TORSDOF 0
ENDMDL
MODEL 3
REMARK VINA RESULT:      -5.0     12.274     12.924
REMARK  0 active torsions:
REMARK  status: ('A' for Active; 'I' for Inactive)
ROOT
HETATM    1  C1  UNL     1     -31.829  18.370  -0.469  1.00 20.00     0.057 C 
HETATM    2  C2  UNL     1     -35.415  17.577  -0.059  1.00 20.00    -0.019 C 
HETATM    3  C3  UNL     1     -34.180  18.084   0.048  1.00 20.00    -0.051 C 
HETATM    4  C4  UNL     1     -33.061  18.001  -0.864  1.00 20.00    -0.052 C 
HETATM    5  C5  UNL     1     -31.557  18.789   0.936  1.00 20.00     0.150 C 
HETATM    6  C6  UNL     1     -36.248  17.906   1.138  1.00 20.00     0.028 C 
HETATM    7  C7  UNL     1     -32.662  18.629   1.962  1.00 20.00     0.092 C 
HETATM    8  C8  UNL     1     -35.204  18.368   2.157  1.00 20.00     0.013 C 
HETATM    9  C9  UNL     1     -34.021  18.865   1.321  1.00 20.00     0.026 C 
HETATM   10  C10 UNL     1     -33.312  17.519  -2.264  1.00 20.00     0.049 C 
HETATM   11  O11 UNL     1     -30.436  19.186   1.249  1.00 20.00    -0.293 OA
ENDROOT
TORSDOF 0
ENDMDL
MODEL 4
REMARK VINA RESULT:      -4.9     11.957     12.431
REMARK  0 active torsions:
REMARK  status: ('A' for Active; 'I' for Inactive)
ROOT
HETATM    1  C1  UNL     1     -33.737  18.834   1.782  1.00 20.00     0.057 C 
HETATM    2  C2  UNL     1     -33.212  17.444  -1.602  1.00 20.00    -0.019 C 
HETATM    3  C3  UNL     1     -33.726  17.975  -0.485  1.00 20.00    -0.051 C 
HETATM    4  C4  UNL     1     -33.059  18.576   0.649  1.00 20.00    -0.052 C 
HETATM    5  C5  UNL     1     -35.164  18.432   1.942  1.00 20.00     0.150 C 
HETATM    6  C6  UNL     1     -34.284  16.926  -2.506  1.00 20.00     0.028 C 
HETATM    7  C7  UNL     1     -35.795  17.570   0.865  1.00 20.00     0.092 C 
HETATM    8  C8  UNL     1     -35.507  16.885  -1.587  1.00 20.00     0.013 C 
HETATM    9  C9  UNL     1     -35.227  17.926  -0.500  1.00 20.00     0.026 C 
HETATM   10  C10 UNL     1     -31.605  18.927   0.520  1.00 20.00     0.049 C 
HETATM   11  O11 UNL     1     -35.775  18.742   2.964  1.00 20.00    -0.293 OA
ENDROOT
TORSDOF 0
ENDMDL
MODEL 5
REMARK VINA RESULT:      -4.8     11.423     12.342
REMARK  0 active torsions:
REMARK  status: ('A' for Active; 'I' for Inactive)
ROOT
HETATM    1  C1  UNL     1     -37.018  14.177  -5.108  1.00 20.00     0.057 C 
HETATM    2  C2  UNL     1     -36.281  16.931  -2.756  1.00 20.00    -0.019 C 
HETATM    3  C3  UNL     1     -36.216  15.969  -3.685  1.00 20.00    -0.051 C 
HETATM    4  C4  UNL     1     -37.279  15.282  -4.386  1.00 20.00    -0.052 C 
HETATM    5  C5  UNL     1     -35.654  13.574  -5.140  1.00 20.00     0.150 C 
HETATM    6  C6  UNL     1     -34.919  17.344  -2.298  1.00 20.00     0.028 C 
HETATM    7  C7  UNL     1     -34.598  14.132  -4.204  1.00 20.00     0.092 C 
HETATM    8  C8  UNL     1     -34.032  16.213  -2.821  1.00 20.00     0.013 C 
HETATM    9  C9  UNL     1     -34.792  15.628  -4.016  1.00 20.00     0.026 C 
HETATM   10  C10 UNL     1     -38.668  15.845  -4.308  1.00 20.00     0.049 C 
HETATM   11  O11 UNL     1     -35.432  12.605  -5.863  1.00 20.00    -0.293 OA
ENDROOT
TORSDOF 0
ENDMDL
MODEL 6
REMARK VINA RESULT:      -4.8     11.560     12.277
REMARK  0 active torsions:
REMARK  status: ('A' for Active; 'I' for Inactive)
ROOT
HETATM    1  C1  UNL     1     -35.320  14.113  -4.662  1.00 20.00     0.057 C 
HETATM    2  C2  UNL     1     -33.606  16.782  -2.766  1.00 20.00    -0.019 C 
HETATM    3  C3  UNL     1     -34.487  15.893  -3.244  1.00 20.00    -0.051 C 
HETATM    4  C4  UNL     1     -34.276  14.743  -4.095  1.00 20.00    -0.052 C 
HETATM    5  C5  UNL     1     -36.713  14.625  -4.509  1.00 20.00     0.150 C 
HETATM    6  C6  UNL     1     -34.276  17.821  -1.926  1.00 20.00     0.028 C 
HETATM    7  C7  UNL     1     -36.916  15.971  -3.841  1.00 20.00     0.092 C 
HETATM    8  C8  UNL     1     -35.753  17.639  -2.281  1.00 20.00     0.013 C 
HETATM    9  C9  UNL     1     -35.875  16.187  -2.754  1.00 20.00     0.026 C 
HETATM   10  C10 UNL     1     -32.871  14.258  -4.307  1.00 20.00     0.049 C 
HETATM   11  O11 UNL     1     -37.653  13.988  -4.983  1.00 20.00    -0.293 OA
ENDROOT
TORSDOF 0
ENDMDL
MODEL 7
REMARK VINA RESULT:      -4.8     12.141     12.772
REMARK  0 active torsions:
REMARK  status: ('A' for Active; 'I' for Inactive)
ROOT
HETATM    1  C1  UNL     1     -34.218  18.153  -0.619  1.00 20.00     0.057 C 
HETATM    2  C2  UNL     1     -33.829  18.317   3.052  1.00 20.00    -0.019 C 
HETATM    3  C3  UNL     1     -33.716  18.488   1.728  1.00 20.00    -0.051 C 
HETATM    4  C4  UNL     1     -34.619  18.110   0.664  1.00 20.00    -0.052 C 
HETATM    5  C5  UNL     1     -32.814  18.501  -0.983  1.00 20.00     0.150 C 
HETATM    6  C6  UNL     1     -32.640  18.861   3.778  1.00 20.00     0.028 C 
HETATM    7  C7  UNL     1     -31.795  18.641   0.132  1.00 20.00     0.092 C 
HETATM    8  C8  UNL     1     -31.617  19.047   2.656  1.00 20.00     0.013 C 
HETATM    9  C9  UNL     1     -32.448  19.213   1.380  1.00 20.00     0.026 C 
HETATM   10  C10 UNL     1     -36.017  17.697   1.024  1.00 20.00     0.049 C 
HETATM   11  O11 UNL     1     -32.496  18.597  -2.167  1.00 20.00    -0.293 OA
ENDROOT
TORSDOF 0
ENDMDL
MODEL 8
REMARK VINA RESULT:      -4.8     12.235     12.617
REMARK  0 active torsions:
REMARK  status: ('A' for Active; 'I' for Inactive)
ROOT
HETATM    1  C1  UNL     1     -33.288  18.565   0.864  1.00 20.00     0.057 C 
HETATM    2  C2  UNL     1     -36.075  17.382  -1.254  1.00 20.00    -0.019 C 
HETATM    3  C3  UNL     1     -34.880  17.612  -0.696  1.00 20.00    -0.051 C 
HETATM    4  C4  UNL     1     -34.551  18.197   0.585  1.00 20.00    -0.052 C 
HETATM    5  C5  UNL     1     -32.207  18.466  -0.158  1.00 20.00     0.150 C 
HETATM    6  C6  UNL     1     -35.937  16.761  -2.607  1.00 20.00     0.028 C 
HETATM    7  C7  UNL     1     -32.591  18.103  -1.580  1.00 20.00     0.092 C 
HETATM    8  C8  UNL     1     -34.463  17.002  -2.939  1.00 20.00     0.013 C 
HETATM    9  C9  UNL     1     -33.765  17.137  -1.583  1.00 20.00     0.026 C 
HETATM   10  C10 UNL     1     -35.646  18.360   1.599  1.00 20.00     0.049 C 
HETATM   11  O11 UNL     1     -31.049  18.746   0.149  1.00 20.00    -0.293 OA
ENDROOT
TORSDOF 0
ENDMDL
MODEL 9
REMARK VINA RESULT:      -4.7     12.037     12.302
REMARK  0 active torsions:
REMARK  status: ('A' for Active; 'I' for Inactive)
ROOT
HETATM    1  C1  UNL     1     -35.818  17.211  -0.814  1.00 20.00     0.057 C 
HETATM    2  C2  UNL     1     -33.218  18.645   1.387  1.00 20.00    -0.019 C 
HETATM    3  C3  UNL     1     -33.956  18.247   0.342  1.00 20.00    -0.051 C 
HETATM    4  C4  UNL     1     -35.330  17.797   0.294  1.00 20.00    -0.052 C 
HETATM    5  C5  UNL     1     -34.946  16.924  -1.990  1.00 20.00     0.150 C 
HETATM    6  C6  UNL     1     -31.832  19.017   0.968  1.00 20.00     0.028 C 
HETATM    7  C7  UNL     1     -33.453  17.151  -1.851  1.00 20.00     0.092 C 
HETATM    8  C8  UNL     1     -31.733  18.419  -0.436  1.00 20.00     0.013 C 
HETATM    9  C9  UNL     1     -33.177  18.336  -0.939  1.00 20.00     0.026 C 
HETATM   10  C10 UNL     1     -36.199  18.024   1.497  1.00 20.00     0.049 C 
HETATM   11  O11 UNL     1     -35.437  16.450  -3.012  1.00 20.00    -0.293 OA
ENDROOT
TORSDOF 0
ENDMDL
