MODEL 1
REMARK VINA RESULT:      -5.1      0.000      0.000
REMARK  2 active torsions:
REMARK  status: ('A' for Active; 'I' for Inactive)
REMARK    1  A    between atoms: C1_1  and  C4_4 
REMARK    2  A    between atoms: C1_1  and  C6_6 
ROOT
HETATM    1  C1  UNL     1     -33.351   6.582   3.361  1.00 20.00     0.145 C 
HETATM    2  O7  UNL     1     -32.926   5.642   2.700  1.00 20.00    -0.296 OA
ENDROOT
BRANCH   1   3
HETATM    3  C4  UNL     1     -32.902   7.971   3.044  1.00 20.00     0.057 A 
HETATM    4  C2  UNL     1     -31.463   8.318   3.243  1.00 20.00     0.013 A 
HETATM    5  C3  UNL     1     -32.020   8.179   1.858  1.00 20.00     0.013 A 
ENDBRANCH   1   3
BRANCH   1   6
HETATM    6  C6  UNL     1     -34.338   6.440   4.495  1.00 20.00     0.123 C 
HETATM    7  C5  UNL     1     -33.854   7.100   5.772  1.00 20.00     0.030 C 
HETATM    8 BR8  UNL     1     -34.533   4.524   4.781  1.00 20.00    -0.084 Br
ENDBRANCH   1   6
TORSDOF 2
ENDMDL
MODEL 2
REMARK VINA RESULT:      -4.8      1.686      2.026
REMARK  2 active torsions:
REMARK  status: ('A' for Active; 'I' for Inactive)
REMARK    1  A    between atoms: C1_1  and  C4_4 
REMARK    2  A    between atoms: C1_1  and  C6_6 
ROOT
HETATM    1  C1  UNL     1     -32.443   8.027   2.998  1.00 20.00     0.145 C 
HETATM    2  O7  UNL     1     -31.376   8.271   3.549  1.00 20.00    -0.296 OA
ENDROOT
BRANCH   1   3
HETATM    3  C4  UNL     1     -32.654   8.443   1.579  1.00 20.00     0.057 A 
HETATM    4  C2  UNL     1     -32.508   9.887   1.230  1.00 20.00     0.013 A 
HETATM    5  C3  UNL     1     -31.472   8.897   0.789  1.00 20.00     0.013 A 
ENDBRANCH   1   3
BRANCH   1   6
HETATM    6  C6  UNL     1     -33.589   7.299   3.660  1.00 20.00     0.123 C 
HETATM    7  C5  UNL     1     -33.464   7.272   5.170  1.00 20.00     0.030 C 
HETATM    8 BR8  UNL     1     -33.524   5.482   2.964  1.00 20.00    -0.084 Br
ENDBRANCH   1   6
TORSDOF 2
ENDMDL
MODEL 3
REMARK VINA RESULT:      -4.6      1.656      1.893
REMARK  2 active torsions:
REMARK  status: ('A' for Active; 'I' for Inactive)
REMARK    1  A    between atoms: C1_1  and  C4_4 
REMARK    2  A    between atoms: C1_1  and  C6_6 
ROOT
HETATM    1  C1  UNL     1     -33.512   6.937   4.185  1.00 20.00     0.145 C 
HETATM    2  O7  UNL     1     -33.605   7.688   5.149  1.00 20.00    -0.296 OA
ENDROOT
BRANCH   1   3
HETATM    3  C4  UNL     1     -32.466   7.189   3.150  1.00 20.00     0.057 A 
HETATM    4  C2  UNL     1     -32.606   8.389   2.272  1.00 20.00     0.013 A 
HETATM    5  C3  UNL     1     -31.550   8.353   3.335  1.00 20.00     0.013 A 
ENDBRANCH   1   3
BRANCH   1   6
HETATM    6  C6  UNL     1     -34.390   5.727   3.968  1.00 20.00     0.123 C 
HETATM    7  C5  UNL     1     -34.665   4.972   5.254  1.00 20.00     0.030 C 
HETATM    8 BR8  UNL     1     -33.410   4.585   2.734  1.00 20.00    -0.084 Br
ENDBRANCH   1   6
TORSDOF 2
ENDMDL
MODEL 4
REMARK VINA RESULT:      -4.6      2.452      3.968
REMARK  2 active torsions:
REMARK  status: ('A' for Active; 'I' for Inactive)
REMARK    1  A    between atoms: C1_1  and  C4_4 
REMARK    2  A    between atoms: C1_1  and  C6_6 
ROOT
HETATM    1  C1  UNL     1     -33.732   6.819   4.468  1.00 20.00     0.145 C 
HETATM    2  O7  UNL     1     -33.255   7.464   5.394  1.00 20.00    -0.296 OA
ENDROOT
BRANCH   1   3
HETATM    3  C4  UNL     1     -34.802   5.813   4.742  1.00 20.00     0.057 A 
HETATM    4  C2  UNL     1     -34.463   4.364   4.632  1.00 20.00     0.013 A 
HETATM    5  C3  UNL     1     -34.696   4.983   5.978  1.00 20.00     0.013 A 
ENDBRANCH   1   3
BRANCH   1   6
HETATM    6  C6  UNL     1     -33.321   6.982   3.024  1.00 20.00     0.123 C 
HETATM    7  C5  UNL     1     -32.932   5.667   2.380  1.00 20.00     0.030 C 
HETATM    8 BR8  UNL     1     -31.786   8.179   3.051  1.00 20.00    -0.084 Br
ENDBRANCH   1   6
TORSDOF 2
ENDMDL
MODEL 5
REMARK VINA RESULT:      -4.4      2.201      3.478
REMARK  2 active torsions:
REMARK  status: ('A' for Active; 'I' for Inactive)
REMARK    1  A    between atoms: C1_1  and  C4_4 
REMARK    2  A    between atoms: C1_1  and  C6_6 
ROOT
HETATM    1  C1  UNL     1     -32.933   6.538   3.023  1.00 20.00     0.145 C 
HETATM    2  O7  UNL     1     -32.842   5.418   2.536  1.00 20.00    -0.296 OA
ENDROOT
BRANCH   1   3
HETATM    3  C4  UNL     1     -34.122   6.886   3.858  1.00 20.00     0.057 A 
HETATM    4  C2  UNL     1     -35.207   5.872   4.011  1.00 20.00     0.013 A 
HETATM    5  C3  UNL     1     -34.301   6.187   5.164  1.00 20.00     0.013 A 
ENDBRANCH   1   3
BRANCH   1   6
HETATM    6  C6  UNL     1     -31.894   7.621   2.854  1.00 20.00     0.123 C 
HETATM    7  C5  UNL     1     -31.705   8.446   4.112  1.00 20.00     0.030 C 
HETATM    8 BR8  UNL     1     -32.555   8.758   1.418  1.00 20.00    -0.084 Br
ENDBRANCH   1   6
TORSDOF 2
ENDMDL
MODEL 6
REMARK VINA RESULT:      -4.2      1.755      3.504
REMARK  2 active torsions:
REMARK  status: ('A' for Active; 'I' for Inactive)
REMARK    1  A    between atoms: C1_1  and  C4_4 
REMARK    2  A    between atoms: C1_1  and  C6_6 
ROOT
HETATM    1  C1  UNL     1     -33.534   6.005   3.313  1.00 20.00     0.145 C 
HETATM    2  O7  UNL     1     -32.782   5.310   2.641  1.00 20.00    -0.296 OA
ENDROOT
BRANCH   1   3
HETATM    3  C4  UNL     1     -34.682   5.372   4.030  1.00 20.00     0.057 A 
HETATM    4  C2  UNL     1     -34.513   3.989   4.565  1.00 20.00     0.013 A 
HETATM    5  C3  UNL     1     -34.569   5.159   5.502  1.00 20.00     0.013 A 
ENDBRANCH   1   3
BRANCH   1   6
HETATM    6  C6  UNL     1     -33.373   7.496   3.492  1.00 20.00     0.123 C 
HETATM    7  C5  UNL     1     -32.115   8.027   2.834  1.00 20.00     0.030 C 
HETATM    8 BR8  UNL     1     -33.276   7.782   5.416  1.00 20.00    -0.084 Br
ENDBRANCH   1   6
TORSDOF 2
ENDMDL
MODEL 7
REMARK VINA RESULT:      -4.0      2.861      4.210
REMARK  2 active torsions:
REMARK  status: ('A' for Active; 'I' for Inactive)
REMARK    1  A    between atoms: C1_1  and  C4_4 
REMARK    2  A    between atoms: C1_1  and  C6_6 
ROOT
HETATM    1  C1  UNL     1     -32.413   8.138   2.667  1.00 20.00     0.145 C 
HETATM    2  O7  UNL     1     -31.413   8.178   3.375  1.00 20.00    -0.296 OA
ENDROOT
BRANCH   1   3
HETATM    3  C4  UNL     1     -33.665   7.513   3.190  1.00 20.00     0.057 A 
HETATM    4  C2  UNL     1     -33.670   6.045   3.458  1.00 20.00     0.013 A 
HETATM    5  C3  UNL     1     -33.677   7.019   4.598  1.00 20.00     0.013 A 
ENDBRANCH   1   3
BRANCH   1   6
HETATM    6  C6  UNL     1     -32.482   8.708   1.270  1.00 20.00     0.123 C 
HETATM    7  C5  UNL     1     -31.178   8.549   0.514  1.00 20.00     0.030 C 
HETATM    8 BR8  UNL     1     -32.882  10.600   1.497  1.00 20.00    -0.084 Br
ENDBRANCH   1   6
TORSDOF 2
ENDMDL
MODEL 8
REMARK VINA RESULT:      -4.0      2.096      3.743
REMARK  2 active torsions:
REMARK  status: ('A' for Active; 'I' for Inactive)
REMARK    1  A    between atoms: C1_1  and  C4_4 
REMARK    2  A    between atoms: C1_1  and  C6_6 
ROOT
HETATM    1  C1  UNL     1     -33.569   6.807   4.589  1.00 20.00     0.145 C 
HETATM    2  O7  UNL     1     -33.366   7.603   5.498  1.00 20.00    -0.296 OA
ENDROOT
BRANCH   1   3
HETATM    3  C4  UNL     1     -34.679   5.815   4.709  1.00 20.00     0.057 A 
HETATM    4  C2  UNL     1     -34.361   4.365   4.547  1.00 20.00     0.013 A 
HETATM    5  C3  UNL     1     -34.702   4.915   5.899  1.00 20.00     0.013 A 
ENDBRANCH   1   3
BRANCH   1   6
HETATM    6  C6  UNL     1     -32.768   6.763   3.309  1.00 20.00     0.123 C 
HETATM    7  C5  UNL     1     -31.999   8.046   3.062  1.00 20.00     0.030 C 
HETATM    8 BR8  UNL     1     -34.071   6.496   1.888  1.00 20.00    -0.084 Br
ENDBRANCH   1   6
TORSDOF 2
ENDMDL
MODEL 9
REMARK VINA RESULT:      -3.9     11.365     12.303
REMARK  2 active torsions:
REMARK  status: ('A' for Active; 'I' for Inactive)
REMARK    1  A    between atoms: C1_1  and  C4_4 
REMARK    2  A    between atoms: C1_1  and  C6_6 
ROOT
HETATM    1  C1  UNL     1     -35.353  13.801  -5.233  1.00 20.00     0.145 C 
HETATM    2  O7  UNL     1     -35.911  12.710  -5.239  1.00 20.00    -0.296 OA
ENDROOT
BRANCH   1   3
HETATM    3  C4  UNL     1     -34.502  14.189  -4.069  1.00 20.00     0.057 A 
HETATM    4  C2  UNL     1     -33.382  15.151  -4.294  1.00 20.00     0.013 A 
HETATM    5  C3  UNL     1     -34.607  15.582  -3.545  1.00 20.00     0.013 A 
ENDBRANCH   1   3
BRANCH   1   6
HETATM    6  C6  UNL     1     -35.450  14.806  -6.356  1.00 20.00     0.123 C 
HETATM    7  C5  UNL     1     -36.872  14.993  -6.847  1.00 20.00     0.030 C 
HETATM    8 BR8  UNL     1     -34.350  14.089  -7.794  1.00 20.00    -0.084 Br
ENDBRANCH   1   6
TORSDOF 2
ENDMDL
