MODEL 1
REMARK VINA RESULT:      -4.8      0.000      0.000
REMARK  1 active torsions:
REMARK  status: ('A' for Active; 'I' for Inactive)
REMARK    1  A    between atoms: C2_2  and  C6_6 
ROOT
HETATM    1  C1  UNL     1     -34.096  17.760  -0.749  1.00 20.00    -0.067 C 
HETATM    2  C3  UNL     1     -33.648  18.436   0.317  1.00 20.00    -0.085 C 
HETATM    3  C4  UNL     1     -35.415  17.037  -0.794  1.00 20.00     0.036 C 
HETATM    4  C5  UNL     1     -35.542  16.610  -2.253  1.00 20.00     0.009 C 
HETATM    5  C6  UNL     1     -33.341  17.577  -2.041  1.00 20.00     0.080 C 
HETATM    6  C7  UNL     1     -34.094  16.417  -2.705  1.00 20.00    -0.004 C 
HETATM    7  C8  UNL     1     -32.323  19.141   0.311  1.00 20.00     0.043 C 
HETATM    8  C9  UNL     1     -34.440  18.532   1.587  1.00 20.00     0.043 C 
HETATM    9  C10 UNL     1     -33.942  16.315  -4.215  1.00 20.00     0.011 C 
ENDROOT
BRANCH   5  10
HETATM   10  C2  UNL     1     -33.416  18.874  -2.792  1.00 20.00     0.240 C 
HETATM   11  O11 UNL     1     -32.542  19.263  -3.559  1.00 20.00    -0.306 OA
ENDBRANCH   5  10
TORSDOF 1
ENDMDL
MODEL 2
REMARK VINA RESULT:      -4.8     11.542     12.231
REMARK  1 active torsions:
REMARK  status: ('A' for Active; 'I' for Inactive)
REMARK    1  A    between atoms: C2_2  and  C6_6 
ROOT
HETATM    1  C1  UNL     1     -33.413   7.182   3.986  1.00 20.00    -0.067 C 
HETATM    2  C3  UNL     1     -34.330   6.511   4.694  1.00 20.00    -0.085 C 
HETATM    3  C4  UNL     1     -32.308   7.999   4.600  1.00 20.00     0.036 C 
HETATM    4  C5  UNL     1     -31.440   8.385   3.406  1.00 20.00     0.009 C 
HETATM    5  C6  UNL     1     -33.368   7.265   2.482  1.00 20.00     0.080 C 
HETATM    6  C7  UNL     1     -32.429   8.455   2.241  1.00 20.00    -0.004 C 
HETATM    7  C8  UNL     1     -35.415   5.710   4.034  1.00 20.00     0.043 C 
HETATM    8  C9  UNL     1     -34.337   6.516   6.194  1.00 20.00     0.043 C 
HETATM    9  C10 UNL     1     -31.755   8.494   0.878  1.00 20.00     0.011 C 
ENDROOT
BRANCH   5  10
HETATM   10  C2  UNL     1     -32.844   5.953   1.975  1.00 20.00     0.240 C 
HETATM   11  O11 UNL     1     -32.675   4.971   2.690  1.00 20.00    -0.306 OA
ENDBRANCH   5  10
TORSDOF 1
ENDMDL
MODEL 3
REMARK VINA RESULT:      -4.6     11.508     12.303
REMARK  1 active torsions:
REMARK  status: ('A' for Active; 'I' for Inactive)
REMARK    1  A    between atoms: C2_2  and  C6_6 
ROOT
HETATM    1  C1  UNL     1     -32.936   7.257   2.552  1.00 20.00    -0.067 C 
HETATM    2  C3  UNL     1     -32.420   8.366   2.007  1.00 20.00    -0.085 C 
HETATM    3  C4  UNL     1     -32.709   5.870   2.014  1.00 20.00     0.036 C 
HETATM    4  C5  UNL     1     -33.328   4.966   3.077  1.00 20.00     0.009 C 
HETATM    5  C6  UNL     1     -33.854   7.224   3.747  1.00 20.00     0.080 C 
HETATM    6  C7  UNL     1     -34.455   5.815   3.668  1.00 20.00    -0.004 C 
HETATM    7  C8  UNL     1     -32.677   9.728   2.581  1.00 20.00     0.043 C 
HETATM    8  C9  UNL     1     -31.551   8.320   0.784  1.00 20.00     0.043 C 
HETATM    9  C10 UNL     1     -35.006   5.261   4.973  1.00 20.00     0.011 C 
ENDROOT
BRANCH   5  10
HETATM   10  C2  UNL     1     -33.013   7.470   4.966  1.00 20.00     0.240 C 
HETATM   11  O11 UNL     1     -33.480   7.663   6.082  1.00 20.00    -0.306 OA
ENDBRANCH   5  10
TORSDOF 1
ENDMDL
MODEL 4
REMARK VINA RESULT:      -4.5      2.161      4.565
REMARK  1 active torsions:
REMARK  status: ('A' for Active; 'I' for Inactive)
REMARK    1  A    between atoms: C2_2  and  C6_6 
ROOT
HETATM    1  C1  UNL     1     -34.472  16.268  -2.854  1.00 20.00    -0.067 C 
HETATM    2  C3  UNL     1     -34.367  15.440  -3.901  1.00 20.00    -0.085 C 
HETATM    3  C4  UNL     1     -33.303  16.963  -2.209  1.00 20.00     0.036 C 
HETATM    4  C5  UNL     1     -33.955  17.921  -1.217  1.00 20.00     0.009 C 
HETATM    5  C6  UNL     1     -35.754  16.597  -2.132  1.00 20.00     0.080 C 
HETATM    6  C7  UNL     1     -35.250  17.209  -0.819  1.00 20.00    -0.004 C 
HETATM    7  C8  UNL     1     -35.565  14.770  -4.508  1.00 20.00     0.043 C 
HETATM    8  C9  UNL     1     -33.045  15.126  -4.536  1.00 20.00     0.043 C 
HETATM    9  C10 UNL     1     -36.236  18.113  -0.095  1.00 20.00     0.011 C 
ENDROOT
BRANCH   5  10
HETATM   10  C2  UNL     1     -36.527  17.546  -3.000  1.00 20.00     0.240 C 
HETATM   11  O11 UNL     1     -37.699  17.372  -3.315  1.00 20.00    -0.306 OA
ENDBRANCH   5  10
TORSDOF 1
ENDMDL
MODEL 5
REMARK VINA RESULT:      -4.5      3.130      6.163
REMARK  1 active torsions:
REMARK  status: ('A' for Active; 'I' for Inactive)
REMARK    1  A    between atoms: C2_2  and  C6_6 
ROOT
HETATM    1  C1  UNL     1     -34.372  15.157  -5.590  1.00 20.00    -0.067 C 
HETATM    2  C3  UNL     1     -34.589  14.314  -6.607  1.00 20.00    -0.085 C 
HETATM    3  C4  UNL     1     -33.390  16.296  -5.635  1.00 20.00     0.036 C 
HETATM    4  C5  UNL     1     -33.657  17.053  -4.338  1.00 20.00     0.009 C 
HETATM    5  C6  UNL     1     -35.033  15.073  -4.238  1.00 20.00     0.080 C 
HETATM    6  C7  UNL     1     -34.136  15.968  -3.372  1.00 20.00    -0.004 C 
HETATM    7  C8  UNL     1     -35.581  13.191  -6.513  1.00 20.00     0.043 C 
HETATM    8  C9  UNL     1     -33.854  14.435  -7.910  1.00 20.00     0.043 C 
HETATM    9  C10 UNL     1     -34.783  16.524  -2.113  1.00 20.00     0.011 C 
ENDROOT
BRANCH   5  10
HETATM   10  C2  UNL     1     -36.439  15.573  -4.393  1.00 20.00     0.240 C 
HETATM   11  O11 UNL     1     -37.429  14.904  -4.118  1.00 20.00    -0.306 OA
ENDBRANCH   5  10
TORSDOF 1
ENDMDL
MODEL 6
REMARK VINA RESULT:      -4.3      1.724      2.640
REMARK  1 active torsions:
REMARK  status: ('A' for Active; 'I' for Inactive)
REMARK    1  A    between atoms: C2_2  and  C6_6 
ROOT
HETATM    1  C1  UNL     1     -34.640  16.282  -2.850  1.00 20.00    -0.067 C 
HETATM    2  C3  UNL     1     -34.356  17.034  -1.778  1.00 20.00    -0.085 C 
HETATM    3  C4  UNL     1     -35.985  15.657  -3.107  1.00 20.00     0.036 C 
HETATM    4  C5  UNL     1     -35.852  15.087  -4.516  1.00 20.00     0.009 C 
HETATM    5  C6  UNL     1     -33.659  15.908  -3.931  1.00 20.00     0.080 C 
HETATM    6  C7  UNL     1     -34.366  14.741  -4.633  1.00 20.00    -0.004 C 
HETATM    7  C8  UNL     1     -32.998  17.636  -1.566  1.00 20.00     0.043 C 
HETATM    8  C9  UNL     1     -35.378  17.323  -0.718  1.00 20.00     0.043 C 
HETATM    9  C10 UNL     1     -33.921  14.468  -6.062  1.00 20.00     0.011 C 
ENDROOT
BRANCH   5  10
HETATM   10  C2  UNL     1     -33.459  17.119  -4.795  1.00 20.00     0.240 C 
HETATM   11  O11 UNL     1     -34.330  17.960  -4.993  1.00 20.00    -0.306 OA
ENDBRANCH   5  10
TORSDOF 1
ENDMDL
MODEL 7
REMARK VINA RESULT:      -4.3      2.737      4.181
REMARK  1 active torsions:
REMARK  status: ('A' for Active; 'I' for Inactive)
REMARK    1  A    between atoms: C2_2  and  C6_6 
ROOT
HETATM    1  C1  UNL     1     -35.527  15.557  -3.861  1.00 20.00    -0.067 C 
HETATM    2  C3  UNL     1     -35.036  16.357  -2.905  1.00 20.00    -0.085 C 
HETATM    3  C4  UNL     1     -36.995  15.305  -4.077  1.00 20.00     0.036 C 
HETATM    4  C5  UNL     1     -37.035  14.505  -5.376  1.00 20.00     0.009 C 
HETATM    5  C6  UNL     1     -34.697  14.755  -4.831  1.00 20.00     0.080 C 
HETATM    6  C7  UNL     1     -35.710  13.740  -5.376  1.00 20.00    -0.004 C 
HETATM    7  C8  UNL     1     -33.562  16.576  -2.731  1.00 20.00     0.043 C 
HETATM    8  C9  UNL     1     -35.929  17.087  -1.945  1.00 20.00     0.043 C 
HETATM    9  C10 UNL     1     -35.367  13.130  -6.727  1.00 20.00     0.011 C 
ENDROOT
BRANCH   5  10
HETATM   10  C2  UNL     1     -34.162  15.708  -5.859  1.00 20.00     0.240 C 
HETATM   11  O11 UNL     1     -32.979  15.768  -6.174  1.00 20.00    -0.306 OA
ENDBRANCH   5  10
TORSDOF 1
ENDMDL
MODEL 8
REMARK VINA RESULT:      -4.3      3.306      4.975
REMARK  1 active torsions:
REMARK  status: ('A' for Active; 'I' for Inactive)
REMARK    1  A    between atoms: C2_2  and  C6_6 
ROOT
HETATM    1  C1  UNL     1     -35.049  15.655  -3.957  1.00 20.00    -0.067 C 
HETATM    2  C3  UNL     1     -35.783  16.368  -3.093  1.00 20.00    -0.085 C 
HETATM    3  C4  UNL     1     -33.604  15.298  -3.740  1.00 20.00     0.036 C 
HETATM    4  C5  UNL     1     -33.295  14.336  -4.884  1.00 20.00     0.009 C 
HETATM    5  C6  UNL     1     -35.534  15.140  -5.288  1.00 20.00     0.080 C 
HETATM    6  C7  UNL     1     -34.224  14.795  -6.009  1.00 20.00    -0.004 C 
HETATM    7  C8  UNL     1     -37.224  16.698  -3.356  1.00 20.00     0.043 C 
HETATM    8  C9  UNL     1     -35.213  16.886  -1.806  1.00 20.00     0.043 C 
HETATM    9  C10 UNL     1     -34.344  13.785  -7.141  1.00 20.00     0.011 C 
ENDROOT
BRANCH   5  10
HETATM   10  C2  UNL     1     -36.421  13.960  -5.019  1.00 20.00     0.240 C 
HETATM   11  O11 UNL     1     -37.584  13.887  -5.402  1.00 20.00    -0.306 OA
ENDBRANCH   5  10
TORSDOF 1
ENDMDL
MODEL 9
REMARK VINA RESULT:      -4.3      2.273      4.886
REMARK  1 active torsions:
REMARK  status: ('A' for Active; 'I' for Inactive)
REMARK    1  A    between atoms: C2_2  and  C6_6 
ROOT
HETATM    1  C1  UNL     1     -35.049  15.866  -3.460  1.00 20.00    -0.067 C 
HETATM    2  C3  UNL     1     -35.571  15.077  -4.407  1.00 20.00    -0.085 C 
HETATM    3  C4  UNL     1     -33.575  16.111  -3.286  1.00 20.00     0.036 C 
HETATM    4  C5  UNL     1     -33.514  17.208  -2.228  1.00 20.00     0.009 C 
HETATM    5  C6  UNL     1     -35.841  16.589  -2.400  1.00 20.00     0.080 C 
HETATM    6  C7  UNL     1     -34.761  16.964  -1.376  1.00 20.00    -0.004 C 
HETATM    7  C8  UNL     1     -37.051  14.865  -4.539  1.00 20.00     0.043 C 
HETATM    8  C9  UNL     1     -34.711  14.351  -5.400  1.00 20.00     0.043 C 
HETATM    9  C10 UNL     1     -35.102  18.129  -0.459  1.00 20.00     0.011 C 
ENDROOT
BRANCH   5  10
HETATM   10  C2  UNL     1     -36.504  17.764  -3.058  1.00 20.00     0.240 C 
HETATM   11  O11 UNL     1     -37.697  18.020  -2.941  1.00 20.00    -0.306 OA
ENDBRANCH   5  10
TORSDOF 1
ENDMDL
