MODEL 1
REMARK VINA RESULT:      -4.0      0.000      0.000
REMARK  4 active torsions:
REMARK  status: ('A' for Active; 'I' for Inactive)
REMARK    1  A    between atoms: C1_1  and  C7_7 
REMARK    2  A    between atoms: C6_6  and  O10_10 
REMARK    3  A    between atoms: C7_7  and  C8_8 
REMARK    4  A    between atoms: C7_7  and  O10_10 
ROOT
HETATM    1  C7  UNL     1     -33.205   6.509   4.054  1.00 20.00     0.193 C 
ENDROOT
BRANCH   1   2
HETATM    2  C1  UNL     1     -33.902   6.606   5.408  1.00 20.00     0.152 C 
HETATM    3  C2  UNL     1     -34.671   5.397   5.875  1.00 20.00     0.093 C 
HETATM    4  O9  UNL     1     -33.843   7.622   6.102  1.00 20.00    -0.296 OA
ENDBRANCH   1   2
BRANCH   1   5
HETATM    5  C8  UNL     1     -33.900   5.522   3.098  1.00 20.00     0.014 C 
HETATM    6  C4  UNL     1     -34.710   6.232   2.009  1.00 20.00     0.012 C 
HETATM    7  C5  UNL     1     -32.871   4.596   2.441  1.00 20.00     0.012 C 
ENDBRANCH   1   5
BRANCH   1   8
HETATM    8  O10 UNL     1     -33.158   7.803   3.469  1.00 20.00    -0.378 OA
BRANCH   8   9
HETATM    9  C6  UNL     1     -31.833   8.158   3.091  1.00 20.00     0.164 C 
HETATM   10  C3  UNL     1     -31.829   8.556   1.630  1.00 20.00     0.033 C 
ENDBRANCH   8   9
ENDBRANCH   1   8
TORSDOF 4
ENDMDL
MODEL 2
REMARK VINA RESULT:      -4.0      1.232      2.900
REMARK  4 active torsions:
REMARK  status: ('A' for Active; 'I' for Inactive)
REMARK    1  A    between atoms: C1_1  and  C7_7 
REMARK    2  A    between atoms: C6_6  and  O10_10 
REMARK    3  A    between atoms: C7_7  and  C8_8 
REMARK    4  A    between atoms: C7_7  and  O10_10 
ROOT
HETATM    1  C7  UNL     1     -33.432   6.978   3.638  1.00 20.00     0.193 C 
ENDROOT
BRANCH   1   2
HETATM    2  C1  UNL     1     -33.791   5.892   2.628  1.00 20.00     0.152 C 
HETATM    3  C2  UNL     1     -32.916   4.665   2.595  1.00 20.00     0.093 C 
HETATM    4  O9  UNL     1     -34.754   6.000   1.867  1.00 20.00    -0.296 OA
ENDBRANCH   1   2
BRANCH   1   5
HETATM    5  C8  UNL     1     -33.550   6.495   5.095  1.00 20.00     0.014 C 
HETATM    6  C4  UNL     1     -33.602   7.654   6.095  1.00 20.00     0.012 C 
HETATM    7  C5  UNL     1     -34.794   5.617   5.271  1.00 20.00     0.012 C 
ENDBRANCH   1   5
BRANCH   1   8
HETATM    8  O10 UNL     1     -32.111   7.429   3.378  1.00 20.00    -0.378 OA
BRANCH   8   9
HETATM    9  C6  UNL     1     -32.107   8.707   2.754  1.00 20.00     0.164 C 
HETATM   10  C3  UNL     1     -31.712   8.546   1.302  1.00 20.00     0.033 C 
ENDBRANCH   8   9
ENDBRANCH   1   8
TORSDOF 4
ENDMDL
MODEL 3
REMARK VINA RESULT:      -3.8      1.128      3.591
REMARK  4 active torsions:
REMARK  status: ('A' for Active; 'I' for Inactive)
REMARK    1  A    between atoms: C1_1  and  C7_7 
REMARK    2  A    between atoms: C6_6  and  O10_10 
REMARK    3  A    between atoms: C7_7  and  C8_8 
REMARK    4  A    between atoms: C7_7  and  O10_10 
ROOT
HETATM    1  C7  UNL     1     -33.236   7.482   3.423  1.00 20.00     0.193 C 
ENDROOT
BRANCH   1   2
HETATM    2  C1  UNL     1     -32.076   8.212   2.753  1.00 20.00     0.152 C 
HETATM    3  C2  UNL     1     -32.324   8.792   1.384  1.00 20.00     0.093 C 
HETATM    4  O9  UNL     1     -30.977   8.333   3.298  1.00 20.00    -0.296 OA
ENDBRANCH   1   2
BRANCH   1   5
HETATM    5  C8  UNL     1     -33.766   6.309   2.578  1.00 20.00     0.014 C 
HETATM    6  C4  UNL     1     -32.981   5.015   2.814  1.00 20.00     0.012 C 
HETATM    7  C5  UNL     1     -35.250   6.063   2.871  1.00 20.00     0.012 C 
ENDBRANCH   1   5
BRANCH   1   8
HETATM    8  O10 UNL     1     -32.810   7.014   4.694  1.00 20.00    -0.378 OA
BRANCH   8   9
HETATM    9  C6  UNL     1     -33.748   7.340   5.713  1.00 20.00     0.164 C 
HETATM   10  C3  UNL     1     -34.486   6.084   6.124  1.00 20.00     0.033 C 
ENDBRANCH   8   9
ENDBRANCH   1   8
TORSDOF 4
ENDMDL
MODEL 4
REMARK VINA RESULT:      -3.8     11.288     12.527
REMARK  4 active torsions:
REMARK  status: ('A' for Active; 'I' for Inactive)
REMARK    1  A    between atoms: C1_1  and  C7_7 
REMARK    2  A    between atoms: C6_6  and  O10_10 
REMARK    3  A    between atoms: C7_7  and  C8_8 
REMARK    4  A    between atoms: C7_7  and  O10_10 
ROOT
HETATM    1  C7  UNL     1     -34.886  14.770  -5.291  1.00 20.00     0.193 C 
ENDROOT
BRANCH   1   2
HETATM    2  C1  UNL     1     -36.079  13.819  -5.259  1.00 20.00     0.152 C 
HETATM    3  C2  UNL     1     -37.453  14.438  -5.227  1.00 20.00     0.093 C 
HETATM    4  O9  UNL     1     -35.940  12.595  -5.261  1.00 20.00    -0.296 OA
ENDBRANCH   1   2
BRANCH   1   5
HETATM    5  C8  UNL     1     -34.061  14.730  -3.992  1.00 20.00     0.014 C 
HETATM    6  C4  UNL     1     -32.608  14.308  -4.233  1.00 20.00     0.012 C 
HETATM    7  C5  UNL     1     -34.083  16.097  -3.300  1.00 20.00     0.012 C 
ENDBRANCH   1   5
BRANCH   1   8
HETATM    8  O10 UNL     1     -34.065  14.437  -6.402  1.00 20.00    -0.378 OA
BRANCH   8   9
HETATM    9  C6  UNL     1     -34.301  15.303  -7.505  1.00 20.00     0.164 C 
HETATM   10  C3  UNL     1     -33.915  16.714  -7.114  1.00 20.00     0.033 C 
ENDBRANCH   8   9
ENDBRANCH   1   8
TORSDOF 4
ENDMDL
MODEL 5
REMARK VINA RESULT:      -3.8     11.427     12.601
REMARK  4 active torsions:
REMARK  status: ('A' for Active; 'I' for Inactive)
REMARK    1  A    between atoms: C1_1  and  C7_7 
REMARK    2  A    between atoms: C6_6  and  O10_10 
REMARK    3  A    between atoms: C7_7  and  C8_8 
REMARK    4  A    between atoms: C7_7  and  O10_10 
ROOT
HETATM    1  C7  UNL     1     -35.461  14.343  -5.537  1.00 20.00     0.193 C 
ENDROOT
BRANCH   1   2
HETATM    2  C1  UNL     1     -36.971  14.546  -5.455  1.00 20.00     0.152 C 
HETATM    3  C2  UNL     1     -37.554  15.706  -6.220  1.00 20.00     0.093 C 
HETATM    4  O9  UNL     1     -37.696  13.798  -4.797  1.00 20.00    -0.296 OA
ENDBRANCH   1   2
BRANCH   1   5
HETATM    5  C8  UNL     1     -34.772  14.461  -4.166  1.00 20.00     0.014 C 
HETATM    6  C4  UNL     1     -33.247  14.343  -4.264  1.00 20.00     0.012 C 
HETATM    7  C5  UNL     1     -35.135  15.790  -3.495  1.00 20.00     0.012 C 
ENDBRANCH   1   5
BRANCH   1   8
HETATM    8  O10 UNL     1     -35.200  13.068  -6.107  1.00 20.00    -0.378 OA
BRANCH   8   9
HETATM    9  C6  UNL     1     -35.124  13.135  -7.526  1.00 20.00     0.164 C 
HETATM   10  C3  UNL     1     -34.113  14.192  -7.915  1.00 20.00     0.033 C 
ENDBRANCH   8   9
ENDBRANCH   1   8
TORSDOF 4
ENDMDL
MODEL 6
REMARK VINA RESULT:      -3.8     11.183     11.976
REMARK  4 active torsions:
REMARK  status: ('A' for Active; 'I' for Inactive)
REMARK    1  A    between atoms: C1_1  and  C7_7 
REMARK    2  A    between atoms: C6_6  and  O10_10 
REMARK    3  A    between atoms: C7_7  and  C8_8 
REMARK    4  A    between atoms: C7_7  and  O10_10 
ROOT
HETATM    1  C7  UNL     1     -34.871  14.588  -4.225  1.00 20.00     0.193 C 
ENDROOT
BRANCH   1   2
HETATM    2  C1  UNL     1     -36.023  13.847  -4.896  1.00 20.00     0.152 C 
HETATM    3  C2  UNL     1     -37.315  14.601  -5.080  1.00 20.00     0.093 C 
HETATM    4  O9  UNL     1     -35.916  12.680  -5.279  1.00 20.00    -0.296 OA
ENDBRANCH   1   2
BRANCH   1   5
HETATM    5  C8  UNL     1     -33.574  14.540  -5.053  1.00 20.00     0.014 C 
HETATM    6  C4  UNL     1     -33.260  15.878  -5.731  1.00 20.00     0.012 C 
HETATM    7  C5  UNL     1     -32.389  14.130  -4.171  1.00 20.00     0.012 C 
ENDBRANCH   1   5
BRANCH   1   8
HETATM    8  O10 UNL     1     -35.259  15.937  -4.005  1.00 20.00    -0.378 OA
BRANCH   8   9
HETATM    9  C6  UNL     1     -35.306  16.247  -2.617  1.00 20.00     0.164 C 
HETATM   10  C3  UNL     1     -34.004  16.905  -2.216  1.00 20.00     0.033 C 
ENDBRANCH   8   9
ENDBRANCH   1   8
TORSDOF 4
ENDMDL
MODEL 7
REMARK VINA RESULT:      -3.8      1.246      1.423
REMARK  4 active torsions:
REMARK  status: ('A' for Active; 'I' for Inactive)
REMARK    1  A    between atoms: C1_1  and  C7_7 
REMARK    2  A    between atoms: C6_6  and  O10_10 
REMARK    3  A    between atoms: C7_7  and  C8_8 
REMARK    4  A    between atoms: C7_7  and  O10_10 
ROOT
HETATM    1  C7  UNL     1     -32.709   7.151   3.482  1.00 20.00     0.193 C 
ENDROOT
BRANCH   1   2
HETATM    2  C1  UNL     1     -32.727   7.788   4.869  1.00 20.00     0.152 C 
HETATM    3  C2  UNL     1     -33.711   7.238   5.868  1.00 20.00     0.093 C 
HETATM    4  O9  UNL     1     -31.971   8.712   5.173  1.00 20.00    -0.296 OA
ENDBRANCH   1   2
BRANCH   1   5
HETATM    5  C8  UNL     1     -33.643   5.932   3.378  1.00 20.00     0.014 C 
HETATM    6  C4  UNL     1     -35.005   6.285   2.770  1.00 20.00     0.012 C 
HETATM    7  C5  UNL     1     -32.990   4.823   2.545  1.00 20.00     0.012 C 
ENDBRANCH   1   5
BRANCH   1   8
HETATM    8  O10 UNL     1     -33.078   8.131   2.522  1.00 20.00    -0.378 OA
BRANCH   8   9
HETATM    9  C6  UNL     1     -31.975   8.502   1.704  1.00 20.00     0.164 C 
HETATM   10  C3  UNL     1     -32.425   9.562   0.722  1.00 20.00     0.033 C 
ENDBRANCH   8   9
ENDBRANCH   1   8
TORSDOF 4
ENDMDL
MODEL 8
REMARK VINA RESULT:      -3.8      1.564      3.013
REMARK  4 active torsions:
REMARK  status: ('A' for Active; 'I' for Inactive)
REMARK    1  A    between atoms: C1_1  and  C7_7 
REMARK    2  A    between atoms: C6_6  and  O10_10 
REMARK    3  A    between atoms: C7_7  and  C8_8 
REMARK    4  A    between atoms: C7_7  and  O10_10 
ROOT
HETATM    1  C7  UNL     1     -34.068   6.200   3.777  1.00 20.00     0.193 C 
ENDROOT
BRANCH   1   2
HETATM    2  C1  UNL     1     -33.841   4.724   3.468  1.00 20.00     0.152 C 
HETATM    3  C2  UNL     1     -32.797   4.388   2.434  1.00 20.00     0.093 C 
HETATM    4  O9  UNL     1     -34.476   3.832   4.034  1.00 20.00    -0.296 OA
ENDBRANCH   1   2
BRANCH   1   5
HETATM    5  C8  UNL     1     -34.493   6.441   5.237  1.00 20.00     0.014 C 
HETATM    6  C4  UNL     1     -34.558   5.144   6.051  1.00 20.00     0.012 C 
HETATM    7  C5  UNL     1     -33.532   7.420   5.922  1.00 20.00     0.012 C 
ENDBRANCH   1   5
BRANCH   1   8
HETATM    8  O10 UNL     1     -32.876   6.918   3.491  1.00 20.00    -0.378 OA
BRANCH   8   9
HETATM    9  C6  UNL     1     -33.048   7.796   2.385  1.00 20.00     0.164 C 
HETATM   10  C3  UNL     1     -31.791   8.622   2.213  1.00 20.00     0.033 C 
ENDBRANCH   8   9
ENDBRANCH   1   8
TORSDOF 4
ENDMDL
MODEL 9
REMARK VINA RESULT:      -3.6      1.112      3.548
REMARK  4 active torsions:
REMARK  status: ('A' for Active; 'I' for Inactive)
REMARK    1  A    between atoms: C1_1  and  C7_7 
REMARK    2  A    between atoms: C6_6  and  O10_10 
REMARK    3  A    between atoms: C7_7  and  C8_8 
REMARK    4  A    between atoms: C7_7  and  O10_10 
ROOT
HETATM    1  C7  UNL     1     -32.911   6.771   3.614  1.00 20.00     0.193 C 
ENDROOT
BRANCH   1   2
HETATM    2  C1  UNL     1     -33.662   5.757   2.757  1.00 20.00     0.152 C 
HETATM    3  C2  UNL     1     -32.942   4.479   2.411  1.00 20.00     0.093 C 
HETATM    4  O9  UNL     1     -34.810   5.959   2.359  1.00 20.00    -0.296 OA
ENDBRANCH   1   2
BRANCH   1   5
HETATM    5  C8  UNL     1     -32.009   7.700   2.781  1.00 20.00     0.014 C 
HETATM    6  C4  UNL     1     -32.811   8.613   1.848  1.00 20.00     0.012 C 
HETATM    7  C5  UNL     1     -31.129   8.558   3.697  1.00 20.00     0.012 C 
ENDBRANCH   1   5
BRANCH   1   8
HETATM    8  O10 UNL     1     -33.855   7.538   4.349  1.00 20.00    -0.378 OA
BRANCH   8   9
HETATM    9  C6  UNL     1     -33.840   7.200   5.731  1.00 20.00     0.164 C 
HETATM   10  C3  UNL     1     -34.518   5.860   5.917  1.00 20.00     0.033 C 
ENDBRANCH   8   9
ENDBRANCH   1   8
TORSDOF 4
ENDMDL
