MODEL 1
REMARK VINA RESULT:      -6.1      0.000      0.000
REMARK  3 active torsions:
REMARK  status: ('A' for Active; 'I' for Inactive)
REMARK    1  A    between atoms: C1_1  and  C2_2 
REMARK    2  A    between atoms: C4_4  and  C9_9 
REMARK    3  A    between atoms: C5_5  and  C9_9 
ROOT
HETATM    1  C2  UNL     1     -32.564   7.672   3.387  1.00 20.00    -0.004 C 
HETATM    2  C4  UNL     1     -33.814   7.194   3.286  1.00 20.00    -0.015 C 
ENDROOT
BRANCH   2   3
HETATM    3  C9  UNL     1     -34.452   6.309   4.322  1.00 20.00     0.073 C 
HETATM    4  C8  UNL     1     -33.971   6.661   5.725  1.00 20.00     0.022 C 
BRANCH   3   5
HETATM    5  C5  UNL     1     -34.119   4.850   4.012  1.00 20.00     0.130 C 
HETATM    6  C7  UNL     1     -33.280   4.599   2.784  1.00 20.00     0.091 C 
HETATM    7  O10 UNL     1     -34.535   3.912   4.692  1.00 20.00    -0.298 OA
ENDBRANCH   3   5
ENDBRANCH   2   3
BRANCH   1   8
HETATM    8  C1  UNL     1     -31.960   8.522   2.386  1.00 20.00    -0.005 C 
HETATM    9  C3  UNL     1     -32.673   9.236   1.503  1.00 20.00    -0.031 C 
HETATM   10  C6  UNL     1     -32.062  10.118   0.464  1.00 20.00     0.036 C 
ENDBRANCH   1   8
TORSDOF 3
ENDMDL
MODEL 2
REMARK VINA RESULT:      -5.8      1.145      1.950
REMARK  3 active torsions:
REMARK  status: ('A' for Active; 'I' for Inactive)
REMARK    1  A    between atoms: C1_1  and  C2_2 
REMARK    2  A    between atoms: C4_4  and  C9_9 
REMARK    3  A    between atoms: C5_5  and  C9_9 
ROOT
HETATM    1  C2  UNL     1     -32.130   7.675   3.045  1.00 20.00    -0.004 C 
HETATM    2  C4  UNL     1     -33.079   6.772   2.750  1.00 20.00    -0.015 C 
ENDROOT
BRANCH   2   3
HETATM    3  C9  UNL     1     -33.282   5.497   3.523  1.00 20.00     0.073 C 
HETATM    4  C8  UNL     1     -33.237   4.279   2.608  1.00 20.00     0.022 C 
BRANCH   3   5
HETATM    5  C5  UNL     1     -34.629   5.555   4.243  1.00 20.00     0.130 C 
HETATM    6  C7  UNL     1     -34.644   5.097   5.680  1.00 20.00     0.091 C 
HETATM    7  O10 UNL     1     -35.667   5.915   3.687  1.00 20.00    -0.298 OA
ENDBRANCH   3   5
ENDBRANCH   2   3
BRANCH   1   8
HETATM    8  C1  UNL     1     -31.942   8.897   2.297  1.00 20.00    -0.005 C 
HETATM    9  C3  UNL     1     -32.583   9.160   1.149  1.00 20.00    -0.031 C 
HETATM   10  C6  UNL     1     -32.398  10.418   0.366  1.00 20.00     0.036 C 
ENDBRANCH   1   8
TORSDOF 3
ENDMDL
MODEL 3
REMARK VINA RESULT:      -5.6      1.086      1.925
REMARK  3 active torsions:
REMARK  status: ('A' for Active; 'I' for Inactive)
REMARK    1  A    between atoms: C1_1  and  C2_2 
REMARK    2  A    between atoms: C4_4  and  C9_9 
REMARK    3  A    between atoms: C5_5  and  C9_9 
ROOT
HETATM    1  C2  UNL     1     -32.554   7.259   2.571  1.00 20.00    -0.004 C 
HETATM    2  C4  UNL     1     -33.586   7.256   3.429  1.00 20.00    -0.015 C 
ENDROOT
BRANCH   2   3
HETATM    3  C9  UNL     1     -34.179   6.002   4.013  1.00 20.00     0.073 C 
HETATM    4  C8  UNL     1     -35.607   5.784   3.528  1.00 20.00     0.022 C 
BRANCH   3   5
HETATM    5  C5  UNL     1     -34.159   6.099   5.538  1.00 20.00     0.130 C 
HETATM    6  C7  UNL     1     -33.659   7.396   6.122  1.00 20.00     0.091 C 
HETATM    7  O10 UNL     1     -34.493   5.167   6.270  1.00 20.00    -0.298 OA
ENDBRANCH   3   5
ENDBRANCH   2   3
BRANCH   1   8
HETATM    8  C1  UNL     1     -31.991   8.468   2.015  1.00 20.00    -0.005 C 
HETATM    9  C3  UNL     1     -32.719   9.377   1.350  1.00 20.00    -0.031 C 
HETATM   10  C6  UNL     1     -32.151  10.631   0.771  1.00 20.00     0.036 C 
ENDBRANCH   1   8
TORSDOF 3
ENDMDL
MODEL 4
REMARK VINA RESULT:      -5.1      2.608      5.122
REMARK  3 active torsions:
REMARK  status: ('A' for Active; 'I' for Inactive)
REMARK    1  A    between atoms: C1_1  and  C2_2 
REMARK    2  A    between atoms: C4_4  and  C9_9 
REMARK    3  A    between atoms: C5_5  and  C9_9 
ROOT
HETATM    1  C2  UNL     1     -32.662   7.149   2.555  1.00 20.00    -0.004 C 
HETATM    2  C4  UNL     1     -32.977   8.454   2.567  1.00 20.00    -0.015 C 
ENDROOT
BRANCH   2   3
HETATM    3  C9  UNL     1     -32.197   9.504   1.822  1.00 20.00     0.073 C 
HETATM    4  C8  UNL     1     -32.947  10.830   1.785  1.00 20.00     0.022 C 
BRANCH   3   5
HETATM    5  C5  UNL     1     -31.933   9.018   0.398  1.00 20.00     0.130 C 
HETATM    6  C7  UNL     1     -33.052   9.207  -0.595  1.00 20.00     0.091 C 
HETATM    7  O10 UNL     1     -30.884   8.465   0.066  1.00 20.00    -0.298 OA
ENDBRANCH   3   5
ENDBRANCH   2   3
BRANCH   1   8
HETATM    8  C1  UNL     1     -33.417   6.147   3.273  1.00 20.00    -0.005 C 
HETATM    9  C3  UNL     1     -34.025   6.388   4.444  1.00 20.00    -0.031 C 
HETATM   10  C6  UNL     1     -34.808   5.362   5.196  1.00 20.00     0.036 C 
ENDBRANCH   1   8
TORSDOF 3
ENDMDL
MODEL 5
REMARK VINA RESULT:      -4.9     11.051     11.607
REMARK  3 active torsions:
REMARK  status: ('A' for Active; 'I' for Inactive)
REMARK    1  A    between atoms: C1_1  and  C2_2 
REMARK    2  A    between atoms: C4_4  and  C9_9 
REMARK    3  A    between atoms: C5_5  and  C9_9 
ROOT
HETATM    1  C2  UNL     1     -33.849  16.291  -3.089  1.00 20.00    -0.004 C 
HETATM    2  C4  UNL     1     -34.706  15.338  -3.489  1.00 20.00    -0.015 C 
ENDROOT
BRANCH   2   3
HETATM    3  C9  UNL     1     -34.529  14.538  -4.751  1.00 20.00     0.073 C 
HETATM    4  C8  UNL     1     -34.159  15.432  -5.928  1.00 20.00     0.022 C 
BRANCH   3   5
HETATM    5  C5  UNL     1     -35.825  13.788  -5.058  1.00 20.00     0.130 C 
HETATM    6  C7  UNL     1     -37.106  14.568  -4.897  1.00 20.00     0.091 C 
HETATM    7  O10 UNL     1     -35.848  12.601  -5.382  1.00 20.00    -0.298 OA
ENDBRANCH   3   5
ENDBRANCH   2   3
BRANCH   1   8
HETATM    8  C1  UNL     1     -34.027  17.054  -1.875  1.00 20.00    -0.005 C 
HETATM    9  C3  UNL     1     -35.123  16.967  -1.108  1.00 20.00    -0.031 C 
HETATM   10  C6  UNL     1     -35.320  17.749   0.149  1.00 20.00     0.036 C 
ENDBRANCH   1   8
TORSDOF 3
ENDMDL
MODEL 6
REMARK VINA RESULT:      -4.8      2.759      5.452
REMARK  3 active torsions:
REMARK  status: ('A' for Active; 'I' for Inactive)
REMARK    1  A    between atoms: C1_1  and  C2_2 
REMARK    2  A    between atoms: C4_4  and  C9_9 
REMARK    3  A    between atoms: C5_5  and  C9_9 
ROOT
HETATM    1  C2  UNL     1     -33.330   6.944   2.595  1.00 20.00    -0.004 C 
HETATM    2  C4  UNL     1     -32.561   7.990   2.257  1.00 20.00    -0.015 C 
ENDROOT
BRANCH   2   3
HETATM    3  C9  UNL     1     -32.209   8.339   0.836  1.00 20.00     0.073 C 
HETATM    4  C8  UNL     1     -30.713   8.583   0.678  1.00 20.00     0.022 C 
BRANCH   3   5
HETATM    5  C5  UNL     1     -32.984   9.588   0.418  1.00 20.00     0.130 C 
HETATM    6  C7  UNL     1     -32.927  10.762   1.363  1.00 20.00     0.091 C 
HETATM    7  O10 UNL     1     -33.658   9.641  -0.611  1.00 20.00    -0.298 OA
ENDBRANCH   3   5
ENDBRANCH   2   3
BRANCH   1   8
HETATM    8  C1  UNL     1     -33.663   6.616   3.963  1.00 20.00    -0.005 C 
HETATM    9  C3  UNL     1     -34.346   5.515   4.307  1.00 20.00    -0.031 C 
HETATM   10  C6  UNL     1     -34.696   5.164   5.716  1.00 20.00     0.036 C 
ENDBRANCH   1   8
TORSDOF 3
ENDMDL
MODEL 7
REMARK VINA RESULT:      -4.6     10.763     11.462
REMARK  3 active torsions:
REMARK  status: ('A' for Active; 'I' for Inactive)
REMARK    1  A    between atoms: C1_1  and  C2_2 
REMARK    2  A    between atoms: C4_4  and  C9_9 
REMARK    3  A    between atoms: C5_5  and  C9_9 
ROOT
HETATM    1  C2  UNL     1     -34.998  16.734  -1.908  1.00 20.00    -0.004 C 
HETATM    2  C4  UNL     1     -34.402  16.415  -3.068  1.00 20.00    -0.015 C 
ENDROOT
BRANCH   2   3
HETATM    3  C9  UNL     1     -35.097  15.686  -4.187  1.00 20.00     0.073 C 
HETATM    4  C8  UNL     1     -36.589  15.540  -3.912  1.00 20.00     0.022 C 
BRANCH   3   5
HETATM    5  C5  UNL     1     -34.464  14.306  -4.358  1.00 20.00     0.130 C 
HETATM    6  C7  UNL     1     -32.960  14.240  -4.265  1.00 20.00     0.091 C 
HETATM    7  O10 UNL     1     -35.124  13.295  -4.597  1.00 20.00    -0.298 OA
ENDBRANCH   3   5
ENDBRANCH   2   3
BRANCH   1   8
HETATM    8  C1  UNL     1     -34.323  17.434  -0.839  1.00 20.00    -0.005 C 
HETATM    9  C3  UNL     1     -33.153  18.068  -1.002  1.00 20.00    -0.031 C 
HETATM   10  C6  UNL     1     -32.445  18.796   0.093  1.00 20.00     0.036 C 
ENDBRANCH   1   8
TORSDOF 3
ENDMDL
MODEL 8
REMARK VINA RESULT:      -4.4     11.292     11.737
REMARK  3 active torsions:
REMARK  status: ('A' for Active; 'I' for Inactive)
REMARK    1  A    between atoms: C1_1  and  C2_2 
REMARK    2  A    between atoms: C4_4  and  C9_9 
REMARK    3  A    between atoms: C5_5  and  C9_9 
ROOT
HETATM    1  C2  UNL     1     -35.587  16.180  -3.057  1.00 20.00    -0.004 C 
HETATM    2  C4  UNL     1     -35.165  15.537  -4.158  1.00 20.00    -0.015 C 
ENDROOT
BRANCH   2   3
HETATM    3  C9  UNL     1     -36.092  15.014  -5.221  1.00 20.00     0.073 C 
HETATM    4  C8  UNL     1     -37.508  14.837  -4.686  1.00 20.00     0.022 C 
BRANCH   3   5
HETATM    5  C5  UNL     1     -35.563  13.676  -5.736  1.00 20.00     0.130 C 
HETATM    6  C7  UNL     1     -34.675  13.729  -6.955  1.00 20.00     0.091 C 
HETATM    7  O10 UNL     1     -35.864  12.598  -5.224  1.00 20.00    -0.298 OA
ENDBRANCH   3   5
ENDBRANCH   2   3
BRANCH   1   8
HETATM    8  C1  UNL     1     -34.689  16.679  -2.041  1.00 20.00    -0.005 C 
HETATM    9  C3  UNL     1     -35.093  17.449  -1.020  1.00 20.00    -0.031 C 
HETATM   10  C6  UNL     1     -34.177  17.972   0.037  1.00 20.00     0.036 C 
ENDBRANCH   1   8
TORSDOF 3
ENDMDL
MODEL 9
REMARK VINA RESULT:      -4.3     11.391     12.243
REMARK  3 active torsions:
REMARK  status: ('A' for Active; 'I' for Inactive)
REMARK    1  A    between atoms: C1_1  and  C2_2 
REMARK    2  A    between atoms: C4_4  and  C9_9 
REMARK    3  A    between atoms: C5_5  and  C9_9 
ROOT
HETATM    1  C2  UNL     1     -33.926  15.593  -3.947  1.00 20.00    -0.004 C 
HETATM    2  C4  UNL     1     -34.706  15.113  -4.928  1.00 20.00    -0.015 C 
ENDROOT
BRANCH   2   3
HETATM    3  C9  UNL     1     -34.169  14.475  -6.181  1.00 20.00     0.073 C 
HETATM    4  C8  UNL     1     -33.807  15.524  -7.226  1.00 20.00     0.022 C 
BRANCH   3   5
HETATM    5  C5  UNL     1     -35.216  13.518  -6.748  1.00 20.00     0.130 C 
HETATM    6  C7  UNL     1     -36.410  14.149  -7.420  1.00 20.00     0.091 C 
HETATM    7  O10 UNL     1     -35.130  12.295  -6.639  1.00 20.00    -0.298 OA
ENDBRANCH   3   5
ENDBRANCH   2   3
BRANCH   1   8
HETATM    8  C1  UNL     1     -34.451  16.204  -2.747  1.00 20.00    -0.005 C 
HETATM    9  C3  UNL     1     -33.745  17.055  -1.989  1.00 20.00    -0.031 C 
HETATM   10  C6  UNL     1     -34.275  17.694  -0.747  1.00 20.00     0.036 C 
ENDBRANCH   1   8
TORSDOF 3
ENDMDL
