MODEL 1
REMARK VINA RESULT:      -5.5      0.000      0.000
REMARK  4 active torsions:
REMARK  status: ('A' for Active; 'I' for Inactive)
REMARK    1  A    between atoms: C1_1  and  C3_3 
REMARK    2  A    between atoms: C1_1  and  O10_10 
REMARK    3  A    between atoms: C4_4  and  C7_7 
REMARK    4  A    between atoms: C7_7  and  C8_8 
ROOT
HETATM    1  C2  UNL     1     -33.239   6.649   2.567  1.00 20.00     0.020 A 
HETATM    2  C3  UNL     1     -33.700   7.495   3.725  1.00 20.00     0.090 A 
HETATM    3  C4  UNL     1     -32.245   7.511   3.299  1.00 20.00    -0.000 A 
ENDROOT
BRANCH   2   4
HETATM    4  C1  UNL     1     -34.065   6.847   4.989  1.00 20.00     0.263 C 
HETATM    5  O9  UNL     1     -33.654   7.203   6.085  1.00 20.00    -0.265 OA
BRANCH   4   6
HETATM    6  O10 UNL     1     -34.915   5.810   4.741  1.00 20.00    -0.326 OA
HETATM    7  C6  UNL     1     -34.550   4.560   5.333  1.00 20.00     0.213 C 
ENDBRANCH   4   6
ENDBRANCH   2   4
BRANCH   3   8
HETATM    8  C7  UNL     1     -31.671   8.718   2.640  1.00 20.00     0.005 C 
BRANCH   8   9
HETATM    9  C8  UNL     1     -31.886   8.717   1.117  1.00 20.00    -0.004 C 
HETATM   10  C5  UNL     1     -32.654   9.938   0.635  1.00 20.00     0.005 C 
ENDBRANCH   8   9
ENDBRANCH   3   8
TORSDOF 4
ENDMDL
MODEL 2
REMARK VINA RESULT:      -5.4      2.089      4.483
REMARK  4 active torsions:
REMARK  status: ('A' for Active; 'I' for Inactive)
REMARK    1  A    between atoms: C1_1  and  C3_3 
REMARK    2  A    between atoms: C1_1  and  O10_10 
REMARK    3  A    between atoms: C4_4  and  C7_7 
REMARK    4  A    between atoms: C7_7  and  C8_8 
ROOT
HETATM    1  C2  UNL     1     -34.014   6.137   2.025  1.00 20.00     0.020 A 
HETATM    2  C3  UNL     1     -32.822   6.501   2.869  1.00 20.00     0.090 A 
HETATM    3  C4  UNL     1     -34.202   6.422   3.491  1.00 20.00    -0.000 A 
ENDROOT
BRANCH   2   4
HETATM    4  C1  UNL     1     -32.193   7.815   2.697  1.00 20.00     0.263 C 
HETATM    5  O9  UNL     1     -31.489   8.354   3.541  1.00 20.00    -0.265 OA
BRANCH   4   6
HETATM    6  O10 UNL     1     -32.516   8.318   1.472  1.00 20.00    -0.326 OA
HETATM    7  C6  UNL     1     -32.472   9.744   1.361  1.00 20.00     0.213 C 
ENDBRANCH   4   6
ENDBRANCH   2   4
BRANCH   3   8
HETATM    8  C7  UNL     1     -34.537   5.317   4.433  1.00 20.00     0.005 C 
BRANCH   8   9
HETATM    9  C8  UNL     1     -34.504   5.766   5.904  1.00 20.00    -0.004 C 
HETATM   10  C5  UNL     1     -33.904   7.152   6.078  1.00 20.00     0.005 C 
ENDBRANCH   8   9
ENDBRANCH   3   8
TORSDOF 4
ENDMDL
MODEL 3
REMARK VINA RESULT:      -5.4      1.066      1.841
REMARK  4 active torsions:
REMARK  status: ('A' for Active; 'I' for Inactive)
REMARK    1  A    between atoms: C1_1  and  C3_3 
REMARK    2  A    between atoms: C1_1  and  O10_10 
REMARK    3  A    between atoms: C4_4  and  C7_7 
REMARK    4  A    between atoms: C7_7  and  C8_8 
ROOT
HETATM    1  C2  UNL     1     -31.724   8.015   3.746  1.00 20.00     0.020 A 
HETATM    2  C3  UNL     1     -32.566   6.999   3.020  1.00 20.00     0.090 A 
HETATM    3  C4  UNL     1     -32.490   8.427   2.517  1.00 20.00    -0.000 A 
ENDROOT
BRANCH   2   4
HETATM    4  C1  UNL     1     -33.811   6.525   3.634  1.00 20.00     0.263 C 
HETATM    5  O9  UNL     1     -34.682   5.913   3.031  1.00 20.00    -0.265 OA
BRANCH   4   6
HETATM    6  O10 UNL     1     -33.830   6.873   4.952  1.00 20.00    -0.326 OA
HETATM    7  C6  UNL     1     -34.447   5.926   5.829  1.00 20.00     0.213 C 
ENDBRANCH   4   6
ENDBRANCH   2   4
BRANCH   3   8
HETATM    8  C7  UNL     1     -31.766   8.737   1.252  1.00 20.00     0.005 C 
BRANCH   8   9
HETATM    9  C8  UNL     1     -32.379   9.932   0.499  1.00 20.00    -0.004 C 
HETATM   10  C5  UNL     1     -33.284   9.498  -0.643  1.00 20.00     0.005 C 
ENDBRANCH   8   9
ENDBRANCH   3   8
TORSDOF 4
ENDMDL
MODEL 4
REMARK VINA RESULT:      -5.4      1.051      1.740
REMARK  4 active torsions:
REMARK  status: ('A' for Active; 'I' for Inactive)
REMARK    1  A    between atoms: C1_1  and  C3_3 
REMARK    2  A    between atoms: C1_1  and  O10_10 
REMARK    3  A    between atoms: C4_4  and  C7_7 
REMARK    4  A    between atoms: C7_7  and  C8_8 
ROOT
HETATM    1  C2  UNL     1     -33.974   6.145   2.269  1.00 20.00     0.020 A 
HETATM    2  C3  UNL     1     -34.205   6.403   3.735  1.00 20.00     0.090 A 
HETATM    3  C4  UNL     1     -32.831   6.613   3.130  1.00 20.00    -0.000 A 
ENDROOT
BRANCH   2   4
HETATM    4  C1  UNL     1     -34.418   5.269   4.640  1.00 20.00     0.263 C 
HETATM    5  O9  UNL     1     -34.521   4.107   4.270  1.00 20.00    -0.265 OA
BRANCH   4   6
HETATM    6  O10 UNL     1     -34.480   5.717   5.926  1.00 20.00    -0.326 OA
HETATM    7  C6  UNL     1     -33.985   7.042   6.140  1.00 20.00     0.213 C 
ENDBRANCH   4   6
ENDBRANCH   2   4
BRANCH   3   8
HETATM    8  C7  UNL     1     -32.287   7.991   2.969  1.00 20.00     0.005 C 
BRANCH   8   9
HETATM    9  C8  UNL     1     -31.931   8.318   1.508  1.00 20.00    -0.004 C 
HETATM   10  C5  UNL     1     -32.407   9.700   1.088  1.00 20.00     0.005 C 
ENDBRANCH   8   9
ENDBRANCH   3   8
TORSDOF 4
ENDMDL
MODEL 5
REMARK VINA RESULT:      -5.3      0.942      1.477
REMARK  4 active torsions:
REMARK  status: ('A' for Active; 'I' for Inactive)
REMARK    1  A    between atoms: C1_1  and  C3_3 
REMARK    2  A    between atoms: C1_1  and  O10_10 
REMARK    3  A    between atoms: C4_4  and  C7_7 
REMARK    4  A    between atoms: C7_7  and  C8_8 
ROOT
HETATM    1  C2  UNL     1     -31.458   8.133   3.728  1.00 20.00     0.020 A 
HETATM    2  C3  UNL     1     -32.492   7.169   3.212  1.00 20.00     0.090 A 
HETATM    3  C4  UNL     1     -32.392   8.565   2.630  1.00 20.00    -0.000 A 
ENDROOT
BRANCH   2   4
HETATM    4  C1  UNL     1     -33.644   6.830   4.055  1.00 20.00     0.263 C 
HETATM    5  O9  UNL     1     -33.924   7.407   5.097  1.00 20.00    -0.265 OA
BRANCH   4   6
HETATM    6  O10 UNL     1     -34.330   5.793   3.495  1.00 20.00    -0.326 OA
HETATM    7  C6  UNL     1     -34.548   4.667   4.349  1.00 20.00     0.213 C 
ENDBRANCH   4   6
ENDBRANCH   2   4
BRANCH   3   8
HETATM    8  C7  UNL     1     -31.880   8.763   1.245  1.00 20.00     0.005 C 
BRANCH   8   9
HETATM    9  C8  UNL     1     -32.543   9.956   0.535  1.00 20.00    -0.004 C 
HETATM   10  C5  UNL     1     -33.353   9.534  -0.681  1.00 20.00     0.005 C 
ENDBRANCH   8   9
ENDBRANCH   3   8
TORSDOF 4
ENDMDL
MODEL 6
REMARK VINA RESULT:      -5.1      2.880      5.042
REMARK  4 active torsions:
REMARK  status: ('A' for Active; 'I' for Inactive)
REMARK    1  A    between atoms: C1_1  and  C3_3 
REMARK    2  A    between atoms: C1_1  and  O10_10 
REMARK    3  A    between atoms: C4_4  and  C7_7 
REMARK    4  A    between atoms: C7_7  and  C8_8 
ROOT
HETATM    1  C2  UNL     1     -31.498   8.021   3.509  1.00 20.00     0.020 A 
HETATM    2  C3  UNL     1     -32.447   8.740   2.587  1.00 20.00     0.090 A 
HETATM    3  C4  UNL     1     -32.728   7.312   3.010  1.00 20.00    -0.000 A 
ENDROOT
BRANCH   2   4
HETATM    4  C1  UNL     1     -32.041   9.006   1.202  1.00 20.00     0.263 C 
HETATM    5  O9  UNL     1     -31.045   8.527   0.676  1.00 20.00    -0.265 OA
BRANCH   4   6
HETATM    6  O10 UNL     1     -32.937   9.851   0.619  1.00 20.00    -0.326 OA
HETATM    7  C6  UNL     1     -33.309   9.523  -0.723  1.00 20.00     0.213 C 
ENDBRANCH   4   6
ENDBRANCH   2   4
BRANCH   3   8
HETATM    8  C7  UNL     1     -33.852   7.016   3.942  1.00 20.00     0.005 C 
BRANCH   8   9
HETATM    9  C8  UNL     1     -34.303   5.546   3.875  1.00 20.00    -0.004 C 
HETATM   10  C5  UNL     1     -34.648   4.979   5.243  1.00 20.00     0.005 C 
ENDBRANCH   8   9
ENDBRANCH   3   8
TORSDOF 4
ENDMDL
MODEL 7
REMARK VINA RESULT:      -4.9      2.290      4.771
REMARK  4 active torsions:
REMARK  status: ('A' for Active; 'I' for Inactive)
REMARK    1  A    between atoms: C1_1  and  C3_3 
REMARK    2  A    between atoms: C1_1  and  O10_10 
REMARK    3  A    between atoms: C4_4  and  C7_7 
REMARK    4  A    between atoms: C7_7  and  C8_8 
ROOT
HETATM    1  C2  UNL     1     -33.366   6.410   2.648  1.00 20.00     0.020 A 
HETATM    2  C3  UNL     1     -32.408   7.508   3.026  1.00 20.00     0.090 A 
HETATM    3  C4  UNL     1     -33.702   7.326   3.794  1.00 20.00    -0.000 A 
ENDROOT
BRANCH   2   4
HETATM    4  C1  UNL     1     -32.261   8.670   2.144  1.00 20.00     0.263 C 
HETATM    5  O9  UNL     1     -31.841   9.760   2.509  1.00 20.00    -0.265 OA
BRANCH   4   6
HETATM    6  O10 UNL     1     -32.661   8.339   0.883  1.00 20.00    -0.326 OA
HETATM    7  C6  UNL     1     -32.857   9.440  -0.009  1.00 20.00     0.213 C 
ENDBRANCH   4   6
ENDBRANCH   2   4
BRANCH   3   8
HETATM    8  C7  UNL     1     -33.676   6.816   5.194  1.00 20.00     0.005 C 
BRANCH   8   9
HETATM    9  C8  UNL     1     -34.806   5.810   5.477  1.00 20.00    -0.004 C 
HETATM   10  C5  UNL     1     -34.422   4.385   5.111  1.00 20.00     0.005 C 
ENDBRANCH   8   9
ENDBRANCH   3   8
TORSDOF 4
ENDMDL
MODEL 8
REMARK VINA RESULT:      -4.7      1.894      4.429
REMARK  4 active torsions:
REMARK  status: ('A' for Active; 'I' for Inactive)
REMARK    1  A    between atoms: C1_1  and  C3_3 
REMARK    2  A    between atoms: C1_1  and  O10_10 
REMARK    3  A    between atoms: C4_4  and  C7_7 
REMARK    4  A    between atoms: C7_7  and  C8_8 
ROOT
HETATM    1  C2  UNL     1     -33.670   7.659   5.771  1.00 20.00     0.020 A 
HETATM    2  C3  UNL     1     -33.621   7.504   4.274  1.00 20.00     0.090 A 
HETATM    3  C4  UNL     1     -33.545   6.284   5.171  1.00 20.00    -0.000 A 
ENDROOT
BRANCH   2   4
HETATM    4  C1  UNL     1     -32.419   7.928   3.547  1.00 20.00     0.263 C 
HETATM    5  O9  UNL     1     -31.419   8.385   4.083  1.00 20.00    -0.265 OA
BRANCH   4   6
HETATM    6  O10 UNL     1     -32.602   7.729   2.210  1.00 20.00    -0.326 OA
HETATM    7  C6  UNL     1     -32.240   8.829   1.370  1.00 20.00     0.213 C 
ENDBRANCH   4   6
ENDBRANCH   2   4
BRANCH   3   8
HETATM    8  C7  UNL     1     -34.690   5.331   5.236  1.00 20.00     0.005 C 
BRANCH   8   9
HETATM    9  C8  UNL     1     -34.418   4.029   4.462  1.00 20.00    -0.004 C 
HETATM   10  C5  UNL     1     -33.593   4.259   3.206  1.00 20.00     0.005 C 
ENDBRANCH   8   9
ENDBRANCH   3   8
TORSDOF 4
ENDMDL
MODEL 9
REMARK VINA RESULT:      -4.4     10.924     11.526
REMARK  4 active torsions:
REMARK  status: ('A' for Active; 'I' for Inactive)
REMARK    1  A    between atoms: C1_1  and  C3_3 
REMARK    2  A    between atoms: C1_1  and  O10_10 
REMARK    3  A    between atoms: C4_4  and  C7_7 
REMARK    4  A    between atoms: C7_7  and  C8_8 
ROOT
HETATM    1  C2  UNL     1     -33.848  14.463  -4.244  1.00 20.00     0.020 A 
HETATM    2  C3  UNL     1     -35.139  14.772  -4.956  1.00 20.00     0.090 A 
HETATM    3  C4  UNL     1     -34.929  15.223  -3.524  1.00 20.00    -0.000 A 
ENDROOT
BRANCH   2   4
HETATM    4  C1  UNL     1     -36.087  13.686  -5.228  1.00 20.00     0.263 C 
HETATM    5  O9  UNL     1     -37.259  13.696  -4.877  1.00 20.00    -0.265 OA
BRANCH   4   6
HETATM    6  O10 UNL     1     -35.458  12.694  -5.920  1.00 20.00    -0.326 OA
HETATM    7  C6  UNL     1     -35.162  12.991  -7.288  1.00 20.00     0.213 C 
ENDBRANCH   4   6
ENDBRANCH   2   4
BRANCH   3   8
HETATM    8  C7  UNL     1     -34.750  16.670  -3.214  1.00 20.00     0.005 C 
BRANCH   8   9
HETATM    9  C8  UNL     1     -34.401  16.918  -1.736  1.00 20.00    -0.004 C 
HETATM   10  C5  UNL     1     -33.121  17.719  -1.566  1.00 20.00     0.005 C 
ENDBRANCH   8   9
ENDBRANCH   3   8
TORSDOF 4
ENDMDL
