MODEL 1
REMARK VINA RESULT:      -5.1      0.000      0.000
REMARK  1 active torsions:
REMARK  status: ('A' for Active; 'I' for Inactive)
REMARK    1  A    between atoms: C10_10  and  O13_13 
ROOT
HETATM    1  C1  UNL     1     -31.572  18.850   0.859  1.00 20.00     0.099 C 
HETATM    2  C2  UNL     1     -33.971  18.373   0.727  1.00 20.00     0.023 A 
HETATM    3  C3  UNL     1     -35.085  17.885   0.041  1.00 20.00     0.012 A 
HETATM    4  C4  UNL     1     -32.522  17.841  -1.153  1.00 20.00     0.030 A 
HETATM    5  C5  UNL     1     -32.699  18.351   0.134  1.00 20.00     0.045 A 
HETATM    6  C6  UNL     1     -34.899  17.374  -1.233  1.00 20.00    -0.023 A 
HETATM    7  C7  UNL     1     -33.630  17.349  -1.823  1.00 20.00    -0.048 A 
HETATM    8  C8  UNL     1     -33.697  16.791  -3.209  1.00 20.00     0.042 C 
HETATM    9  C9  UNL     1     -35.054  16.065  -3.176  1.00 20.00     0.041 C 
HETATM   10  C10 UNL     1     -35.932  16.825  -2.169  1.00 20.00     0.154 C 
HETATM   11  N12 UNL     1     -30.658  19.255   1.449  1.00 20.00    -0.191 NA
ENDROOT
BRANCH  10  12
HETATM   12  O13 UNL     1     -36.621  17.877  -2.826  1.00 20.00    -0.386 OA
HETATM   13  C11 UNL     1     -37.595  17.381  -3.739  1.00 20.00     0.202 C 
ENDBRANCH  10  12
TORSDOF 1
ENDMDL
MODEL 2
REMARK VINA RESULT:      -5.0      2.012      2.986
REMARK  1 active torsions:
REMARK  status: ('A' for Active; 'I' for Inactive)
REMARK    1  A    between atoms: C10_10  and  O13_13 
ROOT
HETATM    1  C1  UNL     1     -34.736  18.367   1.618  1.00 20.00     0.099 C 
HETATM    2  C2  UNL     1     -33.179  18.247  -0.269  1.00 20.00     0.023 A 
HETATM    3  C3  UNL     1     -32.878  17.890  -1.585  1.00 20.00     0.012 A 
HETATM    4  C4  UNL     1     -35.436  17.367  -0.499  1.00 20.00     0.030 A 
HETATM    5  C5  UNL     1     -34.449  17.987   0.269  1.00 20.00     0.045 A 
HETATM    6  C6  UNL     1     -33.865  17.282  -2.343  1.00 20.00    -0.023 A 
HETATM    7  C7  UNL     1     -35.133  17.027  -1.807  1.00 20.00    -0.048 A 
HETATM    8  C8  UNL     1     -36.003  16.329  -2.804  1.00 20.00     0.042 C 
HETATM    9  C9  UNL     1     -35.261  16.635  -4.117  1.00 20.00     0.041 C 
HETATM   10  C10 UNL     1     -33.774  16.788  -3.754  1.00 20.00     0.154 C 
HETATM   11  N12 UNL     1     -34.968  18.677   2.712  1.00 20.00    -0.191 NA
ENDROOT
BRANCH  10  12
HETATM   12  O13 UNL     1     -33.134  15.522  -3.801  1.00 20.00    -0.386 OA
HETATM   13  C11 UNL     1     -33.407  14.836  -5.018  1.00 20.00     0.202 C 
ENDBRANCH  10  12
TORSDOF 1
ENDMDL
MODEL 3
REMARK VINA RESULT:      -5.0      2.129      3.045
REMARK  1 active torsions:
REMARK  status: ('A' for Active; 'I' for Inactive)
REMARK    1  A    between atoms: C10_10  and  O13_13 
ROOT
HETATM    1  C1  UNL     1     -32.829  17.892  -1.437  1.00 20.00     0.099 C 
HETATM    2  C2  UNL     1     -35.182  17.472  -1.971  1.00 20.00     0.023 A 
HETATM    3  C3  UNL     1     -36.172  16.786  -2.677  1.00 20.00     0.012 A 
HETATM    4  C4  UNL     1     -33.437  16.200  -3.091  1.00 20.00     0.030 A 
HETATM    5  C5  UNL     1     -33.824  17.180  -2.177  1.00 20.00     0.045 A 
HETATM    6  C6  UNL     1     -35.779  15.809  -3.577  1.00 20.00    -0.023 A 
HETATM    7  C7  UNL     1     -34.425  15.516  -3.780  1.00 20.00    -0.048 A 
HETATM    8  C8  UNL     1     -34.258  14.459  -4.825  1.00 20.00     0.042 C 
HETATM    9  C9  UNL     1     -35.669  13.846  -4.860  1.00 20.00     0.041 C 
HETATM   10  C10 UNL     1     -36.644  14.967  -4.463  1.00 20.00     0.154 C 
HETATM   11  N12 UNL     1     -32.021  18.469  -0.835  1.00 20.00    -0.191 NA
ENDROOT
BRANCH  10  12
HETATM   12  O13 UNL     1     -37.038  15.694  -5.616  1.00 20.00    -0.386 OA
HETATM   13  C11 UNL     1     -37.297  14.834  -6.721  1.00 20.00     0.202 C 
ENDBRANCH  10  12
TORSDOF 1
ENDMDL
MODEL 4
REMARK VINA RESULT:      -4.9      3.022      4.740
REMARK  1 active torsions:
REMARK  status: ('A' for Active; 'I' for Inactive)
REMARK    1  A    between atoms: C10_10  and  O13_13 
ROOT
HETATM    1  C1  UNL     1     -34.256  14.826  -4.485  1.00 20.00     0.099 C 
HETATM    2  C2  UNL     1     -35.736  16.032  -2.949  1.00 20.00     0.023 A 
HETATM    3  C3  UNL     1     -35.941  16.945  -1.913  1.00 20.00     0.012 A 
HETATM    4  C4  UNL     1     -33.333  16.398  -2.858  1.00 20.00     0.030 A 
HETATM    5  C5  UNL     1     -34.441  15.761  -3.418  1.00 20.00     0.045 A 
HETATM    6  C6  UNL     1     -34.836  17.578  -1.368  1.00 20.00    -0.023 A 
HETATM    7  C7  UNL     1     -33.545  17.310  -1.838  1.00 20.00    -0.048 A 
HETATM    8  C8  UNL     1     -32.524  18.084  -1.065  1.00 20.00     0.042 C 
HETATM    9  C9  UNL     1     -33.399  19.175  -0.422  1.00 20.00     0.041 C 
HETATM   10  C10 UNL     1     -34.799  18.566  -0.242  1.00 20.00     0.154 C 
HETATM   11  N12 UNL     1     -34.108  14.068  -5.351  1.00 20.00    -0.191 NA
ENDROOT
BRANCH  10  12
HETATM   12  O13 UNL     1     -34.879  17.901   1.009  1.00 20.00    -0.386 OA
HETATM   13  C11 UNL     1     -34.337  18.690   2.063  1.00 20.00     0.202 C 
ENDBRANCH  10  12
TORSDOF 1
ENDMDL
MODEL 5
REMARK VINA RESULT:      -4.9      1.524      2.694
REMARK  1 active torsions:
REMARK  status: ('A' for Active; 'I' for Inactive)
REMARK    1  A    between atoms: C10_10  and  O13_13 
ROOT
HETATM    1  C1  UNL     1     -31.349  19.009   2.582  1.00 20.00     0.099 C 
HETATM    2  C2  UNL     1     -31.768  18.657   0.194  1.00 20.00     0.023 A 
HETATM    3  C3  UNL     1     -32.626  18.361  -0.866  1.00 20.00     0.012 A 
HETATM    4  C4  UNL     1     -33.590  18.439   1.791  1.00 20.00     0.030 A 
HETATM    5  C5  UNL     1     -32.247  18.696   1.513  1.00 20.00     0.045 A 
HETATM    6  C6  UNL     1     -33.959  18.115  -0.582  1.00 20.00    -0.023 A 
HETATM    7  C7  UNL     1     -34.437  18.157   0.733  1.00 20.00    -0.048 A 
HETATM    8  C8  UNL     1     -35.893  17.816   0.783  1.00 20.00     0.042 C 
HETATM    9  C9  UNL     1     -36.304  18.037  -0.684  1.00 20.00     0.041 C 
HETATM   10  C10 UNL     1     -35.056  17.751  -1.536  1.00 20.00     0.154 C 
HETATM   11  N12 UNL     1     -30.620  19.263   3.449  1.00 20.00    -0.191 NA
ENDROOT
BRANCH  10  12
HETATM   12  O13 UNL     1     -34.999  16.371  -1.861  1.00 20.00    -0.386 OA
HETATM   13  C11 UNL     1     -34.472  16.157  -3.166  1.00 20.00     0.202 C 
ENDBRANCH  10  12
TORSDOF 1
ENDMDL
MODEL 6
REMARK VINA RESULT:      -4.8     12.101     12.652
REMARK  1 active torsions:
REMARK  status: ('A' for Active; 'I' for Inactive)
REMARK    1  A    between atoms: C10_10  and  O13_13 
ROOT
HETATM    1  C1  UNL     1     -31.974   8.593   1.264  1.00 20.00     0.099 C 
HETATM    2  C2  UNL     1     -33.535   6.765   1.734  1.00 20.00     0.023 A 
HETATM    3  C3  UNL     1     -34.263   5.978   2.629  1.00 20.00     0.012 A 
HETATM    4  C4  UNL     1     -32.590   8.055   3.567  1.00 20.00     0.030 A 
HETATM    5  C5  UNL     1     -32.705   7.796   2.201  1.00 20.00     0.045 A 
HETATM    6  C6  UNL     1     -34.149   6.247   3.983  1.00 20.00    -0.023 A 
HETATM    7  C7  UNL     1     -33.323   7.278   4.447  1.00 20.00    -0.048 A 
HETATM    8  C8  UNL     1     -33.337   7.341   5.942  1.00 20.00     0.042 C 
HETATM    9  C9  UNL     1     -34.617   6.549   6.264  1.00 20.00     0.041 C 
HETATM   10  C10 UNL     1     -34.800   5.531   5.126  1.00 20.00     0.154 C 
HETATM   11  N12 UNL     1     -31.382   9.240   0.504  1.00 20.00    -0.191 NA
ENDROOT
BRANCH  10  12
HETATM   12  O13 UNL     1     -34.101   4.335   5.432  1.00 20.00    -0.386 OA
HETATM   13  C11 UNL     1     -33.861   3.551   4.268  1.00 20.00     0.202 C 
ENDBRANCH  10  12
TORSDOF 1
ENDMDL
MODEL 7
REMARK VINA RESULT:      -4.7      2.925      4.340
REMARK  1 active torsions:
REMARK  status: ('A' for Active; 'I' for Inactive)
REMARK    1  A    between atoms: C10_10  and  O13_13 
ROOT
HETATM    1  C1  UNL     1     -34.933  17.335  -0.756  1.00 20.00     0.099 C 
HETATM    2  C2  UNL     1     -33.613  16.614  -2.689  1.00 20.00     0.023 A 
HETATM    3  C3  UNL     1     -33.519  16.074  -3.973  1.00 20.00     0.012 A 
HETATM    4  C4  UNL     1     -36.035  16.392  -2.723  1.00 20.00     0.030 A 
HETATM    5  C5  UNL     1     -34.862  16.773  -2.069  1.00 20.00     0.045 A 
HETATM    6  C6  UNL     1     -34.689  15.706  -4.617  1.00 20.00    -0.023 A 
HETATM    7  C7  UNL     1     -35.935  15.867  -4.000  1.00 20.00    -0.048 A 
HETATM    8  C8  UNL     1     -37.035  15.360  -4.878  1.00 20.00     0.042 C 
HETATM    9  C9  UNL     1     -36.335  15.327  -6.248  1.00 20.00     0.041 C 
HETATM   10  C10 UNL     1     -34.842  15.084  -5.972  1.00 20.00     0.154 C 
HETATM   11  N12 UNL     1     -34.990  17.793   0.309  1.00 20.00    -0.191 NA
ENDROOT
BRANCH  10  12
HETATM   12  O13 UNL     1     -34.582  13.690  -5.915  1.00 20.00    -0.386 OA
HETATM   13  C11 UNL     1     -35.035  13.020  -7.086  1.00 20.00     0.202 C 
ENDBRANCH  10  12
TORSDOF 1
ENDMDL
MODEL 8
REMARK VINA RESULT:      -4.5      3.809      5.932
REMARK  1 active torsions:
REMARK  status: ('A' for Active; 'I' for Inactive)
REMARK    1  A    between atoms: C10_10  and  O13_13 
ROOT
HETATM    1  C1  UNL     1     -35.950  14.454  -6.530  1.00 20.00     0.099 C 
HETATM    2  C2  UNL     1     -33.947  14.940  -5.207  1.00 20.00     0.023 A 
HETATM    3  C3  UNL     1     -33.323  15.519  -4.100  1.00 20.00     0.012 A 
HETATM    4  C4  UNL     1     -36.116  15.764  -4.474  1.00 20.00     0.030 A 
HETATM    5  C5  UNL     1     -35.333  15.062  -5.392  1.00 20.00     0.045 A 
HETATM    6  C6  UNL     1     -34.109  16.208  -3.190  1.00 20.00    -0.023 A 
HETATM    7  C7  UNL     1     -35.492  16.327  -3.374  1.00 20.00    -0.048 A 
HETATM    8  C8  UNL     1     -36.106  17.148  -2.284  1.00 20.00     0.042 C 
HETATM    9  C9  UNL     1     -35.007  17.089  -1.208  1.00 20.00     0.041 C 
HETATM   10  C10 UNL     1     -33.672  16.932  -1.954  1.00 20.00     0.154 C 
HETATM   11  N12 UNL     1     -36.450  13.959  -7.454  1.00 20.00    -0.191 NA
ENDROOT
BRANCH  10  12
HETATM   12  O13 UNL     1     -33.148  18.210  -2.280  1.00 20.00    -0.386 OA
HETATM   13  C11 UNL     1     -32.836  18.967  -1.115  1.00 20.00     0.202 C 
ENDBRANCH  10  12
TORSDOF 1
ENDMDL
MODEL 9
REMARK VINA RESULT:      -4.4      3.506      5.234
REMARK  1 active torsions:
REMARK  status: ('A' for Active; 'I' for Inactive)
REMARK    1  A    between atoms: C10_10  and  O13_13 
ROOT
HETATM    1  C1  UNL     1     -35.569  13.892  -5.294  1.00 20.00     0.099 C 
HETATM    2  C2  UNL     1     -36.907  15.830  -4.624  1.00 20.00     0.023 A 
HETATM    3  C3  UNL     1     -37.120  16.949  -3.816  1.00 20.00     0.012 A 
HETATM    4  C4  UNL     1     -34.827  15.332  -3.465  1.00 20.00     0.030 A 
HETATM    5  C5  UNL     1     -35.769  15.028  -4.449  1.00 20.00     0.045 A 
HETATM    6  C6  UNL     1     -36.177  17.247  -2.846  1.00 20.00    -0.023 A 
HETATM    7  C7  UNL     1     -35.040  16.449  -2.674  1.00 20.00    -0.048 A 
HETATM    8  C8  UNL     1     -34.201  16.951  -1.542  1.00 20.00     0.042 C 
HETATM    9  C9  UNL     1     -34.731  18.388  -1.391  1.00 20.00     0.041 C 
HETATM   10  C10 UNL     1     -36.198  18.365  -1.849  1.00 20.00     0.154 C 
HETATM   11  N12 UNL     1     -35.407  12.970  -5.981  1.00 20.00    -0.191 NA
ENDROOT
BRANCH  10  12
HETATM   12  O13 UNL     1     -37.041  18.043  -0.753  1.00 20.00    -0.386 OA
HETATM   13  C11 UNL     1     -38.190  18.882  -0.706  1.00 20.00     0.202 C 
ENDBRANCH  10  12
TORSDOF 1
ENDMDL
