MODEL 1
REMARK VINA RESULT:      -5.7      0.000      0.000
REMARK  2 active torsions:
REMARK  status: ('A' for Active; 'I' for Inactive)
REMARK    1  A    between atoms: C4_4  and  C5_5 
REMARK    2  A    between atoms: C9_9  and  C11_11 
ROOT
HETATM    1  C1  UNL     1     -32.932   9.487  -0.632  1.00 20.00     0.012 C 
HETATM    2  C2  UNL     1     -32.822   9.529   0.563  1.00 20.00    -0.117 C 
HETATM    3  C11 UNL     1     -32.696   9.590   2.021  1.00 20.00     0.098 C 
ENDROOT
BRANCH   3   4
HETATM    4  C9  UNL     1     -31.737   8.511   2.536  1.00 20.00     0.000 C 
HETATM    5  C6  UNL     1     -31.777   8.407   4.073  1.00 20.00     0.033 C 
HETATM    6  C3  UNL     1     -32.908   7.569   4.600  1.00 20.00    -0.016 C 
HETATM    7  C4  UNL     1     -33.626   6.750   3.819  1.00 20.00    -0.016 C 
HETATM    8  C7  UNL     1     -33.375   6.557   2.354  1.00 20.00     0.042 C 
HETATM    9  C8  UNL     1     -32.032   7.144   1.902  1.00 20.00     0.010 C 
BRANCH   7  10
HETATM   10  C5  UNL     1     -34.710   5.989   4.445  1.00 20.00     0.151 C 
HETATM   11  C10 UNL     1     -34.512   5.506   5.860  1.00 20.00     0.096 C 
HETATM   12  O12 UNL     1     -35.748   5.748   3.824  1.00 20.00    -0.293 OA
ENDBRANCH   7  10
ENDBRANCH   3   4
TORSDOF 2
ENDMDL
MODEL 2
REMARK VINA RESULT:      -5.0     10.437     11.322
REMARK  2 active torsions:
REMARK  status: ('A' for Active; 'I' for Inactive)
REMARK    1  A    between atoms: C4_4  and  C5_5 
REMARK    2  A    between atoms: C9_9  and  C11_11 
ROOT
HETATM    1  C1  UNL     1     -32.652  18.528  -0.757  1.00 20.00     0.012 C 
HETATM    2  C2  UNL     1     -33.298  17.771  -1.429  1.00 20.00    -0.117 C 
HETATM    3  C11 UNL     1     -34.093  16.845  -2.239  1.00 20.00     0.098 C 
ENDROOT
BRANCH   3   4
HETATM    4  C9  UNL     1     -33.584  16.800  -3.683  1.00 20.00     0.000 C 
HETATM    5  C6  UNL     1     -33.091  15.391  -4.065  1.00 20.00     0.033 C 
HETATM    6  C3  UNL     1     -34.187  14.453  -4.485  1.00 20.00    -0.016 C 
HETATM    7  C4  UNL     1     -35.422  14.874  -4.790  1.00 20.00    -0.016 C 
HETATM    8  C7  UNL     1     -35.844  16.312  -4.772  1.00 20.00     0.042 C 
HETATM    9  C8  UNL     1     -34.656  17.276  -4.675  1.00 20.00     0.010 C 
BRANCH   7  10
HETATM   10  C5  UNL     1     -36.410  13.864  -5.180  1.00 20.00     0.151 C 
HETATM   11  C10 UNL     1     -37.839  14.306  -5.366  1.00 20.00     0.096 C 
HETATM   12  O12 UNL     1     -36.075  12.689  -5.342  1.00 20.00    -0.293 OA
ENDBRANCH   7  10
ENDBRANCH   3   4
TORSDOF 2
ENDMDL
MODEL 3
REMARK VINA RESULT:      -5.0     10.627     11.542
REMARK  2 active torsions:
REMARK  status: ('A' for Active; 'I' for Inactive)
REMARK    1  A    between atoms: C4_4  and  C5_5 
REMARK    2  A    between atoms: C9_9  and  C11_11 
ROOT
HETATM    1  C1  UNL     1     -35.620  13.777  -4.734  1.00 20.00     0.012 C 
HETATM    2  C2  UNL     1     -34.963  14.642  -4.221  1.00 20.00    -0.117 C 
HETATM    3  C11 UNL     1     -34.153  15.690  -3.596  1.00 20.00     0.098 C 
ENDROOT
BRANCH   3   4
HETATM    4  C9  UNL     1     -35.020  16.883  -3.182  1.00 20.00     0.000 C 
HETATM    5  C6  UNL     1     -35.395  16.817  -1.689  1.00 20.00     0.033 C 
HETATM    6  C3  UNL     1     -34.332  17.345  -0.767  1.00 20.00    -0.016 C 
HETATM    7  C4  UNL     1     -33.296  18.075  -1.202  1.00 20.00    -0.016 C 
HETATM    8  C7  UNL     1     -33.089  18.466  -2.633  1.00 20.00     0.042 C 
HETATM    9  C8  UNL     1     -34.330  18.219  -3.499  1.00 20.00     0.010 C 
BRANCH   7  10
HETATM   10  C5  UNL     1     -32.318  18.529  -0.209  1.00 20.00     0.151 C 
HETATM   11  C10 UNL     1     -32.828  19.260   1.006  1.00 20.00     0.096 C 
HETATM   12  O12 UNL     1     -31.114  18.320  -0.373  1.00 20.00    -0.293 OA
ENDBRANCH   7  10
ENDBRANCH   3   4
TORSDOF 2
ENDMDL
MODEL 4
REMARK VINA RESULT:      -5.0      2.101      5.002
REMARK  2 active torsions:
REMARK  status: ('A' for Active; 'I' for Inactive)
REMARK    1  A    between atoms: C4_4  and  C5_5 
REMARK    2  A    between atoms: C9_9  and  C11_11 
ROOT
HETATM    1  C1  UNL     1     -34.792   5.237   5.935  1.00 20.00     0.012 C 
HETATM    2  C2  UNL     1     -34.299   6.165   5.353  1.00 20.00    -0.117 C 
HETATM    3  C11 UNL     1     -33.705   7.303   4.648  1.00 20.00     0.098 C 
ENDROOT
BRANCH   3   4
HETATM    4  C9  UNL     1     -32.470   6.874   3.850  1.00 20.00     0.000 C 
HETATM    5  C6  UNL     1     -32.841   6.457   2.414  1.00 20.00     0.033 C 
HETATM    6  C3  UNL     1     -32.983   7.610   1.460  1.00 20.00    -0.016 C 
HETATM    7  C4  UNL     1     -32.540   8.842   1.744  1.00 20.00    -0.016 C 
HETATM    8  C7  UNL     1     -31.838   9.207   3.017  1.00 20.00     0.042 C 
HETATM    9  C8  UNL     1     -31.402   7.978   3.825  1.00 20.00     0.010 C 
BRANCH   7  10
HETATM   10  C5  UNL     1     -32.741   9.888   0.737  1.00 20.00     0.151 C 
HETATM   11  C10 UNL     1     -33.179   9.468  -0.643  1.00 20.00     0.096 C 
HETATM   12  O12 UNL     1     -32.551  11.073   1.017  1.00 20.00    -0.293 OA
ENDBRANCH   7  10
ENDBRANCH   3   4
TORSDOF 2
ENDMDL
MODEL 5
REMARK VINA RESULT:      -5.0     10.594     11.556
REMARK  2 active torsions:
REMARK  status: ('A' for Active; 'I' for Inactive)
REMARK    1  A    between atoms: C4_4  and  C5_5 
REMARK    2  A    between atoms: C9_9  and  C11_11 
ROOT
HETATM    1  C1  UNL     1     -35.513  17.420  -0.262  1.00 20.00     0.012 C 
HETATM    2  C2  UNL     1     -34.835  17.088  -1.196  1.00 20.00    -0.117 C 
HETATM    3  C11 UNL     1     -34.002  16.677  -2.329  1.00 20.00     0.098 C 
ENDROOT
BRANCH   3   4
HETATM    4  C9  UNL     1     -34.490  17.318  -3.632  1.00 20.00     0.000 C 
HETATM    5  C6  UNL     1     -33.597  16.923  -4.824  1.00 20.00     0.033 C 
HETATM    6  C3  UNL     1     -33.933  15.587  -5.424  1.00 20.00    -0.016 C 
HETATM    7  C4  UNL     1     -35.075  14.940  -5.155  1.00 20.00    -0.016 C 
HETATM    8  C7  UNL     1     -36.148  15.475  -4.256  1.00 20.00     0.042 C 
HETATM    9  C8  UNL     1     -35.956  16.960  -3.923  1.00 20.00     0.010 C 
BRANCH   7  10
HETATM   10  C5  UNL     1     -35.288  13.639  -5.794  1.00 20.00     0.151 C 
HETATM   11  C10 UNL     1     -34.727  13.428  -7.178  1.00 20.00     0.096 C 
HETATM   12  O12 UNL     1     -35.915  12.750  -5.214  1.00 20.00    -0.293 OA
ENDBRANCH   7  10
ENDBRANCH   3   4
TORSDOF 2
ENDMDL
MODEL 6
REMARK VINA RESULT:      -4.9      1.952      4.767
REMARK  2 active torsions:
REMARK  status: ('A' for Active; 'I' for Inactive)
REMARK    1  A    between atoms: C4_4  and  C5_5 
REMARK    2  A    between atoms: C9_9  and  C11_11 
ROOT
HETATM    1  C1  UNL     1     -34.008   7.333   6.397  1.00 20.00     0.012 C 
HETATM    2  C2  UNL     1     -34.140   6.216   5.975  1.00 20.00    -0.117 C 
HETATM    3  C11 UNL     1     -34.298   4.849   5.471  1.00 20.00     0.098 C 
ENDROOT
BRANCH   3   4
HETATM    4  C9  UNL     1     -34.777   4.851   4.016  1.00 20.00     0.000 C 
HETATM    5  C6  UNL     1     -35.369   6.217   3.618  1.00 20.00     0.033 C 
HETATM    6  C3  UNL     1     -34.340   7.236   3.218  1.00 20.00    -0.016 C 
HETATM    7  C4  UNL     1     -33.069   6.911   2.942  1.00 20.00    -0.016 C 
HETATM    8  C7  UNL     1     -32.538   5.510   2.975  1.00 20.00     0.042 C 
HETATM    9  C8  UNL     1     -33.650   4.457   3.050  1.00 20.00     0.010 C 
BRANCH   7  10
HETATM   10  C5  UNL     1     -32.154   7.994   2.570  1.00 20.00     0.151 C 
HETATM   11  C10 UNL     1     -32.380   8.691   1.252  1.00 20.00     0.096 C 
HETATM   12  O12 UNL     1     -31.226   8.314   3.315  1.00 20.00    -0.293 OA
ENDBRANCH   7  10
ENDBRANCH   3   4
TORSDOF 2
ENDMDL
MODEL 7
REMARK VINA RESULT:      -4.8     10.231     11.186
REMARK  2 active torsions:
REMARK  status: ('A' for Active; 'I' for Inactive)
REMARK    1  A    between atoms: C4_4  and  C5_5 
REMARK    2  A    between atoms: C9_9  and  C11_11 
ROOT
HETATM    1  C1  UNL     1     -33.819  18.545   1.152  1.00 20.00     0.012 C 
HETATM    2  C2  UNL     1     -34.462  17.983   0.308  1.00 20.00    -0.117 C 
HETATM    3  C11 UNL     1     -35.252  17.290  -0.714  1.00 20.00     0.098 C 
ENDROOT
BRANCH   3   4
HETATM    4  C9  UNL     1     -35.032  17.913  -2.096  1.00 20.00     0.000 C 
HETATM    5  C6  UNL     1     -33.659  17.524  -2.678  1.00 20.00     0.033 C 
HETATM    6  C3  UNL     1     -33.637  16.178  -3.346  1.00 20.00    -0.016 C 
HETATM    7  C4  UNL     1     -34.754  15.515  -3.673  1.00 20.00    -0.016 C 
HETATM    8  C7  UNL     1     -36.138  16.039  -3.437  1.00 20.00     0.042 C 
HETATM    9  C8  UNL     1     -36.153  17.528  -3.074  1.00 20.00     0.010 C 
BRANCH   7  10
HETATM   10  C5  UNL     1     -34.606  14.205  -4.315  1.00 20.00     0.151 C 
HETATM   11  C10 UNL     1     -35.799  13.629  -5.034  1.00 20.00     0.096 C 
HETATM   12  O12 UNL     1     -33.536  13.596  -4.258  1.00 20.00    -0.293 OA
ENDBRANCH   7  10
ENDBRANCH   3   4
TORSDOF 2
ENDMDL
MODEL 8
REMARK VINA RESULT:      -4.6     10.751     11.536
REMARK  2 active torsions:
REMARK  status: ('A' for Active; 'I' for Inactive)
REMARK    1  A    between atoms: C4_4  and  C5_5 
REMARK    2  A    between atoms: C9_9  and  C11_11 
ROOT
HETATM    1  C1  UNL     1     -33.649  16.082  -3.860  1.00 20.00     0.012 C 
HETATM    2  C2  UNL     1     -34.050  16.450  -2.790  1.00 20.00    -0.117 C 
HETATM    3  C11 UNL     1     -34.542  16.889  -1.481  1.00 20.00     0.098 C 
ENDROOT
BRANCH   3   4
HETATM    4  C9  UNL     1     -34.522  18.417  -1.370  1.00 20.00     0.000 C 
HETATM    5  C6  UNL     1     -35.163  18.895  -0.053  1.00 20.00     0.033 C 
HETATM    6  C3  UNL     1     -34.235  18.857   1.128  1.00 20.00    -0.016 C 
HETATM    7  C4  UNL     1     -32.909  18.713   1.001  1.00 20.00    -0.016 C 
HETATM    8  C7  UNL     1     -32.201  18.601  -0.315  1.00 20.00     0.042 C 
HETATM    9  C8  UNL     1     -33.097  18.975  -1.502  1.00 20.00     0.010 C 
BRANCH   7  10
HETATM   10  C5  UNL     1     -32.106  18.682   2.227  1.00 20.00     0.151 C 
HETATM   11  C10 UNL     1     -30.653  19.073   2.134  1.00 20.00     0.096 C 
HETATM   12  O12 UNL     1     -32.610  18.338   3.299  1.00 20.00    -0.293 OA
ENDBRANCH   7  10
ENDBRANCH   3   4
TORSDOF 2
ENDMDL
MODEL 9
REMARK VINA RESULT:      -4.5     10.119     11.427
REMARK  2 active torsions:
REMARK  status: ('A' for Active; 'I' for Inactive)
REMARK    1  A    between atoms: C4_4  and  C5_5 
REMARK    2  A    between atoms: C9_9  and  C11_11 
ROOT
HETATM    1  C1  UNL     1     -33.329  19.034  -4.416  1.00 20.00     0.012 C 
HETATM    2  C2  UNL     1     -33.352  17.860  -4.667  1.00 20.00    -0.117 C 
HETATM    3  C11 UNL     1     -33.377  16.430  -4.984  1.00 20.00     0.098 C 
ENDROOT
BRANCH   3   4
HETATM    4  C9  UNL     1     -33.709  15.596  -3.743  1.00 20.00     0.000 C 
HETATM    5  C6  UNL     1     -34.775  16.284  -2.869  1.00 20.00     0.033 C 
HETATM    6  C3  UNL     1     -36.187  16.050  -3.329  1.00 20.00    -0.016 C 
HETATM    7  C4  UNL     1     -36.509  15.102  -4.219  1.00 20.00    -0.016 C 
HETATM    8  C7  UNL     1     -35.520  14.160  -4.834  1.00 20.00     0.042 C 
HETATM    9  C8  UNL     1     -34.163  14.178  -4.120  1.00 20.00     0.010 C 
BRANCH   7  10
HETATM   10  C5  UNL     1     -37.919  14.974  -4.598  1.00 20.00     0.151 C 
HETATM   11  C10 UNL     1     -38.814  16.173  -4.414  1.00 20.00     0.096 C 
HETATM   12  O12 UNL     1     -38.355  13.911  -5.046  1.00 20.00    -0.293 OA
ENDBRANCH   7  10
ENDBRANCH   3   4
TORSDOF 2
ENDMDL
