MODEL 1
REMARK VINA RESULT:      -5.6      0.000      0.000
REMARK  4 active torsions:
REMARK  status: ('A' for Active; 'I' for Inactive)
REMARK    1  A    between atoms: C1_1  and  C7_7 
REMARK    2  A    between atoms: C2_2  and  C9_9 
REMARK    3  A    between atoms: C4_4  and  C9_9 
REMARK    4  A    between atoms: C9_9  and  O10_10 
ROOT
HETATM    1  C1  UNL     1     -33.296   7.359   3.356  1.00 20.00    -0.094 C 
HETATM    2  C2  UNL     1     -32.703   8.054   2.575  1.00 20.00    -0.070 C 
ENDROOT
BRANCH   2   3
HETATM    3  C9  UNL     1     -31.975   8.908   1.630  1.00 20.00     0.219 C 
BRANCH   3   4
HETATM    4  C4  UNL     1     -32.427   8.621   0.230  1.00 20.00     0.007 C 
HETATM    5  C3  UNL     1     -33.187   9.451  -0.494  1.00 20.00     0.010 C 
ENDBRANCH   3   4
BRANCH   3   6
HETATM    6  O10 UNL     1     -32.243  10.280   1.907  1.00 20.00    -0.380 OA
HETATM    7  H22 UNL     1     -33.198  10.404   1.799  1.00 20.00     0.211 HD
ENDBRANCH   3   6
ENDBRANCH   2   3
BRANCH   1   8
HETATM    8  C7  UNL     1     -34.009   6.526   4.290  1.00 20.00     0.020 A 
HETATM    9  C5  UNL     1     -35.304   5.905   3.816  1.00 20.00     0.024 A 
HETATM   10  C6  UNL     1     -34.084   5.049   3.982  1.00 20.00     0.024 A 
HETATM   11  C8  UNL     1     -33.911   6.945   5.729  1.00 20.00     0.029 C 
ENDBRANCH   1   8
TORSDOF 4
ENDMDL
MODEL 2
REMARK VINA RESULT:      -5.4      0.743      1.455
REMARK  4 active torsions:
REMARK  status: ('A' for Active; 'I' for Inactive)
REMARK    1  A    between atoms: C1_1  and  C7_7 
REMARK    2  A    between atoms: C2_2  and  C9_9 
REMARK    3  A    between atoms: C4_4  and  C9_9 
REMARK    4  A    between atoms: C9_9  and  O10_10 
ROOT
HETATM    1  C1  UNL     1     -33.190   7.143   2.779  1.00 20.00    -0.094 C 
HETATM    2  C2  UNL     1     -32.719   8.127   2.273  1.00 20.00    -0.070 C 
ENDROOT
BRANCH   2   3
HETATM    3  C9  UNL     1     -32.138   9.322   1.651  1.00 20.00     0.219 C 
BRANCH   3   4
HETATM    4  C4  UNL     1     -32.083   9.147   0.163  1.00 20.00     0.007 C 
HETATM    5  C3  UNL     1     -33.131   9.332  -0.649  1.00 20.00     0.010 C 
ENDBRANCH   3   4
BRANCH   3   6
HETATM    6  O10 UNL     1     -32.948  10.461   1.931  1.00 20.00    -0.380 OA
HETATM    7  H22 UNL     1     -33.819  10.283   1.544  1.00 20.00     0.211 HD
ENDBRANCH   3   6
ENDBRANCH   2   3
BRANCH   1   8
HETATM    8  C7  UNL     1     -33.755   5.966   3.387  1.00 20.00     0.020 A 
HETATM    9  C5  UNL     1     -34.177   6.070   4.836  1.00 20.00     0.024 A 
HETATM   10  C6  UNL     1     -35.219   6.014   3.758  1.00 20.00     0.024 A 
HETATM   11  C8  UNL     1     -33.189   4.660   2.907  1.00 20.00     0.029 C 
ENDBRANCH   1   8
TORSDOF 4
ENDMDL
MODEL 3
REMARK VINA RESULT:      -5.3      1.952      4.989
REMARK  4 active torsions:
REMARK  status: ('A' for Active; 'I' for Inactive)
REMARK    1  A    between atoms: C1_1  and  C7_7 
REMARK    2  A    between atoms: C2_2  and  C9_9 
REMARK    3  A    between atoms: C4_4  and  C9_9 
REMARK    4  A    between atoms: C9_9  and  O10_10 
ROOT
HETATM    1  C1  UNL     1     -32.795   8.344   2.026  1.00 20.00    -0.094 C 
HETATM    2  C2  UNL     1     -32.957   7.428   2.786  1.00 20.00    -0.070 C 
ENDROOT
BRANCH   2   3
HETATM    3  C9  UNL     1     -33.162   6.305   3.708  1.00 20.00     0.219 C 
BRANCH   3   4
HETATM    4  C4  UNL     1     -34.148   6.689   4.770  1.00 20.00     0.007 C 
HETATM    5  C3  UNL     1     -33.808   7.246   5.938  1.00 20.00     0.010 C 
ENDBRANCH   3   4
BRANCH   3   6
HETATM    6  O10 UNL     1     -33.690   5.184   3.002  1.00 20.00    -0.380 OA
HETATM    7  H22 UNL     1     -33.140   4.422   3.240  1.00 20.00     0.211 HD
ENDBRANCH   3   6
ENDBRANCH   2   3
BRANCH   1   8
HETATM    8  C7  UNL     1     -32.601   9.444   1.117  1.00 20.00     0.020 A 
HETATM    9  C5  UNL     1     -31.574   9.263   0.021  1.00 20.00     0.024 A 
HETATM   10  C6  UNL     1     -33.036   9.242  -0.316  1.00 20.00     0.024 A 
HETATM   11  C8  UNL     1     -32.760  10.811   1.718  1.00 20.00     0.029 C 
ENDBRANCH   1   8
TORSDOF 4
ENDMDL
MODEL 4
REMARK VINA RESULT:      -5.3      1.766      4.988
REMARK  4 active torsions:
REMARK  status: ('A' for Active; 'I' for Inactive)
REMARK    1  A    between atoms: C1_1  and  C7_7 
REMARK    2  A    between atoms: C2_2  and  C9_9 
REMARK    3  A    between atoms: C4_4  and  C9_9 
REMARK    4  A    between atoms: C9_9  and  O10_10 
ROOT
HETATM    1  C1  UNL     1     -32.918   8.237   2.134  1.00 20.00    -0.094 C 
HETATM    2  C2  UNL     1     -33.440   7.607   3.013  1.00 20.00    -0.070 C 
ENDROOT
BRANCH   2   3
HETATM    3  C9  UNL     1     -34.080   6.830   4.081  1.00 20.00     0.219 C 
BRANCH   3   4
HETATM    4  C4  UNL     1     -34.036   5.369   3.747  1.00 20.00     0.007 C 
HETATM    5  C3  UNL     1     -34.468   4.403   4.566  1.00 20.00     0.010 C 
ENDBRANCH   3   4
BRANCH   3   6
HETATM    6  O10 UNL     1     -33.382   7.022   5.309  1.00 20.00    -0.380 OA
HETATM    7  H22 UNL     1     -33.946   7.583   5.864  1.00 20.00     0.211 HD
ENDBRANCH   3   6
ENDBRANCH   2   3
BRANCH   1   8
HETATM    8  C7  UNL     1     -32.293   8.994   1.080  1.00 20.00     0.020 A 
HETATM    9  C5  UNL     1     -33.191   9.534  -0.011  1.00 20.00     0.024 A 
HETATM   10  C6  UNL     1     -32.610  10.470   1.007  1.00 20.00     0.024 A 
HETATM   11  C8  UNL     1     -30.910   8.548   0.700  1.00 20.00     0.029 C 
ENDBRANCH   1   8
TORSDOF 4
ENDMDL
MODEL 5
REMARK VINA RESULT:      -5.0      2.269      4.973
REMARK  4 active torsions:
REMARK  status: ('A' for Active; 'I' for Inactive)
REMARK    1  A    between atoms: C1_1  and  C7_7 
REMARK    2  A    between atoms: C2_2  and  C9_9 
REMARK    3  A    between atoms: C4_4  and  C9_9 
REMARK    4  A    between atoms: C9_9  and  O10_10 
ROOT
HETATM    1  C1  UNL     1     -33.000   7.257   2.823  1.00 20.00    -0.094 C 
HETATM    2  C2  UNL     1     -33.791   6.397   3.103  1.00 20.00    -0.070 C 
ENDROOT
BRANCH   2   3
HETATM    3  C9  UNL     1     -34.754   5.341   3.437  1.00 20.00     0.219 C 
BRANCH   3   4
HETATM    4  C4  UNL     1     -34.306   4.613   4.668  1.00 20.00     0.007 C 
HETATM    5  C3  UNL     1     -34.567   5.024   5.915  1.00 20.00     0.010 C 
ENDBRANCH   3   4
BRANCH   3   6
HETATM    6  O10 UNL     1     -36.032   5.914   3.704  1.00 20.00    -0.380 OA
HETATM    7  H22 UNL     1     -36.465   6.038   2.846  1.00 20.00     0.211 HD
ENDBRANCH   3   6
ENDBRANCH   2   3
BRANCH   1   8
HETATM    8  C7  UNL     1     -32.053   8.290   2.487  1.00 20.00     0.020 A 
HETATM    9  C5  UNL     1     -31.633   8.399   1.038  1.00 20.00     0.024 A 
HETATM   10  C6  UNL     1     -32.549   9.430   1.627  1.00 20.00     0.024 A 
HETATM   11  C8  UNL     1     -31.032   8.594   3.545  1.00 20.00     0.029 C 
ENDBRANCH   1   8
TORSDOF 4
ENDMDL
MODEL 6
REMARK VINA RESULT:      -4.4     10.365     11.109
REMARK  4 active torsions:
REMARK  status: ('A' for Active; 'I' for Inactive)
REMARK    1  A    between atoms: C1_1  and  C7_7 
REMARK    2  A    between atoms: C2_2  and  C9_9 
REMARK    3  A    between atoms: C4_4  and  C9_9 
REMARK    4  A    between atoms: C9_9  and  O10_10 
ROOT
HETATM    1  C1  UNL     1     -33.769  16.573  -2.734  1.00 20.00    -0.094 C 
HETATM    2  C2  UNL     1     -33.679  15.783  -3.635  1.00 20.00    -0.070 C 
ENDROOT
BRANCH   2   3
HETATM    3  C9  UNL     1     -33.570  14.826  -4.742  1.00 20.00     0.219 C 
BRANCH   3   4
HETATM    4  C4  UNL     1     -33.211  15.546  -6.007  1.00 20.00     0.007 C 
HETATM    5  C3  UNL     1     -33.784  15.304  -7.192  1.00 20.00     0.010 C 
ENDBRANCH   3   4
BRANCH   3   6
HETATM    6  O10 UNL     1     -32.542  13.878  -4.467  1.00 20.00    -0.380 OA
HETATM    7  H22 UNL     1     -32.775  13.068  -4.947  1.00 20.00     0.211 HD
ENDBRANCH   3   6
ENDBRANCH   2   3
BRANCH   1   8
HETATM    8  C7  UNL     1     -33.878  17.519  -1.653  1.00 20.00     0.020 A 
HETATM    9  C5  UNL     1     -32.589  18.073  -1.086  1.00 20.00     0.024 A 
HETATM   10  C6  UNL     1     -33.464  18.945  -1.938  1.00 20.00     0.024 A 
HETATM   11  C8  UNL     1     -35.024  17.290  -0.711  1.00 20.00     0.029 C 
ENDBRANCH   1   8
TORSDOF 4
ENDMDL
MODEL 7
REMARK VINA RESULT:      -4.2     10.393     10.961
REMARK  4 active torsions:
REMARK  status: ('A' for Active; 'I' for Inactive)
REMARK    1  A    between atoms: C1_1  and  C7_7 
REMARK    2  A    between atoms: C2_2  and  C9_9 
REMARK    3  A    between atoms: C4_4  and  C9_9 
REMARK    4  A    between atoms: C9_9  and  O10_10 
ROOT
HETATM    1  C1  UNL     1     -34.874  15.986  -3.284  1.00 20.00    -0.094 C 
HETATM    2  C2  UNL     1     -35.116  15.182  -4.144  1.00 20.00    -0.070 C 
ENDROOT
BRANCH   2   3
HETATM    3  C9  UNL     1     -35.402  14.196  -5.193  1.00 20.00     0.219 C 
BRANCH   3   4
HETATM    4  C4  UNL     1     -34.281  14.169  -6.187  1.00 20.00     0.007 C 
HETATM    5  C3  UNL     1     -34.415  13.752  -7.452  1.00 20.00     0.010 C 
ENDBRANCH   3   4
BRANCH   3   6
HETATM    6  O10 UNL     1     -35.516  12.895  -4.622  1.00 20.00    -0.380 OA
HETATM    7  H22 UNL     1     -36.342  12.886  -4.115  1.00 20.00     0.211 HD
ENDBRANCH   3   6
ENDBRANCH   2   3
BRANCH   1   8
HETATM    8  C7  UNL     1     -34.584  16.951  -2.255  1.00 20.00     0.020 A 
HETATM    9  C5  UNL     1     -33.130  17.288  -2.011  1.00 20.00     0.024 A 
HETATM   10  C6  UNL     1     -34.020  18.283  -2.695  1.00 20.00     0.024 A 
HETATM   11  C8  UNL     1     -35.513  16.931  -1.076  1.00 20.00     0.029 C 
ENDBRANCH   1   8
TORSDOF 4
ENDMDL
MODEL 8
REMARK VINA RESULT:      -4.2     10.311     10.840
REMARK  4 active torsions:
REMARK  status: ('A' for Active; 'I' for Inactive)
REMARK    1  A    between atoms: C1_1  and  C7_7 
REMARK    2  A    between atoms: C2_2  and  C9_9 
REMARK    3  A    between atoms: C4_4  and  C9_9 
REMARK    4  A    between atoms: C9_9  and  O10_10 
ROOT
HETATM    1  C1  UNL     1     -33.919  16.429  -2.832  1.00 20.00    -0.094 C 
HETATM    2  C2  UNL     1     -33.747  15.633  -3.716  1.00 20.00    -0.070 C 
ENDROOT
BRANCH   2   3
HETATM    3  C9  UNL     1     -33.532  14.656  -4.789  1.00 20.00     0.219 C 
BRANCH   3   4
HETATM    4  C4  UNL     1     -34.821  14.398  -5.510  1.00 20.00     0.007 C 
HETATM    5  C3  UNL     1     -35.771  13.566  -5.067  1.00 20.00     0.010 C 
ENDBRANCH   3   4
BRANCH   3   6
HETATM    6  O10 UNL     1     -32.594  15.167  -5.733  1.00 20.00    -0.380 OA
HETATM    7  H22 UNL     1     -31.809  15.431  -5.229  1.00 20.00     0.211 HD
ENDBRANCH   3   6
ENDBRANCH   2   3
BRANCH   1   8
HETATM    8  C7  UNL     1     -34.125  17.384  -1.773  1.00 20.00     0.020 A 
HETATM    9  C5  UNL     1     -35.386  18.217  -1.828  1.00 20.00     0.024 A 
HETATM   10  C6  UNL     1     -35.262  17.118  -0.814  1.00 20.00     0.024 A 
HETATM   11  C8  UNL     1     -32.878  18.023  -1.233  1.00 20.00     0.029 C 
ENDBRANCH   1   8
TORSDOF 4
ENDMDL
MODEL 9
REMARK VINA RESULT:      -4.2     10.094     11.083
REMARK  4 active torsions:
REMARK  status: ('A' for Active; 'I' for Inactive)
REMARK    1  A    between atoms: C1_1  and  C7_7 
REMARK    2  A    between atoms: C2_2  and  C9_9 
REMARK    3  A    between atoms: C4_4  and  C9_9 
REMARK    4  A    between atoms: C9_9  and  O10_10 
ROOT
HETATM    1  C1  UNL     1     -33.667  16.544  -3.020  1.00 20.00    -0.094 C 
HETATM    2  C2  UNL     1     -33.415  17.373  -2.187  1.00 20.00    -0.070 C 
ENDROOT
BRANCH   2   3
HETATM    3  C9  UNL     1     -33.113  18.392  -1.175  1.00 20.00     0.219 C 
BRANCH   3   4
HETATM    4  C4  UNL     1     -33.941  18.154   0.052  1.00 20.00     0.007 C 
HETATM    5  C3  UNL     1     -35.199  17.699   0.027  1.00 20.00     0.010 C 
ENDBRANCH   3   4
BRANCH   3   6
HETATM    6  O10 UNL     1     -31.739  18.315  -0.801  1.00 20.00    -0.380 OA
HETATM    7  H22 UNL     1     -31.320  17.690  -1.411  1.00 20.00     0.211 HD
ENDBRANCH   3   6
ENDBRANCH   2   3
BRANCH   1   8
HETATM    8  C7  UNL     1     -33.967  15.550  -4.018  1.00 20.00     0.020 A 
HETATM    9  C5  UNL     1     -33.127  15.557  -5.276  1.00 20.00     0.024 A 
HETATM   10  C6  UNL     1     -32.932  14.475  -4.256  1.00 20.00     0.024 A 
HETATM   11  C8  UNL     1     -35.416  15.176  -4.137  1.00 20.00     0.029 C 
ENDBRANCH   1   8
TORSDOF 4
ENDMDL
