MODEL 1
REMARK VINA RESULT:      -5.3      0.000      0.000
REMARK  2 active torsions:
REMARK  status: ('A' for Active; 'I' for Inactive)
REMARK    1  A    between atoms: C1_1  and  C7_7 
REMARK    2  A    between atoms: C4_4  and  C7_7 
ROOT
HETATM    1  C6  UNL     1     -33.522   7.391   5.927  1.00 20.00     0.018 C 
HETATM    2  C7  UNL     1     -33.936   7.173   4.473  1.00 20.00     0.055 C 
ENDROOT
BRANCH   2   3
HETATM    3  C1  UNL     1     -34.832   5.945   4.338  1.00 20.00     0.127 C 
HETATM    4  C5  UNL     1     -34.510   4.766   5.222  1.00 20.00     0.091 C 
HETATM    5  O8  UNL     1     -35.762   5.893   3.533  1.00 20.00    -0.298 OA
ENDBRANCH   2   3
BRANCH   2   6
HETATM    6  C4  UNL     1     -32.709   7.022   3.580  1.00 20.00    -0.004 A 
HETATM    7  C2  UNL     1     -32.660   7.702   2.240  1.00 20.00     0.006 A 
HETATM    8  C3  UNL     1     -31.785   8.188   3.362  1.00 20.00     0.006 A 
ENDBRANCH   2   6
TORSDOF 2
ENDMDL
MODEL 2
REMARK VINA RESULT:      -5.0      2.028      3.844
REMARK  2 active torsions:
REMARK  status: ('A' for Active; 'I' for Inactive)
REMARK    1  A    between atoms: C1_1  and  C7_7 
REMARK    2  A    between atoms: C4_4  and  C7_7 
ROOT
HETATM    1  C6  UNL     1     -33.478   5.742   2.502  1.00 20.00     0.018 C 
HETATM    2  C7  UNL     1     -33.468   6.970   3.411  1.00 20.00     0.055 C 
ENDROOT
BRANCH   2   3
HETATM    3  C1  UNL     1     -32.355   7.935   3.013  1.00 20.00     0.127 C 
HETATM    4  C5  UNL     1     -32.462   8.575   1.652  1.00 20.00     0.091 C 
HETATM    5  O8  UNL     1     -31.395   8.172   3.747  1.00 20.00    -0.298 OA
ENDBRANCH   2   3
BRANCH   2   6
HETATM    6  C4  UNL     1     -33.304   6.560   4.870  1.00 20.00    -0.004 A 
HETATM    7  C2  UNL     1     -33.887   7.408   5.965  1.00 20.00     0.006 A 
HETATM    8  C3  UNL     1     -34.488   6.066   5.654  1.00 20.00     0.006 A 
ENDBRANCH   2   6
TORSDOF 2
ENDMDL
MODEL 3
REMARK VINA RESULT:      -4.9      1.492      2.066
REMARK  2 active torsions:
REMARK  status: ('A' for Active; 'I' for Inactive)
REMARK    1  A    between atoms: C1_1  and  C7_7 
REMARK    2  A    between atoms: C4_4  and  C7_7 
ROOT
HETATM    1  C6  UNL     1     -34.344   5.843   2.720  1.00 20.00     0.018 C 
HETATM    2  C7  UNL     1     -33.351   6.456   3.705  1.00 20.00     0.055 C 
ENDROOT
BRANCH   2   3
HETATM    3  C1  UNL     1     -33.930   6.492   5.116  1.00 20.00     0.127 C 
HETATM    4  C5  UNL     1     -34.638   5.249   5.594  1.00 20.00     0.091 C 
HETATM    5  O8  UNL     1     -33.855   7.489   5.834  1.00 20.00    -0.298 OA
ENDBRANCH   2   3
BRANCH   2   6
HETATM    6  C4  UNL     1     -32.957   7.863   3.268  1.00 20.00    -0.004 A 
HETATM    7  C2  UNL     1     -31.539   8.335   3.421  1.00 20.00     0.006 A 
HETATM    8  C3  UNL     1     -32.097   8.065   2.052  1.00 20.00     0.006 A 
ENDBRANCH   2   6
TORSDOF 2
ENDMDL
MODEL 4
REMARK VINA RESULT:      -4.9      1.162      3.323
REMARK  2 active torsions:
REMARK  status: ('A' for Active; 'I' for Inactive)
REMARK    1  A    between atoms: C1_1  and  C7_7 
REMARK    2  A    between atoms: C4_4  and  C7_7 
ROOT
HETATM    1  C6  UNL     1     -33.599   7.786   5.711  1.00 20.00     0.018 C 
HETATM    2  C7  UNL     1     -33.284   6.673   4.713  1.00 20.00     0.055 C 
ENDROOT
BRANCH   2   3
HETATM    3  C1  UNL     1     -32.882   7.251   3.359  1.00 20.00     0.127 C 
HETATM    4  C5  UNL     1     -31.695   8.181   3.340  1.00 20.00     0.091 C 
HETATM    5  O8  UNL     1     -33.502   7.000   2.325  1.00 20.00    -0.298 OA
ENDBRANCH   2   3
BRANCH   2   6
HETATM    6  C4  UNL     1     -34.481   5.743   4.547  1.00 20.00    -0.004 A 
HETATM    7  C2  UNL     1     -34.271   4.288   4.236  1.00 20.00     0.006 A 
HETATM    8  C3  UNL     1     -34.779   4.701   5.589  1.00 20.00     0.006 A 
ENDBRANCH   2   6
TORSDOF 2
ENDMDL
MODEL 5
REMARK VINA RESULT:      -4.9      1.112      1.112
REMARK  2 active torsions:
REMARK  status: ('A' for Active; 'I' for Inactive)
REMARK    1  A    between atoms: C1_1  and  C7_7 
REMARK    2  A    between atoms: C4_4  and  C7_7 
ROOT
HETATM    1  C6  UNL     1     -33.576   7.347   5.423  1.00 20.00     0.018 C 
HETATM    2  C7  UNL     1     -33.629   6.982   3.941  1.00 20.00     0.055 C 
ENDROOT
BRANCH   2   3
HETATM    3  C1  UNL     1     -33.941   5.500   3.754  1.00 20.00     0.127 C 
HETATM    4  C5  UNL     1     -34.766   4.836   4.828  1.00 20.00     0.091 C 
HETATM    5  O8  UNL     1     -33.527   4.856   2.789  1.00 20.00    -0.298 OA
ENDBRANCH   2   3
BRANCH   2   6
HETATM    6  C4  UNL     1     -32.313   7.327   3.254  1.00 20.00    -0.004 A 
HETATM    7  C2  UNL     1     -32.311   8.102   1.966  1.00 20.00     0.006 A 
HETATM    8  C3  UNL     1     -31.820   8.747   3.232  1.00 20.00     0.006 A 
ENDBRANCH   2   6
TORSDOF 2
ENDMDL
MODEL 6
REMARK VINA RESULT:      -4.7      1.448      2.768
REMARK  2 active torsions:
REMARK  status: ('A' for Active; 'I' for Inactive)
REMARK    1  A    between atoms: C1_1  and  C7_7 
REMARK    2  A    between atoms: C4_4  and  C7_7 
ROOT
HETATM    1  C6  UNL     1     -32.587   8.091   2.591  1.00 20.00     0.018 C 
HETATM    2  C7  UNL     1     -32.955   6.896   3.468  1.00 20.00     0.055 C 
ENDROOT
BRANCH   2   3
HETATM    3  C1  UNL     1     -33.579   5.779   2.637  1.00 20.00     0.127 C 
HETATM    4  C5  UNL     1     -32.856   4.455   2.622  1.00 20.00     0.091 C 
HETATM    5  O8  UNL     1     -34.609   5.941   1.982  1.00 20.00    -0.298 OA
ENDBRANCH   2   3
BRANCH   2   6
HETATM    6  C4  UNL     1     -33.913   7.316   4.577  1.00 20.00    -0.004 A 
HETATM    7  C2  UNL     1     -34.382   6.313   5.593  1.00 20.00     0.006 A 
HETATM    8  C3  UNL     1     -33.432   7.405   5.999  1.00 20.00     0.006 A 
ENDBRANCH   2   6
TORSDOF 2
ENDMDL
MODEL 7
REMARK VINA RESULT:      -4.5      1.735      3.707
REMARK  2 active torsions:
REMARK  status: ('A' for Active; 'I' for Inactive)
REMARK    1  A    between atoms: C1_1  and  C7_7 
REMARK    2  A    between atoms: C4_4  and  C7_7 
ROOT
HETATM    1  C6  UNL     1     -32.948   4.898   2.730  1.00 20.00     0.018 C 
HETATM    2  C7  UNL     1     -33.798   6.152   2.921  1.00 20.00     0.055 C 
ENDROOT
BRANCH   2   3
HETATM    3  C1  UNL     1     -32.923   7.366   3.223  1.00 20.00     0.127 C 
HETATM    4  C5  UNL     1     -32.491   8.204   2.047  1.00 20.00     0.091 C 
HETATM    5  O8  UNL     1     -32.558   7.647   4.365  1.00 20.00    -0.298 OA
ENDBRANCH   2   3
BRANCH   2   6
HETATM    6  C4  UNL     1     -34.812   5.950   4.042  1.00 20.00    -0.004 A 
HETATM    7  C2  UNL     1     -34.858   4.651   4.796  1.00 20.00     0.006 A 
HETATM    8  C3  UNL     1     -34.357   5.896   5.473  1.00 20.00     0.006 A 
ENDBRANCH   2   6
TORSDOF 2
ENDMDL
MODEL 8
REMARK VINA RESULT:      -4.2      2.538      4.148
REMARK  2 active torsions:
REMARK  status: ('A' for Active; 'I' for Inactive)
REMARK    1  A    between atoms: C1_1  and  C7_7 
REMARK    2  A    between atoms: C4_4  and  C7_7 
ROOT
HETATM    1  C6  UNL     1     -31.503   8.497   3.863  1.00 20.00     0.018 C 
HETATM    2  C7  UNL     1     -32.024   7.826   2.594  1.00 20.00     0.055 C 
ENDROOT
BRANCH   2   3
HETATM    3  C1  UNL     1     -31.929   8.769   1.398  1.00 20.00     0.127 C 
HETATM    4  C5  UNL     1     -32.815   9.989   1.420  1.00 20.00     0.091 C 
HETATM    5  O8  UNL     1     -31.187   8.547   0.441  1.00 20.00    -0.298 OA
ENDBRANCH   2   3
BRANCH   2   6
HETATM    6  C4  UNL     1     -33.465   7.365   2.780  1.00 20.00    -0.004 A 
HETATM    7  C2  UNL     1     -33.805   5.902   2.727  1.00 20.00     0.006 A 
HETATM    8  C3  UNL     1     -33.873   6.643   4.034  1.00 20.00     0.006 A 
ENDBRANCH   2   6
TORSDOF 2
ENDMDL
MODEL 9
REMARK VINA RESULT:      -4.2      1.702      2.815
REMARK  2 active torsions:
REMARK  status: ('A' for Active; 'I' for Inactive)
REMARK    1  A    between atoms: C1_1  and  C7_7 
REMARK    2  A    between atoms: C4_4  and  C7_7 
ROOT
HETATM    1  C6  UNL     1     -34.873   4.536   4.572  1.00 20.00     0.018 C 
HETATM    2  C7  UNL     1     -34.366   5.941   4.257  1.00 20.00     0.055 C 
ENDROOT
BRANCH   2   3
HETATM    3  C1  UNL     1     -33.563   5.955   2.960  1.00 20.00     0.127 C 
HETATM    4  C5  UNL     1     -32.967   4.644   2.513  1.00 20.00     0.091 C 
HETATM    5  O8  UNL     1     -33.379   6.984   2.309  1.00 20.00    -0.298 OA
ENDBRANCH   2   3
BRANCH   2   6
HETATM    6  C4  UNL     1     -33.514   6.477   5.402  1.00 20.00    -0.004 A 
HETATM    7  C2  UNL     1     -32.951   7.869   5.341  1.00 20.00     0.006 A 
HETATM    8  C3  UNL     1     -34.053   7.546   6.311  1.00 20.00     0.006 A 
ENDBRANCH   2   6
TORSDOF 2
ENDMDL
