MODEL 1
REMARK VINA RESULT:      -5.9      0.000      0.000
REMARK  3 active torsions:
REMARK  status: ('A' for Active; 'I' for Inactive)
REMARK    1  A    between atoms: C1_1  and  C3_3 
REMARK    2  A    between atoms: C2_2  and  C7_7 
REMARK    3  A    between atoms: C7_7  and  C8_8 
ROOT
HETATM    1  C1  UNL     1     -32.654   7.868   2.066  1.00 20.00    -0.029 C 
HETATM    2  C2  UNL     1     -33.087   6.951   2.708  1.00 20.00    -0.098 C 
ENDROOT
BRANCH   2   3
HETATM    3  C7  UNL     1     -33.617   5.827   3.495  1.00 20.00     0.098 C 
BRANCH   3   4
HETATM    4  C8  UNL     1     -34.353   6.261   4.774  1.00 20.00    -0.012 C 
HETATM    5  C5  UNL     1     -34.698   5.074   5.678  1.00 20.00     0.010 C 
HETATM    6  C6  UNL     1     -33.582   7.327   5.556  1.00 20.00     0.010 C 
ENDBRANCH   3   4
ENDBRANCH   2   3
BRANCH   1   7
HETATM    7  C3  UNL     1     -32.132   8.965   1.286  1.00 20.00     0.198 C 
HETATM    8  C4  UNL     1     -32.924  10.238   1.319  1.00 20.00     0.106 C 
HETATM    9  O9  UNL     1     -31.098   8.820   0.648  1.00 20.00    -0.284 OA
ENDBRANCH   1   7
TORSDOF 3
ENDMDL
MODEL 2
REMARK VINA RESULT:      -5.9      2.142      4.891
REMARK  3 active torsions:
REMARK  status: ('A' for Active; 'I' for Inactive)
REMARK    1  A    between atoms: C1_1  and  C3_3 
REMARK    2  A    between atoms: C2_2  and  C7_7 
REMARK    3  A    between atoms: C7_7  and  C8_8 
ROOT
HETATM    1  C1  UNL     1     -33.098   7.423   3.171  1.00 20.00    -0.029 C 
HETATM    2  C2  UNL     1     -32.397   7.934   2.342  1.00 20.00    -0.098 C 
ENDROOT
BRANCH   2   3
HETATM    3  C7  UNL     1     -31.537   8.560   1.325  1.00 20.00     0.098 C 
BRANCH   3   4
HETATM    4  C8  UNL     1     -32.202   9.740   0.596  1.00 20.00    -0.012 C 
HETATM    5  C5  UNL     1     -33.199   9.278  -0.470  1.00 20.00     0.010 C 
HETATM    6  C6  UNL     1     -32.865  10.724   1.563  1.00 20.00     0.010 C 
ENDBRANCH   3   4
ENDBRANCH   2   3
BRANCH   1   7
HETATM    7  C3  UNL     1     -33.945   6.816   4.170  1.00 20.00     0.198 C 
HETATM    8  C4  UNL     1     -33.724   7.258   5.585  1.00 20.00     0.106 C 
HETATM    9  O9  UNL     1     -34.784   5.990   3.835  1.00 20.00    -0.284 OA
ENDBRANCH   1   7
TORSDOF 3
ENDMDL
MODEL 3
REMARK VINA RESULT:      -5.7      2.350      5.171
REMARK  3 active torsions:
REMARK  status: ('A' for Active; 'I' for Inactive)
REMARK    1  A    between atoms: C1_1  and  C3_3 
REMARK    2  A    between atoms: C2_2  and  C7_7 
REMARK    3  A    between atoms: C7_7  and  C8_8 
ROOT
HETATM    1  C1  UNL     1     -33.326   7.232   3.865  1.00 20.00    -0.029 C 
HETATM    2  C2  UNL     1     -32.761   7.732   2.931  1.00 20.00    -0.098 C 
ENDROOT
BRANCH   2   3
HETATM    3  C7  UNL     1     -32.069   8.345   1.787  1.00 20.00     0.098 C 
BRANCH   3   4
HETATM    4  C8  UNL     1     -32.907   9.406   1.053  1.00 20.00    -0.012 C 
HETATM    5  C5  UNL     1     -32.475  10.832   1.401  1.00 20.00     0.010 C 
HETATM    6  C6  UNL     1     -32.909   9.198  -0.463  1.00 20.00     0.010 C 
ENDBRANCH   3   4
ENDBRANCH   2   3
BRANCH   1   7
HETATM    7  C3  UNL     1     -34.014   6.634   4.984  1.00 20.00     0.198 C 
HETATM    8  C4  UNL     1     -34.765   5.368   4.701  1.00 20.00     0.106 C 
HETATM    9  O9  UNL     1     -33.961   7.165   6.086  1.00 20.00    -0.284 OA
ENDBRANCH   1   7
TORSDOF 3
ENDMDL
MODEL 4
REMARK VINA RESULT:      -5.7      0.780      1.588
REMARK  3 active torsions:
REMARK  status: ('A' for Active; 'I' for Inactive)
REMARK    1  A    between atoms: C1_1  and  C3_3 
REMARK    2  A    between atoms: C2_2  and  C7_7 
REMARK    3  A    between atoms: C7_7  and  C8_8 
ROOT
HETATM    1  C1  UNL     1     -32.589   8.310   2.275  1.00 20.00    -0.029 C 
HETATM    2  C2  UNL     1     -33.058   7.674   3.179  1.00 20.00    -0.098 C 
ENDROOT
BRANCH   2   3
HETATM    3  C7  UNL     1     -33.632   6.895   4.287  1.00 20.00     0.098 C 
BRANCH   3   4
HETATM    4  C8  UNL     1     -34.242   5.553   3.848  1.00 20.00    -0.012 C 
HETATM    5  C5  UNL     1     -33.338   4.794   2.873  1.00 20.00     0.010 C 
HETATM    6  C6  UNL     1     -34.615   4.666   5.038  1.00 20.00     0.010 C 
ENDBRANCH   3   4
ENDBRANCH   2   3
BRANCH   1   7
HETATM    7  C3  UNL     1     -32.025   9.067   1.184  1.00 20.00     0.198 C 
HETATM    8  C4  UNL     1     -32.653  10.399   0.904  1.00 20.00     0.106 C 
HETATM    9  O9  UNL     1     -31.085   8.608   0.547  1.00 20.00    -0.284 OA
ENDBRANCH   1   7
TORSDOF 3
ENDMDL
MODEL 5
REMARK VINA RESULT:      -5.4      1.429      1.661
REMARK  3 active torsions:
REMARK  status: ('A' for Active; 'I' for Inactive)
REMARK    1  A    between atoms: C1_1  and  C3_3 
REMARK    2  A    between atoms: C2_2  and  C7_7 
REMARK    3  A    between atoms: C7_7  and  C8_8 
ROOT
HETATM    1  C1  UNL     1     -33.038   7.471   2.893  1.00 20.00    -0.029 C 
HETATM    2  C2  UNL     1     -33.992   6.806   3.187  1.00 20.00    -0.098 C 
ENDROOT
BRANCH   2   3
HETATM    3  C7  UNL     1     -35.163   5.990   3.548  1.00 20.00     0.098 C 
BRANCH   3   4
HETATM    4  C8  UNL     1     -34.946   5.116   4.795  1.00 20.00    -0.012 C 
HETATM    5  C5  UNL     1     -34.050   3.908   4.510  1.00 20.00     0.010 C 
HETATM    6  C6  UNL     1     -34.408   5.918   5.982  1.00 20.00     0.010 C 
ENDBRANCH   3   4
ENDBRANCH   2   3
BRANCH   1   7
HETATM    7  C3  UNL     1     -31.887   8.272   2.548  1.00 20.00     0.198 C 
HETATM    8  C4  UNL     1     -31.880   8.864   1.171  1.00 20.00     0.106 C 
HETATM    9  O9  UNL     1     -30.990   8.432   3.366  1.00 20.00    -0.284 OA
ENDBRANCH   1   7
TORSDOF 3
ENDMDL
MODEL 6
REMARK VINA RESULT:      -4.7      2.640      4.956
REMARK  3 active torsions:
REMARK  status: ('A' for Active; 'I' for Inactive)
REMARK    1  A    between atoms: C1_1  and  C3_3 
REMARK    2  A    between atoms: C2_2  and  C7_7 
REMARK    3  A    between atoms: C7_7  and  C8_8 
ROOT
HETATM    1  C1  UNL     1     -33.911   5.665   3.517  1.00 20.00    -0.029 C 
HETATM    2  C2  UNL     1     -33.529   6.400   2.649  1.00 20.00    -0.098 C 
ENDROOT
BRANCH   2   3
HETATM    3  C7  UNL     1     -33.061   7.302   1.584  1.00 20.00     0.098 C 
BRANCH   3   4
HETATM    4  C8  UNL     1     -32.510   8.640   2.106  1.00 20.00    -0.012 C 
HETATM    5  C5  UNL     1     -31.410   8.448   3.153  1.00 20.00     0.010 C 
HETATM    6  C6  UNL     1     -32.023   9.549   0.975  1.00 20.00     0.010 C 
ENDBRANCH   3   4
ENDBRANCH   2   3
BRANCH   1   7
HETATM    7  C3  UNL     1     -34.363   4.782   4.566  1.00 20.00     0.198 C 
HETATM    8  C4  UNL     1     -34.674   5.424   5.884  1.00 20.00     0.106 C 
HETATM    9  O9  UNL     1     -34.470   3.583   4.347  1.00 20.00    -0.284 OA
ENDBRANCH   1   7
TORSDOF 3
ENDMDL
MODEL 7
REMARK VINA RESULT:      -4.2     10.756     11.165
REMARK  3 active torsions:
REMARK  status: ('A' for Active; 'I' for Inactive)
REMARK    1  A    between atoms: C1_1  and  C3_3 
REMARK    2  A    between atoms: C2_2  and  C7_7 
REMARK    3  A    between atoms: C7_7  and  C8_8 
ROOT
HETATM    1  C1  UNL     1     -35.239  14.834  -4.242  1.00 20.00    -0.029 C 
HETATM    2  C2  UNL     1     -34.548  15.629  -3.667  1.00 20.00    -0.098 C 
ENDROOT
BRANCH   2   3
HETATM    3  C7  UNL     1     -33.700  16.604  -2.963  1.00 20.00     0.098 C 
BRANCH   3   4
HETATM    4  C8  UNL     1     -34.197  16.947  -1.548  1.00 20.00    -0.012 C 
HETATM    5  C5  UNL     1     -33.415  18.104  -0.921  1.00 20.00     0.010 C 
HETATM    6  C6  UNL     1     -35.700  17.231  -1.512  1.00 20.00     0.010 C 
ENDBRANCH   3   4
ENDBRANCH   2   3
BRANCH   1   7
HETATM    7  C3  UNL     1     -36.076  13.878  -4.926  1.00 20.00     0.198 C 
HETATM    8  C4  UNL     1     -37.468  14.328  -5.251  1.00 20.00     0.106 C 
HETATM    9  O9  UNL     1     -35.633  12.771  -5.205  1.00 20.00    -0.284 OA
ENDBRANCH   1   7
TORSDOF 3
ENDMDL
MODEL 8
REMARK VINA RESULT:      -4.1     10.734     11.120
REMARK  3 active torsions:
REMARK  status: ('A' for Active; 'I' for Inactive)
REMARK    1  A    between atoms: C1_1  and  C3_3 
REMARK    2  A    between atoms: C2_2  and  C7_7 
REMARK    3  A    between atoms: C7_7  and  C8_8 
ROOT
HETATM    1  C1  UNL     1     -34.738  14.649  -4.500  1.00 20.00    -0.029 C 
HETATM    2  C2  UNL     1     -34.383  15.464  -3.694  1.00 20.00    -0.098 C 
ENDROOT
BRANCH   2   3
HETATM    3  C7  UNL     1     -33.948  16.463  -2.706  1.00 20.00     0.098 C 
BRANCH   3   4
HETATM    4  C8  UNL     1     -35.015  16.792  -1.648  1.00 20.00    -0.012 C 
HETATM    5  C5  UNL     1     -34.467  17.673  -0.523  1.00 20.00     0.010 C 
HETATM    6  C6  UNL     1     -36.269  17.419  -2.262  1.00 20.00     0.010 C 
ENDBRANCH   3   4
ENDBRANCH   2   3
BRANCH   1   7
HETATM    7  C3  UNL     1     -35.168  13.675  -5.475  1.00 20.00     0.198 C 
HETATM    8  C4  UNL     1     -34.621  13.836  -6.861  1.00 20.00     0.106 C 
HETATM    9  O9  UNL     1     -35.939  12.783  -5.145  1.00 20.00    -0.284 OA
ENDBRANCH   1   7
TORSDOF 3
ENDMDL
MODEL 9
REMARK VINA RESULT:      -4.1     10.389     11.523
REMARK  3 active torsions:
REMARK  status: ('A' for Active; 'I' for Inactive)
REMARK    1  A    between atoms: C1_1  and  C3_3 
REMARK    2  A    between atoms: C2_2  and  C7_7 
REMARK    3  A    between atoms: C7_7  and  C8_8 
ROOT
HETATM    1  C1  UNL     1     -33.040  17.754  -1.427  1.00 20.00    -0.029 C 
HETATM    2  C2  UNL     1     -33.666  17.187  -2.280  1.00 20.00    -0.098 C 
ENDROOT
BRANCH   2   3
HETATM    3  C7  UNL     1     -34.433  16.491  -3.325  1.00 20.00     0.098 C 
BRANCH   3   4
HETATM    4  C8  UNL     1     -33.661  15.343  -3.998  1.00 20.00    -0.012 C 
HETATM    5  C5  UNL     1     -34.522  14.090  -4.177  1.00 20.00     0.010 C 
HETATM    6  C6  UNL     1     -33.038  15.764  -5.330  1.00 20.00     0.010 C 
ENDBRANCH   3   4
ENDBRANCH   2   3
BRANCH   1   7
HETATM    7  C3  UNL     1     -32.280  18.433  -0.406  1.00 20.00     0.198 C 
HETATM    8  C4  UNL     1     -33.065  19.263   0.565  1.00 20.00     0.106 C 
HETATM    9  O9  UNL     1     -31.062  18.311  -0.371  1.00 20.00    -0.284 OA
ENDBRANCH   1   7
TORSDOF 3
ENDMDL
