MODEL 1
REMARK VINA RESULT:      -5.3      0.000      0.000
REMARK  1 active torsions:
REMARK  status: ('A' for Active; 'I' for Inactive)
REMARK    1  A    between atoms: C3_3  and  C7_7 
ROOT
HETATM    1  C1  UNL     1     -33.304   7.179   5.180  1.00 20.00    -0.007 C 
HETATM    2  C2  UNL     1     -34.053   6.137   4.793  1.00 20.00     0.008 C 
HETATM    3  C4  UNL     1     -32.676   8.136   4.210  1.00 20.00     0.042 C 
HETATM    4  C5  UNL     1     -34.318   5.793   3.357  1.00 20.00     0.051 C 
HETATM    5  C6  UNL     1     -33.381   6.526   2.392  1.00 20.00     0.019 C 
HETATM    6  C7  UNL     1     -33.222   7.997   2.782  1.00 20.00     0.076 C 
HETATM    7 CL9  UNL     1     -34.766   5.083   5.963  1.00 20.00    -0.089 Cl
ENDROOT
BRANCH   6   8
HETATM    8  C3  UNL     1     -32.311   8.694   1.815  1.00 20.00     0.223 C 
HETATM    9  O8  UNL     1     -31.239   8.204   1.470  1.00 20.00    -0.279 OA
HETATM   10 CL10 UNL     1     -32.961  10.216   1.286  1.00 20.00    -0.043 Cl
ENDBRANCH   6   8
TORSDOF 1
ENDMDL
MODEL 2
REMARK VINA RESULT:      -5.1      0.552      1.631
REMARK  1 active torsions:
REMARK  status: ('A' for Active; 'I' for Inactive)
REMARK    1  A    between atoms: C3_3  and  C7_7 
ROOT
HETATM    1  C1  UNL     1     -33.796   5.527   3.208  1.00 20.00    -0.007 C 
HETATM    2  C2  UNL     1     -34.007   5.945   4.464  1.00 20.00     0.008 C 
HETATM    3  C4  UNL     1     -33.121   6.375   2.170  1.00 20.00     0.042 C 
HETATM    4  C5  UNL     1     -33.624   7.308   4.961  1.00 20.00     0.051 C 
HETATM    5  C6  UNL     1     -33.296   8.280   3.823  1.00 20.00     0.019 C 
HETATM    6  C7  UNL     1     -32.427   7.613   2.756  1.00 20.00     0.076 C 
HETATM    7 CL9  UNL     1     -34.772   4.911   5.618  1.00 20.00    -0.089 Cl
ENDROOT
BRANCH   6   8
HETATM    8  C3  UNL     1     -32.109   8.588   1.661  1.00 20.00     0.223 C 
HETATM    9  O8  UNL     1     -31.199   8.386   0.861  1.00 20.00    -0.279 OA
HETATM   10 CL10 UNL     1     -33.159   9.972   1.692  1.00 20.00    -0.043 Cl
ENDBRANCH   6   8
TORSDOF 1
ENDMDL
MODEL 3
REMARK VINA RESULT:      -5.0      2.243      4.654
REMARK  1 active torsions:
REMARK  status: ('A' for Active; 'I' for Inactive)
REMARK    1  A    between atoms: C3_3  and  C7_7 
ROOT
HETATM    1  C1  UNL     1     -32.935   6.861   1.804  1.00 20.00    -0.007 C 
HETATM    2  C2  UNL     1     -32.230   7.971   2.065  1.00 20.00     0.008 C 
HETATM    3  C4  UNL     1     -33.731   6.137   2.851  1.00 20.00     0.042 C 
HETATM    4  C5  UNL     1     -32.130   8.589   3.429  1.00 20.00     0.051 C 
HETATM    5  C6  UNL     1     -32.615   7.651   4.539  1.00 20.00     0.019 C 
HETATM    6  C7  UNL     1     -33.913   6.945   4.142  1.00 20.00     0.076 C 
HETATM    7 CL9  UNL     1     -31.351   8.770   0.810  1.00 20.00    -0.089 Cl
ENDROOT
BRANCH   6   8
HETATM    8  C3  UNL     1     -34.373   6.045   5.251  1.00 20.00     0.223 C 
HETATM    9  O8  UNL     1     -34.571   6.469   6.386  1.00 20.00    -0.279 OA
HETATM   10 CL10 UNL     1     -34.572   4.403   4.719  1.00 20.00    -0.043 Cl
ENDBRANCH   6   8
TORSDOF 1
ENDMDL
MODEL 4
REMARK VINA RESULT:      -4.6      2.129      4.383
REMARK  1 active torsions:
REMARK  status: ('A' for Active; 'I' for Inactive)
REMARK    1  A    between atoms: C3_3  and  C7_7 
ROOT
HETATM    1  C1  UNL     1     -31.788   8.574   3.302  1.00 20.00    -0.007 C 
HETATM    2  C2  UNL     1     -32.128   8.101   2.095  1.00 20.00     0.008 C 
HETATM    3  C4  UNL     1     -32.385   8.057   4.578  1.00 20.00     0.042 C 
HETATM    4  C5  UNL     1     -33.161   7.033   1.883  1.00 20.00     0.051 C 
HETATM    5  C6  UNL     1     -34.022   6.791   3.127  1.00 20.00     0.019 C 
HETATM    6  C7  UNL     1     -33.168   6.750   4.395  1.00 20.00     0.076 C 
HETATM    7 CL9  UNL     1     -31.387   8.726   0.664  1.00 20.00    -0.089 Cl
ENDROOT
BRANCH   6   8
HETATM    8  C3  UNL     1     -34.033   6.497   5.595  1.00 20.00     0.223 C 
HETATM    9  O8  UNL     1     -34.204   7.354   6.458  1.00 20.00    -0.279 OA
HETATM   10 CL10 UNL     1     -34.717   4.900   5.584  1.00 20.00    -0.043 Cl
ENDBRANCH   6   8
TORSDOF 1
ENDMDL
MODEL 5
REMARK VINA RESULT:      -4.3     11.006     11.467
REMARK  1 active torsions:
REMARK  status: ('A' for Active; 'I' for Inactive)
REMARK    1  A    between atoms: C3_3  and  C7_7 
ROOT
HETATM    1  C1  UNL     1     -35.658  16.092  -3.167  1.00 20.00    -0.007 C 
HETATM    2  C2  UNL     1     -34.338  16.213  -2.963  1.00 20.00     0.008 C 
HETATM    3  C4  UNL     1     -36.242  15.153  -4.180  1.00 20.00     0.042 C 
HETATM    4  C5  UNL     1     -33.305  15.454  -3.742  1.00 20.00     0.051 C 
HETATM    5  C6  UNL     1     -33.878  14.804  -5.005  1.00 20.00     0.019 C 
HETATM    6  C7  UNL     1     -35.227  14.139  -4.724  1.00 20.00     0.076 C 
HETATM    7 CL9  UNL     1     -33.729  17.299  -1.764  1.00 20.00    -0.089 Cl
ENDROOT
BRANCH   6   8
HETATM    8  C3  UNL     1     -35.759  13.498  -5.973  1.00 20.00     0.223 C 
HETATM    9  O8  UNL     1     -35.294  12.449  -6.408  1.00 20.00    -0.279 OA
HETATM   10 CL10 UNL     1     -37.059  14.413  -6.673  1.00 20.00    -0.043 Cl
ENDBRANCH   6   8
TORSDOF 1
ENDMDL
MODEL 6
REMARK VINA RESULT:      -4.3     11.006     11.481
REMARK  1 active torsions:
REMARK  status: ('A' for Active; 'I' for Inactive)
REMARK    1  A    between atoms: C3_3  and  C7_7 
ROOT
HETATM    1  C1  UNL     1     -33.649  15.682  -3.404  1.00 20.00    -0.007 C 
HETATM    2  C2  UNL     1     -34.818  16.124  -2.919  1.00 20.00     0.008 C 
HETATM    3  C4  UNL     1     -33.546  14.853  -4.652  1.00 20.00     0.042 C 
HETATM    4  C5  UNL     1     -36.146  15.815  -3.544  1.00 20.00     0.051 C 
HETATM    5  C6  UNL     1     -36.066  14.678  -4.567  1.00 20.00     0.019 C 
HETATM    6  C7  UNL     1     -34.843  14.829  -5.472  1.00 20.00     0.076 C 
HETATM    7 CL9  UNL     1     -34.866  17.092  -1.489  1.00 20.00    -0.089 Cl
ENDROOT
BRANCH   6   8
HETATM    8  C3  UNL     1     -34.796  13.712  -6.473  1.00 20.00     0.223 C 
HETATM    9  O8  UNL     1     -35.315  12.623  -6.248  1.00 20.00    -0.279 OA
HETATM   10 CL10 UNL     1     -33.943  14.163  -7.917  1.00 20.00    -0.043 Cl
ENDBRANCH   6   8
TORSDOF 1
ENDMDL
MODEL 7
REMARK VINA RESULT:      -4.3     10.945     11.871
REMARK  1 active torsions:
REMARK  status: ('A' for Active; 'I' for Inactive)
REMARK    1  A    between atoms: C3_3  and  C7_7 
ROOT
HETATM    1  C1  UNL     1     -33.501  15.738  -6.098  1.00 20.00    -0.007 C 
HETATM    2  C2  UNL     1     -34.172  14.581  -6.016  1.00 20.00     0.008 C 
HETATM    3  C4  UNL     1     -33.299  16.649  -4.923  1.00 20.00     0.042 C 
HETATM    4  C5  UNL     1     -34.822  14.087  -4.757  1.00 20.00     0.051 C 
HETATM    5  C6  UNL     1     -34.941  15.177  -3.687  1.00 20.00     0.019 C 
HETATM    6  C7  UNL     1     -33.652  15.993  -3.580  1.00 20.00     0.076 C 
HETATM    7 CL9  UNL     1     -34.351  13.567  -7.403  1.00 20.00    -0.089 Cl
ENDROOT
BRANCH   6   8
HETATM    8  C3  UNL     1     -33.790  17.044  -2.518  1.00 20.00     0.223 C 
HETATM    9  O8  UNL     1     -33.000  17.979  -2.430  1.00 20.00    -0.279 OA
HETATM   10 CL10 UNL     1     -35.157  16.754  -1.485  1.00 20.00    -0.043 Cl
ENDBRANCH   6   8
TORSDOF 1
ENDMDL
MODEL 8
REMARK VINA RESULT:      -4.3     11.091     11.508
REMARK  1 active torsions:
REMARK  status: ('A' for Active; 'I' for Inactive)
REMARK    1  A    between atoms: C3_3  and  C7_7 
ROOT
HETATM    1  C1  UNL     1     -35.383  17.365  -0.437  1.00 20.00    -0.007 C 
HETATM    2  C2  UNL     1     -34.426  18.122   0.119  1.00 20.00     0.008 C 
HETATM    3  C4  UNL     1     -35.222  16.700  -1.772  1.00 20.00     0.042 C 
HETATM    4  C5  UNL     1     -33.111  18.414  -0.542  1.00 20.00     0.051 C 
HETATM    5  C6  UNL     1     -33.108  18.060  -2.032  1.00 20.00     0.019 C 
HETATM    6  C7  UNL     1     -33.775  16.707  -2.283  1.00 20.00     0.076 C 
HETATM    7 CL9  UNL     1     -34.665  18.844   1.670  1.00 20.00    -0.089 Cl
ENDROOT
BRANCH   6   8
HETATM    8  C3  UNL     1     -33.747  16.378  -3.747  1.00 20.00     0.223 C 
HETATM    9  O8  UNL     1     -33.387  17.199  -4.586  1.00 20.00    -0.279 OA
HETATM   10 CL10 UNL     1     -34.271  14.752  -4.062  1.00 20.00    -0.043 Cl
ENDBRANCH   6   8
TORSDOF 1
ENDMDL
MODEL 9
REMARK VINA RESULT:      -4.2     11.336     11.580
REMARK  1 active torsions:
REMARK  status: ('A' for Active; 'I' for Inactive)
REMARK    1  A    between atoms: C3_3  and  C7_7 
ROOT
HETATM    1  C1  UNL     1     -31.871  18.662   2.289  1.00 20.00    -0.007 C 
HETATM    2  C2  UNL     1     -33.042  18.598   2.939  1.00 20.00     0.008 C 
HETATM    3  C4  UNL     1     -31.771  18.673   0.792  1.00 20.00     0.042 C 
HETATM    4  C5  UNL     1     -34.370  18.498   2.249  1.00 20.00     0.051 C 
HETATM    5  C6  UNL     1     -34.239  18.128   0.768  1.00 20.00     0.019 C 
HETATM    6  C7  UNL     1     -33.116  18.919   0.095  1.00 20.00     0.076 C 
HETATM    7 CL9  UNL     1     -33.091  18.611   4.667  1.00 20.00    -0.089 Cl
ENDROOT
BRANCH   6   8
HETATM    8  C3  UNL     1     -33.018  18.549  -1.356  1.00 20.00     0.223 C 
HETATM    9  O8  UNL     1     -32.430  19.261  -2.164  1.00 20.00    -0.279 OA
HETATM   10 CL10 UNL     1     -33.817  17.046  -1.702  1.00 20.00    -0.043 Cl
ENDBRANCH   6   8
TORSDOF 1
ENDMDL
