MODEL 1
REMARK VINA RESULT:      -5.1      0.000      0.000
REMARK  2 active torsions:
REMARK  status: ('A' for Active; 'I' for Inactive)
REMARK    1  A    between atoms: C4_4  and  C6_6 
REMARK    2  A    between atoms: C7_7  and  O10_10 
ROOT
HETATM    1  C1  UNL     1     -32.022   8.724   1.401  1.00 20.00     0.218 C 
HETATM    2  C4  UNL     1     -32.768   8.593   2.459  1.00 20.00     0.043 C 
HETATM    3  O9  UNL     1     -31.347   8.842   0.444  1.00 20.00    -0.284 OA
ENDROOT
BRANCH   2   4
HETATM    4  C6  UNL     1     -32.696   7.450   3.420  1.00 20.00     0.064 C 
HETATM    5  C3  UNL     1     -32.499   6.141   2.717  1.00 20.00    -0.020 C 
HETATM    6  C2  UNL     1     -33.591   5.370   2.763  1.00 20.00    -0.027 C 
HETATM    7  C5  UNL     1     -34.711   6.033   3.493  1.00 20.00     0.059 C 
HETATM    8  C7  UNL     1     -34.020   7.218   4.175  1.00 20.00     0.135 C 
BRANCH   8   9
HETATM    9  O10 UNL     1     -33.738   6.864   5.530  1.00 20.00    -0.389 OA
HETATM   10  C8  UNL     1     -34.564   5.797   5.966  1.00 20.00     0.202 C 
ENDBRANCH   8   9
ENDBRANCH   2   4
TORSDOF 2
ENDMDL
MODEL 2
REMARK VINA RESULT:      -4.5      1.222      4.204
REMARK  2 active torsions:
REMARK  status: ('A' for Active; 'I' for Inactive)
REMARK    1  A    between atoms: C4_4  and  C6_6 
REMARK    2  A    between atoms: C7_7  and  O10_10 
ROOT
HETATM    1  C1  UNL     1     -34.402   5.792   5.922  1.00 20.00     0.218 C 
HETATM    2  C4  UNL     1     -34.004   6.934   5.443  1.00 20.00     0.043 C 
HETATM    3  O9  UNL     1     -34.762   4.759   6.356  1.00 20.00    -0.284 OA
ENDROOT
BRANCH   2   4
HETATM    4  C6  UNL     1     -34.096   7.337   4.006  1.00 20.00     0.064 C 
HETATM    5  C3  UNL     1     -34.709   6.259   3.163  1.00 20.00    -0.020 C 
HETATM    6  C2  UNL     1     -33.818   5.677   2.354  1.00 20.00    -0.027 C 
HETATM    7  C5  UNL     1     -32.451   6.253   2.523  1.00 20.00     0.059 C 
HETATM    8  C7  UNL     1     -32.714   7.518   3.346  1.00 20.00     0.135 C 
BRANCH   8   9
HETATM    9  O10 UNL     1     -32.756   8.638   2.460  1.00 20.00    -0.389 OA
HETATM   10  C8  UNL     1     -31.741   8.552   1.473  1.00 20.00     0.202 C 
ENDBRANCH   8   9
ENDBRANCH   2   4
TORSDOF 2
ENDMDL
MODEL 3
REMARK VINA RESULT:      -4.4     10.706     11.827
REMARK  2 active torsions:
REMARK  status: ('A' for Active; 'I' for Inactive)
REMARK    1  A    between atoms: C4_4  and  C6_6 
REMARK    2  A    between atoms: C7_7  and  O10_10 
ROOT
HETATM    1  C1  UNL     1     -35.246  13.622  -4.667  1.00 20.00     0.218 C 
HETATM    2  C4  UNL     1     -34.430  14.446  -4.078  1.00 20.00     0.043 C 
HETATM    3  O9  UNL     1     -35.983  12.876  -5.201  1.00 20.00    -0.284 OA
ENDROOT
BRANCH   2   4
HETATM    4  C6  UNL     1     -34.641  15.922  -3.965  1.00 20.00     0.064 C 
HETATM    5  C3  UNL     1     -33.557  16.581  -3.163  1.00 20.00    -0.020 C 
HETATM    6  C2  UNL     1     -33.991  17.000  -1.971  1.00 20.00    -0.027 C 
HETATM    7  C5  UNL     1     -35.435  16.686  -1.759  1.00 20.00     0.059 C 
HETATM    8  C7  UNL     1     -35.906  16.286  -3.161  1.00 20.00     0.135 C 
BRANCH   8   9
HETATM    9  O10 UNL     1     -36.543  17.413  -3.766  1.00 20.00    -0.389 OA
HETATM   10  C8  UNL     1     -36.719  17.218  -5.160  1.00 20.00     0.202 C 
ENDBRANCH   8   9
ENDBRANCH   2   4
TORSDOF 2
ENDMDL
MODEL 4
REMARK VINA RESULT:      -4.2      1.966      3.550
REMARK  2 active torsions:
REMARK  status: ('A' for Active; 'I' for Inactive)
REMARK    1  A    between atoms: C4_4  and  C6_6 
REMARK    2  A    between atoms: C7_7  and  O10_10 
ROOT
HETATM    1  C1  UNL     1     -33.851   4.558   3.487  1.00 20.00     0.218 C 
HETATM    2  C4  UNL     1     -33.503   5.584   2.766  1.00 20.00     0.043 C 
HETATM    3  O9  UNL     1     -34.165   3.631   4.138  1.00 20.00    -0.284 OA
ENDROOT
BRANCH   2   4
HETATM    4  C6  UNL     1     -33.543   7.006   3.227  1.00 20.00     0.064 C 
HETATM    5  C3  UNL     1     -33.286   7.964   2.102  1.00 20.00    -0.020 C 
HETATM    6  C2  UNL     1     -32.094   8.560   2.205  1.00 20.00    -0.027 C 
HETATM    7  C5  UNL     1     -31.339   8.096   3.407  1.00 20.00     0.059 C 
HETATM    8  C7  UNL     1     -32.407   7.348   4.212  1.00 20.00     0.135 C 
BRANCH   8   9
HETATM    9  O10 UNL     1     -32.907   8.220   5.227  1.00 20.00    -0.389 OA
HETATM   10  C8  UNL     1     -33.771   7.532   6.117  1.00 20.00     0.202 C 
ENDBRANCH   8   9
ENDBRANCH   2   4
TORSDOF 2
ENDMDL
MODEL 5
REMARK VINA RESULT:      -4.1     10.976     11.839
REMARK  2 active torsions:
REMARK  status: ('A' for Active; 'I' for Inactive)
REMARK    1  A    between atoms: C4_4  and  C6_6 
REMARK    2  A    between atoms: C7_7  and  O10_10 
ROOT
HETATM    1  C1  UNL     1     -33.175  17.568  -1.985  1.00 20.00     0.218 C 
HETATM    2  C4  UNL     1     -34.044  16.697  -2.406  1.00 20.00     0.043 C 
HETATM    3  O9  UNL     1     -32.389  18.357  -1.604  1.00 20.00    -0.284 OA
ENDROOT
BRANCH   2   4
HETATM    4  C6  UNL     1     -33.831  15.763  -3.555  1.00 20.00     0.064 C 
HETATM    5  C3  UNL     1     -33.309  16.478  -4.766  1.00 20.00    -0.020 C 
HETATM    6  C2  UNL     1     -34.222  16.562  -5.739  1.00 20.00    -0.027 C 
HETATM    7  C5  UNL     1     -35.516  15.931  -5.348  1.00 20.00     0.059 C 
HETATM    8  C7  UNL     1     -35.146  15.152  -4.081  1.00 20.00     0.135 C 
BRANCH   8   9
HETATM    9  O10 UNL     1     -34.925  13.785  -4.435  1.00 20.00    -0.389 OA
HETATM   10  C8  UNL     1     -35.931  13.312  -5.314  1.00 20.00     0.202 C 
ENDBRANCH   8   9
ENDBRANCH   2   4
TORSDOF 2
ENDMDL
MODEL 6
REMARK VINA RESULT:      -4.1     10.911     12.122
REMARK  2 active torsions:
REMARK  status: ('A' for Active; 'I' for Inactive)
REMARK    1  A    between atoms: C4_4  and  C6_6 
REMARK    2  A    between atoms: C7_7  and  O10_10 
ROOT
HETATM    1  C1  UNL     1     -33.228  17.613  -1.784  1.00 20.00     0.218 C 
HETATM    2  C4  UNL     1     -34.220  16.859  -2.158  1.00 20.00     0.043 C 
HETATM    3  O9  UNL     1     -32.332  18.296  -1.446  1.00 20.00    -0.284 OA
ENDROOT
BRANCH   2   4
HETATM    4  C6  UNL     1     -34.532  16.497  -3.575  1.00 20.00     0.064 C 
HETATM    5  C3  UNL     1     -35.332  15.232  -3.664  1.00 20.00    -0.020 C 
HETATM    6  C2  UNL     1     -34.619  14.214  -4.158  1.00 20.00    -0.027 C 
HETATM    7  C5  UNL     1     -33.217  14.616  -4.474  1.00 20.00     0.059 C 
HETATM    8  C7  UNL     1     -33.274  16.145  -4.393  1.00 20.00     0.135 C 
BRANCH   8   9
HETATM    9  O10 UNL     1     -33.408  16.666  -5.717  1.00 20.00    -0.389 OA
HETATM   10  C8  UNL     1     -33.959  17.973  -5.701  1.00 20.00     0.202 C 
ENDBRANCH   8   9
ENDBRANCH   2   4
TORSDOF 2
ENDMDL
MODEL 7
REMARK VINA RESULT:      -4.1     11.030     11.840
REMARK  2 active torsions:
REMARK  status: ('A' for Active; 'I' for Inactive)
REMARK    1  A    between atoms: C4_4  and  C6_6 
REMARK    2  A    between atoms: C7_7  and  O10_10 
ROOT
HETATM    1  C1  UNL     1     -36.115  13.725  -5.130  1.00 20.00     0.218 C 
HETATM    2  C4  UNL     1     -36.408  14.971  -4.898  1.00 20.00     0.043 C 
HETATM    3  O9  UNL     1     -35.850  12.598  -5.340  1.00 20.00    -0.284 OA
ENDROOT
BRANCH   2   4
HETATM    4  C6  UNL     1     -35.422  16.020  -4.492  1.00 20.00     0.064 C 
HETATM    5  C3  UNL     1     -34.716  16.610  -5.676  1.00 20.00    -0.020 C 
HETATM    6  C2  UNL     1     -33.434  16.237  -5.741  1.00 20.00    -0.027 C 
HETATM    7  C5  UNL     1     -33.061  15.323  -4.621  1.00 20.00     0.059 C 
HETATM    8  C7  UNL     1     -34.251  15.452  -3.665  1.00 20.00     0.135 C 
BRANCH   8   9
HETATM    9  O10 UNL     1     -33.908  16.378  -2.632  1.00 20.00    -0.389 OA
HETATM   10  C8  UNL     1     -35.045  16.740  -1.866  1.00 20.00     0.202 C 
ENDBRANCH   8   9
ENDBRANCH   2   4
TORSDOF 2
ENDMDL
MODEL 8
REMARK VINA RESULT:      -3.9     11.016     12.302
REMARK  2 active torsions:
REMARK  status: ('A' for Active; 'I' for Inactive)
REMARK    1  A    between atoms: C4_4  and  C6_6 
REMARK    2  A    between atoms: C7_7  and  O10_10 
ROOT
HETATM    1  C1  UNL     1     -37.492  14.618  -4.652  1.00 20.00     0.218 C 
HETATM    2  C4  UNL     1     -36.258  14.996  -4.491  1.00 20.00     0.043 C 
HETATM    3  O9  UNL     1     -38.608  14.277  -4.798  1.00 20.00    -0.284 OA
ENDROOT
BRANCH   2   4
HETATM    4  C6  UNL     1     -35.068  14.302  -5.073  1.00 20.00     0.064 C 
HETATM    5  C3  UNL     1     -33.860  14.432  -4.194  1.00 20.00    -0.020 C 
HETATM    6  C2  UNL     1     -32.934  15.241  -4.719  1.00 20.00    -0.027 C 
HETATM    7  C5  UNL     1     -33.364  15.804  -6.033  1.00 20.00     0.059 C 
HETATM    8  C7  UNL     1     -34.584  14.947  -6.388  1.00 20.00     0.135 C 
BRANCH   8   9
HETATM    9  O10 UNL     1     -34.173  13.922  -7.294  1.00 20.00    -0.389 OA
HETATM   10  C8  UNL     1     -35.162  12.912  -7.413  1.00 20.00     0.202 C 
ENDBRANCH   8   9
ENDBRANCH   2   4
TORSDOF 2
ENDMDL
MODEL 9
REMARK VINA RESULT:      -3.9     11.116     12.214
REMARK  2 active torsions:
REMARK  status: ('A' for Active; 'I' for Inactive)
REMARK    1  A    between atoms: C4_4  and  C6_6 
REMARK    2  A    between atoms: C7_7  and  O10_10 
ROOT
HETATM    1  C1  UNL     1     -34.737  13.309  -7.125  1.00 20.00     0.218 C 
HETATM    2  C4  UNL     1     -34.321  14.525  -7.327  1.00 20.00     0.043 C 
HETATM    3  O9  UNL     1     -35.113  12.210  -6.942  1.00 20.00    -0.284 OA
ENDROOT
BRANCH   2   4
HETATM    4  C6  UNL     1     -34.307  15.607  -6.294  1.00 20.00     0.064 C 
HETATM    5  C3  UNL     1     -33.035  15.604  -5.500  1.00 20.00    -0.020 C 
HETATM    6  C2  UNL     1     -33.222  15.188  -4.244  1.00 20.00    -0.027 C 
HETATM    7  C5  UNL     1     -34.646  14.829  -3.979  1.00 20.00     0.059 C 
HETATM    8  C7  UNL     1     -35.374  15.403  -5.200  1.00 20.00     0.135 C 
BRANCH   8   9
HETATM    9  O10 UNL     1     -35.934  16.668  -4.843  1.00 20.00    -0.389 OA
HETATM   10  C8  UNL     1     -36.608  16.599  -3.597  1.00 20.00     0.202 C 
ENDBRANCH   8   9
ENDBRANCH   2   4
TORSDOF 2
ENDMDL
