MODEL 1
REMARK VINA RESULT:      -6.1      0.000      0.000
REMARK  1 active torsions:
REMARK  status: ('A' for Active; 'I' for Inactive)
REMARK    1  A    between atoms: C4_4  and  O11_11 
ROOT
HETATM    1  C1  UNL     1     -34.270   6.515   5.890  1.00 20.00     0.034 C 
HETATM    2  C2  UNL     1     -33.391   7.457   5.491  1.00 20.00     0.003 C 
HETATM    3  C3  UNL     1     -34.363   5.459   3.685  1.00 20.00     0.017 C 
HETATM    4  C4  UNL     1     -34.599   5.392   5.011  1.00 20.00     0.062 C 
HETATM    5  C5  UNL     1     -32.280   8.131   2.214  1.00 20.00     0.004 C 
HETATM    6  C6  UNL     1     -32.955   6.811   1.892  1.00 20.00     0.065 C 
HETATM    7  C7  UNL     1     -33.779   6.731   3.155  1.00 20.00     0.045 C 
HETATM    8  C8  UNL     1     -32.749   7.275   4.152  1.00 20.00     0.139 C 
HETATM    9  C9  UNL     1     -31.740   8.991   1.120  1.00 20.00     0.065 C 
HETATM   10  N10 UNL     1     -32.209   8.470   3.476  1.00 20.00    -0.289 NA
ENDROOT
BRANCH   4  11
HETATM   11  O11 UNL     1     -35.197   4.320   5.631  1.00 20.00    -0.361 OA
HETATM   12  H22 UNL     1     -34.525   3.719   5.974  1.00 20.00     0.217 HD
ENDBRANCH   4  11
TORSDOF 1
ENDMDL
MODEL 2
REMARK VINA RESULT:      -5.0      2.600      4.271
REMARK  1 active torsions:
REMARK  status: ('A' for Active; 'I' for Inactive)
REMARK    1  A    between atoms: C4_4  and  O11_11 
ROOT
HETATM    1  C1  UNL     1     -31.341   8.718   2.878  1.00 20.00     0.034 C 
HETATM    2  C2  UNL     1     -31.811   8.381   4.096  1.00 20.00     0.003 C 
HETATM    3  C3  UNL     1     -32.969   7.318   1.703  1.00 20.00     0.017 C 
HETATM    4  C4  UNL     1     -32.068   8.322   1.670  1.00 20.00     0.062 C 
HETATM    5  C5  UNL     1     -34.205   5.916   4.888  1.00 20.00     0.004 C 
HETATM    6  C6  UNL     1     -34.447   5.907   3.390  1.00 20.00     0.065 C 
HETATM    7  C7  UNL     1     -33.169   6.618   3.010  1.00 20.00     0.045 C 
HETATM    8  C8  UNL     1     -33.109   7.639   4.152  1.00 20.00     0.139 C 
HETATM    9  C9  UNL     1     -34.865   4.906   5.767  1.00 20.00     0.065 C 
HETATM   10  N10 UNL     1     -33.393   6.832   5.353  1.00 20.00    -0.289 NA
ENDROOT
BRANCH   4  11
HETATM   11  O11 UNL     1     -31.725   9.008   0.530  1.00 20.00    -0.361 OA
HETATM   12  H22 UNL     1     -32.206   9.843   0.488  1.00 20.00     0.217 HD
ENDBRANCH   4  11
TORSDOF 1
ENDMDL
MODEL 3
REMARK VINA RESULT:      -4.7     11.841     12.301
REMARK  1 active torsions:
REMARK  status: ('A' for Active; 'I' for Inactive)
REMARK    1  A    between atoms: C4_4  and  O11_11 
ROOT
HETATM    1  C1  UNL     1     -34.528  16.288  -3.216  1.00 20.00     0.034 C 
HETATM    2  C2  UNL     1     -33.357  16.884  -2.916  1.00 20.00     0.003 C 
HETATM    3  C3  UNL     1     -35.667  17.214  -1.258  1.00 20.00     0.017 C 
HETATM    4  C4  UNL     1     -35.742  16.626  -2.469  1.00 20.00     0.062 C 
HETATM    5  C5  UNL     1     -32.510  18.642   0.021  1.00 20.00     0.004 C 
HETATM    6  C6  UNL     1     -34.001  18.568   0.295  1.00 20.00     0.065 C 
HETATM    7  C7  UNL     1     -34.302  17.477  -0.705  1.00 20.00     0.045 C 
HETATM    8  C8  UNL     1     -33.369  17.921  -1.838  1.00 20.00     0.139 C 
HETATM    9  C9  UNL     1     -31.575  19.170   1.058  1.00 20.00     0.065 C 
HETATM   10  N10 UNL     1     -32.099  18.214  -1.146  1.00 20.00    -0.289 NA
ENDROOT
BRANCH   4  11
HETATM   11  O11 UNL     1     -36.921  16.258  -3.073  1.00 20.00    -0.361 OA
HETATM   12  H22 UNL     1     -36.884  16.448  -4.018  1.00 20.00     0.217 HD
ENDBRANCH   4  11
TORSDOF 1
ENDMDL
MODEL 4
REMARK VINA RESULT:      -4.7      1.089      1.949
REMARK  1 active torsions:
REMARK  status: ('A' for Active; 'I' for Inactive)
REMARK    1  A    between atoms: C4_4  and  O11_11 
ROOT
HETATM    1  C1  UNL     1     -34.105   4.284   4.322  1.00 20.00     0.034 C 
HETATM    2  C2  UNL     1     -33.672   4.725   3.124  1.00 20.00     0.003 C 
HETATM    3  C3  UNL     1     -34.170   6.531   5.289  1.00 20.00     0.017 C 
HETATM    4  C4  UNL     1     -34.541   5.235   5.346  1.00 20.00     0.062 C 
HETATM    5  C5  UNL     1     -32.621   7.979   2.266  1.00 20.00     0.004 C 
HETATM    6  C6  UNL     1     -33.220   8.348   3.610  1.00 20.00     0.065 C 
HETATM    7  C7  UNL     1     -33.281   6.941   4.158  1.00 20.00     0.045 C 
HETATM    8  C8  UNL     1     -33.702   6.201   2.882  1.00 20.00     0.139 C 
HETATM    9  C9  UNL     1     -31.850   8.987   1.479  1.00 20.00     0.065 C 
HETATM   10  N10 UNL     1     -32.803   6.751   1.850  1.00 20.00    -0.289 NA
ENDROOT
BRANCH   4  11
HETATM   11  O11 UNL     1     -35.294   4.696   6.363  1.00 20.00    -0.361 OA
HETATM   12  H22 UNL     1     -35.177   3.739   6.390  1.00 20.00     0.217 HD
ENDBRANCH   4  11
TORSDOF 1
ENDMDL
MODEL 5
REMARK VINA RESULT:      -4.6     11.465     12.599
REMARK  1 active torsions:
REMARK  status: ('A' for Active; 'I' for Inactive)
REMARK    1  A    between atoms: C4_4  and  O11_11 
ROOT
HETATM    1  C1  UNL     1     -34.092  14.667  -6.459  1.00 20.00     0.034 C 
HETATM    2  C2  UNL     1     -33.731  15.947  -6.238  1.00 20.00     0.003 C 
HETATM    3  C3  UNL     1     -34.834  14.326  -4.152  1.00 20.00     0.017 C 
HETATM    4  C4  UNL     1     -34.833  13.922  -5.438  1.00 20.00     0.062 C 
HETATM    5  C5  UNL     1     -33.577  17.653  -3.156  1.00 20.00     0.004 C 
HETATM    6  C6  UNL     1     -34.332  16.443  -2.638  1.00 20.00     0.065 C 
HETATM    7  C7  UNL     1     -34.031  15.542  -3.813  1.00 20.00     0.045 C 
HETATM    8  C8  UNL     1     -34.155  16.569  -4.945  1.00 20.00     0.139 C 
HETATM    9  C9  UNL     1     -33.073  18.692  -2.210  1.00 20.00     0.065 C 
HETATM   10  N10 UNL     1     -33.388  17.726  -4.449  1.00 20.00    -0.289 NA
ENDROOT
BRANCH   4  11
HETATM   11  O11 UNL     1     -35.463  12.785  -5.887  1.00 20.00    -0.361 OA
HETATM   12  H22 UNL     1     -36.259  13.020  -6.378  1.00 20.00     0.217 HD
ENDBRANCH   4  11
TORSDOF 1
ENDMDL
MODEL 6
REMARK VINA RESULT:      -4.6     11.973     12.443
REMARK  1 active torsions:
REMARK  status: ('A' for Active; 'I' for Inactive)
REMARK    1  A    between atoms: C4_4  and  O11_11 
ROOT
HETATM    1  C1  UNL     1     -34.518  16.942  -2.193  1.00 20.00     0.034 C 
HETATM    2  C2  UNL     1     -33.227  17.283  -2.008  1.00 20.00     0.003 C 
HETATM    3  C3  UNL     1     -35.273  18.147  -0.202  1.00 20.00     0.017 C 
HETATM    4  C4  UNL     1     -35.568  17.554  -1.376  1.00 20.00     0.062 C 
HETATM    5  C5  UNL     1     -31.793  18.905   0.775  1.00 20.00     0.004 C 
HETATM    6  C6  UNL     1     -33.238  19.160   1.161  1.00 20.00     0.065 C 
HETATM    7  C7  UNL     1     -33.843  18.129   0.237  1.00 20.00     0.045 C 
HETATM    8  C8  UNL     1     -32.932  18.330  -0.981  1.00 20.00     0.139 C 
HETATM    9  C9  UNL     1     -30.686  19.253   1.715  1.00 20.00     0.065 C 
HETATM   10  N10 UNL     1     -31.578  18.366  -0.398  1.00 20.00    -0.289 NA
ENDROOT
BRANCH   4  11
HETATM   11  O11 UNL     1     -36.843  17.428  -1.874  1.00 20.00    -0.361 OA
HETATM   12  H22 UNL     1     -37.319  16.736  -1.398  1.00 20.00     0.217 HD
ENDBRANCH   4  11
TORSDOF 1
ENDMDL
MODEL 7
REMARK VINA RESULT:      -4.5     11.580     12.084
REMARK  1 active torsions:
REMARK  status: ('A' for Active; 'I' for Inactive)
REMARK    1  A    between atoms: C4_4  and  O11_11 
ROOT
HETATM    1  C1  UNL     1     -35.959  13.611  -5.064  1.00 20.00     0.034 C 
HETATM    2  C2  UNL     1     -34.748  14.096  -4.721  1.00 20.00     0.003 C 
HETATM    3  C3  UNL     1     -37.158  15.499  -4.072  1.00 20.00     0.017 C 
HETATM    4  C4  UNL     1     -37.158  14.435  -4.899  1.00 20.00     0.062 C 
HETATM    5  C5  UNL     1     -34.029  16.868  -2.665  1.00 20.00     0.004 C 
HETATM    6  C6  UNL     1     -35.512  17.154  -2.816  1.00 20.00     0.065 C 
HETATM    7  C7  UNL     1     -35.897  15.782  -3.317  1.00 20.00     0.045 C 
HETATM    8  C8  UNL     1     -34.688  15.504  -4.218  1.00 20.00     0.139 C 
HETATM    9  C9  UNL     1     -33.196  17.672  -1.721  1.00 20.00     0.065 C 
HETATM   10  N10 UNL     1     -33.536  15.891  -3.383  1.00 20.00    -0.289 NA
ENDROOT
BRANCH   4  11
HETATM   11  O11 UNL     1     -38.260  14.009  -5.602  1.00 20.00    -0.361 OA
HETATM   12  H22 UNL     1     -38.893  13.591  -5.005  1.00 20.00     0.217 HD
ENDBRANCH   4  11
TORSDOF 1
ENDMDL
MODEL 8
REMARK VINA RESULT:      -4.5     11.400     12.170
REMARK  1 active torsions:
REMARK  status: ('A' for Active; 'I' for Inactive)
REMARK    1  A    between atoms: C4_4  and  O11_11 
ROOT
HETATM    1  C1  UNL     1     -36.947  14.721  -4.853  1.00 20.00     0.034 C 
HETATM    2  C2  UNL     1     -37.070  15.871  -4.162  1.00 20.00     0.003 C 
HETATM    3  C3  UNL     1     -34.604  14.418  -4.216  1.00 20.00     0.017 C 
HETATM    4  C4  UNL     1     -35.746  13.896  -4.708  1.00 20.00     0.062 C 
HETATM    5  C5  UNL     1     -34.528  17.723  -2.568  1.00 20.00     0.004 C 
HETATM    6  C6  UNL     1     -33.694  16.481  -2.822  1.00 20.00     0.065 C 
HETATM    7  C7  UNL     1     -34.613  15.871  -3.854  1.00 20.00     0.045 C 
HETATM    8  C8  UNL     1     -35.963  16.232  -3.223  1.00 20.00     0.139 C 
HETATM    9  C9  UNL     1     -33.894  18.963  -2.029  1.00 20.00     0.065 C 
HETATM   10  N10 UNL     1     -35.803  17.651  -2.854  1.00 20.00    -0.289 NA
ENDROOT
BRANCH   4  11
HETATM   11  O11 UNL     1     -35.869  12.600  -5.149  1.00 20.00    -0.361 OA
HETATM   12  H22 UNL     1     -35.169  12.053  -4.774  1.00 20.00     0.217 HD
ENDBRANCH   4  11
TORSDOF 1
ENDMDL
MODEL 9
REMARK VINA RESULT:      -4.4     11.551     12.070
REMARK  1 active torsions:
REMARK  status: ('A' for Active; 'I' for Inactive)
REMARK    1  A    between atoms: C4_4  and  O11_11 
ROOT
HETATM    1  C1  UNL     1     -34.294  16.550  -2.658  1.00 20.00     0.034 C 
HETATM    2  C2  UNL     1     -33.700  15.643  -3.458  1.00 20.00     0.003 C 
HETATM    3  C3  UNL     1     -36.536  16.028  -3.486  1.00 20.00     0.017 C 
HETATM    4  C4  UNL     1     -35.753  16.593  -2.545  1.00 20.00     0.062 C 
HETATM    5  C5  UNL     1     -35.162  13.761  -6.057  1.00 20.00     0.004 C 
HETATM    6  C6  UNL     1     -36.464  14.271  -5.469  1.00 20.00     0.065 C 
HETATM    7  C7  UNL     1     -35.854  15.387  -4.653  1.00 20.00     0.045 C 
HETATM    8  C8  UNL     1     -34.585  14.672  -4.174  1.00 20.00     0.139 C 
HETATM    9  C9  UNL     1     -35.159  12.999  -7.341  1.00 20.00     0.065 C 
HETATM   10  N10 UNL     1     -34.065  14.032  -5.396  1.00 20.00    -0.289 NA
ENDROOT
BRANCH   4  11
HETATM   11  O11 UNL     1     -36.235  17.280  -1.456  1.00 20.00    -0.361 OA
HETATM   12  H22 UNL     1     -35.840  16.937  -0.645  1.00 20.00     0.217 HD
ENDBRANCH   4  11
TORSDOF 1
ENDMDL
