MODEL 1
REMARK VINA RESULT:      -5.1      0.000      0.000
REMARK  1 active torsions:
REMARK  status: ('A' for Active; 'I' for Inactive)
REMARK    1  A    between atoms: C1_1  and  C4_4 
ROOT
HETATM    1  C2  UNL     1     -33.701   7.185   4.550  1.00 20.00     0.038 C 
HETATM    2  C3  UNL     1     -33.321   5.912   2.878  1.00 20.00     0.038 C 
HETATM    3  C4  UNL     1     -33.230   7.443   3.096  1.00 20.00     0.076 C 
HETATM    4  C5  UNL     1     -34.300   5.830   4.081  1.00 20.00     0.035 C 
HETATM    5  C6  UNL     1     -35.775   5.928   3.671  1.00 20.00     0.032 C 
HETATM    6 CL9  UNL     1     -34.060   4.443   5.193  1.00 20.00    -0.120 Cl
ENDROOT
BRANCH   3   7
HETATM    7  C1  UNL     1     -31.864   8.103   2.891  1.00 20.00     0.223 C 
HETATM    8  O7  UNL     1     -31.080   8.265   3.821  1.00 20.00    -0.279 OA
HETATM    9 CL8  UNL     1     -31.603   8.566   1.236  1.00 20.00    -0.043 Cl
ENDBRANCH   3   7
TORSDOF 1
ENDMDL
MODEL 2
REMARK VINA RESULT:      -5.1      2.251      4.165
REMARK  1 active torsions:
REMARK  status: ('A' for Active; 'I' for Inactive)
REMARK    1  A    between atoms: C1_1  and  C4_4 
ROOT
HETATM    1  C2  UNL     1     -32.685   5.999   2.844  1.00 20.00     0.038 C 
HETATM    2  C3  UNL     1     -33.769   7.344   4.101  1.00 20.00     0.038 C 
HETATM    3  C4  UNL     1     -34.098   5.964   3.479  1.00 20.00     0.076 C 
HETATM    4  C5  UNL     1     -32.689   7.545   3.003  1.00 20.00     0.035 C 
HETATM    5  C6  UNL     1     -33.214   8.281   1.763  1.00 20.00     0.032 C 
HETATM    6 CL9  UNL     1     -31.145   8.278   3.548  1.00 20.00    -0.120 Cl
ENDROOT
BRANCH   3   7
HETATM    7  C1  UNL     1     -34.423   4.818   4.442  1.00 20.00     0.223 C 
HETATM    8  O7  UNL     1     -34.428   3.648   4.074  1.00 20.00    -0.279 OA
HETATM    9 CL8  UNL     1     -34.766   5.390   6.047  1.00 20.00    -0.043 Cl
ENDBRANCH   3   7
TORSDOF 1
ENDMDL
MODEL 3
REMARK VINA RESULT:      -4.6      1.951      4.273
REMARK  1 active torsions:
REMARK  status: ('A' for Active; 'I' for Inactive)
REMARK    1  A    between atoms: C1_1  and  C4_4 
ROOT
HETATM    1  C2  UNL     1     -33.773   7.995   3.662  1.00 20.00     0.038 C 
HETATM    2  C3  UNL     1     -32.772   6.367   2.708  1.00 20.00     0.038 C 
HETATM    3  C4  UNL     1     -33.570   6.504   4.029  1.00 20.00     0.076 C 
HETATM    4  C5  UNL     1     -32.530   7.901   2.733  1.00 20.00     0.035 C 
HETATM    5  C6  UNL     1     -31.222   8.299   3.427  1.00 20.00     0.032 C 
HETATM    6 CL9  UNL     1     -32.670   8.741   1.154  1.00 20.00    -0.120 Cl
ENDROOT
BRANCH   3   7
HETATM    7  C1  UNL     1     -34.816   5.629   4.191  1.00 20.00     0.223 C 
HETATM    8  O7  UNL     1     -35.875   5.907   3.638  1.00 20.00    -0.279 OA
HETATM    9 CL8  UNL     1     -34.524   4.259   5.220  1.00 20.00    -0.043 Cl
ENDBRANCH   3   7
TORSDOF 1
ENDMDL
MODEL 4
REMARK VINA RESULT:      -4.6      1.825      4.270
REMARK  1 active torsions:
REMARK  status: ('A' for Active; 'I' for Inactive)
REMARK    1  A    between atoms: C1_1  and  C4_4 
ROOT
HETATM    1  C2  UNL     1     -31.791   8.664   3.161  1.00 20.00     0.038 C 
HETATM    2  C3  UNL     1     -33.471   8.106   1.966  1.00 20.00     0.038 C 
HETATM    3  C4  UNL     1     -32.682   7.398   3.095  1.00 20.00     0.076 C 
HETATM    4  C5  UNL     1     -32.233   9.010   1.712  1.00 20.00     0.035 C 
HETATM    5  C6  UNL     1     -31.287   8.457   0.639  1.00 20.00     0.032 C 
HETATM    6 CL9  UNL     1     -32.581  10.741   1.394  1.00 20.00    -0.120 Cl
ENDROOT
BRANCH   3   7
HETATM    7  C1  UNL     1     -33.459   7.002   4.354  1.00 20.00     0.223 C 
HETATM    8  O7  UNL     1     -33.174   7.457   5.457  1.00 20.00    -0.279 OA
HETATM    9 CL8  UNL     1     -34.733   5.872   4.008  1.00 20.00    -0.043 Cl
ENDBRANCH   3   7
TORSDOF 1
ENDMDL
MODEL 5
REMARK VINA RESULT:      -4.4      1.832      2.278
REMARK  1 active torsions:
REMARK  status: ('A' for Active; 'I' for Inactive)
REMARK    1  A    between atoms: C1_1  and  C4_4 
ROOT
HETATM    1  C2  UNL     1     -32.560   6.783   2.951  1.00 20.00     0.038 C 
HETATM    2  C3  UNL     1     -33.914   8.413   3.215  1.00 20.00     0.038 C 
HETATM    3  C4  UNL     1     -32.424   8.318   2.801  1.00 20.00     0.076 C 
HETATM    4  C5  UNL     1     -33.784   7.015   3.879  1.00 20.00     0.035 C 
HETATM    5  C6  UNL     1     -33.416   7.081   5.367  1.00 20.00     0.032 C 
HETATM    6 CL9  UNL     1     -35.171   5.902   3.636  1.00 20.00    -0.120 Cl
ENDROOT
BRANCH   3   7
HETATM    7  C1  UNL     1     -32.040   8.873   1.426  1.00 20.00     0.223 C 
HETATM    8  O7  UNL     1     -31.181   8.339   0.732  1.00 20.00    -0.279 OA
HETATM    9 CL8  UNL     1     -32.951  10.296   1.017  1.00 20.00    -0.043 Cl
ENDBRANCH   3   7
TORSDOF 1
ENDMDL
MODEL 6
REMARK VINA RESULT:      -4.4      1.894      2.124
REMARK  1 active torsions:
REMARK  status: ('A' for Active; 'I' for Inactive)
REMARK    1  A    between atoms: C1_1  and  C4_4 
ROOT
HETATM    1  C2  UNL     1     -34.017   8.135   3.017  1.00 20.00     0.038 C 
HETATM    2  C3  UNL     1     -32.142   7.143   3.262  1.00 20.00     0.038 C 
HETATM    3  C4  UNL     1     -32.875   7.755   2.042  1.00 20.00     0.076 C 
HETATM    4  C5  UNL     1     -33.510   7.032   3.988  1.00 20.00     0.035 C 
HETATM    5  C6  UNL     1     -34.199   5.677   3.782  1.00 20.00     0.032 C 
HETATM    6 CL9  UNL     1     -33.509   7.466   5.729  1.00 20.00    -0.120 Cl
ENDROOT
BRANCH   3   7
HETATM    7  C1  UNL     1     -32.167   8.887   1.291  1.00 20.00     0.223 C 
HETATM    8  O7  UNL     1     -31.095   8.712   0.722  1.00 20.00    -0.279 OA
HETATM    9 CL8  UNL     1     -33.061  10.376   1.361  1.00 20.00    -0.043 Cl
ENDBRANCH   3   7
TORSDOF 1
ENDMDL
MODEL 7
REMARK VINA RESULT:      -4.3      1.312      1.732
REMARK  1 active torsions:
REMARK  status: ('A' for Active; 'I' for Inactive)
REMARK    1  A    between atoms: C1_1  and  C4_4 
ROOT
HETATM    1  C2  UNL     1     -33.676   6.085   2.568  1.00 20.00     0.038 C 
HETATM    2  C3  UNL     1     -33.885   7.008   4.482  1.00 20.00     0.038 C 
HETATM    3  C4  UNL     1     -32.683   6.781   3.532  1.00 20.00     0.076 C 
HETATM    4  C5  UNL     1     -34.624   5.840   3.775  1.00 20.00     0.035 C 
HETATM    5  C6  UNL     1     -34.405   4.482   4.454  1.00 20.00     0.032 C 
HETATM    6 CL9  UNL     1     -36.372   6.097   3.460  1.00 20.00    -0.120 Cl
ENDROOT
BRANCH   3   7
HETATM    7  C1  UNL     1     -31.942   8.022   3.025  1.00 20.00     0.223 C 
HETATM    8  O7  UNL     1     -31.066   8.566   3.689  1.00 20.00    -0.279 OA
HETATM    9 CL8  UNL     1     -32.498   8.520   1.455  1.00 20.00    -0.043 Cl
ENDBRANCH   3   7
TORSDOF 1
ENDMDL
MODEL 8
REMARK VINA RESULT:      -4.1     11.667     12.279
REMARK  1 active torsions:
REMARK  status: ('A' for Active; 'I' for Inactive)
REMARK    1  A    between atoms: C1_1  and  C4_4 
ROOT
HETATM    1  C2  UNL     1     -35.384  16.123  -4.337  1.00 20.00     0.038 C 
HETATM    2  C3  UNL     1     -33.433  15.272  -4.162  1.00 20.00     0.038 C 
HETATM    3  C4  UNL     1     -34.860  14.671  -4.209  1.00 20.00     0.076 C 
HETATM    4  C5  UNL     1     -34.051  16.623  -3.712  1.00 20.00     0.035 C 
HETATM    5  C6  UNL     1     -34.118  16.784  -2.188  1.00 20.00     0.032 C 
HETATM    6 CL9  UNL     1     -33.344  18.094  -4.456  1.00 20.00    -0.120 Cl
ENDROOT
BRANCH   3   7
HETATM    7  C1  UNL     1     -35.174  13.692  -5.345  1.00 20.00     0.223 C 
HETATM    8  O7  UNL     1     -35.955  12.758  -5.193  1.00 20.00    -0.279 OA
HETATM    9 CL8  UNL     1     -34.309  14.081  -6.800  1.00 20.00    -0.043 Cl
ENDBRANCH   3   7
TORSDOF 1
ENDMDL
MODEL 9
REMARK VINA RESULT:      -4.1      1.965      4.315
REMARK  1 active torsions:
REMARK  status: ('A' for Active; 'I' for Inactive)
REMARK    1  A    between atoms: C1_1  and  C4_4 
ROOT
HETATM    1  C2  UNL     1     -33.395   7.867   1.681  1.00 20.00     0.038 C 
HETATM    2  C3  UNL     1     -31.808   8.377   3.016  1.00 20.00     0.038 C 
HETATM    3  C4  UNL     1     -33.284   7.957   3.224  1.00 20.00     0.076 C 
HETATM    4  C5  UNL     1     -32.170   8.816   1.571  1.00 20.00     0.035 C 
HETATM    5  C6  UNL     1     -32.556  10.297   1.465  1.00 20.00     0.032 C 
HETATM    6 CL9  UNL     1     -30.971   8.400   0.303  1.00 20.00    -0.120 Cl
ENDROOT
BRANCH   3   7
HETATM    7  C1  UNL     1     -33.547   6.686   4.037  1.00 20.00     0.223 C 
HETATM    8  O7  UNL     1     -33.592   5.580   3.508  1.00 20.00    -0.279 OA
HETATM    9 CL8  UNL     1     -33.759   7.024   5.728  1.00 20.00    -0.043 Cl
ENDBRANCH   3   7
TORSDOF 1
ENDMDL
