MODEL 1
REMARK VINA RESULT:      -5.2      0.000      0.000
REMARK  0 active torsions:
REMARK  status: ('A' for Active; 'I' for Inactive)
ROOT
HETATM    1  C1  UNL     1     -33.226   4.999   2.863  1.00 20.00     0.352 C 
HETATM    2  C2  UNL     1     -33.798   6.850   4.005  1.00 20.00     0.451 C 
HETATM    3  C3  UNL     1     -34.702   5.730   4.395  1.00 20.00     0.451 C 
HETATM    4  O4  UNL     1     -33.218   6.431   2.779  1.00 20.00    -0.294 OA
HETATM    5  O5  UNL     1     -34.019   4.559   3.973  1.00 20.00    -0.294 OA
HETATM    6  F6  UNL     1     -32.805   7.023   4.904  1.00 20.00    -0.166 F 
HETATM    7  F7  UNL     1     -34.445   8.019   3.848  1.00 20.00    -0.166 F 
HETATM    8  F8  UNL     1     -35.880   5.790   3.736  1.00 20.00    -0.166 F 
HETATM    9  F9  UNL     1     -34.949   5.686   5.716  1.00 20.00    -0.166 F 
ENDROOT
TORSDOF 0
ENDMDL
MODEL 2
REMARK VINA RESULT:      -5.2      0.005      2.552
REMARK  0 active torsions:
REMARK  status: ('A' for Active; 'I' for Inactive)
ROOT
HETATM    1  C1  UNL     1     -33.224   5.002   2.862  1.00 20.00     0.352 C 
HETATM    2  C2  UNL     1     -34.699   5.730   4.396  1.00 20.00     0.451 C 
HETATM    3  C3  UNL     1     -33.799   6.853   4.004  1.00 20.00     0.451 C 
HETATM    4  O4  UNL     1     -34.015   4.560   3.974  1.00 20.00    -0.294 OA
HETATM    5  O5  UNL     1     -33.221   6.433   2.778  1.00 20.00    -0.294 OA
HETATM    6  F6  UNL     1     -35.879   5.787   3.741  1.00 20.00    -0.166 F 
HETATM    7  F7  UNL     1     -34.942   5.687   5.718  1.00 20.00    -0.166 F 
HETATM    8  F8  UNL     1     -32.804   7.027   4.900  1.00 20.00    -0.166 F 
HETATM    9  F9  UNL     1     -34.448   8.020   3.849  1.00 20.00    -0.166 F 
ENDROOT
TORSDOF 0
ENDMDL
MODEL 3
REMARK VINA RESULT:      -5.1      1.633      2.509
REMARK  0 active torsions:
REMARK  status: ('A' for Active; 'I' for Inactive)
ROOT
HETATM    1  C1  UNL     1     -32.898   7.516   3.918  1.00 20.00     0.352 C 
HETATM    2  C2  UNL     1     -33.672   5.642   2.944  1.00 20.00     0.451 C 
HETATM    3  C3  UNL     1     -34.481   5.937   4.162  1.00 20.00     0.451 C 
HETATM    4  O4  UNL     1     -32.486   6.405   3.110  1.00 20.00    -0.294 OA
HETATM    5  O5  UNL     1     -34.214   7.302   4.445  1.00 20.00    -0.294 OA
HETATM    6  F6  UNL     1     -34.292   6.067   1.822  1.00 20.00    -0.166 F 
HETATM    7  F7  UNL     1     -33.382   4.337   2.807  1.00 20.00    -0.166 F 
HETATM    8  F8  UNL     1     -34.073   5.201   5.219  1.00 20.00    -0.166 F 
HETATM    9  F9  UNL     1     -35.798   5.737   3.982  1.00 20.00    -0.166 F 
ENDROOT
TORSDOF 0
ENDMDL
MODEL 4
REMARK VINA RESULT:      -5.1      1.633      2.453
REMARK  0 active torsions:
REMARK  status: ('A' for Active; 'I' for Inactive)
ROOT
HETATM    1  C1  UNL     1     -32.895   7.514   3.916  1.00 20.00     0.352 C 
HETATM    2  C2  UNL     1     -34.481   5.938   4.159  1.00 20.00     0.451 C 
HETATM    3  C3  UNL     1     -33.672   5.642   2.942  1.00 20.00     0.451 C 
HETATM    4  O4  UNL     1     -34.212   7.303   4.443  1.00 20.00    -0.294 OA
HETATM    5  O5  UNL     1     -32.485   6.402   3.109  1.00 20.00    -0.294 OA
HETATM    6  F6  UNL     1     -34.076   5.201   5.216  1.00 20.00    -0.166 F 
HETATM    7  F7  UNL     1     -35.799   5.742   3.977  1.00 20.00    -0.166 F 
HETATM    8  F8  UNL     1     -34.290   6.069   1.819  1.00 20.00    -0.166 F 
HETATM    9  F9  UNL     1     -33.384   4.335   2.804  1.00 20.00    -0.166 F 
ENDROOT
TORSDOF 0
ENDMDL
MODEL 5
REMARK VINA RESULT:      -5.0      1.812      2.755
REMARK  0 active torsions:
REMARK  status: ('A' for Active; 'I' for Inactive)
ROOT
HETATM    1  C1  UNL     1     -34.538   5.965   5.353  1.00 20.00     0.352 C 
HETATM    2  C2  UNL     1     -33.959   5.776   3.188  1.00 20.00     0.451 C 
HETATM    3  C3  UNL     1     -33.353   7.014   3.756  1.00 20.00     0.451 C 
HETATM    4  O4  UNL     1     -34.991   5.433   4.100  1.00 20.00    -0.294 OA
HETATM    5  O5  UNL     1     -33.408   6.826   5.162  1.00 20.00    -0.294 OA
HETATM    6  F6  UNL     1     -33.071   4.758   3.156  1.00 20.00    -0.166 F 
HETATM    7  F7  UNL     1     -34.457   5.952   1.951  1.00 20.00    -0.166 F 
HETATM    8  F8  UNL     1     -34.082   8.109   3.449  1.00 20.00    -0.166 F 
HETATM    9  F9  UNL     1     -32.085   7.215   3.353  1.00 20.00    -0.166 F 
ENDROOT
TORSDOF 0
ENDMDL
MODEL 6
REMARK VINA RESULT:      -5.0      1.810      2.446
REMARK  0 active torsions:
REMARK  status: ('A' for Active; 'I' for Inactive)
ROOT
HETATM    1  C1  UNL     1     -34.548   5.957   5.358  1.00 20.00     0.352 C 
HETATM    2  C2  UNL     1     -33.363   7.018   3.768  1.00 20.00     0.451 C 
HETATM    3  C3  UNL     1     -33.961   5.779   3.194  1.00 20.00     0.451 C 
HETATM    4  O4  UNL     1     -33.422   6.826   5.173  1.00 20.00    -0.294 OA
HETATM    5  O5  UNL     1     -34.994   5.428   4.102  1.00 20.00    -0.294 OA
HETATM    6  F6  UNL     1     -34.097   8.111   3.462  1.00 20.00    -0.166 F 
HETATM    7  F7  UNL     1     -32.096   7.226   3.369  1.00 20.00    -0.166 F 
HETATM    8  F8  UNL     1     -33.068   4.766   3.162  1.00 20.00    -0.166 F 
HETATM    9  F9  UNL     1     -34.457   5.955   1.956  1.00 20.00    -0.166 F 
ENDROOT
TORSDOF 0
ENDMDL
MODEL 7
REMARK VINA RESULT:      -4.9      1.697      2.871
REMARK  0 active torsions:
REMARK  status: ('A' for Active; 'I' for Inactive)
ROOT
HETATM    1  C1  UNL     1     -33.553   7.208   5.898  1.00 20.00     0.352 C 
HETATM    2  C2  UNL     1     -34.539   5.939   4.324  1.00 20.00     0.451 C 
HETATM    3  C3  UNL     1     -33.643   6.934   3.667  1.00 20.00     0.451 C 
HETATM    4  O4  UNL     1     -34.742   6.450   5.632  1.00 20.00    -0.294 OA
HETATM    5  O5  UNL     1     -32.778   7.373   4.704  1.00 20.00    -0.294 OA
HETATM    6  F6  UNL     1     -33.944   4.731   4.432  1.00 20.00    -0.166 F 
HETATM    7  F7  UNL     1     -35.713   5.785   3.687  1.00 20.00    -0.166 F 
HETATM    8  F8  UNL     1     -34.335   8.004   3.217  1.00 20.00    -0.166 F 
HETATM    9  F9  UNL     1     -32.938   6.417   2.646  1.00 20.00    -0.166 F 
ENDROOT
TORSDOF 0
ENDMDL
MODEL 8
REMARK VINA RESULT:      -4.8      1.437      2.556
REMARK  0 active torsions:
REMARK  status: ('A' for Active; 'I' for Inactive)
ROOT
HETATM    1  C1  UNL     1     -34.053   4.081   4.603  1.00 20.00     0.352 C 
HETATM    2  C2  UNL     1     -34.667   6.186   4.106  1.00 20.00     0.451 C 
HETATM    3  C3  UNL     1     -33.744   5.678   3.051  1.00 20.00     0.451 C 
HETATM    4  O4  UNL     1     -34.465   5.314   5.207  1.00 20.00    -0.294 OA
HETATM    5  O5  UNL     1     -33.760   4.268   3.212  1.00 20.00    -0.294 OA
HETATM    6  F6  UNL     1     -35.959   6.088   3.723  1.00 20.00    -0.166 F 
HETATM    7  F7  UNL     1     -34.418   7.460   4.456  1.00 20.00    -0.166 F 
HETATM    8  F8  UNL     1     -32.479   6.110   3.248  1.00 20.00    -0.166 F 
HETATM    9  F9  UNL     1     -34.125   6.019   1.806  1.00 20.00    -0.166 F 
ENDROOT
TORSDOF 0
ENDMDL
MODEL 9
REMARK VINA RESULT:      -4.8      1.533      2.220
REMARK  0 active torsions:
REMARK  status: ('A' for Active; 'I' for Inactive)
ROOT
HETATM    1  C1  UNL     1     -33.339   7.157   4.107  1.00 20.00     0.352 C 
HETATM    2  C2  UNL     1     -34.368   5.823   5.596  1.00 20.00     0.451 C 
HETATM    3  C3  UNL     1     -34.694   5.365   4.215  1.00 20.00     0.451 C 
HETATM    4  O4  UNL     1     -33.892   7.149   5.430  1.00 20.00    -0.294 OA
HETATM    5  O5  UNL     1     -33.701   5.965   3.397  1.00 20.00    -0.294 OA
HETATM    6  F6  UNL     1     -33.375   5.085   6.141  1.00 20.00    -0.166 F 
HETATM    7  F7  UNL     1     -35.427   5.798   6.424  1.00 20.00    -0.166 F 
HETATM    8  F8  UNL     1     -35.901   5.822   3.814  1.00 20.00    -0.166 F 
HETATM    9  F9  UNL     1     -34.675   4.027   4.082  1.00 20.00    -0.166 F 
ENDROOT
TORSDOF 0
ENDMDL
