MODEL 1
REMARK VINA RESULT:      -5.3      0.000      0.000
REMARK  1 active torsions:
REMARK  status: ('A' for Active; 'I' for Inactive)
REMARK    1  A    between atoms: C1_1  and  C4_4 
ROOT
HETATM    1  C1  UNL     1     -32.650   8.190   2.437  1.00 20.00    -0.047 C 
HETATM    2  C2  UNL     1     -32.474   9.009   1.578  1.00 20.00    -0.106 C 
HETATM    3  C6  UNL     1     -32.260  10.008   0.532  1.00 20.00     0.112 C 
ENDROOT
BRANCH   1   4
HETATM    4  C4  UNL     1     -32.865   7.191   3.486  1.00 20.00     0.343 C 
HETATM    5  O8  UNL     1     -32.702   5.868   2.953  1.00 20.00    -0.348 OA
HETATM    6  C3  UNL     1     -34.020   5.321   2.921  1.00 20.00     0.203 C 
HETATM    7  C5  UNL     1     -34.730   6.014   4.062  1.00 20.00     0.145 C 
HETATM    8  C7  UNL     1     -34.444   5.376   5.417  1.00 20.00     0.042 C 
HETATM    9  O9  UNL     1     -34.183   7.334   4.037  1.00 20.00    -0.343 OA
ENDBRANCH   1   4
TORSDOF 1
ENDMDL
MODEL 2
REMARK VINA RESULT:      -3.9      1.416      4.444
REMARK  1 active torsions:
REMARK  status: ('A' for Active; 'I' for Inactive)
REMARK    1  A    between atoms: C1_1  and  C4_4 
ROOT
HETATM    1  C1  UNL     1     -33.352   6.504   3.650  1.00 20.00    -0.047 C 
HETATM    2  C2  UNL     1     -34.026   6.008   4.511  1.00 20.00    -0.106 C 
HETATM    3  C6  UNL     1     -34.846   5.404   5.561  1.00 20.00     0.112 C 
ENDROOT
BRANCH   1   4
HETATM    4  C4  UNL     1     -32.530   7.108   2.599  1.00 20.00     0.343 C 
HETATM    5  O8  UNL     1     -31.446   7.847   3.180  1.00 20.00    -0.348 OA
HETATM    6  C3  UNL     1     -31.774   9.217   2.953  1.00 20.00     0.203 C 
HETATM    7  C5  UNL     1     -32.585   9.192   1.678  1.00 20.00     0.145 C 
HETATM    8  C7  UNL     1     -31.722   9.139   0.423  1.00 20.00     0.042 C 
HETATM    9  O9  UNL     1     -33.333   7.978   1.788  1.00 20.00    -0.343 OA
ENDBRANCH   1   4
TORSDOF 1
ENDMDL
MODEL 3
REMARK VINA RESULT:      -3.8     11.199     12.019
REMARK  1 active torsions:
REMARK  status: ('A' for Active; 'I' for Inactive)
REMARK    1  A    between atoms: C1_1  and  C4_4 
ROOT
HETATM    1  C1  UNL     1     -33.983  15.852  -3.380  1.00 20.00    -0.047 C 
HETATM    2  C2  UNL     1     -34.155  16.549  -2.419  1.00 20.00    -0.106 C 
HETATM    3  C6  UNL     1     -34.364  17.398  -1.246  1.00 20.00     0.112 C 
ENDROOT
BRANCH   1   4
HETATM    4  C4  UNL     1     -33.774  15.000  -4.554  1.00 20.00     0.343 C 
HETATM    5  O8  UNL     1     -32.796  15.587  -5.425  1.00 20.00    -0.348 OA
HETATM    6  C3  UNL     1     -33.539  16.032  -6.560  1.00 20.00     0.203 C 
HETATM    7  C5  UNL     1     -34.705  15.074  -6.633  1.00 20.00     0.145 C 
HETATM    8  C7  UNL     1     -34.353  13.758  -7.317  1.00 20.00     0.042 C 
HETATM    9  O9  UNL     1     -35.012  14.824  -5.259  1.00 20.00    -0.343 OA
ENDBRANCH   1   4
TORSDOF 1
ENDMDL
MODEL 4
REMARK VINA RESULT:      -3.8     10.676     11.764
REMARK  1 active torsions:
REMARK  status: ('A' for Active; 'I' for Inactive)
REMARK    1  A    between atoms: C1_1  and  C4_4 
ROOT
HETATM    1  C1  UNL     1     -35.122  16.392  -2.645  1.00 20.00    -0.047 C 
HETATM    2  C2  UNL     1     -35.257  16.837  -1.539  1.00 20.00    -0.106 C 
HETATM    3  C6  UNL     1     -35.421  17.380  -0.191  1.00 20.00     0.112 C 
ENDROOT
BRANCH   1   4
HETATM    4  C4  UNL     1     -34.956  15.848  -3.995  1.00 20.00     0.343 C 
HETATM    5  O8  UNL     1     -34.430  14.515  -3.932  1.00 20.00    -0.348 OA
HETATM    6  C3  UNL     1     -33.087  14.629  -4.404  1.00 20.00     0.203 C 
HETATM    7  C5  UNL     1     -33.136  15.793  -5.366  1.00 20.00     0.145 C 
HETATM    8  C7  UNL     1     -33.642  15.402  -6.750  1.00 20.00     0.042 C 
HETATM    9  O9  UNL     1     -34.073  16.685  -4.756  1.00 20.00    -0.343 OA
ENDBRANCH   1   4
TORSDOF 1
ENDMDL
MODEL 5
REMARK VINA RESULT:      -3.8     10.871     11.544
REMARK  1 active torsions:
REMARK  status: ('A' for Active; 'I' for Inactive)
REMARK    1  A    between atoms: C1_1  and  C4_4 
ROOT
HETATM    1  C1  UNL     1     -34.975  15.857  -3.474  1.00 20.00    -0.047 C 
HETATM    2  C2  UNL     1     -35.059  16.382  -2.398  1.00 20.00    -0.106 C 
HETATM    3  C6  UNL     1     -35.161  17.023  -1.088  1.00 20.00     0.112 C 
ENDROOT
BRANCH   1   4
HETATM    4  C4  UNL     1     -34.872  15.217  -4.787  1.00 20.00     0.343 C 
HETATM    5  O8  UNL     1     -35.927  15.672  -5.646  1.00 20.00    -0.348 OA
HETATM    6  C3  UNL     1     -36.803  14.552  -5.776  1.00 20.00     0.203 C 
HETATM    7  C5  UNL     1     -35.892  13.357  -5.621  1.00 20.00     0.145 C 
HETATM    8  C7  UNL     1     -35.159  12.996  -6.909  1.00 20.00     0.042 C 
HETATM    9  O9  UNL     1     -34.943  13.790  -4.644  1.00 20.00    -0.343 OA
ENDBRANCH   1   4
TORSDOF 1
ENDMDL
MODEL 6
REMARK VINA RESULT:      -3.6     10.978     12.161
REMARK  1 active torsions:
REMARK  status: ('A' for Active; 'I' for Inactive)
REMARK    1  A    between atoms: C1_1  and  C4_4 
ROOT
HETATM    1  C1  UNL     1     -33.455  17.551  -2.460  1.00 20.00    -0.047 C 
HETATM    2  C2  UNL     1     -32.938  18.038  -1.493  1.00 20.00    -0.106 C 
HETATM    3  C6  UNL     1     -32.307  18.630  -0.313  1.00 20.00     0.112 C 
ENDROOT
BRANCH   1   4
HETATM    4  C4  UNL     1     -34.087  16.957  -3.640  1.00 20.00     0.343 C 
HETATM    5  O8  UNL     1     -34.230  15.540  -3.466  1.00 20.00    -0.348 OA
HETATM    6  C3  UNL     1     -33.279  14.963  -4.360  1.00 20.00     0.203 C 
HETATM    7  C5  UNL     1     -33.173  15.971  -5.481  1.00 20.00     0.145 C 
HETATM    8  C7  UNL     1     -34.292  15.840  -6.508  1.00 20.00     0.042 C 
HETATM    9  O9  UNL     1     -33.296  17.226  -4.807  1.00 20.00    -0.343 OA
ENDBRANCH   1   4
TORSDOF 1
ENDMDL
MODEL 7
REMARK VINA RESULT:      -3.6      9.830     10.914
REMARK  1 active torsions:
REMARK  status: ('A' for Active; 'I' for Inactive)
REMARK    1  A    between atoms: C1_1  and  C4_4 
ROOT
HETATM    1  C1  UNL     1     -42.883   4.144  -1.997  1.00 20.00    -0.047 C 
HETATM    2  C2  UNL     1     -42.450   3.411  -2.843  1.00 20.00    -0.106 C 
HETATM    3  C6  UNL     1     -41.925   2.519  -3.876  1.00 20.00     0.112 C 
ENDROOT
BRANCH   1   4
HETATM    4  C4  UNL     1     -43.411   5.038  -0.964  1.00 20.00     0.343 C 
HETATM    5  O8  UNL     1     -43.372   6.399  -1.417  1.00 20.00    -0.348 OA
HETATM    6  C3  UNL     1     -42.338   7.012  -0.648  1.00 20.00     0.203 C 
HETATM    7  C5  UNL     1     -42.344   6.241   0.652  1.00 20.00     0.145 C 
HETATM    8  C7  UNL     1     -43.417   6.719   1.623  1.00 20.00     0.042 C 
HETATM    9  O9  UNL     1     -42.640   4.904   0.240  1.00 20.00    -0.343 OA
ENDBRANCH   1   4
TORSDOF 1
ENDMDL
MODEL 8
REMARK VINA RESULT:      -3.3     11.361     12.499
REMARK  1 active torsions:
REMARK  status: ('A' for Active; 'I' for Inactive)
REMARK    1  A    between atoms: C1_1  and  C4_4 
ROOT
HETATM    1  C1  UNL     1     -32.333  18.894   0.150  1.00 20.00    -0.047 C 
HETATM    2  C2  UNL     1     -31.537  18.840   1.047  1.00 20.00    -0.106 C 
HETATM    3  C6  UNL     1     -30.569  18.773   2.141  1.00 20.00     0.112 C 
ENDROOT
BRANCH   1   4
HETATM    4  C4  UNL     1     -33.304  18.960  -0.944  1.00 20.00     0.343 C 
HETATM    5  O8  UNL     1     -34.255  17.891  -0.830  1.00 20.00    -0.348 OA
HETATM    6  C3  UNL     1     -33.933  16.999  -1.897  1.00 20.00     0.203 C 
HETATM    7  C5  UNL     1     -33.349  17.900  -2.962  1.00 20.00     0.145 C 
HETATM    8  C7  UNL     1     -34.413  18.599  -3.800  1.00 20.00     0.042 C 
HETATM    9  O9  UNL     1     -32.626  18.875  -2.207  1.00 20.00    -0.343 OA
ENDBRANCH   1   4
TORSDOF 1
ENDMDL
MODEL 9
REMARK VINA RESULT:      -3.2     10.920     11.705
REMARK  1 active torsions:
REMARK  status: ('A' for Active; 'I' for Inactive)
REMARK    1  A    between atoms: C1_1  and  C4_4 
ROOT
HETATM    1  C1  UNL     1     -34.747  14.574  -4.907  1.00 20.00    -0.047 C 
HETATM    2  C2  UNL     1     -34.790  14.014  -5.968  1.00 20.00    -0.106 C 
HETATM    3  C6  UNL     1     -34.842  13.330  -7.259  1.00 20.00     0.112 C 
ENDROOT
BRANCH   1   4
HETATM    4  C4  UNL     1     -34.695  15.257  -3.612  1.00 20.00     0.343 C 
HETATM    5  O8  UNL     1     -35.806  16.155  -3.479  1.00 20.00    -0.348 OA
HETATM    6  C3  UNL     1     -35.237  17.460  -3.575  1.00 20.00     0.203 C 
HETATM    7  C5  UNL     1     -33.836  17.288  -3.034  1.00 20.00     0.145 C 
HETATM    8  C7  UNL     1     -33.778  17.321  -1.511  1.00 20.00     0.042 C 
HETATM    9  O9  UNL     1     -33.464  15.986  -3.493  1.00 20.00    -0.343 OA
ENDBRANCH   1   4
TORSDOF 1
ENDMDL
