MODEL 1
REMARK VINA RESULT:      -5.4      0.000      0.000
REMARK  2 active torsions:
REMARK  status: ('A' for Active; 'I' for Inactive)
REMARK    1  A    between atoms: C3_3  and  C6_6 
REMARK    2  A    between atoms: C3_3  and  O10_10 
ROOT
HETATM    1  C1  UNL     1     -34.055   7.184   4.220  1.00 20.00    -0.010 C 
HETATM    2  C2  UNL     1     -34.123   5.880   4.513  1.00 20.00    -0.087 C 
HETATM    3  C4  UNL     1     -33.635   5.032   3.382  1.00 20.00     0.034 C 
HETATM    4  C5  UNL     1     -33.538   6.025   2.219  1.00 20.00     0.023 C 
HETATM    5  C6  UNL     1     -33.517   7.419   2.848  1.00 20.00     0.108 C 
HETATM    6  C7  UNL     1     -34.583   5.274   5.789  1.00 20.00     0.043 C 
ENDROOT
BRANCH   5   7
HETATM    7  C3  UNL     1     -32.128   7.959   2.981  1.00 20.00     0.266 C 
HETATM    8  O9  UNL     1     -31.559   8.131   4.051  1.00 20.00    -0.265 OA
BRANCH   7   9
HETATM    9  O10 UNL     1     -31.620   8.220   1.743  1.00 20.00    -0.326 OA
HETATM   10  C8  UNL     1     -32.220   9.320   1.051  1.00 20.00     0.213 C 
ENDBRANCH   7   9
ENDBRANCH   5   7
TORSDOF 2
ENDMDL
MODEL 2
REMARK VINA RESULT:      -5.0      1.956      4.237
REMARK  2 active torsions:
REMARK  status: ('A' for Active; 'I' for Inactive)
REMARK    1  A    between atoms: C3_3  and  C6_6 
REMARK    2  A    between atoms: C3_3  and  O10_10 
ROOT
HETATM    1  C1  UNL     1     -33.472   7.808   2.182  1.00 20.00    -0.010 C 
HETATM    2  C2  UNL     1     -32.228   8.297   2.118  1.00 20.00    -0.087 C 
HETATM    3  C4  UNL     1     -31.502   8.132   3.415  1.00 20.00     0.034 C 
HETATM    4  C5  UNL     1     -32.615   7.730   4.388  1.00 20.00     0.023 C 
HETATM    5  C6  UNL     1     -33.780   7.243   3.528  1.00 20.00     0.108 C 
HETATM    6  C7  UNL     1     -31.569   8.912   0.938  1.00 20.00     0.043 C 
ENDROOT
BRANCH   5   7
HETATM    7  C3  UNL     1     -33.812   5.751   3.409  1.00 20.00     0.266 C 
HETATM    8  O9  UNL     1     -32.995   5.098   2.774  1.00 20.00    -0.265 OA
BRANCH   7   9
HETATM    9  O10 UNL     1     -34.874   5.261   4.107  1.00 20.00    -0.326 OA
HETATM   10  C8  UNL     1     -34.602   4.894   5.464  1.00 20.00     0.213 C 
ENDBRANCH   7   9
ENDBRANCH   5   7
TORSDOF 2
ENDMDL
MODEL 3
REMARK VINA RESULT:      -4.9      1.478      2.177
REMARK  2 active torsions:
REMARK  status: ('A' for Active; 'I' for Inactive)
REMARK    1  A    between atoms: C3_3  and  C6_6 
REMARK    2  A    between atoms: C3_3  and  O10_10 
ROOT
HETATM    1  C1  UNL     1     -33.115   6.720   2.516  1.00 20.00    -0.010 C 
HETATM    2  C2  UNL     1     -33.780   6.665   3.676  1.00 20.00    -0.087 C 
HETATM    3  C4  UNL     1     -33.223   7.625   4.679  1.00 20.00     0.034 C 
HETATM    4  C5  UNL     1     -31.903   8.069   4.040  1.00 20.00     0.023 C 
HETATM    5  C6  UNL     1     -32.007   7.719   2.556  1.00 20.00     0.108 C 
HETATM    6  C7  UNL     1     -34.952   5.810   3.995  1.00 20.00     0.043 C 
ENDROOT
BRANCH   5   7
HETATM    7  C3  UNL     1     -32.412   8.895   1.723  1.00 20.00     0.266 C 
HETATM    8  O9  UNL     1     -32.243  10.060   2.056  1.00 20.00    -0.265 OA
BRANCH   7   9
HETATM    9  O10 UNL     1     -32.984   8.459   0.566  1.00 20.00    -0.326 OA
HETATM   10  C8  UNL     1     -33.122   9.445  -0.462  1.00 20.00     0.213 C 
ENDBRANCH   7   9
ENDBRANCH   5   7
TORSDOF 2
ENDMDL
MODEL 4
REMARK VINA RESULT:      -4.4     10.702     11.465
REMARK  2 active torsions:
REMARK  status: ('A' for Active; 'I' for Inactive)
REMARK    1  A    between atoms: C3_3  and  C6_6 
REMARK    2  A    between atoms: C3_3  and  O10_10 
ROOT
HETATM    1  C1  UNL     1     -33.541  16.525  -3.719  1.00 20.00    -0.010 C 
HETATM    2  C2  UNL     1     -33.853  16.943  -2.487  1.00 20.00    -0.087 C 
HETATM    3  C4  UNL     1     -35.214  16.480  -2.074  1.00 20.00     0.034 C 
HETATM    4  C5  UNL     1     -35.816  15.959  -3.384  1.00 20.00     0.023 C 
HETATM    5  C6  UNL     1     -34.640  15.723  -4.330  1.00 20.00     0.108 C 
HETATM    6  C7  UNL     1     -32.998  17.740  -1.570  1.00 20.00     0.043 C 
ENDROOT
BRANCH   5   7
HETATM    7  C3  UNL     1     -34.210  14.289  -4.353  1.00 20.00     0.266 C 
HETATM    8  O9  UNL     1     -33.051  13.920  -4.223  1.00 20.00    -0.265 OA
BRANCH   7   9
HETATM    9  O10 UNL     1     -35.299  13.490  -4.538  1.00 20.00    -0.326 OA
HETATM   10  C8  UNL     1     -35.745  13.361  -5.892  1.00 20.00     0.213 C 
ENDBRANCH   7   9
ENDBRANCH   5   7
TORSDOF 2
ENDMDL
MODEL 5
REMARK VINA RESULT:      -4.3      1.793      2.363
REMARK  2 active torsions:
REMARK  status: ('A' for Active; 'I' for Inactive)
REMARK    1  A    between atoms: C3_3  and  C6_6 
REMARK    2  A    between atoms: C3_3  and  O10_10 
ROOT
HETATM    1  C1  UNL     1     -34.105   7.203   4.322  1.00 20.00    -0.010 C 
HETATM    2  C2  UNL     1     -34.134   6.825   5.605  1.00 20.00    -0.087 C 
HETATM    3  C4  UNL     1     -34.412   5.362   5.745  1.00 20.00     0.034 C 
HETATM    4  C5  UNL     1     -34.854   4.956   4.335  1.00 20.00     0.023 C 
HETATM    5  C6  UNL     1     -34.364   6.060   3.399  1.00 20.00     0.108 C 
HETATM    6  C7  UNL     1     -33.897   7.682   6.795  1.00 20.00     0.043 C 
ENDROOT
BRANCH   5   7
HETATM    7  C3  UNL     1     -33.074   5.703   2.729  1.00 20.00     0.266 C 
HETATM    8  O9  UNL     1     -32.844   4.613   2.222  1.00 20.00    -0.265 OA
BRANCH   7   9
HETATM    9  O10 UNL     1     -32.224   6.768   2.779  1.00 20.00    -0.326 OA
HETATM   10  C8  UNL     1     -32.455   7.785   1.800  1.00 20.00     0.213 C 
ENDBRANCH   7   9
ENDBRANCH   5   7
TORSDOF 2
ENDMDL
MODEL 6
REMARK VINA RESULT:      -4.2     11.245     12.008
REMARK  2 active torsions:
REMARK  status: ('A' for Active; 'I' for Inactive)
REMARK    1  A    between atoms: C3_3  and  C6_6 
REMARK    2  A    between atoms: C3_3  and  O10_10 
ROOT
HETATM    1  C1  UNL     1     -34.886  15.277  -4.082  1.00 20.00    -0.010 C 
HETATM    2  C2  UNL     1     -35.422  16.183  -3.256  1.00 20.00    -0.087 C 
HETATM    3  C4  UNL     1     -36.663  16.790  -3.832  1.00 20.00     0.034 C 
HETATM    4  C5  UNL     1     -36.633  16.325  -5.291  1.00 20.00     0.023 C 
HETATM    5  C6  UNL     1     -35.674  15.135  -5.341  1.00 20.00     0.108 C 
HETATM    6  C7  UNL     1     -34.928  16.568  -1.910  1.00 20.00     0.043 C 
ENDROOT
BRANCH   5   7
HETATM    7  C3  UNL     1     -36.394  13.825  -5.294  1.00 20.00     0.266 C 
HETATM    8  O9  UNL     1     -37.549  13.692  -4.914  1.00 20.00    -0.265 OA
BRANCH   7   9
HETATM    9  O10 UNL     1     -35.567  12.834  -5.733  1.00 20.00    -0.326 OA
HETATM   10  C8  UNL     1     -35.110  12.967  -7.082  1.00 20.00     0.213 C 
ENDBRANCH   7   9
ENDBRANCH   5   7
TORSDOF 2
ENDMDL
MODEL 7
REMARK VINA RESULT:      -4.1     10.800     11.945
REMARK  2 active torsions:
REMARK  status: ('A' for Active; 'I' for Inactive)
REMARK    1  A    between atoms: C3_3  and  C6_6 
REMARK    2  A    between atoms: C3_3  and  O10_10 
ROOT
HETATM    1  C1  UNL     1     -35.253  15.527  -3.784  1.00 20.00    -0.010 C 
HETATM    2  C2  UNL     1     -34.428  16.478  -4.235  1.00 20.00    -0.087 C 
HETATM    3  C4  UNL     1     -33.229  15.895  -4.914  1.00 20.00     0.034 C 
HETATM    4  C5  UNL     1     -33.304  14.411  -4.537  1.00 20.00     0.023 C 
HETATM    5  C6  UNL     1     -34.741  14.157  -4.082  1.00 20.00     0.108 C 
HETATM    6  C7  UNL     1     -34.621  17.948  -4.142  1.00 20.00     0.043 C 
ENDROOT
BRANCH   5   7
HETATM    7  C3  UNL     1     -35.585  13.573  -5.171  1.00 20.00     0.266 C 
HETATM    8  O9  UNL     1     -36.808  13.548  -5.151  1.00 20.00    -0.265 OA
BRANCH   7   9
HETATM    9  O10 UNL     1     -34.782  13.089  -6.160  1.00 20.00    -0.326 OA
HETATM   10  C8  UNL     1     -35.258  13.292  -7.494  1.00 20.00     0.213 C 
ENDBRANCH   7   9
ENDBRANCH   5   7
TORSDOF 2
ENDMDL
MODEL 8
REMARK VINA RESULT:      -4.1      1.833      3.955
REMARK  2 active torsions:
REMARK  status: ('A' for Active; 'I' for Inactive)
REMARK    1  A    between atoms: C3_3  and  C6_6 
REMARK    2  A    between atoms: C3_3  and  O10_10 
ROOT
HETATM    1  C1  UNL     1     -32.129   8.001   3.385  1.00 20.00    -0.010 C 
HETATM    2  C2  UNL     1     -32.571   8.329   2.165  1.00 20.00    -0.087 C 
HETATM    3  C4  UNL     1     -33.484   7.282   1.608  1.00 20.00     0.034 C 
HETATM    4  C5  UNL     1     -33.289   6.104   2.569  1.00 20.00     0.023 C 
HETATM    5  C6  UNL     1     -32.667   6.686   3.839  1.00 20.00     0.108 C 
HETATM    6  C7  UNL     1     -32.267   9.569   1.407  1.00 20.00     0.043 C 
ENDROOT
BRANCH   5   7
HETATM    7  C3  UNL     1     -33.688   6.944   4.902  1.00 20.00     0.266 C 
HETATM    8  O9  UNL     1     -33.577   7.807   5.762  1.00 20.00    -0.265 OA
BRANCH   7   9
HETATM    9  O10 UNL     1     -34.731   6.079   4.753  1.00 20.00    -0.326 OA
HETATM   10  C8  UNL     1     -34.704   4.930   5.605  1.00 20.00     0.213 C 
ENDBRANCH   7   9
ENDBRANCH   5   7
TORSDOF 2
ENDMDL
MODEL 9
REMARK VINA RESULT:      -4.1      1.144      1.700
REMARK  2 active torsions:
REMARK  status: ('A' for Active; 'I' for Inactive)
REMARK    1  A    between atoms: C3_3  and  C6_6 
REMARK    2  A    between atoms: C3_3  and  O10_10 
ROOT
HETATM    1  C1  UNL     1     -34.682   6.370   3.888  1.00 20.00    -0.010 C 
HETATM    2  C2  UNL     1     -34.342   5.283   4.590  1.00 20.00    -0.087 C 
HETATM    3  C4  UNL     1     -33.414   4.396   3.822  1.00 20.00     0.034 C 
HETATM    4  C5  UNL     1     -33.479   4.971   2.403  1.00 20.00     0.023 C 
HETATM    5  C6  UNL     1     -34.043   6.385   2.540  1.00 20.00     0.108 C 
HETATM    6  C7  UNL     1     -34.764   4.943   5.973  1.00 20.00     0.043 C 
ENDROOT
BRANCH   5   7
HETATM    7  C3  UNL     1     -32.968   7.426   2.548  1.00 20.00     0.266 C 
HETATM    8  O9  UNL     1     -32.605   8.042   1.554  1.00 20.00    -0.265 OA
BRANCH   7   9
HETATM    9  O10 UNL     1     -32.478   7.567   3.812  1.00 20.00    -0.326 OA
HETATM   10  C8  UNL     1     -31.326   8.406   3.935  1.00 20.00     0.213 C 
ENDBRANCH   7   9
ENDBRANCH   5   7
TORSDOF 2
ENDMDL
