MODEL 1
REMARK VINA RESULT:      -6.3      0.000      0.000
REMARK  5 active torsions:
REMARK  status: ('A' for Active; 'I' for Inactive)
REMARK    1  A    between atoms: C1_1  and  C5_5 
REMARK    2  A    between atoms: C2_2  and  C7_7 
REMARK    3  A    between atoms: C5_5  and  O10_10 
REMARK    4  A    between atoms: C7_7  and  C9_9 
REMARK    5  A    between atoms: C8_8  and  C9_9 
ROOT
HETATM    1  C1  UNL     1     -33.637   6.588   3.802  1.00 20.00    -0.068 C 
HETATM    2  C2  UNL     1     -32.796   7.365   3.442  1.00 20.00    -0.103 C 
ENDROOT
BRANCH   1   3
HETATM    3  C5  UNL     1     -34.663   5.641   4.239  1.00 20.00     0.121 A 
HETATM    4  C3  UNL     1     -34.279   4.219   4.441  1.00 20.00     0.055 A 
HETATM    5  C4  UNL     1     -34.588   5.097   5.620  1.00 20.00     0.055 A 
BRANCH   3   6
HETATM    6  O10 UNL     1     -35.939   5.937   3.684  1.00 20.00    -0.378 OA
HETATM    7  H24 UNL     1     -36.099   5.278   2.989  1.00 20.00     0.211 HD
ENDBRANCH   3   6
ENDBRANCH   1   3
BRANCH   2   8
HETATM    8  C7  UNL     1     -31.765   8.316   3.005  1.00 20.00     0.094 C 
BRANCH   8   9
HETATM    9  C9  UNL     1     -31.738   8.437   1.481  1.00 20.00     0.012 C 
BRANCH   9  10
HETATM   10  C8  UNL     1     -32.440   9.712   1.012  1.00 20.00    -0.004 C 
HETATM   11  C6  UNL     1     -33.118   9.512  -0.334  1.00 20.00     0.005 C 
ENDBRANCH   9  10
ENDBRANCH   8   9
ENDBRANCH   2   8
TORSDOF 5
ENDMDL
MODEL 2
REMARK VINA RESULT:      -5.8      2.207      5.633
REMARK  5 active torsions:
REMARK  status: ('A' for Active; 'I' for Inactive)
REMARK    1  A    between atoms: C1_1  and  C5_5 
REMARK    2  A    between atoms: C2_2  and  C7_7 
REMARK    3  A    between atoms: C5_5  and  O10_10 
REMARK    4  A    between atoms: C7_7  and  C9_9 
REMARK    5  A    between atoms: C8_8  and  C9_9 
ROOT
HETATM    1  C1  UNL     1     -32.644   8.218   2.000  1.00 20.00    -0.068 C 
HETATM    2  C2  UNL     1     -33.065   7.514   2.877  1.00 20.00    -0.103 C 
ENDROOT
BRANCH   1   3
HETATM    3  C5  UNL     1     -32.130   9.075   0.933  1.00 20.00     0.121 A 
HETATM    4  C3  UNL     1     -33.088   9.631  -0.058  1.00 20.00     0.055 A 
HETATM    5  C4  UNL     1     -32.452  10.526   0.966  1.00 20.00     0.055 A 
BRANCH   3   6
HETATM    6  O10 UNL     1     -30.841   8.666   0.488  1.00 20.00    -0.378 OA
HETATM    7  H24 UNL     1     -30.884   7.704   0.360  1.00 20.00     0.211 HD
ENDBRANCH   3   6
ENDBRANCH   1   3
BRANCH   2   8
HETATM    8  C7  UNL     1     -33.584   6.653   3.949  1.00 20.00     0.094 C 
BRANCH   8   9
HETATM    9  C9  UNL     1     -33.986   5.282   3.407  1.00 20.00     0.012 C 
BRANCH   9  10
HETATM   10  C8  UNL     1     -34.443   4.352   4.531  1.00 20.00    -0.004 C 
HETATM   11  C6  UNL     1     -34.626   5.106   5.839  1.00 20.00     0.005 C 
ENDBRANCH   9  10
ENDBRANCH   8   9
ENDBRANCH   2   8
TORSDOF 5
ENDMDL
MODEL 3
REMARK VINA RESULT:      -5.7      1.154      1.314
REMARK  5 active torsions:
REMARK  status: ('A' for Active; 'I' for Inactive)
REMARK    1  A    between atoms: C1_1  and  C5_5 
REMARK    2  A    between atoms: C2_2  and  C7_7 
REMARK    3  A    between atoms: C5_5  and  O10_10 
REMARK    4  A    between atoms: C7_7  and  C9_9 
REMARK    5  A    between atoms: C8_8  and  C9_9 
ROOT
HETATM    1  C1  UNL     1     -33.140   6.627   3.385  1.00 20.00    -0.068 C 
HETATM    2  C2  UNL     1     -32.423   7.529   3.045  1.00 20.00    -0.103 C 
ENDROOT
BRANCH   1   3
HETATM    3  C5  UNL     1     -34.015   5.531   3.798  1.00 20.00     0.121 A 
HETATM    4  C3  UNL     1     -34.625   5.579   5.153  1.00 20.00     0.055 A 
HETATM    5  C4  UNL     1     -35.471   5.792   3.932  1.00 20.00     0.055 A 
BRANCH   3   6
HETATM    6  O10 UNL     1     -33.585   4.276   3.282  1.00 20.00    -0.378 OA
HETATM    7  H24 UNL     1     -33.978   3.592   3.848  1.00 20.00     0.211 HD
ENDBRANCH   3   6
ENDBRANCH   1   3
BRANCH   2   8
HETATM    8  C7  UNL     1     -31.543   8.630   2.630  1.00 20.00     0.094 C 
BRANCH   8   9
HETATM    9  C9  UNL     1     -31.523   8.776   1.109  1.00 20.00     0.012 C 
BRANCH   9  10
HETATM   10  C8  UNL     1     -32.462   9.889   0.645  1.00 20.00    -0.004 C 
HETATM   11  C6  UNL     1     -33.278   9.463  -0.565  1.00 20.00     0.005 C 
ENDBRANCH   9  10
ENDBRANCH   8   9
ENDBRANCH   2   8
TORSDOF 5
ENDMDL
MODEL 4
REMARK VINA RESULT:      -5.7      2.344      5.387
REMARK  5 active torsions:
REMARK  status: ('A' for Active; 'I' for Inactive)
REMARK    1  A    between atoms: C1_1  and  C5_5 
REMARK    2  A    between atoms: C2_2  and  C7_7 
REMARK    3  A    between atoms: C5_5  and  O10_10 
REMARK    4  A    between atoms: C7_7  and  C9_9 
REMARK    5  A    between atoms: C8_8  and  C9_9 
ROOT
HETATM    1  C1  UNL     1     -32.678   7.769   1.793  1.00 20.00    -0.068 C 
HETATM    2  C2  UNL     1     -33.074   6.826   2.422  1.00 20.00    -0.103 C 
ENDROOT
BRANCH   1   3
HETATM    3  C5  UNL     1     -32.197   8.919   1.028  1.00 20.00     0.121 A 
HETATM    4  C3  UNL     1     -33.108   9.542   0.032  1.00 20.00     0.055 A 
HETATM    5  C4  UNL     1     -32.779  10.257   1.311  1.00 20.00     0.055 A 
BRANCH   3   6
HETATM    6  O10 UNL     1     -30.810   8.821   0.724  1.00 20.00    -0.378 OA
HETATM    7  H24 UNL     1     -30.616   7.876   0.612  1.00 20.00     0.211 HD
ENDBRANCH   3   6
ENDBRANCH   1   3
BRANCH   2   8
HETATM    8  C7  UNL     1     -33.556   5.670   3.190  1.00 20.00     0.094 C 
BRANCH   8   9
HETATM    9  C9  UNL     1     -34.779   6.038   4.030  1.00 20.00     0.012 C 
BRANCH   9  10
HETATM   10  C8  UNL     1     -34.450   6.032   5.523  1.00 20.00    -0.004 C 
HETATM   11  C6  UNL     1     -33.739   7.308   5.943  1.00 20.00     0.005 C 
ENDBRANCH   9  10
ENDBRANCH   8   9
ENDBRANCH   2   8
TORSDOF 5
ENDMDL
MODEL 5
REMARK VINA RESULT:      -5.7      2.081      5.282
REMARK  5 active torsions:
REMARK  status: ('A' for Active; 'I' for Inactive)
REMARK    1  A    between atoms: C1_1  and  C5_5 
REMARK    2  A    between atoms: C2_2  and  C7_7 
REMARK    3  A    between atoms: C5_5  and  O10_10 
REMARK    4  A    between atoms: C7_7  and  C9_9 
REMARK    5  A    between atoms: C8_8  and  C9_9 
ROOT
HETATM    1  C1  UNL     1     -32.770   7.549   2.406  1.00 20.00    -0.068 C 
HETATM    2  C2  UNL     1     -33.277   6.525   2.777  1.00 20.00    -0.103 C 
ENDROOT
BRANCH   1   3
HETATM    3  C5  UNL     1     -32.154   8.796   1.953  1.00 20.00     0.121 A 
HETATM    4  C3  UNL     1     -31.612   8.860   0.570  1.00 20.00     0.055 A 
HETATM    5  C4  UNL     1     -32.862   9.610   0.931  1.00 20.00     0.055 A 
BRANCH   3   6
HETATM    6  O10 UNL     1     -31.453   9.460   2.998  1.00 20.00    -0.378 OA
HETATM    7  H24 UNL     1     -30.517   9.219   2.902  1.00 20.00     0.211 HD
ENDBRANCH   3   6
ENDBRANCH   1   3
BRANCH   2   8
HETATM    8  C7  UNL     1     -33.894   5.272   3.232  1.00 20.00     0.094 C 
BRANCH   8   9
HETATM    9  C9  UNL     1     -35.024   5.545   4.225  1.00 20.00     0.012 C 
BRANCH   9  10
HETATM   10  C8  UNL     1     -34.501   5.606   5.660  1.00 20.00    -0.004 C 
HETATM   11  C6  UNL     1     -33.974   6.990   6.003  1.00 20.00     0.005 C 
ENDBRANCH   9  10
ENDBRANCH   8   9
ENDBRANCH   2   8
TORSDOF 5
ENDMDL
MODEL 6
REMARK VINA RESULT:      -5.2      2.142      5.562
REMARK  5 active torsions:
REMARK  status: ('A' for Active; 'I' for Inactive)
REMARK    1  A    between atoms: C1_1  and  C5_5 
REMARK    2  A    between atoms: C2_2  and  C7_7 
REMARK    3  A    between atoms: C5_5  and  O10_10 
REMARK    4  A    between atoms: C7_7  and  C9_9 
REMARK    5  A    between atoms: C8_8  and  C9_9 
ROOT
HETATM    1  C1  UNL     1     -32.904   8.511   2.120  1.00 20.00    -0.068 C 
HETATM    2  C2  UNL     1     -33.211   7.719   2.969  1.00 20.00    -0.103 C 
ENDROOT
BRANCH   1   3
HETATM    3  C5  UNL     1     -32.532   9.477   1.088  1.00 20.00     0.121 A 
HETATM    4  C3  UNL     1     -31.503   9.089   0.087  1.00 20.00     0.055 A 
HETATM    5  C4  UNL     1     -32.944   9.216  -0.315  1.00 20.00     0.055 A 
BRANCH   3   6
HETATM    6  O10 UNL     1     -32.548  10.816   1.573  1.00 20.00    -0.378 OA
HETATM    7  H24 UNL     1     -31.934  10.847   2.324  1.00 20.00     0.211 HD
ENDBRANCH   3   6
ENDBRANCH   1   3
BRANCH   2   8
HETATM    8  C7  UNL     1     -33.585   6.746   4.005  1.00 20.00     0.094 C 
BRANCH   8   9
HETATM    9  C9  UNL     1     -33.897   5.381   3.392  1.00 20.00     0.012 C 
BRANCH   9  10
HETATM   10  C8  UNL     1     -34.445   4.413   4.440  1.00 20.00    -0.004 C 
HETATM   11  C6  UNL     1     -34.609   5.089   5.792  1.00 20.00     0.005 C 
ENDBRANCH   9  10
ENDBRANCH   8   9
ENDBRANCH   2   8
TORSDOF 5
ENDMDL
MODEL 7
REMARK VINA RESULT:      -4.8      2.050      5.447
REMARK  5 active torsions:
REMARK  status: ('A' for Active; 'I' for Inactive)
REMARK    1  A    between atoms: C1_1  and  C5_5 
REMARK    2  A    between atoms: C2_2  and  C7_7 
REMARK    3  A    between atoms: C5_5  and  O10_10 
REMARK    4  A    between atoms: C7_7  and  C9_9 
REMARK    5  A    between atoms: C8_8  and  C9_9 
ROOT
HETATM    1  C1  UNL     1     -33.009   7.716   2.591  1.00 20.00    -0.068 C 
HETATM    2  C2  UNL     1     -33.848   6.960   3.002  1.00 20.00    -0.103 C 
ENDROOT
BRANCH   1   3
HETATM    3  C5  UNL     1     -31.987   8.634   2.092  1.00 20.00     0.121 A 
HETATM    4  C3  UNL     1     -31.788   8.748   0.624  1.00 20.00     0.055 A 
HETATM    5  C4  UNL     1     -32.421   9.871   1.392  1.00 20.00     0.055 A 
BRANCH   3   6
HETATM    6  O10 UNL     1     -30.850   8.689   2.947  1.00 20.00    -0.378 OA
HETATM    7  H24 UNL     1     -30.282   7.941   2.703  1.00 20.00     0.211 HD
ENDBRANCH   3   6
ENDBRANCH   1   3
BRANCH   2   8
HETATM    8  C7  UNL     1     -34.876   6.038   3.503  1.00 20.00     0.094 C 
BRANCH   8   9
HETATM    9  C9  UNL     1     -34.861   5.974   5.030  1.00 20.00     0.012 C 
BRANCH   9  10
HETATM   10  C8  UNL     1     -34.430   4.593   5.525  1.00 20.00    -0.004 C 
HETATM   11  C6  UNL     1     -33.981   3.704   4.376  1.00 20.00     0.005 C 
ENDBRANCH   9  10
ENDBRANCH   8   9
ENDBRANCH   2   8
TORSDOF 5
ENDMDL
MODEL 8
REMARK VINA RESULT:      -4.5     11.022     11.592
REMARK  5 active torsions:
REMARK  status: ('A' for Active; 'I' for Inactive)
REMARK    1  A    between atoms: C1_1  and  C5_5 
REMARK    2  A    between atoms: C2_2  and  C7_7 
REMARK    3  A    between atoms: C5_5  and  O10_10 
REMARK    4  A    between atoms: C7_7  and  C9_9 
REMARK    5  A    between atoms: C8_8  and  C9_9 
ROOT
HETATM    1  C1  UNL     1     -34.908  14.705  -4.630  1.00 20.00    -0.068 C 
HETATM    2  C2  UNL     1     -34.430  15.475  -3.843  1.00 20.00    -0.103 C 
ENDROOT
BRANCH   1   3
HETATM    3  C5  UNL     1     -35.493  13.766  -5.587  1.00 20.00     0.121 A 
HETATM    4  C3  UNL     1     -36.223  14.311  -6.762  1.00 20.00     0.055 A 
HETATM    5  C4  UNL     1     -34.884  13.655  -6.938  1.00 20.00     0.055 A 
BRANCH   3   6
HETATM    6  O10 UNL     1     -35.986  12.591  -4.955  1.00 20.00    -0.378 OA
HETATM    7  H24 UNL     1     -35.416  12.427  -4.187  1.00 20.00     0.211 HD
ENDBRANCH   3   6
ENDBRANCH   1   3
BRANCH   2   8
HETATM    8  C7  UNL     1     -33.842  16.418  -2.882  1.00 20.00     0.094 C 
BRANCH   8   9
HETATM    9  C9  UNL     1     -34.831  16.757  -1.766  1.00 20.00     0.012 C 
BRANCH   9  10
HETATM   10  C8  UNL     1     -34.220  17.728  -0.757  1.00 20.00    -0.004 C 
HETATM   11  C6  UNL     1     -32.806  18.125  -1.150  1.00 20.00     0.005 C 
ENDBRANCH   9  10
ENDBRANCH   8   9
ENDBRANCH   2   8
TORSDOF 5
ENDMDL
MODEL 9
REMARK VINA RESULT:      -4.2     11.069     11.832
REMARK  5 active torsions:
REMARK  status: ('A' for Active; 'I' for Inactive)
REMARK    1  A    between atoms: C1_1  and  C5_5 
REMARK    2  A    between atoms: C2_2  and  C7_7 
REMARK    3  A    between atoms: C5_5  and  O10_10 
REMARK    4  A    between atoms: C7_7  and  C9_9 
REMARK    5  A    between atoms: C8_8  and  C9_9 
ROOT
HETATM    1  C1  UNL     1     -33.604  15.797  -3.648  1.00 20.00    -0.068 C 
HETATM    2  C2  UNL     1     -33.803  16.476  -2.677  1.00 20.00    -0.103 C 
ENDROOT
BRANCH   1   3
HETATM    3  C5  UNL     1     -33.361  14.972  -4.830  1.00 20.00     0.121 A 
HETATM    4  C3  UNL     1     -34.444  14.837  -5.840  1.00 20.00     0.055 A 
HETATM    5  C4  UNL     1     -33.214  15.641  -6.148  1.00 20.00     0.055 A 
BRANCH   3   6
HETATM    6  O10 UNL     1     -32.549  13.840  -4.538  1.00 20.00    -0.378 OA
HETATM    7  H24 UNL     1     -31.736  13.938  -5.060  1.00 20.00     0.211 HD
ENDBRANCH   3   6
ENDBRANCH   1   3
BRANCH   2   8
HETATM    8  C7  UNL     1     -34.049  17.303  -1.489  1.00 20.00     0.094 C 
BRANCH   8   9
HETATM    9  C9  UNL     1     -35.487  17.145  -0.995  1.00 20.00     0.012 C 
BRANCH   9  10
HETATM   10  C8  UNL     1     -35.613  17.520   0.481  1.00 20.00    -0.004 C 
HETATM   11  C6  UNL     1     -34.449  18.384   0.939  1.00 20.00     0.005 C 
ENDBRANCH   9  10
ENDBRANCH   8   9
ENDBRANCH   2   8
TORSDOF 5
ENDMDL
