MODEL 1
REMARK VINA RESULT:      -5.3      0.000      0.000
REMARK  1 active torsions:
REMARK  status: ('A' for Active; 'I' for Inactive)
REMARK    1  A    between atoms: C1_1  and  C4_4 
ROOT
HETATM    1  C2  UNL     1     -34.467   5.953   2.930  1.00 20.00     0.016 C 
HETATM    2  C3  UNL     1     -32.984   5.619   2.696  1.00 20.00     0.022 C 
HETATM    3  C4  UNL     1     -34.013   7.066   3.906  1.00 20.00     0.090 C 
HETATM    4  C5  UNL     1     -32.636   7.042   3.182  1.00 20.00     0.094 C 
HETATM    5 CL8  UNL     1     -32.332   8.299   1.925  1.00 20.00    -0.124 Cl
ENDROOT
BRANCH   3   6
HETATM    6  C1  UNL     1     -34.016   6.738   5.408  1.00 20.00     0.224 C 
HETATM    7  O6  UNL     1     -33.612   7.541   6.244  1.00 20.00    -0.279 OA
HETATM    8 CL7  UNL     1     -34.641   5.150   5.729  1.00 20.00    -0.043 Cl
ENDBRANCH   3   6
TORSDOF 1
ENDMDL
MODEL 2
REMARK VINA RESULT:      -4.4      1.989      2.569
REMARK  1 active torsions:
REMARK  status: ('A' for Active; 'I' for Inactive)
REMARK    1  A    between atoms: C1_1  and  C4_4 
ROOT
HETATM    1  C2  UNL     1     -35.254   5.753   3.992  1.00 20.00     0.016 C 
HETATM    2  C3  UNL     1     -34.491   4.506   4.469  1.00 20.00     0.022 C 
HETATM    3  C4  UNL     1     -33.889   6.397   3.647  1.00 20.00     0.090 C 
HETATM    4  C5  UNL     1     -33.303   4.957   3.595  1.00 20.00     0.094 C 
HETATM    5 CL8  UNL     1     -33.123   4.187   1.974  1.00 20.00    -0.124 Cl
ENDROOT
BRANCH   3   6
HETATM    6  C1  UNL     1     -33.278   7.362   4.676  1.00 20.00     0.224 C 
HETATM    7  O6  UNL     1     -33.760   7.500   5.797  1.00 20.00    -0.279 OA
HETATM    8 CL7  UNL     1     -31.880   8.183   4.053  1.00 20.00    -0.043 Cl
ENDBRANCH   3   6
TORSDOF 1
ENDMDL
MODEL 3
REMARK VINA RESULT:      -4.4      1.937      3.465
REMARK  1 active torsions:
REMARK  status: ('A' for Active; 'I' for Inactive)
REMARK    1  A    between atoms: C1_1  and  C4_4 
ROOT
HETATM    1  C2  UNL     1     -33.914   5.542   2.649  1.00 20.00     0.016 C 
HETATM    2  C3  UNL     1     -35.145   6.222   3.273  1.00 20.00     0.022 C 
HETATM    3  C4  UNL     1     -33.025   6.459   3.525  1.00 20.00     0.090 C 
HETATM    4  C5  UNL     1     -34.254   6.638   4.462  1.00 20.00     0.094 C 
HETATM    5 CL8  UNL     1     -34.326   5.622   5.950  1.00 20.00    -0.124 Cl
ENDROOT
BRANCH   3   6
HETATM    6  C1  UNL     1     -32.454   7.728   2.873  1.00 20.00     0.224 C 
HETATM    7  O6  UNL     1     -32.806   8.093   1.755  1.00 20.00    -0.279 OA
HETATM    8 CL7  UNL     1     -31.301   8.527   3.897  1.00 20.00    -0.043 Cl
ENDBRANCH   3   6
TORSDOF 1
ENDMDL
MODEL 4
REMARK VINA RESULT:      -4.4      2.215      2.417
REMARK  1 active torsions:
REMARK  status: ('A' for Active; 'I' for Inactive)
REMARK    1  A    between atoms: C1_1  and  C4_4 
ROOT
HETATM    1  C2  UNL     1     -35.170   5.773   3.898  1.00 20.00     0.016 C 
HETATM    2  C3  UNL     1     -34.442   4.520   4.413  1.00 20.00     0.022 C 
HETATM    3  C4  UNL     1     -33.791   6.350   3.493  1.00 20.00     0.090 C 
HETATM    4  C5  UNL     1     -33.259   4.888   3.492  1.00 20.00     0.094 C 
HETATM    5 CL8  UNL     1     -33.147   4.041   1.904  1.00 20.00    -0.124 Cl
ENDROOT
BRANCH   3   6
HETATM    6  C1  UNL     1     -33.120   7.334   4.464  1.00 20.00     0.224 C 
HETATM    7  O6  UNL     1     -32.157   8.017   4.127  1.00 20.00    -0.279 OA
HETATM    8 CL7  UNL     1     -33.885   7.339   6.024  1.00 20.00    -0.043 Cl
ENDBRANCH   3   6
TORSDOF 1
ENDMDL
MODEL 5
REMARK VINA RESULT:      -4.3      2.143      3.796
REMARK  1 active torsions:
REMARK  status: ('A' for Active; 'I' for Inactive)
REMARK    1  A    between atoms: C1_1  and  C4_4 
ROOT
HETATM    1  C2  UNL     1     -32.682   6.113   2.741  1.00 20.00     0.016 C 
HETATM    2  C3  UNL     1     -34.155   6.280   3.149  1.00 20.00     0.022 C 
HETATM    3  C4  UNL     1     -32.466   7.607   3.088  1.00 20.00     0.090 C 
HETATM    4  C5  UNL     1     -33.736   7.508   3.983  1.00 20.00     0.094 C 
HETATM    5 CL8  UNL     1     -33.493   7.268   5.753  1.00 20.00    -0.124 Cl
ENDROOT
BRANCH   3   6
HETATM    6  C1  UNL     1     -32.506   8.618   1.932  1.00 20.00     0.224 C 
HETATM    7  O6  UNL     1     -33.390   9.465   1.845  1.00 20.00    -0.279 OA
HETATM    8 CL7  UNL     1     -31.184   8.399   0.826  1.00 20.00    -0.043 Cl
ENDBRANCH   3   6
TORSDOF 1
ENDMDL
MODEL 6
REMARK VINA RESULT:      -4.3      1.354      3.352
REMARK  1 active torsions:
REMARK  status: ('A' for Active; 'I' for Inactive)
REMARK    1  A    between atoms: C1_1  and  C4_4 
ROOT
HETATM    1  C2  UNL     1     -33.528   5.631   2.668  1.00 20.00     0.016 C 
HETATM    2  C3  UNL     1     -34.854   6.269   3.113  1.00 20.00     0.022 C 
HETATM    3  C4  UNL     1     -32.804   6.530   3.700  1.00 20.00     0.090 C 
HETATM    4  C5  UNL     1     -34.167   6.658   4.439  1.00 20.00     0.094 C 
HETATM    5 CL8  UNL     1     -34.448   5.591   5.865  1.00 20.00    -0.124 Cl
ENDROOT
BRANCH   3   6
HETATM    6  C1  UNL     1     -32.165   7.830   3.186  1.00 20.00     0.224 C 
HETATM    7  O6  UNL     1     -31.364   8.467   3.864  1.00 20.00    -0.279 OA
HETATM    8 CL7  UNL     1     -32.714   8.242   1.591  1.00 20.00    -0.043 Cl
ENDBRANCH   3   6
TORSDOF 1
ENDMDL
MODEL 7
REMARK VINA RESULT:      -3.9      2.452      3.077
REMARK  1 active torsions:
REMARK  status: ('A' for Active; 'I' for Inactive)
REMARK    1  A    between atoms: C1_1  and  C4_4 
ROOT
HETATM    1  C2  UNL     1     -34.035   7.242   3.165  1.00 20.00     0.016 C 
HETATM    2  C3  UNL     1     -32.703   7.501   3.887  1.00 20.00     0.022 C 
HETATM    3  C4  UNL     1     -34.316   6.114   4.188  1.00 20.00     0.090 C 
HETATM    4  C5  UNL     1     -33.301   6.818   5.135  1.00 20.00     0.094 C 
HETATM    5 CL8  UNL     1     -33.965   7.884   6.428  1.00 20.00    -0.124 Cl
ENDROOT
BRANCH   3   6
HETATM    6  C1  UNL     1     -33.991   4.673   3.765  1.00 20.00     0.224 C 
HETATM    7  O6  UNL     1     -34.456   3.705   4.360  1.00 20.00    -0.279 OA
HETATM    8 CL7  UNL     1     -32.925   4.619   2.394  1.00 20.00    -0.043 Cl
ENDBRANCH   3   6
TORSDOF 1
ENDMDL
MODEL 8
REMARK VINA RESULT:      -3.9     11.657     12.466
REMARK  1 active torsions:
REMARK  status: ('A' for Active; 'I' for Inactive)
REMARK    1  A    between atoms: C1_1  and  C4_4 
ROOT
HETATM    1  C2  UNL     1     -33.557  15.351  -5.727  1.00 20.00     0.016 C 
HETATM    2  C3  UNL     1     -33.030  14.701  -4.436  1.00 20.00     0.022 C 
HETATM    3  C4  UNL     1     -34.979  14.895  -5.319  1.00 20.00     0.090 C 
HETATM    4  C5  UNL     1     -34.456  14.810  -3.856  1.00 20.00     0.094 C 
HETATM    5 CL8  UNL     1     -34.805  16.200  -2.762  1.00 20.00    -0.124 Cl
ENDROOT
BRANCH   3   6
HETATM    6  C1  UNL     1     -35.516  13.598  -5.944  1.00 20.00     0.224 C 
HETATM    7  O6  UNL     1     -35.890  12.655  -5.253  1.00 20.00    -0.279 OA
HETATM    8 CL7  UNL     1     -35.516  13.660  -7.680  1.00 20.00    -0.043 Cl
ENDBRANCH   3   6
TORSDOF 1
ENDMDL
MODEL 9
REMARK VINA RESULT:      -3.8      2.149      2.862
REMARK  1 active torsions:
REMARK  status: ('A' for Active; 'I' for Inactive)
REMARK    1  A    between atoms: C1_1  and  C4_4 
ROOT
HETATM    1  C2  UNL     1     -31.381   8.161   3.672  1.00 20.00     0.016 C 
HETATM    2  C3  UNL     1     -32.052   9.395   3.045  1.00 20.00     0.022 C 
HETATM    3  C4  UNL     1     -32.306   7.276   2.801  1.00 20.00     0.090 C 
HETATM    4  C5  UNL     1     -32.477   8.503   1.860  1.00 20.00     0.094 C 
HETATM    5 CL8  UNL     1     -31.464   8.561   0.370  1.00 20.00    -0.124 Cl
ENDROOT
BRANCH   3   6
HETATM    6  C1  UNL     1     -33.578   6.717   3.457  1.00 20.00     0.224 C 
HETATM    7  O6  UNL     1     -34.362   6.001   2.840  1.00 20.00    -0.279 OA
HETATM    8 CL7  UNL     1     -33.736   7.221   5.112  1.00 20.00    -0.043 Cl
ENDBRANCH   3   6
TORSDOF 1
ENDMDL
