MODEL 1
REMARK VINA RESULT:      -4.6      0.000      0.000
REMARK  1 active torsions:
REMARK  status: ('A' for Active; 'I' for Inactive)
REMARK    1  A    between atoms: C3_3  and  N9_9 
ROOT
HETATM    1  C1  UNL     1     -32.490   7.671   2.301  1.00 20.00     0.096 C 
HETATM    2  C2  UNL     1     -33.047   6.458   2.798  1.00 20.00     0.040 A 
HETATM    3  C3  UNL     1     -33.869   6.186   3.836  1.00 20.00     0.005 A 
HETATM    4  C4  UNL     1     -32.928   5.027   2.346  1.00 20.00     0.057 A 
HETATM    5  C5  UNL     1     -33.854   4.687   3.520  1.00 20.00     0.057 A 
HETATM    6  N8  UNL     1     -32.038   8.660   1.898  1.00 20.00    -0.192 NA
ENDROOT
BRANCH   3   7
HETATM    7  N9  UNL     1     -34.504   6.814   4.805  1.00 20.00    -0.283 NA
HETATM    8  C6  UNL     1     -34.582   6.134   6.108  1.00 20.00     0.110 A 
HETATM    9  C7  UNL     1     -33.692   7.305   5.931  1.00 20.00     0.110 A 
ENDBRANCH   3   7
TORSDOF 1
ENDMDL
MODEL 2
REMARK VINA RESULT:      -4.5      1.095      2.751
REMARK  1 active torsions:
REMARK  status: ('A' for Active; 'I' for Inactive)
REMARK    1  A    between atoms: C3_3  and  N9_9 
ROOT
HETATM    1  C1  UNL     1     -32.352   7.922   3.442  1.00 20.00     0.096 C 
HETATM    2  C2  UNL     1     -33.160   7.364   4.473  1.00 20.00     0.040 A 
HETATM    3  C3  UNL     1     -34.000   6.305   4.505  1.00 20.00     0.005 A 
HETATM    4  C4  UNL     1     -33.376   7.747   5.913  1.00 20.00     0.057 A 
HETATM    5  C5  UNL     1     -34.340   6.556   5.977  1.00 20.00     0.057 A 
HETATM    6  N8  UNL     1     -31.693   8.375   2.602  1.00 20.00    -0.192 NA
ENDROOT
BRANCH   3   7
HETATM    7  N9  UNL     1     -34.453   5.358   3.708  1.00 20.00    -0.283 NA
HETATM    8  C6  UNL     1     -33.458   4.602   2.930  1.00 20.00     0.110 A 
HETATM    9  C7  UNL     1     -34.145   3.966   4.078  1.00 20.00     0.110 A 
ENDBRANCH   3   7
TORSDOF 1
ENDMDL
MODEL 3
REMARK VINA RESULT:      -4.3      1.614      3.915
REMARK  1 active torsions:
REMARK  status: ('A' for Active; 'I' for Inactive)
REMARK    1  A    between atoms: C3_3  and  N9_9 
ROOT
HETATM    1  C1  UNL     1     -34.292   4.783   4.470  1.00 20.00     0.096 C 
HETATM    2  C2  UNL     1     -33.874   6.105   4.795  1.00 20.00     0.040 A 
HETATM    3  C3  UNL     1     -33.144   7.024   4.124  1.00 20.00     0.005 A 
HETATM    4  C4  UNL     1     -34.095   6.970   6.007  1.00 20.00     0.057 A 
HETATM    5  C5  UNL     1     -33.264   8.030   5.274  1.00 20.00     0.057 A 
HETATM    6  N8  UNL     1     -34.632   3.706   4.203  1.00 20.00    -0.192 NA
ENDROOT
BRANCH   3   7
HETATM    7  N9  UNL     1     -32.519   7.165   2.973  1.00 20.00    -0.283 NA
HETATM    8  C6  UNL     1     -32.841   8.358   2.174  1.00 20.00     0.110 A 
HETATM    9  C7  UNL     1     -31.538   8.258   2.871  1.00 20.00     0.110 A 
ENDBRANCH   3   7
TORSDOF 1
ENDMDL
MODEL 4
REMARK VINA RESULT:      -4.2      1.342      3.372
REMARK  1 active torsions:
REMARK  status: ('A' for Active; 'I' for Inactive)
REMARK    1  A    between atoms: C3_3  and  N9_9 
ROOT
HETATM    1  C1  UNL     1     -33.734   7.259   5.520  1.00 20.00     0.096 C 
HETATM    2  C2  UNL     1     -33.928   6.648   4.248  1.00 20.00     0.040 A 
HETATM    3  C3  UNL     1     -33.203   6.659   3.107  1.00 20.00     0.005 A 
HETATM    4  C4  UNL     1     -35.014   5.757   3.706  1.00 20.00     0.057 A 
HETATM    5  C5  UNL     1     -34.217   5.758   2.396  1.00 20.00     0.057 A 
HETATM    6  N8  UNL     1     -33.574   7.757   6.555  1.00 20.00    -0.192 NA
ENDROOT
BRANCH   3   7
HETATM    7  N9  UNL     1     -32.086   7.172   2.633  1.00 20.00    -0.283 NA
HETATM    8  C6  UNL     1     -32.183   8.463   1.932  1.00 20.00     0.110 A 
HETATM    9  C7  UNL     1     -31.578   8.392   3.282  1.00 20.00     0.110 A 
ENDBRANCH   3   7
TORSDOF 1
ENDMDL
MODEL 5
REMARK VINA RESULT:      -4.0      1.816      2.924
REMARK  1 active torsions:
REMARK  status: ('A' for Active; 'I' for Inactive)
REMARK    1  A    between atoms: C3_3  and  N9_9 
ROOT
HETATM    1  C1  UNL     1     -32.777   8.988   0.605  1.00 20.00     0.096 C 
HETATM    2  C2  UNL     1     -32.457   8.459   1.888  1.00 20.00     0.040 A 
HETATM    3  C3  UNL     1     -32.921   7.394   2.580  1.00 20.00     0.005 A 
HETATM    4  C4  UNL     1     -31.478   8.888   2.947  1.00 20.00     0.057 A 
HETATM    5  C5  UNL     1     -31.989   7.692   3.759  1.00 20.00     0.057 A 
HETATM    6  N8  UNL     1     -33.039   9.418  -0.440  1.00 20.00    -0.192 NA
ENDROOT
BRANCH   3   7
HETATM    7  N9  UNL     1     -33.795   6.417   2.452  1.00 20.00    -0.283 NA
HETATM    8  C6  UNL     1     -33.401   5.091   2.956  1.00 20.00     0.110 A 
HETATM    9  C7  UNL     1     -34.407   5.897   3.686  1.00 20.00     0.110 A 
ENDBRANCH   3   7
TORSDOF 1
ENDMDL
MODEL 6
REMARK VINA RESULT:      -3.9     11.849     12.835
REMARK  1 active torsions:
REMARK  status: ('A' for Active; 'I' for Inactive)
REMARK    1  A    between atoms: C3_3  and  N9_9 
ROOT
HETATM    1  C1  UNL     1     -37.012  14.323  -4.863  1.00 20.00     0.096 C 
HETATM    2  C2  UNL     1     -35.596  14.451  -4.797  1.00 20.00     0.040 A 
HETATM    3  C3  UNL     1     -34.600  14.020  -5.604  1.00 20.00     0.005 A 
HETATM    4  C4  UNL     1     -34.682  15.117  -3.804  1.00 20.00     0.057 A 
HETATM    5  C5  UNL     1     -33.531  14.636  -4.696  1.00 20.00     0.057 A 
HETATM    6  N8  UNL     1     -38.167  14.219  -4.918  1.00 20.00    -0.192 NA
ENDROOT
BRANCH   3   7
HETATM    7  N9  UNL     1     -34.436  13.347  -6.725  1.00 20.00    -0.283 NA
HETATM    8  C6  UNL     1     -35.418  13.576  -7.797  1.00 20.00     0.110 A 
HETATM    9  C7  UNL     1     -34.044  14.116  -7.918  1.00 20.00     0.110 A 
ENDBRANCH   3   7
TORSDOF 1
ENDMDL
MODEL 7
REMARK VINA RESULT:      -3.9     11.819     12.471
REMARK  1 active torsions:
REMARK  status: ('A' for Active; 'I' for Inactive)
REMARK    1  A    between atoms: C3_3  and  N9_9 
ROOT
HETATM    1  C1  UNL     1     -32.765  17.910  -1.257  1.00 20.00     0.096 C 
HETATM    2  C2  UNL     1     -33.860  17.205  -1.833  1.00 20.00     0.040 A 
HETATM    3  C3  UNL     1     -34.013  16.555  -3.008  1.00 20.00     0.005 A 
HETATM    4  C4  UNL     1     -35.253  16.918  -1.341  1.00 20.00     0.057 A 
HETATM    5  C5  UNL     1     -35.459  16.179  -2.669  1.00 20.00     0.057 A 
HETATM    6  N8  UNL     1     -31.872  18.485  -0.789  1.00 20.00    -0.192 NA
ENDROOT
BRANCH   3   7
HETATM    7  N9  UNL     1     -33.324  16.269  -4.095  1.00 20.00    -0.283 NA
HETATM    8  C6  UNL     1     -33.134  14.845  -4.415  1.00 20.00     0.110 A 
HETATM    9  C7  UNL     1     -34.063  15.672  -5.220  1.00 20.00     0.110 A 
ENDBRANCH   3   7
TORSDOF 1
ENDMDL
MODEL 8
REMARK VINA RESULT:      -3.9     11.732     12.739
REMARK  1 active torsions:
REMARK  status: ('A' for Active; 'I' for Inactive)
REMARK    1  A    between atoms: C3_3  and  N9_9 
ROOT
HETATM    1  C1  UNL     1     -37.182  14.057  -5.568  1.00 20.00     0.096 C 
HETATM    2  C2  UNL     1     -36.019  13.965  -6.384  1.00 20.00     0.040 A 
HETATM    3  C3  UNL     1     -34.698  13.959  -6.097  1.00 20.00     0.005 A 
HETATM    4  C4  UNL     1     -35.831  13.835  -7.872  1.00 20.00     0.057 A 
HETATM    5  C5  UNL     1     -34.326  13.833  -7.577  1.00 20.00     0.057 A 
HETATM    6  N8  UNL     1     -38.129  14.132  -4.902  1.00 20.00    -0.192 NA
ENDROOT
BRANCH   3   7
HETATM    7  N9  UNL     1     -33.897  14.026  -5.052  1.00 20.00    -0.283 NA
HETATM    8  C6  UNL     1     -33.043  15.219  -4.935  1.00 20.00     0.110 A 
HETATM    9  C7  UNL     1     -34.206  15.044  -4.034  1.00 20.00     0.110 A 
ENDBRANCH   3   7
TORSDOF 1
ENDMDL
MODEL 9
REMARK VINA RESULT:      -3.9     11.489     12.002
REMARK  1 active torsions:
REMARK  status: ('A' for Active; 'I' for Inactive)
REMARK    1  A    between atoms: C3_3  and  N9_9 
ROOT
HETATM    1  C1  UNL     1     -35.374  13.735  -4.799  1.00 20.00     0.096 C 
HETATM    2  C2  UNL     1     -34.587  14.782  -4.240  1.00 20.00     0.040 A 
HETATM    3  C3  UNL     1     -34.886  15.809  -3.413  1.00 20.00     0.005 A 
HETATM    4  C4  UNL     1     -33.128  15.129  -4.360  1.00 20.00     0.057 A 
HETATM    5  C5  UNL     1     -33.437  16.307  -3.429  1.00 20.00     0.057 A 
HETATM    6  N8  UNL     1     -36.017  12.882  -5.254  1.00 20.00    -0.192 NA
ENDROOT
BRANCH   3   7
HETATM    7  N9  UNL     1     -35.921  16.315  -2.773  1.00 20.00    -0.283 NA
HETATM    8  C6  UNL     1     -35.650  17.033  -1.517  1.00 20.00     0.110 A 
HETATM    9  C7  UNL     1     -36.034  17.782  -2.736  1.00 20.00     0.110 A 
ENDBRANCH   3   7
TORSDOF 1
ENDMDL
