MODEL 1
REMARK VINA RESULT:      -4.7      0.000      0.000
REMARK  1 active torsions:
REMARK  status: ('A' for Active; 'I' for Inactive)
REMARK    1  A    between atoms: C1_1  and  C4_4 
ROOT
HETATM    1  C1  UNL     1     -33.074   7.556   3.045  1.00 20.00    -0.049 C 
HETATM    2  C2  UNL     1     -32.563   8.240   2.201  1.00 20.00     0.008 C 
HETATM    3 CL8  UNL     1     -31.816   9.239   0.969  1.00 20.00    -0.023 Cl
ENDROOT
BRANCH   1   4
HETATM    4  C4  UNL     1     -33.684   6.739   4.052  1.00 20.00     0.147 A 
HETATM    5  C3  UNL     1     -33.814   5.242   3.850  1.00 20.00     0.166 A 
HETATM    6  C5  UNL     1     -33.324   4.533   2.637  1.00 20.00     0.044 C 
HETATM    7  O7  UNL     1     -34.911   6.131   3.614  1.00 20.00    -0.356 OA
HETATM    8  C6  UNL     1     -33.757   7.297   5.437  1.00 20.00     0.063 C 
ENDBRANCH   1   4
TORSDOF 1
ENDMDL
MODEL 2
REMARK VINA RESULT:      -3.7      1.377      2.328
REMARK  1 active torsions:
REMARK  status: ('A' for Active; 'I' for Inactive)
REMARK    1  A    between atoms: C1_1  and  C4_4 
ROOT
HETATM    1  C1  UNL     1     -33.403   7.113   3.236  1.00 20.00    -0.049 C 
HETATM    2  C2  UNL     1     -32.668   7.685   2.480  1.00 20.00     0.008 C 
HETATM    3 CL8  UNL     1     -31.592   8.522   1.376  1.00 20.00    -0.023 Cl
ENDROOT
BRANCH   1   4
HETATM    4  C4  UNL     1     -34.283   6.430   4.139  1.00 20.00     0.147 A 
HETATM    5  C3  UNL     1     -34.225   6.714   5.627  1.00 20.00     0.166 A 
HETATM    6  C5  UNL     1     -33.291   7.697   6.239  1.00 20.00     0.044 C 
HETATM    7  O7  UNL     1     -33.589   5.567   5.055  1.00 20.00    -0.356 OA
HETATM    8  C6  UNL     1     -35.517   5.817   3.561  1.00 20.00     0.063 C 
ENDBRANCH   1   4
TORSDOF 1
ENDMDL
MODEL 3
REMARK VINA RESULT:      -3.7     11.275     11.719
REMARK  1 active torsions:
REMARK  status: ('A' for Active; 'I' for Inactive)
REMARK    1  A    between atoms: C1_1  and  C4_4 
ROOT
HETATM    1  C1  UNL     1     -34.752  14.860  -4.649  1.00 20.00    -0.049 C 
HETATM    2  C2  UNL     1     -34.316  15.556  -3.774  1.00 20.00     0.008 C 
HETATM    3 CL8  UNL     1     -33.679  16.573  -2.495  1.00 20.00    -0.023 Cl
ENDROOT
BRANCH   1   4
HETATM    4  C4  UNL     1     -35.273  14.029  -5.694  1.00 20.00     0.147 A 
HETATM    5  C3  UNL     1     -36.769  13.845  -5.853  1.00 20.00     0.166 A 
HETATM    6  C5  UNL     1     -37.774  14.498  -4.971  1.00 20.00     0.044 C 
HETATM    7  O7  UNL     1     -35.956  12.865  -5.199  1.00 20.00    -0.356 OA
HETATM    8  C6  UNL     1     -34.376  13.745  -6.856  1.00 20.00     0.063 C 
ENDBRANCH   1   4
TORSDOF 1
ENDMDL
MODEL 4
REMARK VINA RESULT:      -3.5     11.188     11.437
REMARK  1 active torsions:
REMARK  status: ('A' for Active; 'I' for Inactive)
REMARK    1  A    between atoms: C1_1  and  C4_4 
ROOT
HETATM    1  C1  UNL     1     -34.718  15.775  -3.221  1.00 20.00    -0.049 C 
HETATM    2  C2  UNL     1     -35.056  16.407  -2.259  1.00 20.00     0.008 C 
HETATM    3 CL8  UNL     1     -35.549  17.332  -0.853  1.00 20.00    -0.023 Cl
ENDROOT
BRANCH   1   4
HETATM    4  C4  UNL     1     -34.315  15.018  -4.369  1.00 20.00     0.147 A 
HETATM    5  C3  UNL     1     -35.345  14.282  -5.203  1.00 20.00     0.166 A 
HETATM    6  C5  UNL     1     -36.803  14.299  -4.907  1.00 20.00     0.044 C 
HETATM    7  O7  UNL     1     -34.549  13.607  -4.224  1.00 20.00    -0.356 OA
HETATM    8  C6  UNL     1     -32.986  15.343  -4.972  1.00 20.00     0.063 C 
ENDBRANCH   1   4
TORSDOF 1
ENDMDL
MODEL 5
REMARK VINA RESULT:      -3.5      1.563      1.963
REMARK  1 active torsions:
REMARK  status: ('A' for Active; 'I' for Inactive)
REMARK    1  A    between atoms: C1_1  and  C4_4 
ROOT
HETATM    1  C1  UNL     1     -32.666   8.414   1.853  1.00 20.00    -0.049 C 
HETATM    2  C2  UNL     1     -32.861   8.938   0.791  1.00 20.00     0.008 C 
HETATM    3 CL8  UNL     1     -33.147   9.703  -0.761  1.00 20.00    -0.023 Cl
ENDROOT
BRANCH   1   4
HETATM    4  C4  UNL     1     -32.433   7.789   3.121  1.00 20.00     0.147 A 
HETATM    5  C3  UNL     1     -33.040   6.435   3.433  1.00 20.00     0.166 A 
HETATM    6  C5  UNL     1     -33.886   5.676   2.473  1.00 20.00     0.044 C 
HETATM    7  O7  UNL     1     -33.628   7.651   3.908  1.00 20.00    -0.356 OA
HETATM    8  C6  UNL     1     -31.252   8.257   3.909  1.00 20.00     0.063 C 
ENDBRANCH   1   4
TORSDOF 1
ENDMDL
MODEL 6
REMARK VINA RESULT:      -3.4     11.116     12.123
REMARK  1 active torsions:
REMARK  status: ('A' for Active; 'I' for Inactive)
REMARK    1  A    between atoms: C1_1  and  C4_4 
ROOT
HETATM    1  C1  UNL     1     -36.817  14.545  -4.956  1.00 20.00    -0.049 C 
HETATM    2  C2  UNL     1     -37.903  15.006  -4.741  1.00 20.00     0.008 C 
HETATM    3 CL8  UNL     1     -39.491  15.681  -4.426  1.00 20.00    -0.023 Cl
ENDROOT
BRANCH   1   4
HETATM    4  C4  UNL     1     -35.519  13.993  -5.212  1.00 20.00     0.147 A 
HETATM    5  C3  UNL     1     -35.103  13.637  -6.626  1.00 20.00     0.166 A 
HETATM    6  C5  UNL     1     -35.976  13.837  -7.813  1.00 20.00     0.044 C 
HETATM    7  O7  UNL     1     -35.569  12.644  -5.706  1.00 20.00    -0.356 OA
HETATM    8  C6  UNL     1     -34.465  14.207  -4.174  1.00 20.00     0.063 C 
ENDBRANCH   1   4
TORSDOF 1
ENDMDL
MODEL 7
REMARK VINA RESULT:      -3.2     11.441     11.800
REMARK  1 active torsions:
REMARK  status: ('A' for Active; 'I' for Inactive)
REMARK    1  A    between atoms: C1_1  and  C4_4 
ROOT
HETATM    1  C1  UNL     1     -36.468  14.880  -4.584  1.00 20.00    -0.049 C 
HETATM    2  C2  UNL     1     -37.637  14.849  -4.851  1.00 20.00     0.008 C 
HETATM    3 CL8  UNL     1     -39.347  14.802  -5.241  1.00 20.00    -0.023 Cl
ENDROOT
BRANCH   1   4
HETATM    4  C4  UNL     1     -35.071  14.918  -4.267  1.00 20.00     0.147 A 
HETATM    5  C3  UNL     1     -34.043  14.433  -5.270  1.00 20.00     0.166 A 
HETATM    6  C5  UNL     1     -34.396  13.908  -6.616  1.00 20.00     0.044 C 
HETATM    7  O7  UNL     1     -34.478  13.612  -4.181  1.00 20.00    -0.356 OA
HETATM    8  C6  UNL     1     -34.642  15.840  -3.171  1.00 20.00     0.063 C 
ENDBRANCH   1   4
TORSDOF 1
ENDMDL
MODEL 8
REMARK VINA RESULT:      -3.2      2.914      4.070
REMARK  1 active torsions:
REMARK  status: ('A' for Active; 'I' for Inactive)
REMARK    1  A    between atoms: C1_1  and  C4_4 
ROOT
HETATM    1  C1  UNL     1     -33.107   7.488   3.056  1.00 20.00    -0.049 C 
HETATM    2  C2  UNL     1     -34.043   6.794   3.343  1.00 20.00     0.008 C 
HETATM    3 CL8  UNL     1     -35.410   5.780   3.763  1.00 20.00    -0.023 Cl
ENDROOT
BRANCH   1   4
HETATM    4  C4  UNL     1     -31.990   8.318   2.713  1.00 20.00     0.147 A 
HETATM    5  C3  UNL     1     -32.128   9.391   1.652  1.00 20.00     0.166 A 
HETATM    6  C5  UNL     1     -33.394   9.661   0.918  1.00 20.00     0.044 C 
HETATM    7  O7  UNL     1     -31.535   8.120   1.364  1.00 20.00    -0.356 OA
HETATM    8  C6  UNL     1     -30.878   8.415   3.708  1.00 20.00     0.063 C 
ENDBRANCH   1   4
TORSDOF 1
ENDMDL
MODEL 9
REMARK VINA RESULT:      -3.1     11.514     11.958
REMARK  1 active torsions:
REMARK  status: ('A' for Active; 'I' for Inactive)
REMARK    1  A    between atoms: C1_1  and  C4_4 
ROOT
HETATM    1  C1  UNL     1     -34.112  17.219  -1.641  1.00 20.00    -0.049 C 
HETATM    2  C2  UNL     1     -34.457  16.461  -2.504  1.00 20.00     0.008 C 
HETATM    3 CL8  UNL     1     -34.962  15.353  -3.766  1.00 20.00    -0.023 Cl
ENDROOT
BRANCH   1   4
HETATM    4  C4  UNL     1     -33.701  18.125  -0.609  1.00 20.00     0.147 A 
HETATM    5  C3  UNL     1     -34.546  18.303   0.637  1.00 20.00     0.166 A 
HETATM    6  C5  UNL     1     -35.817  17.567   0.878  1.00 20.00     0.044 C 
HETATM    7  O7  UNL     1     -34.597  19.237  -0.446  1.00 20.00    -0.356 OA
HETATM    8  C6  UNL     1     -32.258  18.513  -0.572  1.00 20.00     0.063 C 
ENDBRANCH   1   4
TORSDOF 1
ENDMDL
