MODEL 1
REMARK VINA RESULT:      -4.5      0.000      0.000
REMARK  1 active torsions:
REMARK  status: ('A' for Active; 'I' for Inactive)
REMARK    1  A    between atoms: C1_1  and  C5_5 
ROOT
HETATM    1  C1  UNL     1     -32.889   8.043   2.255  1.00 20.00    -0.068 C 
HETATM    2  C2  UNL     1     -32.708   8.983   1.530  1.00 20.00    -0.108 C 
HETATM    3  C6  UNL     1     -32.488  10.127   0.647  1.00 20.00     0.112 C 
ENDROOT
BRANCH   1   4
HETATM    4  C5  UNL     1     -33.106   6.909   3.131  1.00 20.00     0.126 C 
HETATM    5  C3  UNL     1     -34.442   6.958   3.929  1.00 20.00     0.057 C 
HETATM    6  C4  UNL     1     -33.530   6.797   5.165  1.00 20.00     0.127 C 
HETATM    7  C7  UNL     1     -35.492   5.884   3.721  1.00 20.00     0.016 C 
HETATM    8  C8  UNL     1     -33.704   7.806   6.280  1.00 20.00     0.040 C 
HETATM    9  O10 UNL     1     -32.354   7.100   4.365  1.00 20.00    -0.362 OA
HETATM   10  C9  UNL     1     -32.694   5.599   2.471  1.00 20.00     0.061 C 
ENDBRANCH   1   4
TORSDOF 1
ENDMDL
MODEL 2
REMARK VINA RESULT:      -4.2     10.569     11.534
REMARK  1 active torsions:
REMARK  status: ('A' for Active; 'I' for Inactive)
REMARK    1  A    between atoms: C1_1  and  C5_5 
ROOT
HETATM    1  C1  UNL     1     -34.099  15.771  -3.274  1.00 20.00    -0.068 C 
HETATM    2  C2  UNL     1     -34.252  16.542  -2.366  1.00 20.00    -0.108 C 
HETATM    3  C6  UNL     1     -34.438  17.482  -1.261  1.00 20.00     0.112 C 
ENDROOT
BRANCH   1   4
HETATM    4  C5  UNL     1     -33.915  14.838  -4.368  1.00 20.00     0.126 C 
HETATM    5  C3  UNL     1     -34.561  15.287  -5.712  1.00 20.00     0.057 C 
HETATM    6  C4  UNL     1     -35.278  13.922  -5.645  1.00 20.00     0.127 C 
HETATM    7  C7  UNL     1     -33.690  15.532  -6.929  1.00 20.00     0.016 C 
HETATM    8  C8  UNL     1     -36.785  13.932  -5.789  1.00 20.00     0.040 C 
HETATM    9  O10 UNL     1     -34.888  13.759  -4.253  1.00 20.00    -0.362 OA
HETATM   10  C9  UNL     1     -32.504  14.264  -4.389  1.00 20.00     0.061 C 
ENDBRANCH   1   4
TORSDOF 1
ENDMDL
MODEL 3
REMARK VINA RESULT:      -4.1      1.772      4.587
REMARK  1 active torsions:
REMARK  status: ('A' for Active; 'I' for Inactive)
REMARK    1  A    between atoms: C1_1  and  C5_5 
ROOT
HETATM    1  C1  UNL     1     -33.217   7.465   2.955  1.00 20.00    -0.068 C 
HETATM    2  C2  UNL     1     -34.003   6.694   3.435  1.00 20.00    -0.108 C 
HETATM    3  C6  UNL     1     -34.962   5.756   4.018  1.00 20.00     0.112 C 
ENDROOT
BRANCH   1   4
HETATM    4  C5  UNL     1     -32.266   8.393   2.378  1.00 20.00     0.126 C 
HETATM    5  C3  UNL     1     -32.913   9.585   1.613  1.00 20.00     0.057 C 
HETATM    6  C4  UNL     1     -32.036   9.104   0.436  1.00 20.00     0.127 C 
HETATM    7  C7  UNL     1     -32.684  11.007   2.087  1.00 20.00     0.016 C 
HETATM    8  C8  UNL     1     -32.736   8.860  -0.884  1.00 20.00     0.040 C 
HETATM    9  O10 UNL     1     -31.763   7.851   1.122  1.00 20.00    -0.362 OA
HETATM   10  C9  UNL     1     -31.105   8.674   3.323  1.00 20.00     0.061 C 
ENDBRANCH   1   4
TORSDOF 1
ENDMDL
MODEL 4
REMARK VINA RESULT:      -4.1     10.355     11.333
REMARK  1 active torsions:
REMARK  status: ('A' for Active; 'I' for Inactive)
REMARK    1  A    between atoms: C1_1  and  C5_5 
ROOT
HETATM    1  C1  UNL     1     -35.037  16.479  -2.586  1.00 20.00    -0.068 C 
HETATM    2  C2  UNL     1     -35.239  16.871  -1.469  1.00 20.00    -0.108 C 
HETATM    3  C6  UNL     1     -35.486  17.348  -0.109  1.00 20.00     0.112 C 
ENDROOT
BRANCH   1   4
HETATM    4  C5  UNL     1     -34.791  16.005  -3.934  1.00 20.00     0.126 C 
HETATM    5  C3  UNL     1     -34.729  14.456  -4.070  1.00 20.00     0.057 C 
HETATM    6  C4  UNL     1     -33.346  14.722  -4.704  1.00 20.00     0.127 C 
HETATM    7  C7  UNL     1     -35.738  13.728  -4.937  1.00 20.00     0.016 C 
HETATM    8  C8  UNL     1     -32.171  13.962  -4.127  1.00 20.00     0.040 C 
HETATM    9  O10 UNL     1     -33.366  16.095  -4.225  1.00 20.00    -0.362 OA
HETATM   10  C9  UNL     1     -35.582  16.801  -4.964  1.00 20.00     0.061 C 
ENDBRANCH   1   4
TORSDOF 1
ENDMDL
MODEL 5
REMARK VINA RESULT:      -3.8     10.686     11.996
REMARK  1 active torsions:
REMARK  status: ('A' for Active; 'I' for Inactive)
REMARK    1  A    between atoms: C1_1  and  C5_5 
ROOT
HETATM    1  C1  UNL     1     -33.984  16.297  -3.064  1.00 20.00    -0.068 C 
HETATM    2  C2  UNL     1     -33.862  16.989  -2.091  1.00 20.00    -0.108 C 
HETATM    3  C6  UNL     1     -33.713  17.831  -0.905  1.00 20.00     0.112 C 
ENDROOT
BRANCH   1   4
HETATM    4  C5  UNL     1     -34.131  15.463  -4.241  1.00 20.00     0.126 C 
HETATM    5  C3  UNL     1     -34.555  16.231  -5.526  1.00 20.00     0.057 C 
HETATM    6  C4  UNL     1     -35.715  15.213  -5.566  1.00 20.00     0.127 C 
HETATM    7  C7  UNL     1     -33.638  16.256  -6.734  1.00 20.00     0.016 C 
HETATM    8  C8  UNL     1     -37.116  15.775  -5.680  1.00 20.00     0.040 C 
HETATM    9  O10 UNL     1     -35.428  14.798  -4.202  1.00 20.00    -0.362 OA
HETATM   10  C9  UNL     1     -33.020  14.426  -4.340  1.00 20.00     0.061 C 
ENDBRANCH   1   4
TORSDOF 1
ENDMDL
MODEL 6
REMARK VINA RESULT:      -3.8     10.760     11.804
REMARK  1 active torsions:
REMARK  status: ('A' for Active; 'I' for Inactive)
REMARK    1  A    between atoms: C1_1  and  C5_5 
ROOT
HETATM    1  C1  UNL     1     -33.695  16.664  -3.130  1.00 20.00    -0.068 C 
HETATM    2  C2  UNL     1     -33.601  15.637  -3.745  1.00 20.00    -0.108 C 
HETATM    3  C6  UNL     1     -33.487  14.387  -4.495  1.00 20.00     0.112 C 
ENDROOT
BRANCH   1   4
HETATM    4  C5  UNL     1     -33.809  17.903  -2.386  1.00 20.00     0.126 C 
HETATM    5  C3  UNL     1     -33.389  17.797  -0.890  1.00 20.00     0.057 C 
HETATM    6  C4  UNL     1     -34.799  18.364  -0.615  1.00 20.00     0.127 C 
HETATM    7  C7  UNL     1     -32.222  18.612  -0.369  1.00 20.00     0.016 C 
HETATM    8  C8  UNL     1     -35.668  17.595   0.358  1.00 20.00     0.040 C 
HETATM    9  O10 UNL     1     -35.197  18.102  -1.989  1.00 20.00    -0.362 OA
HETATM   10  C9  UNL     1     -33.326  19.096  -3.200  1.00 20.00     0.061 C 
ENDBRANCH   1   4
TORSDOF 1
ENDMDL
MODEL 7
REMARK VINA RESULT:      -3.7     10.886     12.024
REMARK  1 active torsions:
REMARK  status: ('A' for Active; 'I' for Inactive)
REMARK    1  A    between atoms: C1_1  and  C5_5 
ROOT
HETATM    1  C1  UNL     1     -33.314  17.843  -2.231  1.00 20.00    -0.068 C 
HETATM    2  C2  UNL     1     -32.697  18.172  -1.255  1.00 20.00    -0.108 C 
HETATM    3  C6  UNL     1     -31.947  18.573  -0.066  1.00 20.00     0.112 C 
ENDROOT
BRANCH   1   4
HETATM    4  C5  UNL     1     -34.057  17.445  -3.411  1.00 20.00     0.126 C 
HETATM    5  C3  UNL     1     -34.831  16.103  -3.261  1.00 20.00     0.057 C 
HETATM    6  C4  UNL     1     -34.044  15.688  -4.523  1.00 20.00     0.127 C 
HETATM    7  C7  UNL     1     -36.343  16.082  -3.374  1.00 20.00     0.016 C 
HETATM    8  C8  UNL     1     -33.281  14.382  -4.454  1.00 20.00     0.040 C 
HETATM    9  O10 UNL     1     -33.149  16.823  -4.367  1.00 20.00    -0.362 OA
HETATM   10  C9  UNL     1     -34.761  18.630  -4.059  1.00 20.00     0.061 C 
ENDBRANCH   1   4
TORSDOF 1
ENDMDL
MODEL 8
REMARK VINA RESULT:      -3.7     11.087     12.360
REMARK  1 active torsions:
REMARK  status: ('A' for Active; 'I' for Inactive)
REMARK    1  A    between atoms: C1_1  and  C5_5 
ROOT
HETATM    1  C1  UNL     1     -33.227  17.999  -1.119  1.00 20.00    -0.068 C 
HETATM    2  C2  UNL     1     -32.417  18.369  -0.313  1.00 20.00    -0.108 C 
HETATM    3  C6  UNL     1     -31.430  18.818   0.668  1.00 20.00     0.112 C 
ENDROOT
BRANCH   1   4
HETATM    4  C5  UNL     1     -34.206  17.555  -2.091  1.00 20.00     0.126 C 
HETATM    5  C3  UNL     1     -33.596  16.900  -3.365  1.00 20.00     0.057 C 
HETATM    6  C4  UNL     1     -34.421  17.965  -4.119  1.00 20.00     0.127 C 
HETATM    7  C7  UNL     1     -33.902  15.452  -3.696  1.00 20.00     0.016 C 
HETATM    8  C8  UNL     1     -33.679  18.821  -5.124  1.00 20.00     0.040 C 
HETATM    9  O10 UNL     1     -34.653  18.694  -2.882  1.00 20.00    -0.362 OA
HETATM   10  C9  UNL     1     -35.401  16.886  -1.424  1.00 20.00     0.061 C 
ENDBRANCH   1   4
TORSDOF 1
ENDMDL
MODEL 9
REMARK VINA RESULT:      -3.7      1.310      2.091
REMARK  1 active torsions:
REMARK  status: ('A' for Active; 'I' for Inactive)
REMARK    1  A    between atoms: C1_1  and  C5_5 
ROOT
HETATM    1  C1  UNL     1     -32.865   8.340   1.767  1.00 20.00    -0.068 C 
HETATM    2  C2  UNL     1     -32.935   9.058   0.806  1.00 20.00    -0.108 C 
HETATM    3  C6  UNL     1     -33.021   9.932  -0.363  1.00 20.00     0.112 C 
ENDROOT
BRANCH   1   4
HETATM    4  C5  UNL     1     -32.779   7.474   2.925  1.00 20.00     0.126 C 
HETATM    5  C3  UNL     1     -33.319   6.032   2.693  1.00 20.00     0.057 C 
HETATM    6  C4  UNL     1     -34.217   6.339   3.910  1.00 20.00     0.127 C 
HETATM    7  C7  UNL     1     -32.389   4.842   2.825  1.00 20.00     0.016 C 
HETATM    8  C8  UNL     1     -35.704   6.110   3.738  1.00 20.00     0.040 C 
HETATM    9  O10 UNL     1     -33.894   7.753   3.822  1.00 20.00    -0.362 OA
HETATM   10  C9  UNL     1     -31.460   7.652   3.666  1.00 20.00     0.061 C 
ENDBRANCH   1   4
TORSDOF 1
ENDMDL
