MODEL 1
REMARK VINA RESULT:      -6.1      0.000      0.000
REMARK  1 active torsions:
REMARK  status: ('A' for Active; 'I' for Inactive)
REMARK    1  A    between atoms: C1_1  and  C7_7 
ROOT
HETATM    1  C2  UNL     1     -34.466   6.554   6.157  1.00 20.00     0.001 C 
HETATM    2  C3  UNL     1     -32.821   6.134   2.068  1.00 20.00     0.014 C 
HETATM    3  C4  UNL     1     -34.721   5.398   5.197  1.00 20.00     0.005 C 
HETATM    4  C5  UNL     1     -33.289   7.282   5.521  1.00 20.00     0.006 C 
HETATM    5  C6  UNL     1     -33.592   5.117   2.898  1.00 20.00     0.006 C 
HETATM    6  C7  UNL     1     -32.439   7.207   3.086  1.00 20.00     0.076 C 
HETATM    7  C8  UNL     1     -34.449   5.985   3.813  1.00 20.00    -0.010 C 
HETATM    8  C9  UNL     1     -33.640   7.278   4.034  1.00 20.00     0.002 C 
ENDROOT
BRANCH   6   9
HETATM    9  C1  UNL     1     -32.200   8.525   2.422  1.00 20.00     0.223 C 
HETATM   10  O10 UNL     1     -31.643   9.450   3.005  1.00 20.00    -0.279 OA
HETATM   11 CL11 UNL     1     -32.795   8.553   0.790  1.00 20.00    -0.043 Cl
ENDBRANCH   6   9
TORSDOF 1
ENDMDL
MODEL 2
REMARK VINA RESULT:      -5.1     11.381     11.870
REMARK  1 active torsions:
REMARK  status: ('A' for Active; 'I' for Inactive)
REMARK    1  A    between atoms: C1_1  and  C7_7 
ROOT
HETATM    1  C2  UNL     1     -34.845  16.921  -1.827  1.00 20.00     0.001 C 
HETATM    2  C3  UNL     1     -34.164  14.915  -5.714  1.00 20.00     0.014 C 
HETATM    3  C4  UNL     1     -33.536  16.891  -2.608  1.00 20.00     0.005 C 
HETATM    4  C5  UNL     1     -35.869  16.432  -2.841  1.00 20.00     0.006 C 
HETATM    5  C6  UNL     1     -33.248  15.861  -4.953  1.00 20.00     0.006 C 
HETATM    6  C7  UNL     1     -35.510  15.082  -5.011  1.00 20.00     0.076 C 
HETATM    7  C8  UNL     1     -33.653  15.654  -3.498  1.00 20.00    -0.010 C 
HETATM    8  C9  UNL     1     -35.148  15.278  -3.535  1.00 20.00     0.002 C 
ENDROOT
BRANCH   6   9
HETATM    9  C1  UNL     1     -36.374  13.876  -5.197  1.00 20.00     0.223 C 
HETATM   10  O10 UNL     1     -35.897  12.748  -5.283  1.00 20.00    -0.279 OA
HETATM   11 CL11 UNL     1     -38.061  14.283  -5.268  1.00 20.00    -0.043 Cl
ENDBRANCH   6   9
TORSDOF 1
ENDMDL
MODEL 3
REMARK VINA RESULT:      -5.1      1.042      2.302
REMARK  1 active torsions:
REMARK  status: ('A' for Active; 'I' for Inactive)
REMARK    1  A    between atoms: C1_1  and  C7_7 
ROOT
HETATM    1  C2  UNL     1     -34.651   4.294   4.113  1.00 20.00     0.001 C 
HETATM    2  C3  UNL     1     -33.094   8.293   5.200  1.00 20.00     0.014 C 
HETATM    3  C4  UNL     1     -34.682   4.927   5.499  1.00 20.00     0.005 C 
HETATM    4  C5  UNL     1     -34.305   5.464   3.203  1.00 20.00     0.006 C 
HETATM    5  C6  UNL     1     -33.926   7.332   6.036  1.00 20.00     0.006 C 
HETATM    6  C7  UNL     1     -33.208   7.726   3.787  1.00 20.00     0.076 C 
HETATM    7  C8  UNL     1     -33.560   5.964   5.470  1.00 20.00    -0.010 C 
HETATM    8  C9  UNL     1     -33.223   6.206   3.986  1.00 20.00     0.002 C 
ENDROOT
BRANCH   6   9
HETATM    9  C1  UNL     1     -32.050   8.144   2.938  1.00 20.00     0.223 C 
HETATM   10  O10 UNL     1     -30.896   8.109   3.358  1.00 20.00    -0.279 OA
HETATM   11 CL11 UNL     1     -32.550   8.660   1.356  1.00 20.00    -0.043 Cl
ENDBRANCH   6   9
TORSDOF 1
ENDMDL
MODEL 4
REMARK VINA RESULT:      -4.5     10.930     12.034
REMARK  1 active torsions:
REMARK  status: ('A' for Active; 'I' for Inactive)
REMARK    1  A    between atoms: C1_1  and  C7_7 
ROOT
HETATM    1  C2  UNL     1     -34.642  17.784  -0.841  1.00 20.00     0.001 C 
HETATM    2  C3  UNL     1     -33.574  16.744  -5.009  1.00 20.00     0.014 C 
HETATM    3  C4  UNL     1     -33.942  18.692  -1.845  1.00 20.00     0.005 C 
HETATM    4  C5  UNL     1     -35.167  16.646  -1.705  1.00 20.00     0.006 C 
HETATM    5  C6  UNL     1     -33.509  18.096  -4.315  1.00 20.00     0.006 C 
HETATM    6  C7  UNL     1     -34.416  15.896  -4.058  1.00 20.00     0.076 C 
HETATM    7  C8  UNL     1     -33.305  17.731  -2.848  1.00 20.00    -0.010 C 
HETATM    8  C9  UNL     1     -34.006  16.371  -2.660  1.00 20.00     0.002 C 
ENDROOT
BRANCH   6   9
HETATM    9  C1  UNL     1     -34.133  14.439  -4.234  1.00 20.00     0.223 C 
HETATM   10  O10 UNL     1     -35.034  13.621  -4.399  1.00 20.00    -0.279 OA
HETATM   11 CL11 UNL     1     -32.432  14.090  -4.174  1.00 20.00    -0.043 Cl
ENDBRANCH   6   9
TORSDOF 1
ENDMDL
MODEL 5
REMARK VINA RESULT:      -4.4     11.411     12.080
REMARK  1 active torsions:
REMARK  status: ('A' for Active; 'I' for Inactive)
REMARK    1  A    between atoms: C1_1  and  C7_7 
ROOT
HETATM    1  C2  UNL     1     -37.102  17.300  -3.344  1.00 20.00     0.001 C 
HETATM    2  C3  UNL     1     -33.577  14.834  -4.390  1.00 20.00     0.014 C 
HETATM    3  C4  UNL     1     -35.749  17.319  -2.643  1.00 20.00     0.005 C 
HETATM    4  C5  UNL     1     -36.818  16.538  -4.631  1.00 20.00     0.006 C 
HETATM    5  C6  UNL     1     -33.676  15.993  -3.410  1.00 20.00     0.006 C 
HETATM    6  C7  UNL     1     -34.876  14.933  -5.190  1.00 20.00     0.076 C 
HETATM    7  C8  UNL     1     -35.134  15.957  -2.965  1.00 20.00    -0.010 C 
HETATM    8  C9  UNL     1     -35.919  15.393  -4.166  1.00 20.00     0.002 C 
ENDROOT
BRANCH   6   9
HETATM    9  C1  UNL     1     -35.251  13.612  -5.782  1.00 20.00     0.223 C 
HETATM   10  O10 UNL     1     -35.952  12.808  -5.174  1.00 20.00    -0.279 OA
HETATM   11 CL11 UNL     1     -34.584  13.395  -7.372  1.00 20.00    -0.043 Cl
ENDBRANCH   6   9
TORSDOF 1
ENDMDL
MODEL 6
REMARK VINA RESULT:      -4.4     11.466     12.272
REMARK  1 active torsions:
REMARK  status: ('A' for Active; 'I' for Inactive)
REMARK    1  A    between atoms: C1_1  and  C7_7 
ROOT
HETATM    1  C2  UNL     1     -35.545  13.318  -6.659  1.00 20.00     0.001 C 
HETATM    2  C3  UNL     1     -33.515  16.242  -4.027  1.00 20.00     0.014 C 
HETATM    3  C4  UNL     1     -34.194  13.975  -6.915  1.00 20.00     0.005 C 
HETATM    4  C5  UNL     1     -35.813  13.630  -5.193  1.00 20.00     0.006 C 
HETATM    5  C6  UNL     1     -32.978  15.531  -5.260  1.00 20.00     0.006 C 
HETATM    6  C7  UNL     1     -34.788  15.464  -3.695  1.00 20.00     0.076 C 
HETATM    7  C8  UNL     1     -34.231  15.257  -6.085  1.00 20.00    -0.010 C 
HETATM    8  C9  UNL     1     -35.371  15.086  -5.061  1.00 20.00     0.002 C 
ENDROOT
BRANCH   6   9
HETATM    9  C1  UNL     1     -35.749  16.303  -2.915  1.00 20.00     0.223 C 
HETATM   10  O10 UNL     1     -36.865  16.576  -3.347  1.00 20.00    -0.279 OA
HETATM   11 CL11 UNL     1     -35.089  16.808  -1.389  1.00 20.00    -0.043 Cl
ENDBRANCH   6   9
TORSDOF 1
ENDMDL
MODEL 7
REMARK VINA RESULT:      -4.4     11.541     12.756
REMARK  1 active torsions:
REMARK  status: ('A' for Active; 'I' for Inactive)
REMARK    1  A    between atoms: C1_1  and  C7_7 
ROOT
HETATM    1  C2  UNL     1     -33.626  16.846  -3.036  1.00 20.00     0.001 C 
HETATM    2  C3  UNL     1     -35.323  15.783  -6.985  1.00 20.00     0.014 C 
HETATM    3  C4  UNL     1     -33.584  17.704  -4.296  1.00 20.00     0.005 C 
HETATM    4  C5  UNL     1     -34.652  15.774  -3.377  1.00 20.00     0.006 C 
HETATM    5  C6  UNL     1     -34.748  17.112  -6.518  1.00 20.00     0.006 C 
HETATM    6  C7  UNL     1     -35.504  14.998  -5.687  1.00 20.00     0.076 C 
HETATM    7  C8  UNL     1     -33.747  16.706  -5.442  1.00 20.00    -0.010 C 
HETATM    8  C9  UNL     1     -34.309  15.411  -4.821  1.00 20.00     0.002 C 
ENDROOT
BRANCH   6   9
HETATM    9  C1  UNL     1     -35.502  13.524  -5.938  1.00 20.00     0.223 C 
HETATM   10  O10 UNL     1     -35.937  12.728  -5.110  1.00 20.00    -0.279 OA
HETATM   11 CL11 UNL     1     -34.828  13.126  -7.489  1.00 20.00    -0.043 Cl
ENDBRANCH   6   9
TORSDOF 1
ENDMDL
MODEL 8
REMARK VINA RESULT:      -4.4     11.347     11.914
REMARK  1 active torsions:
REMARK  status: ('A' for Active; 'I' for Inactive)
REMARK    1  A    between atoms: C1_1  and  C7_7 
ROOT
HETATM    1  C2  UNL     1     -35.072  17.887   0.676  1.00 20.00     0.001 C 
HETATM    2  C3  UNL     1     -33.780  17.415  -3.532  1.00 20.00     0.014 C 
HETATM    3  C4  UNL     1     -33.776  18.409   0.067  1.00 20.00     0.005 C 
HETATM    4  C5  UNL     1     -35.905  17.514  -0.543  1.00 20.00     0.006 C 
HETATM    5  C6  UNL     1     -33.161  18.263  -2.431  1.00 20.00     0.006 C 
HETATM    6  C7  UNL     1     -35.146  17.035  -2.962  1.00 20.00     0.076 C 
HETATM    7  C8  UNL     1     -33.545  17.522  -1.155  1.00 20.00    -0.010 C 
HETATM    8  C9  UNL     1     -34.892  16.838  -1.464  1.00 20.00     0.002 C 
ENDROOT
BRANCH   6   9
HETATM    9  C1  UNL     1     -35.665  15.780  -3.588  1.00 20.00     0.223 C 
HETATM   10  O10 UNL     1     -36.862  15.616  -3.808  1.00 20.00    -0.279 OA
HETATM   11 CL11 UNL     1     -34.394  14.648  -3.938  1.00 20.00    -0.043 Cl
ENDBRANCH   6   9
TORSDOF 1
ENDMDL
MODEL 9
REMARK VINA RESULT:      -4.3      2.617      3.861
REMARK  1 active torsions:
REMARK  status: ('A' for Active; 'I' for Inactive)
REMARK    1  A    between atoms: C1_1  and  C7_7 
ROOT
HETATM    1  C2  UNL     1     -31.465   8.755   2.551  1.00 20.00     0.001 C 
HETATM    2  C3  UNL     1     -34.726   5.883   3.397  1.00 20.00     0.014 C 
HETATM    3  C4  UNL     1     -32.088   7.781   1.558  1.00 20.00     0.005 C 
HETATM    4  C5  UNL     1     -32.441   8.736   3.719  1.00 20.00     0.006 C 
HETATM    5  C6  UNL     1     -34.107   6.260   2.059  1.00 20.00     0.006 C 
HETATM    6  C7  UNL     1     -34.213   6.967   4.344  1.00 20.00     0.076 C 
HETATM    7  C8  UNL     1     -32.689   6.680   2.431  1.00 20.00    -0.010 C 
HETATM    8  C9  UNL     1     -32.789   7.255   3.858  1.00 20.00     0.002 C 
ENDROOT
BRANCH   6   9
HETATM    9  C1  UNL     1     -34.211   6.493   5.762  1.00 20.00     0.223 C 
HETATM   10  O10 UNL     1     -33.983   7.256   6.697  1.00 20.00    -0.279 OA
HETATM   11 CL11 UNL     1     -34.560   4.796   5.885  1.00 20.00    -0.043 Cl
ENDBRANCH   6   9
TORSDOF 1
ENDMDL
