MODEL 1
REMARK VINA RESULT:      -4.6      0.000      0.000
REMARK  1 active torsions:
REMARK  status: ('A' for Active; 'I' for Inactive)
REMARK    1  A    between atoms: C2_2  and  C5_5 
ROOT
HETATM    1  C1  UNL     1     -33.714   5.252   3.342  1.00 20.00     0.270 A 
HETATM    2  C2  UNL     1     -33.416   6.695   3.658  1.00 20.00     0.181 A 
HETATM    3  O6  UNL     1     -34.555   6.313   2.871  1.00 20.00    -0.336 OA
HETATM    4 CL7  UNL     1     -34.356   4.141   4.521  1.00 20.00    -0.091 Cl
HETATM    5 CL8  UNL     1     -33.729   7.338   5.268  1.00 20.00    -0.084 Cl
ENDROOT
BRANCH   2   6
HETATM    6  C5  UNL     1     -32.344   7.429   2.857  1.00 20.00     0.032 C 
HETATM    7  C3  UNL     1     -32.984   8.366   1.835  1.00 20.00     0.014 C 
HETATM    8  C4  UNL     1     -31.413   8.203   3.788  1.00 20.00     0.014 C 
ENDBRANCH   2   6
TORSDOF 1
ENDMDL
MODEL 2
REMARK VINA RESULT:      -4.3      2.036      3.419
REMARK  1 active torsions:
REMARK  status: ('A' for Active; 'I' for Inactive)
REMARK    1  A    between atoms: C2_2  and  C5_5 
ROOT
HETATM    1  C1  UNL     1     -33.398   7.052   2.522  1.00 20.00     0.270 A 
HETATM    2  C2  UNL     1     -33.485   6.669   3.977  1.00 20.00     0.181 A 
HETATM    3  O6  UNL     1     -32.519   6.076   3.095  1.00 20.00    -0.336 OA
HETATM    4 CL7  UNL     1     -32.725   8.567   1.985  1.00 20.00    -0.091 Cl
HETATM    5 CL8  UNL     1     -32.878   7.756   5.224  1.00 20.00    -0.084 Cl
ENDROOT
BRANCH   2   6
HETATM    6  C5  UNL     1     -34.571   5.695   4.428  1.00 20.00     0.032 C 
HETATM    7  C3  UNL     1     -34.188   4.260   4.073  1.00 20.00     0.014 C 
HETATM    8  C4  UNL     1     -34.821   5.828   5.929  1.00 20.00     0.014 C 
ENDBRANCH   2   6
TORSDOF 1
ENDMDL
MODEL 3
REMARK VINA RESULT:      -4.3      2.273      3.332
REMARK  1 active torsions:
REMARK  status: ('A' for Active; 'I' for Inactive)
REMARK    1  A    between atoms: C2_2  and  C5_5 
ROOT
HETATM    1  C1  UNL     1     -33.164   7.668   2.097  1.00 20.00     0.270 A 
HETATM    2  C2  UNL     1     -32.937   7.448   3.570  1.00 20.00     0.181 A 
HETATM    3  O6  UNL     1     -32.538   6.477   2.589  1.00 20.00    -0.336 OA
HETATM    4 CL7  UNL     1     -32.211   8.779   1.151  1.00 20.00    -0.091 Cl
HETATM    5 CL8  UNL     1     -31.654   8.312   4.414  1.00 20.00    -0.084 Cl
ENDROOT
BRANCH   2   6
HETATM    6  C5  UNL     1     -34.100   6.985   4.444  1.00 20.00     0.032 C 
HETATM    7  C3  UNL     1     -34.407   5.511   4.193  1.00 20.00     0.014 C 
HETATM    8  C4  UNL     1     -33.791   7.226   5.920  1.00 20.00     0.014 C 
ENDBRANCH   2   6
TORSDOF 1
ENDMDL
MODEL 4
REMARK VINA RESULT:      -4.2      2.052      3.568
REMARK  1 active torsions:
REMARK  status: ('A' for Active; 'I' for Inactive)
REMARK    1  A    between atoms: C2_2  and  C5_5 
ROOT
HETATM    1  C1  UNL     1     -32.894   7.662   3.814  1.00 20.00     0.270 A 
HETATM    2  C2  UNL     1     -33.618   6.359   3.587  1.00 20.00     0.181 A 
HETATM    3  O6  UNL     1     -34.046   7.581   2.966  1.00 20.00    -0.336 OA
HETATM    4 CL7  UNL     1     -31.350   8.021   3.091  1.00 20.00    -0.091 Cl
HETATM    5 CL8  UNL     1     -32.924   5.124   2.540  1.00 20.00    -0.084 Cl
ENDROOT
BRANCH   2   6
HETATM    6  C5  UNL     1     -34.586   5.848   4.651  1.00 20.00     0.032 C 
HETATM    7  C3  UNL     1     -34.538   4.324   4.733  1.00 20.00     0.014 C 
HETATM    8  C4  UNL     1     -34.268   6.470   6.010  1.00 20.00     0.014 C 
ENDBRANCH   2   6
TORSDOF 1
ENDMDL
MODEL 5
REMARK VINA RESULT:      -4.0      2.181      3.573
REMARK  1 active torsions:
REMARK  status: ('A' for Active; 'I' for Inactive)
REMARK    1  A    between atoms: C2_2  and  C5_5 
ROOT
HETATM    1  C1  UNL     1     -32.648   7.766   3.469  1.00 20.00     0.270 A 
HETATM    2  C2  UNL     1     -33.365   6.478   3.783  1.00 20.00     0.181 A 
HETATM    3  O6  UNL     1     -34.074   7.660   3.379  1.00 20.00    -0.336 OA
HETATM    4 CL7  UNL     1     -31.737   8.005   2.003  1.00 20.00    -0.091 Cl
HETATM    5 CL8  UNL     1     -33.326   5.135   2.643  1.00 20.00    -0.084 Cl
ENDROOT
BRANCH   2   6
HETATM    6  C5  UNL     1     -33.606   6.094   5.240  1.00 20.00     0.032 C 
HETATM    7  C3  UNL     1     -33.955   7.327   6.070  1.00 20.00     0.014 C 
HETATM    8  C4  UNL     1     -34.711   5.046   5.344  1.00 20.00     0.014 C 
ENDBRANCH   2   6
TORSDOF 1
ENDMDL
MODEL 6
REMARK VINA RESULT:      -3.7      1.539      2.324
REMARK  1 active torsions:
REMARK  status: ('A' for Active; 'I' for Inactive)
REMARK    1  A    between atoms: C2_2  and  C5_5 
ROOT
HETATM    1  C1  UNL     1     -33.244   5.583   2.638  1.00 20.00     0.270 A 
HETATM    2  C2  UNL     1     -33.982   5.943   3.902  1.00 20.00     0.181 A 
HETATM    3  O6  UNL     1     -34.611   6.012   2.612  1.00 20.00    -0.336 OA
HETATM    4 CL7  UNL     1     -32.879   3.938   2.196  1.00 20.00    -0.091 Cl
HETATM    5 CL8  UNL     1     -34.536   4.683   5.001  1.00 20.00    -0.084 Cl
ENDROOT
BRANCH   2   6
HETATM    6  C5  UNL     1     -33.750   7.312   4.537  1.00 20.00     0.032 C 
HETATM    7  C3  UNL     1     -33.832   7.218   6.059  1.00 20.00     0.014 C 
HETATM    8  C4  UNL     1     -32.401   7.882   4.106  1.00 20.00     0.014 C 
ENDBRANCH   2   6
TORSDOF 1
ENDMDL
MODEL 7
REMARK VINA RESULT:      -3.4      1.916      2.361
REMARK  1 active torsions:
REMARK  status: ('A' for Active; 'I' for Inactive)
REMARK    1  A    between atoms: C2_2  and  C5_5 
ROOT
HETATM    1  C1  UNL     1     -33.514   6.795   2.463  1.00 20.00     0.270 A 
HETATM    2  C2  UNL     1     -32.637   8.021   2.460  1.00 20.00     0.181 A 
HETATM    3  O6  UNL     1     -33.920   8.009   3.106  1.00 20.00    -0.336 OA
HETATM    4 CL7  UNL     1     -33.180   5.400   3.452  1.00 20.00    -0.091 Cl
HETATM    5 CL8  UNL     1     -31.215   8.103   3.496  1.00 20.00    -0.084 Cl
ENDROOT
BRANCH   2   6
HETATM    6  C5  UNL     1     -32.594   8.904   1.215  1.00 20.00     0.032 C 
HETATM    7  C3  UNL     1     -32.865  10.361   1.580  1.00 20.00     0.014 C 
HETATM    8  C4  UNL     1     -31.246   8.769   0.509  1.00 20.00     0.014 C 
ENDBRANCH   2   6
TORSDOF 1
ENDMDL
MODEL 8
REMARK VINA RESULT:      -3.4      1.646      2.225
REMARK  1 active torsions:
REMARK  status: ('A' for Active; 'I' for Inactive)
REMARK    1  A    between atoms: C2_2  and  C5_5 
ROOT
HETATM    1  C1  UNL     1     -34.465   6.909   4.127  1.00 20.00     0.270 A 
HETATM    2  C2  UNL     1     -33.158   6.880   3.376  1.00 20.00     0.181 A 
HETATM    3  O6  UNL     1     -33.210   6.783   4.808  1.00 20.00    -0.336 OA
HETATM    4 CL7  UNL     1     -35.567   5.560   4.155  1.00 20.00    -0.091 Cl
HETATM    5 CL8  UNL     1     -32.671   5.437   2.490  1.00 20.00    -0.084 Cl
ENDROOT
BRANCH   2   6
HETATM    6  C5  UNL     1     -32.554   8.190   2.878  1.00 20.00     0.032 C 
HETATM    7  C3  UNL     1     -31.196   8.438   3.531  1.00 20.00     0.014 C 
HETATM    8  C4  UNL     1     -32.424   8.177   1.356  1.00 20.00     0.014 C 
ENDBRANCH   2   6
TORSDOF 1
ENDMDL
MODEL 9
REMARK VINA RESULT:      -3.4      9.759     10.381
REMARK  1 active torsions:
REMARK  status: ('A' for Active; 'I' for Inactive)
REMARK    1  A    between atoms: C2_2  and  C5_5 
ROOT
HETATM    1  C1  UNL     1     -43.238   4.752  -1.639  1.00 20.00     0.270 A 
HETATM    2  C2  UNL     1     -42.339   5.602  -0.778  1.00 20.00     0.181 A 
HETATM    3  O6  UNL     1     -43.186   4.587  -0.217  1.00 20.00    -0.336 OA
HETATM    4 CL7  UNL     1     -42.636   3.467  -2.650  1.00 20.00    -0.091 Cl
HETATM    5 CL8  UNL     1     -40.602   5.311  -0.743  1.00 20.00    -0.084 Cl
ENDROOT
BRANCH   2   6
HETATM    6  C5  UNL     1     -42.773   7.021  -0.419  1.00 20.00     0.032 C 
HETATM    7  C3  UNL     1     -43.129   7.115   1.063  1.00 20.00     0.014 C 
HETATM    8  C4  UNL     1     -41.677   8.024  -0.773  1.00 20.00     0.014 C 
ENDBRANCH   2   6
TORSDOF 1
ENDMDL
