MODEL 1
REMARK VINA RESULT:      -6.7      0.000      0.000
REMARK  1 active torsions:
REMARK  status: ('A' for Active; 'I' for Inactive)
REMARK    1  A    between atoms: C4_4  and  C5_5 
ROOT
HETATM    1  C1  UNL     1     -33.204   4.807   3.200  1.00 20.00    -0.021 C 
HETATM    2  C2  UNL     1     -34.007   4.303   4.146  1.00 20.00    -0.025 C 
HETATM    3  C3  UNL     1     -32.863   7.530   4.744  1.00 20.00    -0.015 C 
HETATM    4  C4  UNL     1     -32.942   7.287   3.422  1.00 20.00    -0.009 C 
HETATM    5  C6  UNL     1     -33.460   6.725   5.870  1.00 20.00     0.028 C 
HETATM    6  C7  UNL     1     -34.861   6.107   5.709  1.00 20.00     0.012 C 
HETATM    7  C8  UNL     1     -35.148   6.113   3.188  1.00 20.00     0.022 C 
HETATM    8  C9  UNL     1     -33.681   6.161   2.748  1.00 20.00     0.045 C 
HETATM    9  C10 UNL     1     -35.124   5.257   4.459  1.00 20.00     0.009 C 
ENDROOT
BRANCH   4  10
HETATM   10  C5  UNL     1     -32.227   8.235   2.555  1.00 20.00     0.152 C 
HETATM   11  C11 UNL     1     -32.898   8.664   1.278  1.00 20.00     0.096 C 
HETATM   12  O12 UNL     1     -31.113   8.651   2.871  1.00 20.00    -0.293 OA
ENDBRANCH   4  10
TORSDOF 1
ENDMDL
MODEL 2
REMARK VINA RESULT:      -5.5      0.821      2.145
REMARK  1 active torsions:
REMARK  status: ('A' for Active; 'I' for Inactive)
REMARK    1  A    between atoms: C4_4  and  C5_5 
ROOT
HETATM    1  C1  UNL     1     -35.321   6.834   3.608  1.00 20.00    -0.021 C 
HETATM    2  C2  UNL     1     -35.720   5.620   4.008  1.00 20.00    -0.025 C 
HETATM    3  C3  UNL     1     -32.514   5.758   2.672  1.00 20.00    -0.015 C 
HETATM    4  C4  UNL     1     -32.847   6.931   3.242  1.00 20.00    -0.009 C 
HETATM    5  C6  UNL     1     -33.210   4.429   2.818  1.00 20.00     0.028 C 
HETATM    6  C7  UNL     1     -33.773   4.006   4.187  1.00 20.00     0.012 C 
HETATM    7  C8  UNL     1     -33.932   6.232   5.395  1.00 20.00     0.022 C 
HETATM    8  C9  UNL     1     -33.982   7.187   4.198  1.00 20.00     0.045 C 
HETATM    9  C10 UNL     1     -34.697   4.995   4.912  1.00 20.00     0.009 C 
ENDROOT
BRANCH   4  10
HETATM   10  C5  UNL     1     -31.996   8.077   2.889  1.00 20.00     0.152 C 
HETATM   11  C11 UNL     1     -32.197   8.713   1.539  1.00 20.00     0.096 C 
HETATM   12  O12 UNL     1     -31.147   8.490   3.677  1.00 20.00    -0.293 OA
ENDBRANCH   4  10
TORSDOF 1
ENDMDL
MODEL 3
REMARK VINA RESULT:      -4.9     11.501     12.707
REMARK  1 active torsions:
REMARK  status: ('A' for Active; 'I' for Inactive)
REMARK    1  A    between atoms: C4_4  and  C5_5 
ROOT
HETATM    1  C1  UNL     1     -35.414  16.531  -2.246  1.00 20.00    -0.021 C 
HETATM    2  C2  UNL     1     -34.088  16.688  -2.354  1.00 20.00    -0.025 C 
HETATM    3  C3  UNL     1     -35.484  14.367  -4.532  1.00 20.00    -0.015 C 
HETATM    4  C4  UNL     1     -36.375  15.326  -4.219  1.00 20.00    -0.009 C 
HETATM    5  C6  UNL     1     -33.995  14.376  -4.298  1.00 20.00     0.028 C 
HETATM    6  C7  UNL     1     -33.196  15.676  -4.501  1.00 20.00     0.012 C 
HETATM    7  C8  UNL     1     -35.021  17.434  -4.371  1.00 20.00     0.022 C 
HETATM    8  C9  UNL     1     -36.087  16.662  -3.586  1.00 20.00     0.045 C 
HETATM    9  C10 UNL     1     -33.697  16.937  -3.782  1.00 20.00     0.009 C 
ENDROOT
BRANCH   4  10
HETATM   10  C5  UNL     1     -37.778  15.024  -4.540  1.00 20.00     0.152 C 
HETATM   11  C11 UNL     1     -38.787  16.130  -4.389  1.00 20.00     0.096 C 
HETATM   12  O12 UNL     1     -38.103  13.898  -4.913  1.00 20.00    -0.293 OA
ENDBRANCH   4  10
TORSDOF 1
ENDMDL
MODEL 4
REMARK VINA RESULT:      -4.8     11.691     12.647
REMARK  1 active torsions:
REMARK  status: ('A' for Active; 'I' for Inactive)
REMARK    1  A    between atoms: C4_4  and  C5_5 
ROOT
HETATM    1  C1  UNL     1     -33.897  16.771  -5.494  1.00 20.00    -0.021 C 
HETATM    2  C2  UNL     1     -33.617  17.513  -4.415  1.00 20.00    -0.025 C 
HETATM    3  C3  UNL     1     -36.324  15.363  -4.065  1.00 20.00    -0.015 C 
HETATM    4  C4  UNL     1     -35.433  14.872  -4.946  1.00 20.00    -0.009 C 
HETATM    5  C6  UNL     1     -36.130  16.491  -3.084  1.00 20.00     0.028 C 
HETATM    6  C7  UNL     1     -34.788  16.638  -2.344  1.00 20.00     0.012 C 
HETATM    7  C8  UNL     1     -33.229  15.281  -3.816  1.00 20.00     0.022 C 
HETATM    8  C9  UNL     1     -34.006  15.313  -5.136  1.00 20.00     0.045 C 
HETATM    9  C10 UNL     1     -33.507  16.652  -3.191  1.00 20.00     0.009 C 
ENDROOT
BRANCH   4  10
HETATM   10  C5  UNL     1     -35.918  13.781  -5.805  1.00 20.00     0.152 C 
HETATM   11  C11 UNL     1     -36.380  14.132  -7.194  1.00 20.00     0.096 C 
HETATM   12  O12 UNL     1     -35.946  12.625  -5.387  1.00 20.00    -0.293 OA
ENDBRANCH   4  10
TORSDOF 1
ENDMDL
MODEL 5
REMARK VINA RESULT:      -4.7     11.661     12.898
REMARK  1 active torsions:
REMARK  status: ('A' for Active; 'I' for Inactive)
REMARK    1  A    between atoms: C4_4  and  C5_5 
ROOT
HETATM    1  C1  UNL     1     -35.479  15.279  -4.044  1.00 20.00    -0.021 C 
HETATM    2  C2  UNL     1     -35.388  14.726  -5.260  1.00 20.00    -0.025 C 
HETATM    3  C3  UNL     1     -33.607  17.681  -4.845  1.00 20.00    -0.015 C 
HETATM    4  C4  UNL     1     -33.718  17.021  -3.678  1.00 20.00    -0.009 C 
HETATM    5  C6  UNL     1     -33.885  17.161  -6.233  1.00 20.00     0.028 C 
HETATM    6  C7  UNL     1     -33.483  15.722  -6.604  1.00 20.00     0.012 C 
HETATM    7  C8  UNL     1     -33.242  14.642  -4.321  1.00 20.00     0.022 C 
HETATM    8  C9  UNL     1     -34.115  15.581  -3.483  1.00 20.00     0.045 C 
HETATM    9  C10 UNL     1     -33.953  14.591  -5.678  1.00 20.00     0.009 C 
ENDROOT
BRANCH   4  10
HETATM   10  C5  UNL     1     -33.409  17.801  -2.470  1.00 20.00     0.152 C 
HETATM   11  C11 UNL     1     -34.052  17.380  -1.177  1.00 20.00     0.096 C 
HETATM   12  O12 UNL     1     -32.653  18.770  -2.531  1.00 20.00    -0.293 OA
ENDBRANCH   4  10
TORSDOF 1
ENDMDL
MODEL 6
REMARK VINA RESULT:      -4.6     11.203     12.661
REMARK  1 active torsions:
REMARK  status: ('A' for Active; 'I' for Inactive)
REMARK    1  A    between atoms: C4_4  and  C5_5 
ROOT
HETATM    1  C1  UNL     1     -34.499  15.320  -6.062  1.00 20.00    -0.021 C 
HETATM    2  C2  UNL     1     -33.371  15.750  -5.480  1.00 20.00    -0.025 C 
HETATM    3  C3  UNL     1     -36.298  16.490  -3.757  1.00 20.00    -0.015 C 
HETATM    4  C4  UNL     1     -36.439  15.364  -4.480  1.00 20.00    -0.009 C 
HETATM    5  C6  UNL     1     -35.021  17.215  -3.415  1.00 20.00     0.028 C 
HETATM    6  C7  UNL     1     -33.756  16.412  -3.063  1.00 20.00     0.012 C 
HETATM    7  C8  UNL     1     -34.292  14.137  -4.051  1.00 20.00     0.022 C 
HETATM    8  C9  UNL     1     -35.342  14.534  -5.093  1.00 20.00     0.045 C 
HETATM    9  C10 UNL     1     -33.314  15.316  -4.044  1.00 20.00     0.009 C 
ENDROOT
BRANCH   4  10
HETATM   10  C5  UNL     1     -37.821  14.902  -4.680  1.00 20.00     0.152 C 
HETATM   11  C11 UNL     1     -38.934  15.879  -4.413  1.00 20.00     0.096 C 
HETATM   12  O12 UNL     1     -38.046  13.750  -5.048  1.00 20.00    -0.293 OA
ENDBRANCH   4  10
TORSDOF 1
ENDMDL
MODEL 7
REMARK VINA RESULT:      -4.6     11.435     12.490
REMARK  1 active torsions:
REMARK  status: ('A' for Active; 'I' for Inactive)
REMARK    1  A    between atoms: C4_4  and  C5_5 
ROOT
HETATM    1  C1  UNL     1     -33.448  14.620  -4.170  1.00 20.00    -0.021 C 
HETATM    2  C2  UNL     1     -33.973  14.376  -5.378  1.00 20.00    -0.025 C 
HETATM    3  C3  UNL     1     -36.016  16.170  -3.214  1.00 20.00    -0.015 C 
HETATM    4  C4  UNL     1     -34.718  16.394  -2.942  1.00 20.00    -0.009 C 
HETATM    5  C6  UNL     1     -36.607  15.525  -4.442  1.00 20.00     0.028 C 
HETATM    6  C7  UNL     1     -36.006  15.824  -5.827  1.00 20.00     0.012 C 
HETATM    7  C8  UNL     1     -33.703  16.699  -5.217  1.00 20.00     0.022 C 
HETATM    8  C9  UNL     1     -33.538  16.082  -3.825  1.00 20.00     0.045 C 
HETATM    9  C10 UNL     1     -34.491  15.642  -5.998  1.00 20.00     0.009 C 
ENDROOT
BRANCH   4  10
HETATM   10  C5  UNL     1     -34.435  17.016  -1.640  1.00 20.00     0.152 C 
HETATM   11  C11 UNL     1     -33.117  17.721  -1.468  1.00 20.00     0.096 C 
HETATM   12  O12 UNL     1     -35.257  16.949  -0.726  1.00 20.00    -0.293 OA
ENDBRANCH   4  10
TORSDOF 1
ENDMDL
MODEL 8
REMARK VINA RESULT:      -4.6     11.249     13.183
REMARK  1 active torsions:
REMARK  status: ('A' for Active; 'I' for Inactive)
REMARK    1  A    between atoms: C4_4  and  C5_5 
ROOT
HETATM    1  C1  UNL     1     -34.449  14.175  -4.066  1.00 20.00    -0.021 C 
HETATM    2  C2  UNL     1     -33.227  14.565  -4.450  1.00 20.00    -0.025 C 
HETATM    3  C3  UNL     1     -35.659  14.670  -6.930  1.00 20.00    -0.015 C 
HETATM    4  C4  UNL     1     -36.206  14.854  -5.714  1.00 20.00    -0.009 C 
HETATM    5  C6  UNL     1     -34.200  14.729  -7.306  1.00 20.00     0.028 C 
HETATM    6  C7  UNL     1     -33.288  15.792  -6.668  1.00 20.00     0.012 C 
HETATM    7  C8  UNL     1     -34.615  16.447  -4.607  1.00 20.00     0.022 C 
HETATM    8  C9  UNL     1     -35.487  15.200  -4.437  1.00 20.00     0.045 C 
HETATM    9  C10 UNL     1     -33.285  15.899  -5.136  1.00 20.00     0.009 C 
ENDROOT
BRANCH   4  10
HETATM   10  C5  UNL     1     -37.667  14.702  -5.642  1.00 20.00     0.152 C 
HETATM   11  C11 UNL     1     -38.515  15.703  -6.379  1.00 20.00     0.096 C 
HETATM   12  O12 UNL     1     -38.167  13.786  -4.990  1.00 20.00    -0.293 OA
ENDBRANCH   4  10
TORSDOF 1
ENDMDL
MODEL 9
REMARK VINA RESULT:      -4.5     11.649     13.012
REMARK  1 active torsions:
REMARK  status: ('A' for Active; 'I' for Inactive)
REMARK    1  A    between atoms: C4_4  and  C5_5 
ROOT
HETATM    1  C1  UNL     1     -33.647  15.595  -3.550  1.00 20.00    -0.021 C 
HETATM    2  C2  UNL     1     -33.702  16.910  -3.305  1.00 20.00    -0.025 C 
HETATM    3  C3  UNL     1     -35.065  15.914  -6.343  1.00 20.00    -0.015 C 
HETATM    4  C4  UNL     1     -35.163  14.932  -5.429  1.00 20.00    -0.009 C 
HETATM    5  C6  UNL     1     -34.736  17.367  -6.108  1.00 20.00     0.028 C 
HETATM    6  C7  UNL     1     -35.305  18.091  -4.875  1.00 20.00     0.012 C 
HETATM    7  C8  UNL     1     -35.916  16.145  -3.365  1.00 20.00     0.022 C 
HETATM    8  C9  UNL     1     -35.000  15.059  -3.937  1.00 20.00     0.045 C 
HETATM    9  C10 UNL     1     -35.096  17.432  -3.504  1.00 20.00     0.009 C 
ENDROOT
BRANCH   4  10
HETATM   10  C5  UNL     1     -35.468  13.594  -5.958  1.00 20.00     0.152 C 
HETATM   11  C11 UNL     1     -35.193  13.335  -7.415  1.00 20.00     0.096 C 
HETATM   12  O12 UNL     1     -35.939  12.726  -5.225  1.00 20.00    -0.293 OA
ENDBRANCH   4  10
TORSDOF 1
ENDMDL
