MODEL 1
REMARK VINA RESULT:      -5.1      0.000      0.000
REMARK  1 active torsions:
REMARK  status: ('A' for Active; 'I' for Inactive)
REMARK    1  A    between atoms: C1_1  and  C2_2 
ROOT
HETATM    1  C2  UNL     1     -33.111   7.081   2.577  1.00 20.00     0.100 A 
HETATM    2  C3  UNL     1     -32.708   5.790   3.239  1.00 20.00     0.104 A 
HETATM    3  C4  UNL     1     -33.853   6.595   3.812  1.00 20.00    -0.017 A 
HETATM    4  C5  UNL     1     -35.278   6.138   3.624  1.00 20.00     0.017 C 
HETATM    5  C6  UNL     1     -33.612   7.266   5.143  1.00 20.00     0.017 C 
HETATM    6 CL9  UNL     1     -32.965   4.280   2.403  1.00 20.00    -0.123 Cl
ENDROOT
BRANCH   1   7
HETATM    7  C1  UNL     1     -32.207   8.237   2.648  1.00 20.00     0.225 C 
HETATM    8  O7  UNL     1     -31.243   8.257   3.408  1.00 20.00    -0.279 OA
HETATM    9 CL8  UNL     1     -32.681   9.506   1.559  1.00 20.00    -0.043 Cl
ENDBRANCH   1   7
TORSDOF 1
ENDMDL
MODEL 2
REMARK VINA RESULT:      -4.6      1.964      3.388
REMARK  1 active torsions:
REMARK  status: ('A' for Active; 'I' for Inactive)
REMARK    1  A    between atoms: C1_1  and  C2_2 
ROOT
HETATM    1  C2  UNL     1     -33.961   7.146   3.847  1.00 20.00     0.100 A 
HETATM    2  C3  UNL     1     -32.690   7.341   3.064  1.00 20.00     0.104 A 
HETATM    3  C4  UNL     1     -33.576   6.154   2.761  1.00 20.00    -0.017 A 
HETATM    4  C5  UNL     1     -34.426   6.134   1.515  1.00 20.00     0.017 C 
HETATM    5  C6  UNL     1     -33.044   4.794   3.143  1.00 20.00     0.017 C 
HETATM    6 CL9  UNL     1     -32.552   8.697   1.973  1.00 20.00    -0.123 Cl
ENDROOT
BRANCH   1   7
HETATM    7  C1  UNL     1     -33.880   6.777   5.266  1.00 20.00     0.225 C 
HETATM    8  O7  UNL     1     -33.192   7.411   6.061  1.00 20.00    -0.279 OA
HETATM    9 CL8  UNL     1     -34.848   5.381   5.634  1.00 20.00    -0.043 Cl
ENDBRANCH   1   7
TORSDOF 1
ENDMDL
MODEL 3
REMARK VINA RESULT:      -4.4     10.763     11.579
REMARK  1 active torsions:
REMARK  status: ('A' for Active; 'I' for Inactive)
REMARK    1  A    between atoms: C1_1  and  C2_2 
ROOT
HETATM    1  C2  UNL     1     -35.089  14.061  -4.399  1.00 20.00     0.100 A 
HETATM    2  C3  UNL     1     -33.750  14.497  -4.931  1.00 20.00     0.104 A 
HETATM    3  C4  UNL     1     -34.691  15.528  -4.350  1.00 20.00    -0.017 A 
HETATM    4  C5  UNL     1     -34.425  16.125  -2.990  1.00 20.00     0.017 C 
HETATM    5  C6  UNL     1     -35.311  16.505  -5.319  1.00 20.00     0.017 C 
HETATM    6 CL9  UNL     1     -32.294  14.002  -4.106  1.00 20.00    -0.123 Cl
ENDROOT
BRANCH   1   7
HETATM    7  C1  UNL     1     -36.116  13.592  -5.337  1.00 20.00     0.225 C 
HETATM    8  O7  UNL     1     -37.304  13.553  -5.029  1.00 20.00    -0.279 OA
HETATM    9 CL8  UNL     1     -35.439  13.123  -6.868  1.00 20.00    -0.043 Cl
ENDBRANCH   1   7
TORSDOF 1
ENDMDL
MODEL 4
REMARK VINA RESULT:      -4.3     11.133     11.886
REMARK  1 active torsions:
REMARK  status: ('A' for Active; 'I' for Inactive)
REMARK    1  A    between atoms: C1_1  and  C2_2 
ROOT
HETATM    1  C2  UNL     1     -35.240  14.976  -5.311  1.00 20.00     0.100 A 
HETATM    2  C3  UNL     1     -35.244  15.178  -3.819  1.00 20.00     0.104 A 
HETATM    3  C4  UNL     1     -33.969  15.411  -4.599  1.00 20.00    -0.017 A 
HETATM    4  C5  UNL     1     -33.480  16.814  -4.860  1.00 20.00     0.017 C 
HETATM    5  C6  UNL     1     -32.851  14.419  -4.387  1.00 20.00     0.017 C 
HETATM    6 CL9  UNL     1     -36.164  16.492  -3.133  1.00 20.00    -0.123 Cl
ENDROOT
BRANCH   1   7
HETATM    7  C1  UNL     1     -35.370  13.616  -5.852  1.00 20.00     0.225 C 
HETATM    8  O7  UNL     1     -35.939  12.725  -5.228  1.00 20.00    -0.279 OA
HETATM    9 CL8  UNL     1     -34.638  13.464  -7.421  1.00 20.00    -0.043 Cl
ENDBRANCH   1   7
TORSDOF 1
ENDMDL
MODEL 5
REMARK VINA RESULT:      -4.2      2.086      3.451
REMARK  1 active torsions:
REMARK  status: ('A' for Active; 'I' for Inactive)
REMARK    1  A    between atoms: C1_1  and  C2_2 
ROOT
HETATM    1  C2  UNL     1     -32.907   6.520   2.836  1.00 20.00     0.100 A 
HETATM    2  C3  UNL     1     -33.468   7.898   2.607  1.00 20.00     0.104 A 
HETATM    3  C4  UNL     1     -32.559   7.652   3.790  1.00 20.00    -0.017 A 
HETATM    4  C5  UNL     1     -31.136   8.152   3.776  1.00 20.00     0.017 C 
HETATM    5  C6  UNL     1     -33.196   7.701   5.158  1.00 20.00     0.017 C 
HETATM    6 CL9  UNL     1     -32.951   8.816   1.216  1.00 20.00    -0.123 Cl
ENDROOT
BRANCH   1   7
HETATM    7  C1  UNL     1     -33.808   5.437   3.251  1.00 20.00     0.225 C 
HETATM    8  O7  UNL     1     -33.414   4.282   3.379  1.00 20.00    -0.279 OA
HETATM    9 CL8  UNL     1     -35.430   6.003   3.518  1.00 20.00    -0.043 Cl
ENDBRANCH   1   7
TORSDOF 1
ENDMDL
MODEL 6
REMARK VINA RESULT:      -4.1     11.347     11.919
REMARK  1 active torsions:
REMARK  status: ('A' for Active; 'I' for Inactive)
REMARK    1  A    between atoms: C1_1  and  C2_2 
ROOT
HETATM    1  C2  UNL     1     -33.567  16.013  -3.415  1.00 20.00     0.100 A 
HETATM    2  C3  UNL     1     -33.982  17.414  -3.779  1.00 20.00     0.104 A 
HETATM    3  C4  UNL     1     -34.927  16.541  -2.984  1.00 20.00    -0.017 A 
HETATM    4  C5  UNL     1     -35.134  16.785  -1.510  1.00 20.00     0.017 C 
HETATM    5  C6  UNL     1     -36.173  16.068  -3.692  1.00 20.00     0.017 C 
HETATM    6 CL9  UNL     1     -33.149  18.769  -3.062  1.00 20.00    -0.123 Cl
ENDROOT
BRANCH   1   7
HETATM    7  C1  UNL     1     -33.455  15.000  -4.473  1.00 20.00     0.225 C 
HETATM    8  O7  UNL     1     -33.553  13.800  -4.232  1.00 20.00    -0.279 OA
HETATM    9 CL8  UNL     1     -33.175  15.712  -6.033  1.00 20.00    -0.043 Cl
ENDBRANCH   1   7
TORSDOF 1
ENDMDL
MODEL 7
REMARK VINA RESULT:      -4.1      2.159      3.121
REMARK  1 active torsions:
REMARK  status: ('A' for Active; 'I' for Inactive)
REMARK    1  A    between atoms: C1_1  and  C2_2 
ROOT
HETATM    1  C2  UNL     1     -33.162   6.192   4.171  1.00 20.00     0.100 A 
HETATM    2  C3  UNL     1     -33.941   7.282   4.857  1.00 20.00     0.104 A 
HETATM    3  C4  UNL     1     -34.565   5.915   4.689  1.00 20.00    -0.017 A 
HETATM    4  C5  UNL     1     -34.691   4.983   5.868  1.00 20.00     0.017 C 
HETATM    5  C6  UNL     1     -35.714   5.806   3.717  1.00 20.00     0.017 C 
HETATM    6 CL9  UNL     1     -33.408   7.873   6.410  1.00 20.00    -0.123 Cl
ENDROOT
BRANCH   1   7
HETATM    7  C1  UNL     1     -32.899   6.295   2.729  1.00 20.00     0.225 C 
HETATM    8  O7  UNL     1     -32.754   7.381   2.175  1.00 20.00    -0.279 OA
HETATM    9 CL8  UNL     1     -32.831   4.736   1.964  1.00 20.00    -0.043 Cl
ENDBRANCH   1   7
TORSDOF 1
ENDMDL
MODEL 8
REMARK VINA RESULT:      -4.1     10.654     11.914
REMARK  1 active torsions:
REMARK  status: ('A' for Active; 'I' for Inactive)
REMARK    1  A    between atoms: C1_1  and  C2_2 
ROOT
HETATM    1  C2  UNL     1     -34.872  15.450  -3.694  1.00 20.00     0.100 A 
HETATM    2  C3  UNL     1     -33.743  16.294  -3.167  1.00 20.00     0.104 A 
HETATM    3  C4  UNL     1     -34.509  16.754  -4.387  1.00 20.00    -0.017 A 
HETATM    4  C5  UNL     1     -35.500  17.887  -4.284  1.00 20.00     0.017 C 
HETATM    5  C6  UNL     1     -33.772  16.723  -5.704  1.00 20.00     0.017 C 
HETATM    6 CL9  UNL     1     -33.909  17.080  -1.618  1.00 20.00    -0.123 Cl
ENDROOT
BRANCH   1   7
HETATM    7  C1  UNL     1     -34.570  14.156  -4.321  1.00 20.00     0.225 C 
HETATM    8  O7  UNL     1     -33.459  13.641  -4.234  1.00 20.00    -0.279 OA
HETATM    9 CL8  UNL     1     -35.942  13.499  -5.160  1.00 20.00    -0.043 Cl
ENDBRANCH   1   7
TORSDOF 1
ENDMDL
MODEL 9
REMARK VINA RESULT:      -4.1     11.363     12.537
REMARK  1 active torsions:
REMARK  status: ('A' for Active; 'I' for Inactive)
REMARK    1  A    between atoms: C1_1  and  C2_2 
ROOT
HETATM    1  C2  UNL     1     -35.397  14.816  -5.914  1.00 20.00     0.100 A 
HETATM    2  C3  UNL     1     -35.754  16.267  -5.729  1.00 20.00     0.104 A 
HETATM    3  C4  UNL     1     -34.565  15.693  -4.992  1.00 20.00    -0.017 A 
HETATM    4  C5  UNL     1     -33.161  16.020  -5.435  1.00 20.00     0.017 C 
HETATM    5  C6  UNL     1     -34.700  15.546  -3.495  1.00 20.00     0.017 C 
HETATM    6 CL9  UNL     1     -35.569  17.374  -7.066  1.00 20.00    -0.123 Cl
ENDROOT
BRANCH   1   7
HETATM    7  C1  UNL     1     -36.288  13.783  -5.368  1.00 20.00     0.225 C 
HETATM    8  O7  UNL     1     -35.907  12.629  -5.193  1.00 20.00    -0.279 OA
HETATM    9 CL8  UNL     1     -37.875  14.403  -5.026  1.00 20.00    -0.043 Cl
ENDBRANCH   1   7
TORSDOF 1
ENDMDL
