MODEL 1
REMARK VINA RESULT:      -4.1      0.000      0.000
REMARK  0 active torsions:
REMARK  status: ('A' for Active; 'I' for Inactive)
ROOT
HETATM    1  C1  UNL     1     -35.636  13.697  -5.049  1.00 20.00     0.037 C 
HETATM    2  C2  UNL     1     -36.305  14.629  -6.079  1.00 20.00     0.019 C 
HETATM    3  C3  UNL     1     -33.257  14.583  -4.497  1.00 20.00     0.051 C 
HETATM    4  C4  UNL     1     -33.629  16.996  -5.108  1.00 20.00     0.052 C 
HETATM    5  C5  UNL     1     -34.743  14.457  -4.043  1.00 20.00     0.224 C 
HETATM    6  C6  UNL     1     -35.119  16.639  -4.998  1.00 20.00     0.237 C 
HETATM    7  C7  UNL     1     -35.481  15.893  -6.327  1.00 20.00     0.081 C 
HETATM    8  C8  UNL     1     -32.974  15.688  -5.534  1.00 20.00     0.052 C 
HETATM    9  C9  UNL     1     -35.062  16.361  -2.544  1.00 20.00     0.310 C 
HETATM   10  N10 UNL     1     -35.379  15.764  -3.834  1.00 20.00     0.094 N 
HETATM   11  S11 UNL     1     -33.885  15.384  -7.067  1.00 20.00    -0.157 SA
ENDROOT
TORSDOF 0
ENDMDL
MODEL 2
REMARK VINA RESULT:      -4.0      1.697      3.149
REMARK  0 active torsions:
REMARK  status: ('A' for Active; 'I' for Inactive)
ROOT
HETATM    1  C1  UNL     1     -34.462  14.224  -4.081  1.00 20.00     0.037 C 
HETATM    2  C2  UNL     1     -33.046  14.725  -4.423  1.00 20.00     0.019 C 
HETATM    3  C3  UNL     1     -36.212  15.580  -5.442  1.00 20.00     0.051 C 
HETATM    4  C4  UNL     1     -34.714  16.287  -7.336  1.00 20.00     0.052 C 
HETATM    5  C5  UNL     1     -35.418  14.247  -5.295  1.00 20.00     0.224 C 
HETATM    6  C6  UNL     1     -33.805  15.151  -6.843  1.00 20.00     0.237 C 
HETATM    7  C7  UNL     1     -33.054  15.715  -5.590  1.00 20.00     0.081 C 
HETATM    8  C8  UNL     1     -35.432  16.749  -6.075  1.00 20.00     0.052 C 
HETATM    9  C9  UNL     1     -35.340  13.357  -7.571  1.00 20.00     0.310 C 
HETATM   10  N10 UNL     1     -34.591  13.953  -6.473  1.00 20.00     0.094 N 
HETATM   11  S11 UNL     1     -33.999  17.193  -5.062  1.00 20.00    -0.157 SA
ENDROOT
TORSDOF 0
ENDMDL
MODEL 3
REMARK VINA RESULT:      -4.0      1.808      2.866
REMARK  0 active torsions:
REMARK  status: ('A' for Active; 'I' for Inactive)
ROOT
HETATM    1  C1  UNL     1     -34.272  14.286  -7.609  1.00 20.00     0.037 C 
HETATM    2  C2  UNL     1     -35.147  13.098  -7.168  1.00 20.00     0.019 C 
HETATM    3  C3  UNL     1     -34.930  16.399  -6.247  1.00 20.00     0.051 C 
HETATM    4  C4  UNL     1     -35.909  15.235  -4.243  1.00 20.00     0.052 C 
HETATM    5  C5  UNL     1     -33.913  15.235  -6.442  1.00 20.00     0.224 C 
HETATM    6  C6  UNL     1     -35.140  14.012  -4.764  1.00 20.00     0.237 C 
HETATM    7  C7  UNL     1     -35.997  13.436  -5.942  1.00 20.00     0.081 C 
HETATM    8  C8  UNL     1     -36.229  16.027  -5.504  1.00 20.00     0.052 C 
HETATM    9  C9  UNL     1     -32.918  14.949  -4.228  1.00 20.00     0.310 C 
HETATM   10  N10 UNL     1     -33.793  14.388  -5.248  1.00 20.00     0.094 N 
HETATM   11  S11 UNL     1     -37.158  14.771  -6.417  1.00 20.00    -0.157 SA
ENDROOT
TORSDOF 0
ENDMDL
MODEL 4
REMARK VINA RESULT:      -4.0      1.474      2.967
REMARK  0 active torsions:
REMARK  status: ('A' for Active; 'I' for Inactive)
ROOT
HETATM    1  C1  UNL     1     -36.152  16.445  -3.205  1.00 20.00     0.037 C 
HETATM    2  C2  UNL     1     -34.750  16.290  -2.586  1.00 20.00     0.019 C 
HETATM    3  C3  UNL     1     -35.949  16.543  -5.794  1.00 20.00     0.051 C 
HETATM    4  C4  UNL     1     -33.754  15.333  -6.021  1.00 20.00     0.052 C 
HETATM    5  C5  UNL     1     -36.306  15.685  -4.542  1.00 20.00     0.224 C 
HETATM    6  C6  UNL     1     -34.046  14.846  -4.594  1.00 20.00     0.237 C 
HETATM    7  C7  UNL     1     -33.678  16.039  -3.649  1.00 20.00     0.081 C 
HETATM    8  C8  UNL     1     -34.443  16.690  -6.088  1.00 20.00     0.052 C 
HETATM    9  C9  UNL     1     -35.918  13.386  -5.277  1.00 20.00     0.310 C 
HETATM   10  N10 UNL     1     -35.470  14.482  -4.429  1.00 20.00     0.094 N 
HETATM   11  S11 UNL     1     -33.597  17.521  -4.721  1.00 20.00    -0.157 SA
ENDROOT
TORSDOF 0
ENDMDL
MODEL 5
REMARK VINA RESULT:      -3.9      1.830      3.252
REMARK  0 active torsions:
REMARK  status: ('A' for Active; 'I' for Inactive)
ROOT
HETATM    1  C1  UNL     1     -33.750  17.088  -5.986  1.00 20.00     0.037 C 
HETATM    2  C2  UNL     1     -35.245  17.408  -5.792  1.00 20.00     0.019 C 
HETATM    3  C3  UNL     1     -33.188  14.837  -4.816  1.00 20.00     0.051 C 
HETATM    4  C4  UNL     1     -35.497  13.837  -4.849  1.00 20.00     0.052 C 
HETATM    5  C5  UNL     1     -33.476  15.577  -6.157  1.00 20.00     0.224 C 
HETATM    6  C6  UNL     1     -35.778  14.896  -5.925  1.00 20.00     0.237 C 
HETATM    7  C7  UNL     1     -36.003  16.242  -5.157  1.00 20.00     0.081 C 
HETATM    8  C8  UNL     1     -34.431  14.484  -3.975  1.00 20.00     0.052 C 
HETATM    9  C9  UNL     1     -34.339  13.821  -7.622  1.00 20.00     0.310 C 
HETATM   10  N10 UNL     1     -34.641  15.026  -6.863  1.00 20.00     0.094 N 
HETATM   11  S11 UNL     1     -35.320  15.980  -3.477  1.00 20.00    -0.157 SA
ENDROOT
TORSDOF 0
ENDMDL
MODEL 6
REMARK VINA RESULT:      -3.9      1.614      2.357
REMARK  0 active torsions:
REMARK  status: ('A' for Active; 'I' for Inactive)
ROOT
HETATM    1  C1  UNL     1     -34.591  13.624  -6.975  1.00 20.00     0.037 C 
HETATM    2  C2  UNL     1     -34.381  15.015  -7.602  1.00 20.00     0.019 C 
HETATM    3  C3  UNL     1     -34.844  13.864  -4.400  1.00 20.00     0.051 C 
HETATM    4  C4  UNL     1     -35.631  16.253  -4.345  1.00 20.00     0.052 C 
HETATM    5  C5  UNL     1     -35.558  13.648  -5.769  1.00 20.00     0.224 C 
HETATM    6  C6  UNL     1     -35.947  16.027  -5.831  1.00 20.00     0.237 C 
HETATM    7  C7  UNL     1     -34.578  16.139  -6.583  1.00 20.00     0.081 C 
HETATM    8  C8  UNL     1     -34.456  15.321  -4.079  1.00 20.00     0.052 C 
HETATM    9  C9  UNL     1     -37.823  14.482  -5.387  1.00 20.00     0.310 C 
HETATM   10  N10 UNL     1     -36.548  14.694  -6.057  1.00 20.00     0.094 N 
HETATM   11  S11 UNL     1     -33.284  15.963  -5.299  1.00 20.00    -0.157 SA
ENDROOT
TORSDOF 0
ENDMDL
MODEL 7
REMARK VINA RESULT:      -3.9      1.727      3.021
REMARK  0 active torsions:
REMARK  status: ('A' for Active; 'I' for Inactive)
ROOT
HETATM    1  C1  UNL     1     -33.134  14.987  -4.752  1.00 20.00     0.037 C 
HETATM    2  C2  UNL     1     -34.304  15.200  -3.773  1.00 20.00     0.019 C 
HETATM    3  C3  UNL     1     -34.070  14.501  -7.127  1.00 20.00     0.051 C 
HETATM    4  C4  UNL     1     -36.311  15.612  -6.856  1.00 20.00     0.052 C 
HETATM    5  C5  UNL     1     -33.424  15.543  -6.165  1.00 20.00     0.224 C 
HETATM    6  C6  UNL     1     -35.653  16.312  -5.659  1.00 20.00     0.237 C 
HETATM    7  C7  UNL     1     -35.651  15.265  -4.495  1.00 20.00     0.081 C 
HETATM    8  C8  UNL     1     -35.583  14.276  -6.939  1.00 20.00     0.052 C 
HETATM    9  C9  UNL     1     -34.158  17.698  -7.056  1.00 20.00     0.310 C 
HETATM   10  N10 UNL     1     -34.268  16.730  -5.973  1.00 20.00     0.094 N 
HETATM   11  S11 UNL     1     -35.941  13.638  -5.284  1.00 20.00    -0.157 SA
ENDROOT
TORSDOF 0
ENDMDL
MODEL 8
REMARK VINA RESULT:      -3.8      1.408      3.015
REMARK  0 active torsions:
REMARK  status: ('A' for Active; 'I' for Inactive)
ROOT
HETATM    1  C1  UNL     1     -35.558  16.988  -3.781  1.00 20.00     0.037 C 
HETATM    2  C2  UNL     1     -34.624  15.995  -3.065  1.00 20.00     0.019 C 
HETATM    3  C3  UNL     1     -35.635  16.429  -6.317  1.00 20.00     0.051 C 
HETATM    4  C4  UNL     1     -34.992  14.001  -6.162  1.00 20.00     0.052 C 
HETATM    5  C5  UNL     1     -36.353  16.339  -4.937  1.00 20.00     0.224 C 
HETATM    6  C6  UNL     1     -35.382  14.146  -4.684  1.00 20.00     0.237 C 
HETATM    7  C7  UNL     1     -34.175  14.861  -3.989  1.00 20.00     0.081 C 
HETATM    8  C8  UNL     1     -34.516  15.395  -6.550  1.00 20.00     0.052 C 
HETATM    9  C9  UNL     1     -37.797  14.379  -5.153  1.00 20.00     0.310 C 
HETATM   10  N10 UNL     1     -36.613  14.953  -4.528  1.00 20.00     0.094 N 
HETATM   11  S11 UNL     1     -33.185  15.601  -5.341  1.00 20.00    -0.157 SA
ENDROOT
TORSDOF 0
ENDMDL
MODEL 9
REMARK VINA RESULT:      -3.8      1.268      2.475
REMARK  0 active torsions:
REMARK  status: ('A' for Active; 'I' for Inactive)
ROOT
HETATM    1  C1  UNL     1     -35.464  17.198  -6.012  1.00 20.00     0.037 C 
HETATM    2  C2  UNL     1     -34.234  16.892  -6.888  1.00 20.00     0.019 C 
HETATM    3  C3  UNL     1     -35.849  15.240  -4.347  1.00 20.00     0.051 C 
HETATM    4  C4  UNL     1     -33.496  14.351  -4.300  1.00 20.00     0.052 C 
HETATM    5  C5  UNL     1     -35.310  16.687  -4.561  1.00 20.00     0.224 C 
HETATM    6  C6  UNL     1     -33.125  15.721  -4.886  1.00 20.00     0.237 C 
HETATM    7  C7  UNL     1     -33.483  15.649  -6.408  1.00 20.00     0.081 C 
HETATM    8  C8  UNL     1     -34.910  14.109  -4.811  1.00 20.00     0.052 C 
HETATM    9  C9  UNL     1     -33.631  16.953  -2.805  1.00 20.00     0.310 C 
HETATM   10  N10 UNL     1     -33.884  16.810  -4.232  1.00 20.00     0.094 N 
HETATM   11  S11 UNL     1     -34.605  14.213  -6.592  1.00 20.00    -0.157 SA
ENDROOT
TORSDOF 0
ENDMDL
