MODEL 1
REMARK VINA RESULT:      -4.3      0.000      0.000
REMARK  0 active torsions:
REMARK  status: ('A' for Active; 'I' for Inactive)
ROOT
HETATM    1  C1  UNL     1     -32.577   9.743   0.867  1.00 20.00     0.017 C 
HETATM    2  C2  UNL     1     -32.608   8.891   1.714  1.00 20.00    -0.050 C 
HETATM    3  C3  UNL     1     -34.244   5.718   3.686  1.00 20.00     0.053 C 
HETATM    4  C4  UNL     1     -34.153   7.036   4.434  1.00 20.00     0.174 C 
HETATM    5  C5  UNL     1     -32.962   5.476   2.909  1.00 20.00     0.174 C 
HETATM    6  C6  UNL     1     -32.647   7.846   2.756  1.00 20.00     0.227 C 
HETATM    7  C7  UNL     1     -31.378   7.983   3.608  1.00 20.00     0.095 C 
HETATM    8  O8  UNL     1     -33.823   8.092   3.535  1.00 20.00    -0.345 OA
HETATM    9  O9  UNL     1     -32.676   6.589   2.068  1.00 20.00    -0.345 OA
ENDROOT
TORSDOF 0
ENDMDL
MODEL 2
REMARK VINA RESULT:      -4.3      1.649      2.947
REMARK  0 active torsions:
REMARK  status: ('A' for Active; 'I' for Inactive)
ROOT
HETATM    1  C1  UNL     1     -32.032   7.891   2.418  1.00 20.00     0.017 C 
HETATM    2  C2  UNL     1     -32.865   7.197   2.936  1.00 20.00    -0.050 C 
HETATM    3  C3  UNL     1     -34.229   4.515   5.689  1.00 20.00     0.053 C 
HETATM    4  C4  UNL     1     -34.159   4.059   4.242  1.00 20.00     0.174 C 
HETATM    5  C5  UNL     1     -34.776   5.931   5.758  1.00 20.00     0.174 C 
HETATM    6  C6  UNL     1     -33.888   6.344   3.571  1.00 20.00     0.227 C 
HETATM    7  C7  UNL     1     -35.203   6.532   2.802  1.00 20.00     0.095 C 
HETATM    8  O8  UNL     1     -33.416   4.996   3.466  1.00 20.00    -0.345 OA
HETATM    9  O9  UNL     1     -34.011   6.796   4.926  1.00 20.00    -0.345 OA
ENDROOT
TORSDOF 0
ENDMDL
MODEL 3
REMARK VINA RESULT:      -4.0      9.706     10.807
REMARK  0 active torsions:
REMARK  status: ('A' for Active; 'I' for Inactive)
ROOT
HETATM    1  C1  UNL     1     -43.179   3.401  -2.709  1.00 20.00     0.017 C 
HETATM    2  C2  UNL     1     -42.967   4.249  -1.885  1.00 20.00    -0.050 C 
HETATM    3  C3  UNL     1     -41.389   7.760  -0.536  1.00 20.00     0.053 C 
HETATM    4  C4  UNL     1     -40.835   6.473   0.050  1.00 20.00     0.174 C 
HETATM    5  C5  UNL     1     -42.901   7.668  -0.648  1.00 20.00     0.174 C 
HETATM    6  C6  UNL     1     -42.705   5.290  -0.871  1.00 20.00     0.227 C 
HETATM    7  C7  UNL     1     -43.392   4.862   0.433  1.00 20.00     0.095 C 
HETATM    8  O8  UNL     1     -41.283   5.353  -0.710  1.00 20.00    -0.345 OA
HETATM    9  O9  UNL     1     -43.271   6.504  -1.381  1.00 20.00    -0.345 OA
ENDROOT
TORSDOF 0
ENDMDL
MODEL 4
REMARK VINA RESULT:      -3.7     10.269     11.217
REMARK  0 active torsions:
REMARK  status: ('A' for Active; 'I' for Inactive)
ROOT
HETATM    1  C1  UNL     1     -34.443  16.731  -2.141  1.00 20.00     0.017 C 
HETATM    2  C2  UNL     1     -34.437  16.054  -3.133  1.00 20.00    -0.050 C 
HETATM    3  C3  UNL     1     -36.045  14.513  -6.550  1.00 20.00     0.053 C 
HETATM    4  C4  UNL     1     -35.798  13.555  -5.398  1.00 20.00     0.174 C 
HETATM    5  C5  UNL     1     -34.867  15.461  -6.695  1.00 20.00     0.174 C 
HETATM    6  C6  UNL     1     -34.429  15.219  -4.351  1.00 20.00     0.227 C 
HETATM    7  C7  UNL     1     -33.072  14.506  -4.425  1.00 20.00     0.095 C 
HETATM    8  O8  UNL     1     -35.501  14.281  -4.208  1.00 20.00    -0.345 OA
HETATM    9  O9  UNL     1     -34.604  16.115  -5.457  1.00 20.00    -0.345 OA
ENDROOT
TORSDOF 0
ENDMDL
MODEL 5
REMARK VINA RESULT:      -3.7     10.402     11.054
REMARK  0 active torsions:
REMARK  status: ('A' for Active; 'I' for Inactive)
ROOT
HETATM    1  C1  UNL     1     -35.178  17.010  -1.162  1.00 20.00     0.017 C 
HETATM    2  C2  UNL     1     -35.273  16.564  -2.273  1.00 20.00    -0.050 C 
HETATM    3  C3  UNL     1     -35.873  13.600  -5.010  1.00 20.00     0.053 C 
HETATM    4  C4  UNL     1     -34.485  14.211  -4.933  1.00 20.00     0.174 C 
HETATM    5  C5  UNL     1     -36.924  14.693  -4.918  1.00 20.00     0.174 C 
HETATM    6  C6  UNL     1     -35.388  16.015  -3.639  1.00 20.00     0.227 C 
HETATM    7  C7  UNL     1     -35.166  17.165  -4.630  1.00 20.00     0.095 C 
HETATM    8  O8  UNL     1     -34.367  15.019  -3.764  1.00 20.00    -0.345 OA
HETATM    9  O9  UNL     1     -36.714  15.482  -3.752  1.00 20.00    -0.345 OA
ENDROOT
TORSDOF 0
ENDMDL
MODEL 6
REMARK VINA RESULT:      -3.6     10.491     11.492
REMARK  0 active torsions:
REMARK  status: ('A' for Active; 'I' for Inactive)
ROOT
HETATM    1  C1  UNL     1     -35.188  16.993  -1.161  1.00 20.00     0.017 C 
HETATM    2  C2  UNL     1     -35.115  16.575  -2.285  1.00 20.00    -0.050 C 
HETATM    3  C3  UNL     1     -33.186  15.712  -5.773  1.00 20.00     0.053 C 
HETATM    4  C4  UNL     1     -34.244  16.801  -5.809  1.00 20.00     0.174 C 
HETATM    5  C5  UNL     1     -33.675  14.544  -4.935  1.00 20.00     0.174 C 
HETATM    6  C6  UNL     1     -35.026  16.064  -3.667  1.00 20.00     0.227 C 
HETATM    7  C7  UNL     1     -36.417  15.557  -4.073  1.00 20.00     0.095 C 
HETATM    8  O8  UNL     1     -34.619  17.168  -4.484  1.00 20.00    -0.345 OA
HETATM    9  O9  UNL     1     -34.072  14.995  -3.644  1.00 20.00    -0.345 OA
ENDROOT
TORSDOF 0
ENDMDL
MODEL 7
REMARK VINA RESULT:      -3.6      9.719     10.717
REMARK  0 active torsions:
REMARK  status: ('A' for Active; 'I' for Inactive)
ROOT
HETATM    1  C1  UNL     1     -43.154   3.539  -2.452  1.00 20.00     0.017 C 
HETATM    2  C2  UNL     1     -42.803   4.411  -1.703  1.00 20.00    -0.050 C 
HETATM    3  C3  UNL     1     -43.407   7.458   0.939  1.00 20.00     0.053 C 
HETATM    4  C4  UNL     1     -42.804   7.810  -0.410  1.00 20.00     0.174 C 
HETATM    5  C5  UNL     1     -42.774   6.184   1.471  1.00 20.00     0.174 C 
HETATM    6  C6  UNL     1     -42.372   5.483  -0.785  1.00 20.00     0.227 C 
HETATM    7  C7  UNL     1     -40.837   5.513  -0.783  1.00 20.00     0.095 C 
HETATM    8  O8  UNL     1     -42.913   6.704  -1.302  1.00 20.00    -0.345 OA
HETATM    9  O9  UNL     1     -42.884   5.140   0.509  1.00 20.00    -0.345 OA
ENDROOT
TORSDOF 0
ENDMDL
MODEL 8
REMARK VINA RESULT:      -3.6      1.136      3.781
REMARK  0 active torsions:
REMARK  status: ('A' for Active; 'I' for Inactive)
ROOT
HETATM    1  C1  UNL     1     -33.854   5.920   3.277  1.00 20.00     0.017 C 
HETATM    2  C2  UNL     1     -33.247   6.888   2.905  1.00 20.00    -0.050 C 
HETATM    3  C3  UNL     1     -32.320   9.867   0.278  1.00 20.00     0.053 C 
HETATM    4  C4  UNL     1     -31.272   8.795   0.519  1.00 20.00     0.174 C 
HETATM    5  C5  UNL     1     -32.961  10.268   1.595  1.00 20.00     0.174 C 
HETATM    6  C6  UNL     1     -32.500   8.076   2.448  1.00 20.00     0.227 C 
HETATM    7  C7  UNL     1     -31.484   8.443   3.538  1.00 20.00     0.095 C 
HETATM    8  O8  UNL     1     -31.842   7.700   1.232  1.00 20.00    -0.345 OA
HETATM    9  O9  UNL     1     -33.466   9.119   2.269  1.00 20.00    -0.345 OA
ENDROOT
TORSDOF 0
ENDMDL
MODEL 9
REMARK VINA RESULT:      -3.5     10.208     11.089
REMARK  0 active torsions:
REMARK  status: ('A' for Active; 'I' for Inactive)
ROOT
HETATM    1  C1  UNL     1     -34.539  14.200  -4.228  1.00 20.00     0.017 C 
HETATM    2  C2  UNL     1     -34.589  15.261  -3.667  1.00 20.00    -0.050 C 
HETATM    3  C3  UNL     1     -34.383  17.724  -0.423  1.00 20.00     0.053 C 
HETATM    4  C4  UNL     1     -35.740  17.545  -1.081  1.00 20.00     0.174 C 
HETATM    5  C5  UNL     1     -33.309  17.875  -1.487  1.00 20.00     0.174 C 
HETATM    6  C6  UNL     1     -34.653  16.565  -2.979  1.00 20.00     0.227 C 
HETATM    7  C7  UNL     1     -34.974  17.638  -4.028  1.00 20.00     0.095 C 
HETATM    8  O8  UNL     1     -35.699  16.462  -2.007  1.00 20.00    -0.345 OA
HETATM    9  O9  UNL     1     -33.360  16.781  -2.397  1.00 20.00    -0.345 OA
ENDROOT
TORSDOF 0
ENDMDL
