MODEL 1
REMARK VINA RESULT:      -7.0      0.000      0.000
REMARK  1 active torsions:
REMARK  status: ('A' for Active; 'I' for Inactive)
REMARK    1  A    between atoms: C1_1  and  C7_7 
ROOT
HETATM    1  C1  UNL     1     -32.817   7.508   2.870  1.00 20.00    -0.057 C 
HETATM    2  C2  UNL     1     -32.294   8.266   2.100  1.00 20.00     0.276 C 
HETATM    3  O10 UNL     1     -31.783   9.008   1.345  1.00 20.00    -0.274 OA
ENDROOT
BRANCH   1   4
HETATM    4  C7  UNL     1     -33.384   6.684   3.707  1.00 20.00     0.023 A 
HETATM    5  C5  UNL     1     -33.815   7.194   5.007  1.00 20.00     0.021 A 
HETATM    6  C3  UNL     1     -34.403   6.367   5.890  1.00 20.00     0.002 A 
HETATM    7  C4  UNL     1     -34.627   4.964   5.588  1.00 20.00     0.001 A 
HETATM    8  C6  UNL     1     -34.257   4.427   4.412  1.00 20.00     0.012 A 
HETATM    9  C8  UNL     1     -33.607   5.256   3.388  1.00 20.00    -0.027 A 
HETATM   10  C9  UNL     1     -33.247   4.692   2.221  1.00 20.00     0.025 C 
ENDBRANCH   1   4
TORSDOF 1
ENDMDL
MODEL 2
REMARK VINA RESULT:      -6.6      0.501      2.193
REMARK  1 active torsions:
REMARK  status: ('A' for Active; 'I' for Inactive)
REMARK    1  A    between atoms: C1_1  and  C7_7 
ROOT
HETATM    1  C1  UNL     1     -32.817   7.403   2.857  1.00 20.00    -0.057 C 
HETATM    2  C2  UNL     1     -32.297   8.215   2.143  1.00 20.00     0.276 C 
HETATM    3  O10 UNL     1     -31.788   9.010   1.442  1.00 20.00    -0.274 OA
ENDROOT
BRANCH   1   4
HETATM    4  C7  UNL     1     -33.382   6.521   3.633  1.00 20.00     0.023 A 
HETATM    5  C5  UNL     1     -33.669   5.194   3.092  1.00 20.00     0.021 A 
HETATM    6  C3  UNL     1     -34.252   4.264   3.869  1.00 20.00     0.002 A 
HETATM    7  C4  UNL     1     -34.610   4.541   5.250  1.00 20.00     0.001 A 
HETATM    8  C6  UNL     1     -34.375   5.739   5.814  1.00 20.00     0.012 A 
HETATM    9  C8  UNL     1     -33.743   6.814   5.039  1.00 20.00    -0.027 A 
HETATM   10  C9  UNL     1     -33.521   8.002   5.629  1.00 20.00     0.025 C 
ENDBRANCH   1   4
TORSDOF 1
ENDMDL
MODEL 3
REMARK VINA RESULT:      -4.4     12.174     12.769
REMARK  1 active torsions:
REMARK  status: ('A' for Active; 'I' for Inactive)
REMARK    1  A    between atoms: C1_1  and  C7_7 
ROOT
HETATM    1  C1  UNL     1     -34.686  18.499   1.596  1.00 20.00    -0.057 C 
HETATM    2  C2  UNL     1     -34.931  18.884   2.706  1.00 20.00     0.276 C 
HETATM    3  O10 UNL     1     -35.171  19.263   3.793  1.00 20.00    -0.274 OA
ENDROOT
BRANCH   1   4
HETATM    4  C7  UNL     1     -34.421  18.080   0.390  1.00 20.00     0.023 A 
HETATM    5  C5  UNL     1     -35.468  17.385  -0.356  1.00 20.00     0.021 A 
HETATM    6  C3  UNL     1     -35.222  16.941  -1.601  1.00 20.00     0.002 A 
HETATM    7  C4  UNL     1     -33.931  17.134  -2.238  1.00 20.00     0.001 A 
HETATM    8  C6  UNL     1     -32.921  17.764  -1.612  1.00 20.00     0.012 A 
HETATM    9  C8  UNL     1     -33.101  18.281  -0.249  1.00 20.00    -0.027 A 
HETATM   10  C9  UNL     1     -32.073  18.907   0.353  1.00 20.00     0.025 C 
ENDBRANCH   1   4
TORSDOF 1
ENDMDL
MODEL 4
REMARK VINA RESULT:      -4.4     12.002     12.563
REMARK  1 active torsions:
REMARK  status: ('A' for Active; 'I' for Inactive)
REMARK    1  A    between atoms: C1_1  and  C7_7 
ROOT
HETATM    1  C1  UNL     1     -35.020  16.953  -1.889  1.00 20.00    -0.057 C 
HETATM    2  C2  UNL     1     -35.716  16.401  -2.696  1.00 20.00     0.276 C 
HETATM    3  O10 UNL     1     -36.397  15.862  -3.488  1.00 20.00    -0.274 OA
ENDROOT
BRANCH   1   4
HETATM    4  C7  UNL     1     -34.264  17.552  -1.012  1.00 20.00     0.023 A 
HETATM    5  C5  UNL     1     -32.889  17.881  -1.382  1.00 20.00     0.021 A 
HETATM    6  C3  UNL     1     -32.085  18.499  -0.497  1.00 20.00     0.002 A 
HETATM    7  C4  UNL     1     -32.548  18.854   0.834  1.00 20.00     0.001 A 
HETATM    8  C6  UNL     1     -33.800  18.581   1.242  1.00 20.00     0.012 A 
HETATM    9  C8  UNL     1     -34.746  17.908   0.342  1.00 20.00    -0.027 A 
HETATM   10  C9  UNL     1     -35.991  17.647   0.778  1.00 20.00     0.025 C 
ENDBRANCH   1   4
TORSDOF 1
ENDMDL
MODEL 5
REMARK VINA RESULT:      -4.4     11.937     12.348
REMARK  1 active torsions:
REMARK  status: ('A' for Active; 'I' for Inactive)
REMARK    1  A    between atoms: C1_1  and  C7_7 
ROOT
HETATM    1  C1  UNL     1     -33.858  16.955  -2.371  1.00 20.00    -0.057 C 
HETATM    2  C2  UNL     1     -33.549  16.551  -3.458  1.00 20.00     0.276 C 
HETATM    3  O10 UNL     1     -33.245  16.156  -4.523  1.00 20.00    -0.274 OA
ENDROOT
BRANCH   1   4
HETATM    4  C7  UNL     1     -34.194  17.393  -1.190  1.00 20.00     0.023 A 
HETATM    5  C5  UNL     1     -35.547  17.127  -0.703  1.00 20.00     0.021 A 
HETATM    6  C3  UNL     1     -35.921  17.568   0.511  1.00 20.00     0.002 A 
HETATM    7  C4  UNL     1     -35.011  18.310   1.367  1.00 20.00     0.001 A 
HETATM    8  C6  UNL     1     -33.752  18.591   0.984  1.00 20.00     0.012 A 
HETATM    9  C8  UNL     1     -33.258  18.149  -0.326  1.00 20.00    -0.027 A 
HETATM   10  C9  UNL     1     -31.996  18.444  -0.683  1.00 20.00     0.025 C 
ENDBRANCH   1   4
TORSDOF 1
ENDMDL
MODEL 6
REMARK VINA RESULT:      -4.3     11.560     12.913
REMARK  1 active torsions:
REMARK  status: ('A' for Active; 'I' for Inactive)
REMARK    1  A    between atoms: C1_1  and  C7_7 
ROOT
HETATM    1  C1  UNL     1     -35.008  14.785  -4.380  1.00 20.00    -0.057 C 
HETATM    2  C2  UNL     1     -35.472  13.757  -4.790  1.00 20.00     0.276 C 
HETATM    3  O10 UNL     1     -35.926  12.749  -5.191  1.00 20.00    -0.274 OA
ENDROOT
BRANCH   1   4
HETATM    4  C7  UNL     1     -34.504  15.902  -3.934  1.00 20.00     0.023 A 
HETATM    5  C5  UNL     1     -34.619  16.202  -2.508  1.00 20.00     0.021 A 
HETATM    6  C3  UNL     1     -34.110  17.347  -2.020  1.00 20.00     0.002 A 
HETATM    7  C4  UNL     1     -33.437  18.308  -2.878  1.00 20.00     0.001 A 
HETATM    8  C6  UNL     1     -33.294  18.097  -4.199  1.00 20.00     0.012 A 
HETATM    9  C8  UNL     1     -33.821  16.874  -4.817  1.00 20.00    -0.027 A 
HETATM   10  C9  UNL     1     -33.664  16.690  -6.141  1.00 20.00     0.025 C 
ENDBRANCH   1   4
TORSDOF 1
ENDMDL
MODEL 7
REMARK VINA RESULT:      -4.3     11.515     12.030
REMARK  1 active torsions:
REMARK  status: ('A' for Active; 'I' for Inactive)
REMARK    1  A    between atoms: C1_1  and  C7_7 
ROOT
HETATM    1  C1  UNL     1     -34.035  16.602  -2.641  1.00 20.00    -0.057 C 
HETATM    2  C2  UNL     1     -33.318  17.290  -1.967  1.00 20.00     0.276 C 
HETATM    3  O10 UNL     1     -32.616  17.964  -1.308  1.00 20.00    -0.274 OA
ENDROOT
BRANCH   1   4
HETATM    4  C7  UNL     1     -34.813  15.855  -3.374  1.00 20.00     0.023 A 
HETATM    5  C5  UNL     1     -36.243  16.155  -3.406  1.00 20.00     0.021 A 
HETATM    6  C3  UNL     1     -37.070  15.400  -4.151  1.00 20.00     0.002 A 
HETATM    7  C4  UNL     1     -36.579  14.282  -4.938  1.00 20.00     0.001 A 
HETATM    8  C6  UNL     1     -35.277  13.949  -4.956  1.00 20.00     0.012 A 
HETATM    9  C8  UNL     1     -34.302  14.717  -4.171  1.00 20.00    -0.027 A 
HETATM   10  C9  UNL     1     -33.006  14.360  -4.208  1.00 20.00     0.025 C 
ENDBRANCH   1   4
TORSDOF 1
ENDMDL
MODEL 8
REMARK VINA RESULT:      -4.3     12.336     12.871
REMARK  1 active torsions:
REMARK  status: ('A' for Active; 'I' for Inactive)
REMARK    1  A    between atoms: C1_1  and  C7_7 
ROOT
HETATM    1  C1  UNL     1     -33.167  18.644   3.350  1.00 20.00    -0.057 C 
HETATM    2  C2  UNL     1     -33.147  18.739   4.546  1.00 20.00     0.276 C 
HETATM    3  O10 UNL     1     -33.129  18.832   5.718  1.00 20.00    -0.274 OA
ENDROOT
BRANCH   1   4
HETATM    4  C7  UNL     1     -33.189  18.542   2.050  1.00 20.00     0.023 A 
HETATM    5  C5  UNL     1     -34.455  18.221   1.394  1.00 20.00     0.021 A 
HETATM    6  C3  UNL     1     -34.507  18.108   0.055  1.00 20.00     0.002 A 
HETATM    7  C4  UNL     1     -33.327  18.298  -0.772  1.00 20.00     0.001 A 
HETATM    8  C6  UNL     1     -32.130  18.596  -0.237  1.00 20.00     0.012 A 
HETATM    9  C8  UNL     1     -31.980  18.738   1.217  1.00 20.00    -0.027 A 
HETATM   10  C9  UNL     1     -30.771  19.035   1.724  1.00 20.00     0.025 C 
ENDBRANCH   1   4
TORSDOF 1
ENDMDL
MODEL 9
REMARK VINA RESULT:      -4.2     12.221     12.468
REMARK  1 active torsions:
REMARK  status: ('A' for Active; 'I' for Inactive)
REMARK    1  A    between atoms: C1_1  and  C7_7 
ROOT
HETATM    1  C1  UNL     1     -33.590  16.497  -3.918  1.00 20.00    -0.057 C 
HETATM    2  C2  UNL     1     -33.237  16.110  -4.998  1.00 20.00     0.276 C 
HETATM    3  O10 UNL     1     -32.891  15.732  -6.057  1.00 20.00    -0.274 OA
ENDROOT
BRANCH   1   4
HETATM    4  C7  UNL     1     -33.974  16.916  -2.745  1.00 20.00     0.023 A 
HETATM    5  C5  UNL     1     -32.990  17.558  -1.875  1.00 20.00     0.021 A 
HETATM    6  C3  UNL     1     -33.357  18.000  -0.659  1.00 20.00     0.002 A 
HETATM    7  C4  UNL     1     -34.721  17.859  -0.176  1.00 20.00     0.001 A 
HETATM    8  C6  UNL     1     -35.678  17.279  -0.923  1.00 20.00     0.012 A 
HETATM    9  C8  UNL     1     -35.366  16.766  -2.263  1.00 20.00    -0.027 A 
HETATM   10  C9  UNL     1     -36.343  16.190  -2.987  1.00 20.00     0.025 C 
ENDBRANCH   1   4
TORSDOF 1
ENDMDL
