MODEL 1
REMARK VINA RESULT:      -5.4      0.000      0.000
REMARK  1 active torsions:
REMARK  status: ('A' for Active; 'I' for Inactive)
REMARK    1  A    between atoms: C9_9  and  O10_10 
ROOT
HETATM    1  C1  UNL     1     -32.447   8.854   1.693  1.00 20.00     0.012 C 
HETATM    2  C2  UNL     1     -32.523   7.984   2.517  1.00 20.00    -0.112 C 
HETATM    3  C3  UNL     1     -35.501   6.215   3.592  1.00 20.00     0.007 C 
HETATM    4  C4  UNL     1     -34.635   5.863   2.375  1.00 20.00     0.009 C 
HETATM    5  C5  UNL     1     -33.536   7.284   4.710  1.00 20.00     0.024 C 
HETATM    6  C6  UNL     1     -32.616   6.923   3.523  1.00 20.00     0.071 C 
HETATM    7  C7  UNL     1     -34.512   6.091   4.766  1.00 20.00     0.016 C 
HETATM    8  C8  UNL     1     -33.244   5.610   2.999  1.00 20.00     0.030 C 
HETATM    9  C9  UNL     1     -33.611   4.933   4.327  1.00 20.00     0.127 C 
ENDROOT
BRANCH   9  10
HETATM   10  O10 UNL     1     -34.311   3.717   4.173  1.00 20.00    -0.395 OA
HETATM   11  H22 UNL     1     -34.143   3.398   3.269  1.00 20.00     0.210 HD
ENDBRANCH   9  10
TORSDOF 1
ENDMDL
MODEL 2
REMARK VINA RESULT:      -4.8     11.442     12.445
REMARK  1 active torsions:
REMARK  status: ('A' for Active; 'I' for Inactive)
REMARK    1  A    between atoms: C9_9  and  O10_10 
ROOT
HETATM    1  C1  UNL     1     -34.411  16.909  -1.722  1.00 20.00     0.012 C 
HETATM    2  C2  UNL     1     -34.799  16.274  -2.663  1.00 20.00    -0.112 C 
HETATM    3  C3  UNL     1     -33.139  15.818  -5.856  1.00 20.00     0.007 C 
HETATM    4  C4  UNL     1     -32.895  14.988  -4.588  1.00 20.00     0.009 C 
HETATM    5  C5  UNL     1     -35.460  16.350  -5.089  1.00 20.00     0.024 C 
HETATM    6  C6  UNL     1     -35.274  15.499  -3.813  1.00 20.00     0.071 C 
HETATM    7  C7  UNL     1     -34.634  15.581  -6.140  1.00 20.00     0.016 C 
HETATM    8  C8  UNL     1     -34.292  14.400  -4.283  1.00 20.00     0.030 C 
HETATM    9  C9  UNL     1     -34.837  14.130  -5.691  1.00 20.00     0.127 C 
ENDROOT
BRANCH   9  10
HETATM   10  O10 UNL     1     -34.065  13.210  -6.434  1.00 20.00    -0.395 OA
HETATM   11  H22 UNL     1     -34.531  13.053  -7.275  1.00 20.00     0.210 HD
ENDBRANCH   9  10
TORSDOF 1
ENDMDL
MODEL 3
REMARK VINA RESULT:      -4.3      1.344      2.222
REMARK  1 active torsions:
REMARK  status: ('A' for Active; 'I' for Inactive)
REMARK    1  A    between atoms: C9_9  and  O10_10 
ROOT
HETATM    1  C1  UNL     1     -31.021   8.436   3.673  1.00 20.00     0.012 C 
HETATM    2  C2  UNL     1     -31.949   7.772   3.301  1.00 20.00    -0.112 C 
HETATM    3  C3  UNL     1     -33.829   5.333   5.217  1.00 20.00     0.007 C 
HETATM    4  C4  UNL     1     -34.081   6.846   5.193  1.00 20.00     0.009 C 
HETATM    5  C5  UNL     1     -32.820   5.442   2.930  1.00 20.00     0.024 C 
HETATM    6  C6  UNL     1     -33.082   6.962   2.846  1.00 20.00     0.071 C 
HETATM    7  C7  UNL     1     -34.025   4.928   3.744  1.00 20.00     0.016 C 
HETATM    8  C8  UNL     1     -34.361   7.129   3.700  1.00 20.00     0.030 C 
HETATM    9  C9  UNL     1     -35.137   5.874   3.279  1.00 20.00     0.127 C 
ENDROOT
BRANCH   9  10
HETATM   10  O10 UNL     1     -36.347   5.689   3.983  1.00 20.00    -0.395 OA
HETATM   11  H22 UNL     1     -36.692   4.811   3.741  1.00 20.00     0.210 HD
ENDBRANCH   9  10
TORSDOF 1
ENDMDL
MODEL 4
REMARK VINA RESULT:      -4.2     11.937     13.129
REMARK  1 active torsions:
REMARK  status: ('A' for Active; 'I' for Inactive)
REMARK    1  A    between atoms: C9_9  and  O10_10 
ROOT
HETATM    1  C1  UNL     1     -35.277  17.019  -1.154  1.00 20.00     0.012 C 
HETATM    2  C2  UNL     1     -34.626  16.657  -2.095  1.00 20.00    -0.112 C 
HETATM    3  C3  UNL     1     -35.744  16.229  -5.519  1.00 20.00     0.007 C 
HETATM    4  C4  UNL     1     -35.267  17.543  -4.886  1.00 20.00     0.009 C 
HETATM    5  C5  UNL     1     -34.365  14.919  -3.894  1.00 20.00     0.024 C 
HETATM    6  C6  UNL     1     -33.832  16.214  -3.244  1.00 20.00     0.071 C 
HETATM    7  C7  UNL     1     -34.514  15.313  -5.378  1.00 20.00     0.016 C 
HETATM    8  C8  UNL     1     -33.829  17.208  -4.430  1.00 20.00     0.030 C 
HETATM    9  C9  UNL     1     -33.345  16.286  -5.558  1.00 20.00     0.127 C 
ENDROOT
BRANCH   9  10
HETATM   10  O10 UNL     1     -33.330  16.900  -6.829  1.00 20.00    -0.395 OA
HETATM   11  H22 UNL     1     -32.402  16.944  -7.119  1.00 20.00     0.210 HD
ENDBRANCH   9  10
TORSDOF 1
ENDMDL
MODEL 5
REMARK VINA RESULT:      -4.1     11.663     12.731
REMARK  1 active torsions:
REMARK  status: ('A' for Active; 'I' for Inactive)
REMARK    1  A    between atoms: C9_9  and  O10_10 
ROOT
HETATM    1  C1  UNL     1     -33.626  18.136  -4.472  1.00 20.00     0.012 C 
HETATM    2  C2  UNL     1     -34.475  17.298  -4.608  1.00 20.00    -0.112 C 
HETATM    3  C3  UNL     1     -34.285  14.259  -6.577  1.00 20.00     0.007 C 
HETATM    4  C4  UNL     1     -33.787  14.430  -5.136  1.00 20.00     0.009 C 
HETATM    5  C5  UNL     1     -35.956  16.089  -6.241  1.00 20.00     0.024 C 
HETATM    6  C6  UNL     1     -35.513  16.277  -4.774  1.00 20.00     0.071 C 
HETATM    7  C7  UNL     1     -35.788  14.572  -6.462  1.00 20.00     0.016 C 
HETATM    8  C8  UNL     1     -35.064  14.851  -4.374  1.00 20.00     0.030 C 
HETATM    9  C9  UNL     1     -36.143  14.018  -5.079  1.00 20.00     0.127 C 
ENDROOT
BRANCH   9  10
HETATM   10  O10 UNL     1     -35.944  12.624  -4.976  1.00 20.00    -0.395 OA
HETATM   11  H22 UNL     1     -35.211  12.390  -5.572  1.00 20.00     0.210 HD
ENDBRANCH   9  10
TORSDOF 1
ENDMDL
MODEL 6
REMARK VINA RESULT:      -4.1     11.298     12.744
REMARK  1 active torsions:
REMARK  status: ('A' for Active; 'I' for Inactive)
REMARK    1  A    between atoms: C9_9  and  O10_10 
ROOT
HETATM    1  C1  UNL     1     -34.041  18.098  -7.051  1.00 20.00     0.012 C 
HETATM    2  C2  UNL     1     -33.984  16.936  -6.757  1.00 20.00    -0.112 C 
HETATM    3  C3  UNL     1     -35.418  15.320  -3.844  1.00 20.00     0.007 C 
HETATM    4  C4  UNL     1     -36.147  15.607  -5.164  1.00 20.00     0.009 C 
HETATM    5  C5  UNL     1     -33.223  15.261  -5.042  1.00 20.00     0.024 C 
HETATM    6  C6  UNL     1     -33.914  15.516  -6.400  1.00 20.00     0.071 C 
HETATM    7  C7  UNL     1     -34.258  14.407  -4.283  1.00 20.00     0.016 C 
HETATM    8  C8  UNL     1     -35.294  14.846  -6.205  1.00 20.00     0.030 C 
HETATM    9  C9  UNL     1     -34.881  13.593  -5.421  1.00 20.00     0.127 C 
ENDROOT
BRANCH   9  10
HETATM   10  O10 UNL     1     -35.970  12.799  -5.000  1.00 20.00    -0.395 OA
HETATM   11  H22 UNL     1     -35.949  12.770  -4.027  1.00 20.00     0.210 HD
ENDBRANCH   9  10
TORSDOF 1
ENDMDL
MODEL 7
REMARK VINA RESULT:      -4.0     11.730     12.566
REMARK  1 active torsions:
REMARK  status: ('A' for Active; 'I' for Inactive)
REMARK    1  A    between atoms: C9_9  and  O10_10 
ROOT
HETATM    1  C1  UNL     1     -34.114  17.022  -1.556  1.00 20.00     0.012 C 
HETATM    2  C2  UNL     1     -33.914  16.751  -2.709  1.00 20.00    -0.112 C 
HETATM    3  C3  UNL     1     -35.298  13.980  -4.596  1.00 20.00     0.007 C 
HETATM    4  C4  UNL     1     -35.970  15.340  -4.372  1.00 20.00     0.009 C 
HETATM    5  C5  UNL     1     -33.041  15.023  -4.314  1.00 20.00     0.024 C 
HETATM    6  C6  UNL     1     -33.670  16.419  -4.115  1.00 20.00     0.071 C 
HETATM    7  C7  UNL     1     -33.995  14.356  -5.327  1.00 20.00     0.016 C 
HETATM    8  C8  UNL     1     -34.953  16.336  -4.976  1.00 20.00     0.030 C 
HETATM    9  C9  UNL     1     -34.422  15.552  -6.183  1.00 20.00     0.127 C 
ENDROOT
BRANCH   9  10
HETATM   10  O10 UNL     1     -35.414  15.224  -7.132  1.00 20.00    -0.395 OA
HETATM   11  H22 UNL     1     -35.925  14.478  -6.772  1.00 20.00     0.210 HD
ENDBRANCH   9  10
TORSDOF 1
ENDMDL
MODEL 8
REMARK VINA RESULT:      -4.0     11.440     12.854
REMARK  1 active torsions:
REMARK  status: ('A' for Active; 'I' for Inactive)
REMARK    1  A    between atoms: C9_9  and  O10_10 
ROOT
HETATM    1  C1  UNL     1     -35.584  18.575  -4.649  1.00 20.00     0.012 C 
HETATM    2  C2  UNL     1     -35.816  17.502  -5.134  1.00 20.00    -0.112 C 
HETATM    3  C3  UNL     1     -33.797  14.497  -4.921  1.00 20.00     0.007 C 
HETATM    4  C4  UNL     1     -34.830  14.963  -3.886  1.00 20.00     0.009 C 
HETATM    5  C5  UNL     1     -35.019  15.725  -6.726  1.00 20.00     0.024 C 
HETATM    6  C6  UNL     1     -36.101  16.192  -5.728  1.00 20.00     0.071 C 
HETATM    7  C7  UNL     1     -34.643  14.326  -6.197  1.00 20.00     0.016 C 
HETATM    8  C8  UNL     1     -36.139  15.032  -4.706  1.00 20.00     0.030 C 
HETATM    9  C9  UNL     1     -35.985  13.831  -5.649  1.00 20.00     0.127 C 
ENDROOT
BRANCH   9  10
HETATM   10  O10 UNL     1     -35.885  12.591  -4.983  1.00 20.00    -0.395 OA
HETATM   11  H22 UNL     1     -34.987  12.532  -4.611  1.00 20.00     0.210 HD
ENDBRANCH   9  10
TORSDOF 1
ENDMDL
MODEL 9
REMARK VINA RESULT:      -4.0     11.331     12.783
REMARK  1 active torsions:
REMARK  status: ('A' for Active; 'I' for Inactive)
REMARK    1  A    between atoms: C9_9  and  O10_10 
ROOT
HETATM    1  C1  UNL     1     -36.286  17.151  -7.502  1.00 20.00     0.012 C 
HETATM    2  C2  UNL     1     -35.457  16.880  -6.678  1.00 20.00    -0.112 C 
HETATM    3  C3  UNL     1     -35.237  13.868  -4.670  1.00 20.00     0.007 C 
HETATM    4  C4  UNL     1     -34.686  14.044  -6.091  1.00 20.00     0.009 C 
HETATM    5  C5  UNL     1     -35.033  16.327  -4.261  1.00 20.00     0.024 C 
HETATM    6  C6  UNL     1     -34.444  16.551  -5.671  1.00 20.00     0.071 C 
HETATM    7  C7  UNL     1     -34.477  14.942  -3.870  1.00 20.00     0.016 C 
HETATM    8  C8  UNL     1     -33.698  15.223  -5.938  1.00 20.00     0.030 C 
HETATM    9  C9  UNL     1     -33.103  14.959  -4.548  1.00 20.00     0.127 C 
ENDROOT
BRANCH   9  10
HETATM   10  O10 UNL     1     -32.423  13.727  -4.443  1.00 20.00    -0.395 OA
HETATM   11  H22 UNL     1     -32.440  13.309  -5.323  1.00 20.00     0.210 HD
ENDBRANCH   9  10
TORSDOF 1
ENDMDL
