MODEL 1
REMARK VINA RESULT:      -4.9      0.000      0.000
REMARK  1 active torsions:
REMARK  status: ('A' for Active; 'I' for Inactive)
REMARK    1  A    between atoms: C2_2  and  C3_3 
ROOT
HETATM    1  C1  UNL     1     -33.577   7.145   2.033  1.00 20.00    -0.007 C 
HETATM    2  C2  UNL     1     -32.558   7.984   2.244  1.00 20.00    -0.012 C 
HETATM    3  C4  UNL     1     -32.937   6.901   4.298  1.00 20.00     0.022 C 
HETATM    4  C5  UNL     1     -31.896   7.772   3.568  1.00 20.00     0.019 C 
HETATM    5  C6  UNL     1     -33.775   6.210   3.196  1.00 20.00    -0.029 C 
HETATM    6  C8  UNL     1     -31.592   9.048   4.345  1.00 20.00     0.015 C 
HETATM    7  C9  UNL     1     -33.228   4.818   2.863  1.00 20.00     0.019 C 
HETATM    8  C10 UNL     1     -35.247   6.117   3.600  1.00 20.00     0.019 C 
ENDROOT
BRANCH   2   9
HETATM    9  C3  UNL     1     -32.131   8.942   1.239  1.00 20.00     0.151 C 
HETATM   10  C7  UNL     1     -32.893  10.244   1.115  1.00 20.00     0.096 C 
HETATM   11  O11 UNL     1     -31.173   8.702   0.493  1.00 20.00    -0.293 OA
ENDBRANCH   2   9
TORSDOF 1
ENDMDL
MODEL 2
REMARK VINA RESULT:      -4.6     10.304     11.176
REMARK  1 active torsions:
REMARK  status: ('A' for Active; 'I' for Inactive)
REMARK    1  A    between atoms: C2_2  and  C3_3 
ROOT
HETATM    1  C1  UNL     1     -36.033  16.127  -3.583  1.00 20.00    -0.007 C 
HETATM    2  C2  UNL     1     -35.276  15.206  -4.187  1.00 20.00    -0.012 C 
HETATM    3  C4  UNL     1     -33.784  16.829  -3.367  1.00 20.00     0.022 C 
HETATM    4  C5  UNL     1     -33.816  15.394  -3.929  1.00 20.00     0.019 C 
HETATM    5  C6  UNL     1     -35.198  17.107  -2.804  1.00 20.00    -0.029 C 
HETATM    6  C8  UNL     1     -32.924  15.255  -5.157  1.00 20.00     0.015 C 
HETATM    7  C9  UNL     1     -35.275  16.801  -1.304  1.00 20.00     0.019 C 
HETATM    8  C10 UNL     1     -35.624  18.551  -3.071  1.00 20.00     0.019 C 
ENDROOT
BRANCH   2   9
HETATM    9  C3  UNL     1     -35.858  14.114  -4.950  1.00 20.00     0.151 C 
HETATM   10  C7  UNL     1     -37.020  14.418  -5.870  1.00 20.00     0.096 C 
HETATM   11  O11 UNL     1     -35.422  12.960  -4.849  1.00 20.00    -0.293 OA
ENDBRANCH   2   9
TORSDOF 1
ENDMDL
MODEL 3
REMARK VINA RESULT:      -4.4     10.272     11.557
REMARK  1 active torsions:
REMARK  status: ('A' for Active; 'I' for Inactive)
REMARK    1  A    between atoms: C2_2  and  C3_3 
ROOT
HETATM    1  C1  UNL     1     -34.763  15.185  -3.691  1.00 20.00    -0.007 C 
HETATM    2  C2  UNL     1     -35.343  15.042  -4.887  1.00 20.00    -0.012 C 
HETATM    3  C4  UNL     1     -35.942  17.188  -4.132  1.00 20.00     0.022 C 
HETATM    4  C5  UNL     1     -35.930  16.316  -5.403  1.00 20.00     0.019 C 
HETATM    5  C6  UNL     1     -34.862  16.601  -3.193  1.00 20.00    -0.029 C 
HETATM    6  C8  UNL     1     -37.326  16.184  -6.002  1.00 20.00     0.015 C 
HETATM    7  C9  UNL     1     -33.520  17.322  -3.359  1.00 20.00     0.019 C 
HETATM    8  C10 UNL     1     -35.313  16.656  -1.732  1.00 20.00     0.019 C 
ENDROOT
BRANCH   2   9
HETATM    9  C3  UNL     1     -35.324  13.778  -5.604  1.00 20.00     0.151 C 
HETATM   10  C7  UNL     1     -34.570  13.705  -6.914  1.00 20.00     0.096 C 
HETATM   11  O11 UNL     1     -35.914  12.784  -5.163  1.00 20.00    -0.293 OA
ENDBRANCH   2   9
TORSDOF 1
ENDMDL
MODEL 4
REMARK VINA RESULT:      -4.4      2.272      4.391
REMARK  1 active torsions:
REMARK  status: ('A' for Active; 'I' for Inactive)
REMARK    1  A    between atoms: C2_2  and  C3_3 
ROOT
HETATM    1  C1  UNL     1     -33.660   7.702   3.486  1.00 20.00    -0.007 C 
HETATM    2  C2  UNL     1     -33.810   6.379   3.593  1.00 20.00    -0.012 C 
HETATM    3  C4  UNL     1     -32.001   6.704   2.126  1.00 20.00     0.022 C 
HETATM    4  C5  UNL     1     -32.685   5.614   2.974  1.00 20.00     0.019 C 
HETATM    5  C6  UNL     1     -32.387   8.058   2.766  1.00 20.00    -0.029 C 
HETATM    6  C8  UNL     1     -33.110   4.426   2.118  1.00 20.00     0.015 C 
HETATM    7  C9  UNL     1     -31.324   8.534   3.762  1.00 20.00     0.019 C 
HETATM    8  C10 UNL     1     -32.624   9.126   1.696  1.00 20.00     0.019 C 
ENDROOT
BRANCH   2   9
HETATM    9  C3  UNL     1     -34.932   5.789   4.304  1.00 20.00     0.151 C 
HETATM   10  C7  UNL     1     -34.673   5.134   5.643  1.00 20.00     0.096 C 
HETATM   11  O11 UNL     1     -36.075   5.810   3.826  1.00 20.00    -0.293 OA
ENDBRANCH   2   9
TORSDOF 1
ENDMDL
MODEL 5
REMARK VINA RESULT:      -4.4      9.965     11.412
REMARK  1 active torsions:
REMARK  status: ('A' for Active; 'I' for Inactive)
REMARK    1  A    between atoms: C2_2  and  C3_3 
ROOT
HETATM    1  C1  UNL     1     -34.487  16.177  -2.703  1.00 20.00    -0.007 C 
HETATM    2  C2  UNL     1     -34.051  15.769  -3.899  1.00 20.00    -0.012 C 
HETATM    3  C4  UNL     1     -33.878  18.115  -3.917  1.00 20.00     0.022 C 
HETATM    4  C5  UNL     1     -33.412  16.865  -4.690  1.00 20.00     0.019 C 
HETATM    5  C6  UNL     1     -34.211  17.640  -2.482  1.00 20.00    -0.029 C 
HETATM    6  C8  UNL     1     -33.830  16.928  -6.155  1.00 20.00     0.015 C 
HETATM    7  C9  UNL     1     -33.017  17.822  -1.539  1.00 20.00     0.019 C 
HETATM    8  C10 UNL     1     -35.437  18.369  -1.930  1.00 20.00     0.019 C 
ENDROOT
BRANCH   2   9
HETATM    9  C3  UNL     1     -34.148  14.381  -4.319  1.00 20.00     0.151 C 
HETATM   10  C7  UNL     1     -35.498  13.853  -4.754  1.00 20.00     0.096 C 
HETATM   11  O11 UNL     1     -33.155  13.641  -4.316  1.00 20.00    -0.293 OA
ENDBRANCH   2   9
TORSDOF 1
ENDMDL
MODEL 6
REMARK VINA RESULT:      -4.3     10.497     11.697
REMARK  1 active torsions:
REMARK  status: ('A' for Active; 'I' for Inactive)
REMARK    1  A    between atoms: C2_2  and  C3_3 
ROOT
HETATM    1  C1  UNL     1     -35.424  15.909  -4.134  1.00 20.00    -0.007 C 
HETATM    2  C2  UNL     1     -35.223  14.932  -5.023  1.00 20.00    -0.012 C 
HETATM    3  C4  UNL     1     -33.468  16.465  -5.344  1.00 20.00     0.022 C 
HETATM    4  C5  UNL     1     -33.894  15.027  -5.702  1.00 20.00     0.019 C 
HETATM    5  C6  UNL     1     -34.245  16.842  -4.061  1.00 20.00    -0.029 C 
HETATM    6  C8  UNL     1     -33.926  14.813  -7.211  1.00 20.00     0.015 C 
HETATM    7  C9  UNL     1     -33.419  16.563  -2.801  1.00 20.00     0.019 C 
HETATM    8  C10 UNL     1     -34.682  18.308  -4.092  1.00 20.00     0.019 C 
ENDROOT
BRANCH   2   9
HETATM    9  C3  UNL     1     -36.193  13.870  -5.230  1.00 20.00     0.151 C 
HETATM   10  C7  UNL     1     -37.634  14.253  -5.495  1.00 20.00     0.096 C 
HETATM   11  O11 UNL     1     -35.859  12.679  -5.184  1.00 20.00    -0.293 OA
ENDBRANCH   2   9
TORSDOF 1
ENDMDL
MODEL 7
REMARK VINA RESULT:      -4.2      9.885     11.217
REMARK  1 active torsions:
REMARK  status: ('A' for Active; 'I' for Inactive)
REMARK    1  A    between atoms: C2_2  and  C3_3 
ROOT
HETATM    1  C1  UNL     1     -33.777  16.254  -2.891  1.00 20.00    -0.007 C 
HETATM    2  C2  UNL     1     -34.820  16.776  -2.239  1.00 20.00    -0.012 C 
HETATM    3  C4  UNL     1     -35.602  16.264  -4.397  1.00 20.00     0.022 C 
HETATM    4  C5  UNL     1     -36.106  16.633  -2.988  1.00 20.00     0.019 C 
HETATM    5  C6  UNL     1     -34.191  15.658  -4.210  1.00 20.00    -0.029 C 
HETATM    6  C8  UNL     1     -36.977  17.883  -3.015  1.00 20.00     0.015 C 
HETATM    7  C9  UNL     1     -34.244  14.130  -4.114  1.00 20.00     0.019 C 
HETATM    8  C10 UNL     1     -33.253  16.084  -5.341  1.00 20.00     0.019 C 
ENDROOT
BRANCH   2   9
HETATM    9  C3  UNL     1     -34.684  17.356  -0.913  1.00 20.00     0.151 C 
HETATM   10  C7  UNL     1     -33.464  18.202  -0.618  1.00 20.00     0.096 C 
HETATM   11  O11 UNL     1     -35.538  17.160  -0.038  1.00 20.00    -0.293 OA
ENDBRANCH   2   9
TORSDOF 1
ENDMDL
MODEL 8
REMARK VINA RESULT:      -4.2     10.375     11.243
REMARK  1 active torsions:
REMARK  status: ('A' for Active; 'I' for Inactive)
REMARK    1  A    between atoms: C2_2  and  C3_3 
ROOT
HETATM    1  C1  UNL     1     -33.914  16.550  -2.746  1.00 20.00    -0.007 C 
HETATM    2  C2  UNL     1     -34.396  15.901  -3.810  1.00 20.00    -0.012 C 
HETATM    3  C4  UNL     1     -36.256  16.889  -2.762  1.00 20.00     0.022 C 
HETATM    4  C5  UNL     1     -35.832  16.217  -4.082  1.00 20.00     0.019 C 
HETATM    5  C6  UNL     1     -34.959  17.429  -2.113  1.00 20.00    -0.029 C 
HETATM    6  C8  UNL     1     -36.707  15.010  -4.401  1.00 20.00     0.015 C 
HETATM    7  C9  UNL     1     -34.716  18.897  -2.478  1.00 20.00     0.019 C 
HETATM    8  C10 UNL     1     -34.992  17.261  -0.592  1.00 20.00     0.019 C 
ENDROOT
BRANCH   2   9
HETATM    9  C3  UNL     1     -33.560  15.038  -4.627  1.00 20.00     0.151 C 
HETATM   10  C7  UNL     1     -33.052  15.570  -5.949  1.00 20.00     0.096 C 
HETATM   11  O11 UNL     1     -33.273  13.891  -4.259  1.00 20.00    -0.293 OA
ENDBRANCH   2   9
TORSDOF 1
ENDMDL
MODEL 9
REMARK VINA RESULT:      -4.2      9.892     11.533
REMARK  1 active torsions:
REMARK  status: ('A' for Active; 'I' for Inactive)
REMARK    1  A    between atoms: C2_2  and  C3_3 
ROOT
HETATM    1  C1  UNL     1     -35.741  16.065  -5.219  1.00 20.00    -0.007 C 
HETATM    2  C2  UNL     1     -35.126  14.895  -5.027  1.00 20.00    -0.012 C 
HETATM    3  C4  UNL     1     -33.953  16.460  -3.720  1.00 20.00     0.022 C 
HETATM    4  C5  UNL     1     -34.120  14.941  -3.922  1.00 20.00     0.019 C 
HETATM    5  C6  UNL     1     -35.247  17.114  -4.260  1.00 20.00    -0.029 C 
HETATM    6  C8  UNL     1     -32.788  14.270  -4.238  1.00 20.00     0.015 C 
HETATM    7  C9  UNL     1     -36.270  17.343  -3.142  1.00 20.00     0.019 C 
HETATM    8  C10 UNL     1     -34.942  18.433  -4.973  1.00 20.00     0.019 C 
ENDROOT
BRANCH   2   9
HETATM    9  C3  UNL     1     -35.476  13.709  -5.790  1.00 20.00     0.151 C 
HETATM   10  C7  UNL     1     -35.257  13.725  -7.288  1.00 20.00     0.096 C 
HETATM   11  O11 UNL     1     -35.951  12.708  -5.237  1.00 20.00    -0.293 OA
ENDBRANCH   2   9
TORSDOF 1
ENDMDL
