MODEL 1
REMARK VINA RESULT:      -5.0      0.000      0.000
REMARK  0 active torsions:
REMARK  status: ('A' for Active; 'I' for Inactive)
ROOT
HETATM    1  C1  UNL     1     -34.773   5.808   5.600  1.00 20.00     0.004 A 
HETATM    2  C2  UNL     1     -33.858   6.766   5.833  1.00 20.00     0.031 A 
HETATM    3  C3  UNL     1     -35.038   5.362   4.249  1.00 20.00     0.017 A 
HETATM    4  C4  UNL     1     -31.890   8.125   1.560  1.00 20.00     0.044 A 
HETATM    5  C5  UNL     1     -32.206   8.351   4.967  1.00 20.00     0.146 A 
HETATM    6  C6  UNL     1     -34.354   5.917   3.238  1.00 20.00     0.093 A 
HETATM    7  C7  UNL     1     -33.113   7.374   4.730  1.00 20.00     0.053 A 
HETATM    8  C8  UNL     1     -32.756   7.427   2.294  1.00 20.00     0.136 A 
HETATM    9  C9  UNL     1     -31.783   8.455   2.871  1.00 20.00     0.069 A 
HETATM   10  N10 UNL     1     -31.472   8.946   3.964  1.00 20.00    -0.260 NA
HETATM   11  N11 UNL     1     -33.384   6.911   3.402  1.00 20.00    -0.333 N 
ENDROOT
TORSDOF 0
ENDMDL
MODEL 2
REMARK VINA RESULT:      -4.8      1.053      3.577
REMARK  0 active torsions:
REMARK  status: ('A' for Active; 'I' for Inactive)
ROOT
HETATM    1  C1  UNL     1     -31.591   8.733   2.980  1.00 20.00     0.004 A 
HETATM    2  C2  UNL     1     -32.047   8.589   4.237  1.00 20.00     0.031 A 
HETATM    3  C3  UNL     1     -32.018   7.826   1.937  1.00 20.00     0.017 A 
HETATM    4  C4  UNL     1     -35.131   4.788   4.357  1.00 20.00     0.044 A 
HETATM    5  C5  UNL     1     -33.426   7.364   5.845  1.00 20.00     0.146 A 
HETATM    6  C6  UNL     1     -32.878   6.843   2.246  1.00 20.00     0.093 A 
HETATM    7  C7  UNL     1     -32.983   7.516   4.575  1.00 20.00     0.053 A 
HETATM    8  C8  UNL     1     -34.261   5.585   3.738  1.00 20.00     0.136 A 
HETATM    9  C9  UNL     1     -34.611   5.693   5.221  1.00 20.00     0.069 A 
HETATM   10  N10 UNL     1     -34.316   6.377   6.211  1.00 20.00    -0.260 NA
HETATM   11  N11 UNL     1     -33.401   6.635   3.525  1.00 20.00    -0.333 N 
ENDROOT
TORSDOF 0
ENDMDL
MODEL 3
REMARK VINA RESULT:      -4.6     11.310     12.537
REMARK  0 active torsions:
REMARK  status: ('A' for Active; 'I' for Inactive)
ROOT
HETATM    1  C1  UNL     1     -34.343  16.690  -3.141  1.00 20.00     0.004 A 
HETATM    2  C2  UNL     1     -34.971  15.515  -3.326  1.00 20.00     0.031 A 
HETATM    3  C3  UNL     1     -33.576  17.287  -4.212  1.00 20.00     0.017 A 
HETATM    4  C4  UNL     1     -34.164  14.016  -7.918  1.00 20.00     0.044 A 
HETATM    5  C5  UNL     1     -35.511  13.628  -4.788  1.00 20.00     0.146 A 
HETATM    6  C6  UNL     1     -33.506  16.651  -5.391  1.00 20.00     0.093 A 
HETATM    7  C7  UNL     1     -34.893  14.819  -4.611  1.00 20.00     0.053 A 
HETATM    8  C8  UNL     1     -33.984  14.857  -6.899  1.00 20.00     0.136 A 
HETATM    9  C9  UNL     1     -34.809  13.574  -6.811  1.00 20.00     0.069 A 
HETATM   10  N10 UNL     1     -35.476  12.940  -5.982  1.00 20.00    -0.260 NA
HETATM   11  N11 UNL     1     -34.136  15.433  -5.662  1.00 20.00    -0.333 N 
ENDROOT
TORSDOF 0
ENDMDL
MODEL 4
REMARK VINA RESULT:      -4.6      0.972      4.176
REMARK  0 active torsions:
REMARK  status: ('A' for Active; 'I' for Inactive)
ROOT
HETATM    1  C1  UNL     1     -31.753   8.211   1.801  1.00 20.00     0.004 A 
HETATM    2  C2  UNL     1     -32.719   7.278   1.740  1.00 20.00     0.031 A 
HETATM    3  C3  UNL     1     -31.367   8.784   3.072  1.00 20.00     0.017 A 
HETATM    4  C4  UNL     1     -34.331   6.397   6.280  1.00 20.00     0.044 A 
HETATM    5  C5  UNL     1     -34.383   5.896   2.888  1.00 20.00     0.146 A 
HETATM    6  C6  UNL     1     -31.988   8.366   4.186  1.00 20.00     0.093 A 
HETATM    7  C7  UNL     1     -33.398   6.823   2.955  1.00 20.00     0.053 A 
HETATM    8  C8  UNL     1     -33.578   7.055   5.400  1.00 20.00     0.136 A 
HETATM    9  C9  UNL     1     -34.599   5.985   5.016  1.00 20.00     0.069 A 
HETATM   10  N10 UNL     1     -35.044   5.429   4.003  1.00 20.00    -0.260 NA
HETATM   11  N11 UNL     1     -32.994   7.397   4.204  1.00 20.00    -0.333 N 
ENDROOT
TORSDOF 0
ENDMDL
MODEL 5
REMARK VINA RESULT:      -4.5      1.058      2.277
REMARK  0 active torsions:
REMARK  status: ('A' for Active; 'I' for Inactive)
ROOT
HETATM    1  C1  UNL     1     -34.901   5.350   5.588  1.00 20.00     0.004 A 
HETATM    2  C2  UNL     1     -34.667   5.236   4.269  1.00 20.00     0.031 A 
HETATM    3  C3  UNL     1     -34.281   6.409   6.353  1.00 20.00     0.017 A 
HETATM    4  C4  UNL     1     -31.652   8.843   2.898  1.00 20.00     0.044 A 
HETATM    5  C5  UNL     1     -33.535   6.050   2.257  1.00 20.00     0.146 A 
HETATM    6  C6  UNL     1     -33.472   7.275   5.723  1.00 20.00     0.093 A 
HETATM    7  C7  UNL     1     -33.783   6.178   3.581  1.00 20.00     0.053 A 
HETATM    8  C8  UNL     1     -32.328   8.151   3.814  1.00 20.00     0.136 A 
HETATM    9  C9  UNL     1     -32.278   7.782   2.333  1.00 20.00     0.069 A 
HETATM   10  N10 UNL     1     -32.719   6.918   1.563  1.00 20.00    -0.260 NA
HETATM   11  N11 UNL     1     -33.187   7.226   4.356  1.00 20.00    -0.333 N 
ENDROOT
TORSDOF 0
ENDMDL
MODEL 6
REMARK VINA RESULT:      -4.3     11.383     12.075
REMARK  0 active torsions:
REMARK  status: ('A' for Active; 'I' for Inactive)
ROOT
HETATM    1  C1  UNL     1     -33.835  16.668  -2.583  1.00 20.00     0.004 A 
HETATM    2  C2  UNL     1     -33.688  15.617  -3.409  1.00 20.00     0.031 A 
HETATM    3  C3  UNL     1     -35.141  17.244  -2.355  1.00 20.00     0.017 A 
HETATM    4  C4  UNL     1     -38.093  14.373  -5.152  1.00 20.00     0.044 A 
HETATM    5  C5  UNL     1     -34.692  13.987  -4.935  1.00 20.00     0.146 A 
HETATM    6  C6  UNL     1     -36.203  16.709  -2.977  1.00 20.00     0.093 A 
HETATM    7  C7  UNL     1     -34.845  15.034  -4.090  1.00 20.00     0.053 A 
HETATM    8  C8  UNL     1     -37.279  15.156  -4.444  1.00 20.00     0.136 A 
HETATM    9  C9  UNL     1     -36.804  13.973  -5.286  1.00 20.00     0.069 A 
HETATM   10  N10 UNL     1     -35.751  13.397  -5.591  1.00 20.00    -0.260 NA
HETATM   11  N11 UNL     1     -36.132  15.613  -3.842  1.00 20.00    -0.333 N 
ENDROOT
TORSDOF 0
ENDMDL
MODEL 7
REMARK VINA RESULT:      -4.3     11.681     12.145
REMARK  0 active torsions:
REMARK  status: ('A' for Active; 'I' for Inactive)
ROOT
HETATM    1  C1  UNL     1     -34.824  16.821  -2.476  1.00 20.00     0.004 A 
HETATM    2  C2  UNL     1     -36.027  16.391  -2.894  1.00 20.00     0.031 A 
HETATM    3  C3  UNL     1     -33.615  16.351  -3.115  1.00 20.00     0.017 A 
HETATM    4  C4  UNL     1     -35.372  13.309  -6.642  1.00 20.00     0.044 A 
HETATM    5  C5  UNL     1     -37.351  14.997  -4.409  1.00 20.00     0.146 A 
HETATM    6  C6  UNL     1     -33.717  15.483  -4.134  1.00 20.00     0.093 A 
HETATM    7  C7  UNL     1     -36.139  15.442  -4.002  1.00 20.00     0.053 A 
HETATM    8  C8  UNL     1     -34.921  14.093  -5.664  1.00 20.00     0.136 A 
HETATM    9  C9  UNL     1     -36.401  13.815  -5.920  1.00 20.00     0.069 A 
HETATM   10  N10 UNL     1     -37.509  14.112  -5.454  1.00 20.00    -0.260 NA
HETATM   11  N11 UNL     1     -34.930  14.997  -4.629  1.00 20.00    -0.333 N 
ENDROOT
TORSDOF 0
ENDMDL
MODEL 8
REMARK VINA RESULT:      -4.2     11.128     12.752
REMARK  0 active torsions:
REMARK  status: ('A' for Active; 'I' for Inactive)
ROOT
HETATM    1  C1  UNL     1     -33.680  17.716  -2.468  1.00 20.00     0.004 A 
HETATM    2  C2  UNL     1     -33.971  16.410  -2.610  1.00 20.00     0.031 A 
HETATM    3  C3  UNL     1     -33.389  18.531  -3.627  1.00 20.00     0.017 A 
HETATM    4  C4  UNL     1     -33.871  15.293  -7.377  1.00 20.00     0.044 A 
HETATM    5  C5  UNL     1     -34.277  14.472  -4.072  1.00 20.00     0.146 A 
HETATM    6  C6  UNL     1     -33.420  17.964  -4.843  1.00 20.00     0.093 A 
HETATM    7  C7  UNL     1     -34.001  15.790  -3.935  1.00 20.00     0.053 A 
HETATM    8  C8  UNL     1     -33.705  16.133  -6.355  1.00 20.00     0.136 A 
HETATM    9  C9  UNL     1     -34.085  14.662  -6.196  1.00 20.00     0.069 A 
HETATM   10  N10 UNL     1     -34.329  13.845  -5.299  1.00 20.00    -0.260 NA
HETATM   11  N11 UNL     1     -33.721  16.618  -5.070  1.00 20.00    -0.333 N 
ENDROOT
TORSDOF 0
ENDMDL
MODEL 9
REMARK VINA RESULT:      -4.2     11.747     11.833
REMARK  0 active torsions:
REMARK  status: ('A' for Active; 'I' for Inactive)
ROOT
HETATM    1  C1  UNL     1     -33.545  19.153   4.045  1.00 20.00     0.004 A 
HETATM    2  C2  UNL     1     -32.380  19.087   3.378  1.00 20.00     0.031 A 
HETATM    3  C3  UNL     1     -34.798  18.933   3.356  1.00 20.00     0.017 A 
HETATM    4  C4  UNL     1     -33.319  18.006  -1.305  1.00 20.00     0.044 A 
HETATM    5  C5  UNL     1     -31.180  18.743   1.272  1.00 20.00     0.146 A 
HETATM    6  C6  UNL     1     -34.775  18.659   2.043  1.00 20.00     0.093 A 
HETATM    7  C7  UNL     1     -32.354  18.791   1.945  1.00 20.00     0.053 A 
HETATM    8  C8  UNL     1     -33.695  18.299  -0.061  1.00 20.00     0.136 A 
HETATM    9  C9  UNL     1     -32.241  18.269  -0.527  1.00 20.00     0.069 A 
HETATM   10  N10 UNL     1     -31.104  18.457  -0.074  1.00 20.00    -0.260 NA
HETATM   11  N11 UNL     1     -33.605  18.566   1.283  1.00 20.00    -0.333 N 
ENDROOT
TORSDOF 0
ENDMDL
