MODEL 1
REMARK VINA RESULT:      -5.3      0.000      0.000
REMARK  2 active torsions:
REMARK  status: ('A' for Active; 'I' for Inactive)
REMARK    1  A    between atoms: C3_3  and  C6_6 
REMARK    2  A    between atoms: C3_3  and  O10_10 
ROOT
HETATM    1  C1  UNL     1     -33.949   6.160   5.662  1.00 20.00    -0.023 C 
HETATM    2  C2  UNL     1     -34.194   5.432   4.567  1.00 20.00    -0.087 C 
HETATM    3  C4  UNL     1     -33.817   7.615   5.354  1.00 20.00     0.042 C 
HETATM    4  C5  UNL     1     -34.263   6.285   3.337  1.00 20.00     0.048 C 
HETATM    5  C6  UNL     1     -33.750   7.645   3.824  1.00 20.00     0.093 C 
HETATM    6  C7  UNL     1     -34.412   3.964   4.499  1.00 20.00     0.043 C 
ENDROOT
BRANCH   5   7
HETATM    7  C3  UNL     1     -32.336   7.871   3.373  1.00 20.00     0.263 C 
HETATM    8  O9  UNL     1     -31.416   8.169   4.124  1.00 20.00    -0.265 OA
BRANCH   7   9
HETATM    9  O10 UNL     1     -32.253   7.693   2.024  1.00 20.00    -0.326 OA
HETATM   10  C8  UNL     1     -32.128   8.891   1.252  1.00 20.00     0.213 C 
ENDBRANCH   7   9
ENDBRANCH   5   7
TORSDOF 2
ENDMDL
MODEL 2
REMARK VINA RESULT:      -4.8      1.600      2.581
REMARK  2 active torsions:
REMARK  status: ('A' for Active; 'I' for Inactive)
REMARK    1  A    between atoms: C3_3  and  C6_6 
REMARK    2  A    between atoms: C3_3  and  O10_10 
ROOT
HETATM    1  C1  UNL     1     -33.859   6.509   3.519  1.00 20.00    -0.023 C 
HETATM    2  C2  UNL     1     -33.298   7.252   4.478  1.00 20.00    -0.087 C 
HETATM    3  C4  UNL     1     -33.073   6.540   2.250  1.00 20.00     0.042 C 
HETATM    4  C5  UNL     1     -32.038   7.910   4.006  1.00 20.00     0.048 C 
HETATM    5  C6  UNL     1     -32.056   7.659   2.494  1.00 20.00     0.093 C 
HETATM    6  C7  UNL     1     -33.784   7.429   5.871  1.00 20.00     0.043 C 
ENDROOT
BRANCH   5   7
HETATM    7  C3  UNL     1     -32.466   8.899   1.754  1.00 20.00     0.263 C 
HETATM    8  O9  UNL     1     -32.209  10.036   2.126  1.00 20.00    -0.265 OA
BRANCH   7   9
HETATM    9  O10 UNL     1     -33.156   8.553   0.630  1.00 20.00    -0.326 OA
HETATM   10  C8  UNL     1     -33.068   9.481  -0.456  1.00 20.00     0.213 C 
ENDBRANCH   7   9
ENDBRANCH   5   7
TORSDOF 2
ENDMDL
MODEL 3
REMARK VINA RESULT:      -4.7      1.661      4.069
REMARK  2 active torsions:
REMARK  status: ('A' for Active; 'I' for Inactive)
REMARK    1  A    between atoms: C3_3  and  C6_6 
REMARK    2  A    between atoms: C3_3  and  O10_10 
ROOT
HETATM    1  C1  UNL     1     -31.689   9.208   2.706  1.00 20.00    -0.023 C 
HETATM    2  C2  UNL     1     -32.498   8.861   1.699  1.00 20.00    -0.087 C 
HETATM    3  C4  UNL     1     -31.471   8.085   3.666  1.00 20.00     0.042 C 
HETATM    4  C5  UNL     1     -32.960   7.442   1.821  1.00 20.00     0.048 C 
HETATM    5  C6  UNL     1     -32.509   7.045   3.231  1.00 20.00     0.093 C 
HETATM    6  C7  UNL     1     -32.909   9.709   0.550  1.00 20.00     0.043 C 
ENDROOT
BRANCH   5   7
HETATM    7  C3  UNL     1     -33.672   7.049   4.181  1.00 20.00     0.263 C 
HETATM    8  O9  UNL     1     -33.706   7.693   5.220  1.00 20.00    -0.265 OA
BRANCH   7   9
HETATM    9  O10 UNL     1     -34.655   6.234   3.701  1.00 20.00    -0.326 OA
HETATM   10  C8  UNL     1     -34.776   4.966   4.353  1.00 20.00     0.213 C 
ENDBRANCH   7   9
ENDBRANCH   5   7
TORSDOF 2
ENDMDL
MODEL 4
REMARK VINA RESULT:      -4.6      1.788      4.256
REMARK  2 active torsions:
REMARK  status: ('A' for Active; 'I' for Inactive)
REMARK    1  A    between atoms: C3_3  and  C6_6 
REMARK    2  A    between atoms: C3_3  and  O10_10 
ROOT
HETATM    1  C1  UNL     1     -31.784   9.290   2.676  1.00 20.00    -0.023 C 
HETATM    2  C2  UNL     1     -32.426   8.974   1.546  1.00 20.00    -0.087 C 
HETATM    3  C4  UNL     1     -31.579   8.102   3.557  1.00 20.00     0.042 C 
HETATM    4  C5  UNL     1     -32.762   7.516   1.486  1.00 20.00     0.048 C 
HETATM    5  C6  UNL     1     -32.451   7.025   2.905  1.00 20.00     0.093 C 
HETATM    6  C7  UNL     1     -32.772   9.890   0.428  1.00 20.00     0.043 C 
ENDROOT
BRANCH   5   7
HETATM    7  C3  UNL     1     -33.717   6.841   3.691  1.00 20.00     0.263 C 
HETATM    8  O9  UNL     1     -34.703   6.247   3.275  1.00 20.00    -0.265 OA
BRANCH   7   9
HETATM    9  O10 UNL     1     -33.585   7.431   4.914  1.00 20.00    -0.326 OA
HETATM   10  C8  UNL     1     -34.118   6.690   6.016  1.00 20.00     0.213 C 
ENDBRANCH   7   9
ENDBRANCH   5   7
TORSDOF 2
ENDMDL
MODEL 5
REMARK VINA RESULT:      -4.5      1.108      1.195
REMARK  2 active torsions:
REMARK  status: ('A' for Active; 'I' for Inactive)
REMARK    1  A    between atoms: C3_3  and  C6_6 
REMARK    2  A    between atoms: C3_3  and  O10_10 
ROOT
HETATM    1  C1  UNL     1     -34.849   5.864   4.318  1.00 20.00    -0.023 C 
HETATM    2  C2  UNL     1     -34.005   4.924   3.878  1.00 20.00    -0.087 C 
HETATM    3  C4  UNL     1     -34.755   7.122   3.519  1.00 20.00     0.042 C 
HETATM    4  C5  UNL     1     -33.201   5.402   2.708  1.00 20.00     0.048 C 
HETATM    5  C6  UNL     1     -33.503   6.905   2.664  1.00 20.00     0.093 C 
HETATM    6  C7  UNL     1     -33.848   3.546   4.409  1.00 20.00     0.043 C 
ENDROOT
BRANCH   5   7
HETATM    7  C3  UNL     1     -32.354   7.693   3.223  1.00 20.00     0.263 C 
HETATM    8  O9  UNL     1     -32.164   7.877   4.417  1.00 20.00    -0.265 OA
BRANCH   7   9
HETATM    9  O10 UNL     1     -31.580   8.157   2.200  1.00 20.00    -0.326 OA
HETATM   10  C8  UNL     1     -32.197   9.133   1.355  1.00 20.00     0.213 C 
ENDBRANCH   7   9
ENDBRANCH   5   7
TORSDOF 2
ENDMDL
MODEL 6
REMARK VINA RESULT:      -4.4     11.020     11.768
REMARK  2 active torsions:
REMARK  status: ('A' for Active; 'I' for Inactive)
REMARK    1  A    between atoms: C3_3  and  C6_6 
REMARK    2  A    between atoms: C3_3  and  O10_10 
ROOT
HETATM    1  C1  UNL     1     -33.607  17.011  -2.824  1.00 20.00    -0.023 C 
HETATM    2  C2  UNL     1     -34.793  16.670  -2.309  1.00 20.00    -0.087 C 
HETATM    3  C4  UNL     1     -33.455  16.552  -4.237  1.00 20.00     0.042 C 
HETATM    4  C5  UNL     1     -35.634  15.920  -3.295  1.00 20.00     0.048 C 
HETATM    5  C6  UNL     1     -34.654  15.619  -4.435  1.00 20.00     0.093 C 
HETATM    6  C7  UNL     1     -35.299  16.985  -0.948  1.00 20.00     0.043 C 
ENDROOT
BRANCH   5   7
HETATM    7  C3  UNL     1     -34.206  14.187  -4.386  1.00 20.00     0.263 C 
HETATM    8  O9  UNL     1     -33.047  13.836  -4.208  1.00 20.00    -0.265 OA
BRANCH   7   9
HETATM    9  O10 UNL     1     -35.280  13.367  -4.567  1.00 20.00    -0.326 OA
HETATM   10  C8  UNL     1     -35.875  13.411  -5.868  1.00 20.00     0.213 C 
ENDBRANCH   7   9
ENDBRANCH   5   7
TORSDOF 2
ENDMDL
MODEL 7
REMARK VINA RESULT:      -4.4      1.594      2.236
REMARK  2 active torsions:
REMARK  status: ('A' for Active; 'I' for Inactive)
REMARK    1  A    between atoms: C3_3  and  C6_6 
REMARK    2  A    between atoms: C3_3  and  O10_10 
ROOT
HETATM    1  C1  UNL     1     -33.942   4.135   4.256  1.00 20.00    -0.023 C 
HETATM    2  C2  UNL     1     -33.606   4.541   3.027  1.00 20.00    -0.087 C 
HETATM    3  C4  UNL     1     -34.719   5.172   4.998  1.00 20.00     0.042 C 
HETATM    4  C5  UNL     1     -34.102   5.925   2.743  1.00 20.00     0.048 C 
HETATM    5  C6  UNL     1     -34.579   6.416   4.115  1.00 20.00     0.093 C 
HETATM    6  C7  UNL     1     -32.862   3.765   2.002  1.00 20.00     0.043 C 
ENDROOT
BRANCH   5   7
HETATM    7  C3  UNL     1     -33.582   7.364   4.715  1.00 20.00     0.263 C 
HETATM    8  O9  UNL     1     -33.365   7.464   5.915  1.00 20.00    -0.265 OA
BRANCH   7   9
HETATM    9  O10 UNL     1     -32.975   8.077   3.722  1.00 20.00    -0.326 OA
HETATM   10  C8  UNL     1     -31.547   8.129   3.788  1.00 20.00     0.213 C 
ENDBRANCH   7   9
ENDBRANCH   5   7
TORSDOF 2
ENDMDL
MODEL 8
REMARK VINA RESULT:      -4.3      2.256      3.891
REMARK  2 active torsions:
REMARK  status: ('A' for Active; 'I' for Inactive)
REMARK    1  A    between atoms: C3_3  and  C6_6 
REMARK    2  A    between atoms: C3_3  and  O10_10 
ROOT
HETATM    1  C1  UNL     1     -32.550   5.766   2.572  1.00 20.00    -0.023 C 
HETATM    2  C2  UNL     1     -32.950   7.040   2.653  1.00 20.00    -0.087 C 
HETATM    3  C4  UNL     1     -33.602   4.816   3.040  1.00 20.00     0.042 C 
HETATM    4  C5  UNL     1     -34.341   7.154   3.195  1.00 20.00     0.048 C 
HETATM    5  C6  UNL     1     -34.642   5.734   3.691  1.00 20.00     0.093 C 
HETATM    6  C7  UNL     1     -32.181   8.245   2.248  1.00 20.00     0.043 C 
ENDROOT
BRANCH   5   7
HETATM    7  C3  UNL     1     -34.532   5.660   5.186  1.00 20.00     0.263 C 
HETATM    8  O9  UNL     1     -34.432   4.616   5.816  1.00 20.00    -0.265 OA
BRANCH   7   9
HETATM    9  O10 UNL     1     -34.561   6.920   5.708  1.00 20.00    -0.326 OA
HETATM   10  C8  UNL     1     -33.309   7.414   6.194  1.00 20.00     0.213 C 
ENDBRANCH   7   9
ENDBRANCH   5   7
TORSDOF 2
ENDMDL
MODEL 9
REMARK VINA RESULT:      -4.3      2.373      4.067
REMARK  2 active torsions:
REMARK  status: ('A' for Active; 'I' for Inactive)
REMARK    1  A    between atoms: C3_3  and  C6_6 
REMARK    2  A    between atoms: C3_3  and  O10_10 
ROOT
HETATM    1  C1  UNL     1     -32.782   6.466   2.499  1.00 20.00    -0.023 C 
HETATM    2  C2  UNL     1     -32.614   7.440   3.399  1.00 20.00    -0.087 C 
HETATM    3  C4  UNL     1     -34.142   5.853   2.580  1.00 20.00     0.042 C 
HETATM    4  C5  UNL     1     -33.838   7.639   4.239  1.00 20.00     0.048 C 
HETATM    5  C6  UNL     1     -34.711   6.431   3.879  1.00 20.00     0.093 C 
HETATM    6  C7  UNL     1     -31.406   8.285   3.587  1.00 20.00     0.043 C 
ENDROOT
BRANCH   5   7
HETATM    7  C3  UNL     1     -34.662   5.398   4.967  1.00 20.00     0.263 C 
HETATM    8  O9  UNL     1     -34.509   5.657   6.153  1.00 20.00    -0.265 OA
BRANCH   7   9
HETATM    9  O10 UNL     1     -34.812   4.156   4.424  1.00 20.00    -0.326 OA
HETATM   10  C8  UNL     1     -33.624   3.361   4.367  1.00 20.00     0.213 C 
ENDBRANCH   7   9
ENDBRANCH   5   7
TORSDOF 2
ENDMDL
