MODEL 1
REMARK VINA RESULT:      -4.6      0.000      0.000
REMARK  3 active torsions:
REMARK  status: ('A' for Active; 'I' for Inactive)
REMARK    1  A    between atoms: C1_1  and  C7_7 
REMARK    2  A    between atoms: C7_7  and  O10_10 
REMARK    3  A    between atoms: C8_8  and  N9_9 
ROOT
HETATM    1  C1  UNL     1     -32.654   7.772   2.750  1.00 20.00     0.032 C 
HETATM    2  C2  UNL     1     -31.406   8.396   3.331  1.00 20.00     0.068 C 
HETATM    3  N9  UNL     1     -33.181   8.112   1.622  1.00 20.00    -0.287 NA
ENDROOT
BRANCH   1   4
HETATM    4  C7  UNL     1     -33.322   6.637   3.517  1.00 20.00     0.161 C 
HETATM    5  C3  UNL     1     -33.835   7.114   4.865  1.00 20.00     0.045 C 
BRANCH   4   6
HETATM    6  O10 UNL     1     -34.401   6.129   2.756  1.00 20.00    -0.390 OA
HETATM    7  H27 UNL     1     -34.291   6.458   1.848  1.00 20.00     0.210 HD
ENDBRANCH   4   6
ENDBRANCH   1   4
BRANCH   3   8
HETATM    8  C8  UNL     1     -32.548   9.169   0.847  1.00 20.00     0.043 C 
HETATM    9  C4  UNL     1     -31.078   8.805   0.645  1.00 20.00     0.039 C 
HETATM   10  C5  UNL     1     -33.269   9.260  -0.498  1.00 20.00     0.039 C 
HETATM   11  C6  UNL     1     -32.684  10.481   1.619  1.00 20.00     0.039 C 
ENDBRANCH   3   8
TORSDOF 3
ENDMDL
MODEL 2
REMARK VINA RESULT:      -4.6      0.015      1.380
REMARK  3 active torsions:
REMARK  status: ('A' for Active; 'I' for Inactive)
REMARK    1  A    between atoms: C1_1  and  C7_7 
REMARK    2  A    between atoms: C7_7  and  O10_10 
REMARK    3  A    between atoms: C8_8  and  N9_9 
ROOT
HETATM    1  C1  UNL     1     -32.646   7.764   2.745  1.00 20.00     0.032 C 
HETATM    2  C2  UNL     1     -31.395   8.387   3.323  1.00 20.00     0.068 C 
HETATM    3  N9  UNL     1     -33.175   8.104   1.618  1.00 20.00    -0.287 NA
ENDROOT
BRANCH   1   4
HETATM    4  C7  UNL     1     -33.311   6.629   3.514  1.00 20.00     0.161 C 
HETATM    5  C3  UNL     1     -33.836   7.109   4.856  1.00 20.00     0.045 C 
BRANCH   4   6
HETATM    6  O10 UNL     1     -34.383   6.110   2.749  1.00 20.00    -0.390 OA
HETATM    7  H27 UNL     1     -35.041   5.766   3.376  1.00 20.00     0.210 HD
ENDBRANCH   4   6
ENDBRANCH   1   4
BRANCH   3   8
HETATM    8  C8  UNL     1     -32.544   9.161   0.842  1.00 20.00     0.043 C 
HETATM    9  C4  UNL     1     -33.268   9.270  -0.500  1.00 20.00     0.039 C 
HETATM   10  C5  UNL     1     -32.675  10.464   1.631  1.00 20.00     0.039 C 
HETATM   11  C6  UNL     1     -31.074   8.800   0.640  1.00 20.00     0.039 C 
ENDBRANCH   3   8
TORSDOF 3
ENDMDL
MODEL 3
REMARK VINA RESULT:      -4.5      1.780      4.032
REMARK  3 active torsions:
REMARK  status: ('A' for Active; 'I' for Inactive)
REMARK    1  A    between atoms: C1_1  and  C7_7 
REMARK    2  A    between atoms: C7_7  and  O10_10 
REMARK    3  A    between atoms: C8_8  and  N9_9 
ROOT
HETATM    1  C1  UNL     1     -32.621   8.098   2.219  1.00 20.00     0.032 C 
HETATM    2  C2  UNL     1     -31.514   8.164   3.246  1.00 20.00     0.068 C 
HETATM    3  N9  UNL     1     -33.650   7.325   2.307  1.00 20.00    -0.287 NA
ENDROOT
BRANCH   1   4
HETATM    4  C7  UNL     1     -32.550   9.031   1.017  1.00 20.00     0.161 C 
HETATM    5  C3  UNL     1     -32.769  10.476   1.430  1.00 20.00     0.045 C 
BRANCH   4   6
HETATM    6  O10 UNL     1     -31.282   8.906   0.401  1.00 20.00    -0.390 OA
HETATM    7  H27 UNL     1     -31.422   8.977  -0.559  1.00 20.00     0.210 HD
ENDBRANCH   4   6
ENDBRANCH   1   4
BRANCH   3   8
HETATM    8  C8  UNL     1     -33.767   6.446   3.461  1.00 20.00     0.043 C 
HETATM    9  C4  UNL     1     -33.316   7.217   4.701  1.00 20.00     0.039 C 
HETATM   10  C5  UNL     1     -35.233   6.032   3.589  1.00 20.00     0.039 C 
HETATM   11  C6  UNL     1     -32.881   5.223   3.227  1.00 20.00     0.039 C 
ENDBRANCH   3   8
TORSDOF 3
ENDMDL
MODEL 4
REMARK VINA RESULT:      -4.3      2.229      4.668
REMARK  3 active torsions:
REMARK  status: ('A' for Active; 'I' for Inactive)
REMARK    1  A    between atoms: C1_1  and  C7_7 
REMARK    2  A    between atoms: C7_7  and  O10_10 
REMARK    3  A    between atoms: C8_8  and  N9_9 
ROOT
HETATM    1  C1  UNL     1     -32.949   6.793   3.115  1.00 20.00     0.032 C 
HETATM    2  C2  UNL     1     -33.478   6.068   1.898  1.00 20.00     0.068 C 
HETATM    3  N9  UNL     1     -33.369   6.598   4.319  1.00 20.00    -0.287 NA
ENDROOT
BRANCH   1   4
HETATM    4  C7  UNL     1     -31.814   7.792   2.926  1.00 20.00     0.161 C 
HETATM    5  C3  UNL     1     -32.187   8.861   1.913  1.00 20.00     0.045 C 
BRANCH   4   6
HETATM    6  O10 UNL     1     -31.518   8.405   4.167  1.00 20.00    -0.390 OA
HETATM    7  H27 UNL     1     -30.553   8.366   4.282  1.00 20.00     0.210 HD
ENDBRANCH   4   6
ENDBRANCH   1   4
BRANCH   3   8
HETATM    8  C8  UNL     1     -34.429   5.624   4.539  1.00 20.00     0.043 C 
HETATM    9  C4  UNL     1     -33.921   4.252   4.097  1.00 20.00     0.039 C 
HETATM   10  C5  UNL     1     -34.758   5.620   6.032  1.00 20.00     0.039 C 
HETATM   11  C6  UNL     1     -35.648   6.045   3.720  1.00 20.00     0.039 C 
ENDBRANCH   3   8
TORSDOF 3
ENDMDL
MODEL 5
REMARK VINA RESULT:      -4.3      2.230      4.686
REMARK  3 active torsions:
REMARK  status: ('A' for Active; 'I' for Inactive)
REMARK    1  A    between atoms: C1_1  and  C7_7 
REMARK    2  A    between atoms: C7_7  and  O10_10 
REMARK    3  A    between atoms: C8_8  and  N9_9 
ROOT
HETATM    1  C1  UNL     1     -32.963   6.793   3.117  1.00 20.00     0.032 C 
HETATM    2  C2  UNL     1     -33.510   6.082   1.901  1.00 20.00     0.068 C 
HETATM    3  N9  UNL     1     -33.369   6.590   4.324  1.00 20.00    -0.287 NA
ENDROOT
BRANCH   1   4
HETATM    4  C7  UNL     1     -31.827   7.790   2.922  1.00 20.00     0.161 C 
HETATM    5  C3  UNL     1     -32.204   8.862   1.914  1.00 20.00     0.045 C 
BRANCH   4   6
HETATM    6  O10 UNL     1     -31.520   8.399   4.163  1.00 20.00    -0.390 OA
HETATM    7  H27 UNL     1     -30.705   7.984   4.491  1.00 20.00     0.210 HD
ENDBRANCH   4   6
ENDBRANCH   1   4
BRANCH   3   8
HETATM    8  C8  UNL     1     -34.429   5.618   4.549  1.00 20.00     0.043 C 
HETATM    9  C4  UNL     1     -34.769   5.613   6.040  1.00 20.00     0.039 C 
HETATM   10  C5  UNL     1     -35.641   6.048   3.723  1.00 20.00     0.039 C 
HETATM   11  C6  UNL     1     -33.930   4.246   4.099  1.00 20.00     0.039 C 
ENDBRANCH   3   8
TORSDOF 3
ENDMDL
MODEL 6
REMARK VINA RESULT:      -4.0      9.444     10.514
REMARK  3 active torsions:
REMARK  status: ('A' for Active; 'I' for Inactive)
REMARK    1  A    between atoms: C1_1  and  C7_7 
REMARK    2  A    between atoms: C7_7  and  O10_10 
REMARK    3  A    between atoms: C8_8  and  N9_9 
ROOT
HETATM    1  C1  UNL     1     -34.952  14.791  -4.977  1.00 20.00     0.032 C 
HETATM    2  C2  UNL     1     -33.585  14.439  -4.434  1.00 20.00     0.068 C 
HETATM    3  N9  UNL     1     -35.532  15.931  -4.804  1.00 20.00    -0.287 NA
ENDROOT
BRANCH   1   4
HETATM    4  C7  UNL     1     -35.685  13.755  -5.819  1.00 20.00     0.161 C 
HETATM    5  C3  UNL     1     -34.873  13.368  -7.043  1.00 20.00     0.045 C 
BRANCH   4   6
HETATM    6  O10 UNL     1     -35.931  12.603  -5.035  1.00 20.00    -0.390 OA
HETATM    7  H27 UNL     1     -35.328  11.908  -5.350  1.00 20.00     0.210 HD
ENDBRANCH   4   6
ENDBRANCH   1   4
BRANCH   3   8
HETATM    8  C8  UNL     1     -34.843  16.955  -4.034  1.00 20.00     0.043 C 
HETATM    9  C4  UNL     1     -33.527  17.285  -4.737  1.00 20.00     0.039 C 
HETATM   10  C5  UNL     1     -35.747  18.187  -3.979  1.00 20.00     0.039 C 
HETATM   11  C6  UNL     1     -34.589  16.412  -2.628  1.00 20.00     0.039 C 
ENDBRANCH   3   8
TORSDOF 3
ENDMDL
MODEL 7
REMARK VINA RESULT:      -3.9      9.458     10.582
REMARK  3 active torsions:
REMARK  status: ('A' for Active; 'I' for Inactive)
REMARK    1  A    between atoms: C1_1  and  C7_7 
REMARK    2  A    between atoms: C7_7  and  O10_10 
REMARK    3  A    between atoms: C8_8  and  N9_9 
ROOT
HETATM    1  C1  UNL     1     -34.958  14.790  -4.980  1.00 20.00     0.032 C 
HETATM    2  C2  UNL     1     -33.583  14.445  -4.457  1.00 20.00     0.068 C 
HETATM    3  N9  UNL     1     -35.542  15.927  -4.800  1.00 20.00    -0.287 NA
ENDROOT
BRANCH   1   4
HETATM    4  C7  UNL     1     -35.699  13.750  -5.812  1.00 20.00     0.161 C 
HETATM    5  C3  UNL     1     -34.899  13.363  -7.044  1.00 20.00     0.045 C 
BRANCH   4   6
HETATM    6  O10 UNL     1     -35.933  12.599  -5.023  1.00 20.00    -0.390 OA
HETATM    7  H27 UNL     1     -36.880  12.591  -4.803  1.00 20.00     0.210 HD
ENDBRANCH   4   6
ENDBRANCH   1   4
BRANCH   3   8
HETATM    8  C8  UNL     1     -34.848  16.955  -4.039  1.00 20.00     0.043 C 
HETATM    9  C4  UNL     1     -35.749  18.186  -3.959  1.00 20.00     0.039 C 
HETATM   10  C5  UNL     1     -34.573  16.398  -2.642  1.00 20.00     0.039 C 
HETATM   11  C6  UNL     1     -33.538  17.283  -4.754  1.00 20.00     0.039 C 
ENDBRANCH   3   8
TORSDOF 3
ENDMDL
MODEL 8
REMARK VINA RESULT:      -3.8      9.312     10.215
REMARK  3 active torsions:
REMARK  status: ('A' for Active; 'I' for Inactive)
REMARK    1  A    between atoms: C1_1  and  C7_7 
REMARK    2  A    between atoms: C7_7  and  O10_10 
REMARK    3  A    between atoms: C8_8  and  N9_9 
ROOT
HETATM    1  C1  UNL     1     -34.272  15.576  -3.764  1.00 20.00     0.032 C 
HETATM    2  C2  UNL     1     -33.426  16.540  -4.563  1.00 20.00     0.068 C 
HETATM    3  N9  UNL     1     -34.874  15.875  -2.663  1.00 20.00    -0.287 NA
ENDROOT
BRANCH   1   4
HETATM    4  C7  UNL     1     -34.470  14.165  -4.306  1.00 20.00     0.161 C 
HETATM    5  C3  UNL     1     -35.838  14.010  -4.947  1.00 20.00     0.045 C 
BRANCH   4   6
HETATM    6  O10 UNL     1     -33.467  13.887  -5.265  1.00 20.00    -0.390 OA
HETATM    7  H27 UNL     1     -33.871  13.322  -5.945  1.00 20.00     0.210 HD
ENDBRANCH   4   6
ENDBRANCH   1   4
BRANCH   3   8
HETATM    8  C8  UNL     1     -34.734  17.225  -2.136  1.00 20.00     0.043 C 
HETATM    9  C4  UNL     1     -35.302  18.204  -3.162  1.00 20.00     0.039 C 
HETATM   10  C5  UNL     1     -35.522  17.300  -0.828  1.00 20.00     0.039 C 
HETATM   11  C6  UNL     1     -33.251  17.495  -1.888  1.00 20.00     0.039 C 
ENDBRANCH   3   8
TORSDOF 3
ENDMDL
MODEL 9
REMARK VINA RESULT:      -3.8      9.313     10.145
REMARK  3 active torsions:
REMARK  status: ('A' for Active; 'I' for Inactive)
REMARK    1  A    between atoms: C1_1  and  C7_7 
REMARK    2  A    between atoms: C7_7  and  O10_10 
REMARK    3  A    between atoms: C8_8  and  N9_9 
ROOT
HETATM    1  C1  UNL     1     -34.261  15.567  -3.776  1.00 20.00     0.032 C 
HETATM    2  C2  UNL     1     -33.421  16.538  -4.575  1.00 20.00     0.068 C 
HETATM    3  N9  UNL     1     -34.864  15.862  -2.675  1.00 20.00    -0.287 NA
ENDROOT
BRANCH   1   4
HETATM    4  C7  UNL     1     -34.449  14.156  -4.318  1.00 20.00     0.161 C 
HETATM    5  C3  UNL     1     -35.825  13.984  -4.937  1.00 20.00     0.045 C 
BRANCH   4   6
HETATM    6  O10 UNL     1     -33.459  13.894  -5.296  1.00 20.00    -0.390 OA
HETATM    7  H27 UNL     1     -33.326  12.931  -5.317  1.00 20.00     0.210 HD
ENDBRANCH   4   6
ENDBRANCH   1   4
BRANCH   3   8
HETATM    8  C8  UNL     1     -34.734  17.212  -2.147  1.00 20.00     0.043 C 
HETATM    9  C4  UNL     1     -33.250  17.500  -1.922  1.00 20.00     0.039 C 
HETATM   10  C5  UNL     1     -35.318  18.177  -3.178  1.00 20.00     0.039 C 
HETATM   11  C6  UNL     1     -35.510  17.293  -0.833  1.00 20.00     0.039 C 
ENDBRANCH   3   8
TORSDOF 3
ENDMDL
