MODEL 1
REMARK VINA RESULT:      -4.2      0.000      0.000
REMARK  0 active torsions:
REMARK  status: ('A' for Active; 'I' for Inactive)
ROOT
HETATM    1  C1  UNL     1     -32.229   7.581   2.498  1.00 20.00     0.015 C 
HETATM    2  C2  UNL     1     -33.030   6.881   3.054  1.00 20.00    -0.073 C 
HETATM    3  C3  UNL     1     -33.797   4.558   3.347  1.00 20.00     0.225 C 
HETATM    4  C4  UNL     1     -34.280   4.646   5.578  1.00 20.00     0.442 C 
HETATM    5  C5  UNL     1     -34.013   6.023   3.738  1.00 20.00     0.240 C 
HETATM    6  C6  UNL     1     -35.439   6.474   3.374  1.00 20.00     0.066 C 
HETATM    7  C7  UNL     1     -34.210   7.034   6.004  1.00 20.00     0.315 C 
HETATM    8  N8  UNL     1     -33.733   5.938   5.177  1.00 20.00     0.130 N 
HETATM    9  O9  UNL     1     -34.294   3.774   4.441  1.00 20.00    -0.359 OA
ENDROOT
TORSDOF 0
ENDMDL
MODEL 2
REMARK VINA RESULT:      -3.9     12.291     12.886
REMARK  0 active torsions:
REMARK  status: ('A' for Active; 'I' for Inactive)
ROOT
HETATM    1  C1  UNL     1     -33.412  17.278  -1.901  1.00 20.00     0.015 C 
HETATM    2  C2  UNL     1     -33.725  16.670  -2.886  1.00 20.00    -0.073 C 
HETATM    3  C3  UNL     1     -33.113  14.792  -4.359  1.00 20.00     0.225 C 
HETATM    4  C4  UNL     1     -35.217  14.015  -4.799  1.00 20.00     0.442 C 
HETATM    5  C5  UNL     1     -34.112  15.923  -4.096  1.00 20.00     0.240 C 
HETATM    6  C6  UNL     1     -34.174  16.879  -5.300  1.00 20.00     0.066 C 
HETATM    7  C7  UNL     1     -36.597  15.831  -3.968  1.00 20.00     0.315 C 
HETATM    8  N8  UNL     1     -35.326  15.131  -3.865  1.00 20.00     0.130 N 
HETATM    9  O9  UNL     1     -33.832  13.785  -5.086  1.00 20.00    -0.359 OA
ENDROOT
TORSDOF 0
ENDMDL
MODEL 3
REMARK VINA RESULT:      -3.8     12.250     13.322
REMARK  0 active torsions:
REMARK  status: ('A' for Active; 'I' for Inactive)
ROOT
HETATM    1  C1  UNL     1     -36.698  16.470  -3.966  1.00 20.00     0.015 C 
HETATM    2  C2  UNL     1     -35.996  15.622  -4.444  1.00 20.00    -0.073 C 
HETATM    3  C3  UNL     1     -35.944  13.307  -5.285  1.00 20.00     0.225 C 
HETATM    4  C4  UNL     1     -34.529  13.627  -7.051  1.00 20.00     0.442 C 
HETATM    5  C5  UNL     1     -35.134  14.583  -5.032  1.00 20.00     0.240 C 
HETATM    6  C6  UNL     1     -33.952  14.294  -4.091  1.00 20.00     0.066 C 
HETATM    7  C7  UNL     1     -33.659  15.846  -6.590  1.00 20.00     0.315 C 
HETATM    8  N8  UNL     1     -34.765  14.918  -6.413  1.00 20.00     0.130 N 
HETATM    9  O9  UNL     1     -35.288  12.625  -6.364  1.00 20.00    -0.359 OA
ENDROOT
TORSDOF 0
ENDMDL
MODEL 4
REMARK VINA RESULT:      -3.7      1.332      2.334
REMARK  0 active torsions:
REMARK  status: ('A' for Active; 'I' for Inactive)
ROOT
HETATM    1  C1  UNL     1     -32.867   4.096   2.307  1.00 20.00     0.015 C 
HETATM    2  C2  UNL     1     -33.433   4.868   3.031  1.00 20.00    -0.073 C 
HETATM    3  C3  UNL     1     -34.400   5.163   5.278  1.00 20.00     0.225 C 
HETATM    4  C4  UNL     1     -33.760   7.327   5.633  1.00 20.00     0.442 C 
HETATM    5  C5  UNL     1     -34.127   5.816   3.920  1.00 20.00     0.240 C 
HETATM    6  C6  UNL     1     -35.442   6.274   3.266  1.00 20.00     0.066 C 
HETATM    7  C7  UNL     1     -33.047   8.002   3.414  1.00 20.00     0.315 C 
HETATM    8  N8  UNL     1     -33.230   6.899   4.344  1.00 20.00     0.130 N 
HETATM    9  O9  UNL     1     -34.468   6.234   6.230  1.00 20.00    -0.359 OA
ENDROOT
TORSDOF 0
ENDMDL
MODEL 5
REMARK VINA RESULT:      -3.6     12.243     12.927
REMARK  0 active torsions:
REMARK  status: ('A' for Active; 'I' for Inactive)
ROOT
HETATM    1  C1  UNL     1     -32.940  14.332  -4.261  1.00 20.00     0.015 C 
HETATM    2  C2  UNL     1     -34.059  14.535  -4.643  1.00 20.00    -0.073 C 
HETATM    3  C3  UNL     1     -36.187  13.461  -5.267  1.00 20.00     0.225 C 
HETATM    4  C4  UNL     1     -37.613  15.003  -4.368  1.00 20.00     0.442 C 
HETATM    5  C5  UNL     1     -35.433  14.786  -5.112  1.00 20.00     0.240 C 
HETATM    6  C6  UNL     1     -35.396  15.546  -6.449  1.00 20.00     0.066 C 
HETATM    7  C7  UNL     1     -36.110  16.848  -3.892  1.00 20.00     0.315 C 
HETATM    8  N8  UNL     1     -36.246  15.410  -4.061  1.00 20.00     0.130 N 
HETATM    9  O9  UNL     1     -37.578  13.771  -5.098  1.00 20.00    -0.359 OA
ENDROOT
TORSDOF 0
ENDMDL
MODEL 6
REMARK VINA RESULT:      -3.5     12.448     13.520
REMARK  0 active torsions:
REMARK  status: ('A' for Active; 'I' for Inactive)
ROOT
HETATM    1  C1  UNL     1     -34.918  16.778  -1.670  1.00 20.00     0.015 C 
HETATM    2  C2  UNL     1     -35.058  16.237  -2.732  1.00 20.00    -0.073 C 
HETATM    3  C3  UNL     1     -36.714  15.307  -4.302  1.00 20.00     0.225 C 
HETATM    4  C4  UNL     1     -35.741  15.992  -6.253  1.00 20.00     0.442 C 
HETATM    5  C5  UNL     1     -35.229  15.573  -4.036  1.00 20.00     0.240 C 
HETATM    6  C6  UNL     1     -34.432  14.257  -4.058  1.00 20.00     0.066 C 
HETATM    7  C7  UNL     1     -33.544  16.685  -5.493  1.00 20.00     0.315 C 
HETATM    8  N8  UNL     1     -34.942  16.496  -5.142  1.00 20.00     0.130 N 
HETATM    9  O9  UNL     1     -36.864  15.272  -5.729  1.00 20.00    -0.359 OA
ENDROOT
TORSDOF 0
ENDMDL
MODEL 7
REMARK VINA RESULT:      -3.4     12.538     13.852
REMARK  0 active torsions:
REMARK  status: ('A' for Active; 'I' for Inactive)
ROOT
HETATM    1  C1  UNL     1     -33.995  17.415  -6.934  1.00 20.00     0.015 C 
HETATM    2  C2  UNL     1     -34.292  16.276  -6.701  1.00 20.00    -0.073 C 
HETATM    3  C3  UNL     1     -34.038  14.431  -5.088  1.00 20.00     0.225 C 
HETATM    4  C4  UNL     1     -36.154  13.581  -5.220  1.00 20.00     0.442 C 
HETATM    5  C5  UNL     1     -34.657  14.877  -6.416  1.00 20.00     0.240 C 
HETATM    6  C6  UNL     1     -34.182  13.971  -7.565  1.00 20.00     0.066 C 
HETATM    7  C7  UNL     1     -37.019  14.712  -7.185  1.00 20.00     0.315 C 
HETATM    8  N8  UNL     1     -36.080  14.760  -6.076  1.00 20.00     0.130 N 
HETATM    9  O9  UNL     1     -34.886  13.391  -4.581  1.00 20.00    -0.359 OA
ENDROOT
TORSDOF 0
ENDMDL
MODEL 8
REMARK VINA RESULT:      -3.4     12.722     13.671
REMARK  0 active torsions:
REMARK  status: ('A' for Active; 'I' for Inactive)
ROOT
HETATM    1  C1  UNL     1     -34.642  16.276  -2.652  1.00 20.00     0.015 C 
HETATM    2  C2  UNL     1     -34.749  16.004  -3.816  1.00 20.00    -0.073 C 
HETATM    3  C3  UNL     1     -33.629  16.108  -6.008  1.00 20.00     0.225 C 
HETATM    4  C4  UNL     1     -34.293  14.077  -6.817  1.00 20.00     0.442 C 
HETATM    5  C5  UNL     1     -34.882  15.669  -5.244  1.00 20.00     0.240 C 
HETATM    6  C6  UNL     1     -36.134  16.350  -5.824  1.00 20.00     0.066 C 
HETATM    7  C7  UNL     1     -36.022  13.455  -5.231  1.00 20.00     0.315 C 
HETATM    8  N8  UNL     1     -34.805  14.218  -5.458  1.00 20.00     0.130 N 
HETATM    9  O9  UNL     1     -33.535  15.246  -7.151  1.00 20.00    -0.359 OA
ENDROOT
TORSDOF 0
ENDMDL
MODEL 9
REMARK VINA RESULT:      -3.4     12.105     13.275
REMARK  0 active torsions:
REMARK  status: ('A' for Active; 'I' for Inactive)
ROOT
HETATM    1  C1  UNL     1     -37.691  15.566  -4.421  1.00 20.00     0.015 C 
HETATM    2  C2  UNL     1     -36.501  15.540  -4.268  1.00 20.00    -0.073 C 
HETATM    3  C3  UNL     1     -34.535  14.064  -4.110  1.00 20.00     0.225 C 
HETATM    4  C4  UNL     1     -33.045  15.374  -5.243  1.00 20.00     0.442 C 
HETATM    5  C5  UNL     1     -35.040  15.510  -4.080  1.00 20.00     0.240 C 
HETATM    6  C6  UNL     1     -34.673  16.183  -2.746  1.00 20.00     0.066 C 
HETATM    7  C7  UNL     1     -34.236  17.485  -5.365  1.00 20.00     0.315 C 
HETATM    8  N8  UNL     1     -34.343  16.039  -5.259  1.00 20.00     0.130 N 
HETATM    9  O9  UNL     1     -33.170  14.127  -4.549  1.00 20.00    -0.359 OA
ENDROOT
TORSDOF 0
ENDMDL
