MODEL 1
REMARK VINA RESULT:      -4.1      0.000      0.000
REMARK  1 active torsions:
REMARK  status: ('A' for Active; 'I' for Inactive)
REMARK    1  A    between atoms: C2_2  and  C6_6 
ROOT
HETATM    1  C1  UNL     1     -34.135  17.803  -5.448  1.00 20.00     0.074 C 
HETATM    2  C3  UNL     1     -33.703  16.480  -3.392  1.00 20.00     0.031 C 
HETATM    3  C4  UNL     1     -34.929  15.574  -3.374  1.00 20.00     0.025 C 
HETATM    4  C5  UNL     1     -33.338  16.723  -4.855  1.00 20.00     0.154 C 
HETATM    5  C6  UNL     1     -34.624  14.414  -4.307  1.00 20.00     0.117 C 
HETATM    6  N8  UNL     1     -34.766  18.656  -5.917  1.00 20.00    -0.196 NA
HETATM    7  S10 UNL     1     -33.671  15.131  -5.676  1.00 20.00    -0.137 SA
ENDROOT
BRANCH   5   8
HETATM    8  C2  UNL     1     -35.858  13.791  -4.865  1.00 20.00     0.136 C 
HETATM    9  C7  UNL     1     -37.104  14.634  -4.856  1.00 20.00     0.092 C 
HETATM   10  O9  UNL     1     -35.857  12.646  -5.312  1.00 20.00    -0.297 OA
ENDBRANCH   5   8
TORSDOF 1
ENDMDL
MODEL 2
REMARK VINA RESULT:      -4.1      2.058      2.289
REMARK  1 active torsions:
REMARK  status: ('A' for Active; 'I' for Inactive)
REMARK    1  A    between atoms: C2_2  and  C6_6 
ROOT
HETATM    1  C1  UNL     1     -34.972  16.862  -2.289  1.00 20.00     0.074 C 
HETATM    2  C3  UNL     1     -33.360  15.901  -3.914  1.00 20.00     0.031 C 
HETATM    3  C4  UNL     1     -34.020  14.558  -4.208  1.00 20.00     0.025 C 
HETATM    4  C5  UNL     1     -34.477  16.913  -3.669  1.00 20.00     0.154 C 
HETATM    5  C6  UNL     1     -35.082  14.820  -5.263  1.00 20.00     0.117 C 
HETATM    6  N8  UNL     1     -35.364  16.821  -1.197  1.00 20.00    -0.196 NA
HETATM    7  S10 UNL     1     -35.780  16.445  -4.854  1.00 20.00    -0.137 SA
ENDROOT
BRANCH   5   8
HETATM    8  C2  UNL     1     -36.180  13.812  -5.229  1.00 20.00     0.136 C 
HETATM    9  C7  UNL     1     -37.586  14.344  -5.181  1.00 20.00     0.092 C 
HETATM   10  O9  UNL     1     -35.947  12.604  -5.241  1.00 20.00    -0.297 OA
ENDBRANCH   5   8
TORSDOF 1
ENDMDL
MODEL 3
REMARK VINA RESULT:      -4.0      1.421      1.745
REMARK  1 active torsions:
REMARK  status: ('A' for Active; 'I' for Inactive)
REMARK    1  A    between atoms: C2_2  and  C6_6 
ROOT
HETATM    1  C1  UNL     1     -33.434  16.885  -4.947  1.00 20.00     0.074 C 
HETATM    2  C3  UNL     1     -33.303  14.459  -4.434  1.00 20.00     0.031 C 
HETATM    3  C4  UNL     1     -34.783  14.119  -4.291  1.00 20.00     0.025 C 
HETATM    4  C5  UNL     1     -33.187  15.547  -5.499  1.00 20.00     0.154 C 
HETATM    5  C6  UNL     1     -35.313  13.896  -5.698  1.00 20.00     0.117 C 
HETATM    6  N8  UNL     1     -33.630  17.942  -4.512  1.00 20.00    -0.196 NA
HETATM    7  S10 UNL     1     -34.446  15.104  -6.739  1.00 20.00    -0.137 SA
ENDROOT
BRANCH   5   8
HETATM    8  C2  UNL     1     -36.779  14.148  -5.801  1.00 20.00     0.136 C 
HETATM    9  C7  UNL     1     -37.240  14.989  -6.960  1.00 20.00     0.092 C 
HETATM   10  O9  UNL     1     -37.572  13.689  -4.981  1.00 20.00    -0.297 OA
ENDBRANCH   5   8
TORSDOF 1
ENDMDL
MODEL 4
REMARK VINA RESULT:      -3.9      3.006      3.883
REMARK  1 active torsions:
REMARK  status: ('A' for Active; 'I' for Inactive)
REMARK    1  A    between atoms: C2_2  and  C6_6 
ROOT
HETATM    1  C1  UNL     1     -35.235  13.744  -5.565  1.00 20.00     0.074 C 
HETATM    2  C3  UNL     1     -34.977  16.114  -6.255  1.00 20.00     0.031 C 
HETATM    3  C4  UNL     1     -35.203  16.823  -4.924  1.00 20.00     0.025 C 
HETATM    4  C5  UNL     1     -34.281  14.789  -5.953  1.00 20.00     0.154 C 
HETATM    5  C6  UNL     1     -33.875  16.789  -4.185  1.00 20.00     0.117 C 
HETATM    6  N8  UNL     1     -35.990  12.917  -5.258  1.00 20.00    -0.196 NA
HETATM    7  S10 UNL     1     -33.140  15.178  -4.587  1.00 20.00    -0.137 SA
ENDROOT
BRANCH   5   8
HETATM    8  C2  UNL     1     -34.044  16.876  -2.707  1.00 20.00     0.136 C 
HETATM    9  C7  UNL     1     -35.407  16.546  -2.161  1.00 20.00     0.092 C 
HETATM   10  O9  UNL     1     -33.115  17.200  -1.969  1.00 20.00    -0.297 OA
ENDBRANCH   5   8
TORSDOF 1
ENDMDL
MODEL 5
REMARK VINA RESULT:      -3.9      3.121      4.090
REMARK  1 active torsions:
REMARK  status: ('A' for Active; 'I' for Inactive)
REMARK    1  A    between atoms: C2_2  and  C6_6 
ROOT
HETATM    1  C1  UNL     1     -35.399  13.752  -4.730  1.00 20.00     0.074 C 
HETATM    2  C3  UNL     1     -33.227  14.825  -4.185  1.00 20.00     0.031 C 
HETATM    3  C4  UNL     1     -32.919  15.528  -5.502  1.00 20.00     0.025 C 
HETATM    4  C5  UNL     1     -34.743  14.844  -4.001  1.00 20.00     0.154 C 
HETATM    5  C6  UNL     1     -33.688  16.840  -5.482  1.00 20.00     0.117 C 
HETATM    6  N8  UNL     1     -35.917  12.888  -5.306  1.00 20.00    -0.196 NA
HETATM    7  S10 UNL     1     -35.257  16.468  -4.648  1.00 20.00    -0.137 SA
ENDROOT
BRANCH   5   8
HETATM    8  C2  UNL     1     -33.988  17.345  -6.851  1.00 20.00     0.136 C 
HETATM    9  C7  UNL     1     -34.222  16.310  -7.918  1.00 20.00     0.092 C 
HETATM   10  O9  UNL     1     -34.044  18.549  -7.097  1.00 20.00    -0.297 OA
ENDBRANCH   5   8
TORSDOF 1
ENDMDL
MODEL 6
REMARK VINA RESULT:      -3.9      1.185      1.344
REMARK  1 active torsions:
REMARK  status: ('A' for Active; 'I' for Inactive)
REMARK    1  A    between atoms: C2_2  and  C6_6 
ROOT
HETATM    1  C1  UNL     1     -34.884  17.810  -4.882  1.00 20.00     0.074 C 
HETATM    2  C3  UNL     1     -33.636  16.055  -3.648  1.00 20.00     0.031 C 
HETATM    3  C4  UNL     1     -34.522  14.841  -3.906  1.00 20.00     0.025 C 
HETATM    4  C5  UNL     1     -33.703  16.940  -4.890  1.00 20.00     0.154 C 
HETATM    5  C6  UNL     1     -34.130  14.302  -5.273  1.00 20.00     0.117 C 
HETATM    6  N8  UNL     1     -35.819  18.498  -4.876  1.00 20.00    -0.196 NA
HETATM    7  S10 UNL     1     -33.759  15.766  -6.281  1.00 20.00    -0.137 SA
ENDROOT
BRANCH   5   8
HETATM    8  C2  UNL     1     -35.235  13.545  -5.925  1.00 20.00     0.136 C 
HETATM    9  C7  UNL     1     -35.437  13.778  -7.398  1.00 20.00     0.092 C 
HETATM   10  O9  UNL     1     -35.945  12.766  -5.292  1.00 20.00    -0.297 OA
ENDBRANCH   5   8
TORSDOF 1
ENDMDL
MODEL 7
REMARK VINA RESULT:      -3.9     12.506     13.352
REMARK  1 active torsions:
REMARK  status: ('A' for Active; 'I' for Inactive)
REMARK    1  A    between atoms: C2_2  and  C6_6 
ROOT
HETATM    1  C1  UNL     1     -34.278   4.257   4.396  1.00 20.00     0.074 C 
HETATM    2  C3  UNL     1     -34.593   6.370   5.661  1.00 20.00     0.031 C 
HETATM    3  C4  UNL     1     -33.302   7.103   5.315  1.00 20.00     0.025 C 
HETATM    4  C5  UNL     1     -34.987   5.541   4.440  1.00 20.00     0.154 C 
HETATM    5  C6  UNL     1     -33.527   7.761   3.963  1.00 20.00     0.117 C 
HETATM    6  N8  UNL     1     -33.717   3.242   4.360  1.00 20.00    -0.196 NA
HETATM    7  S10 UNL     1     -34.541   6.589   3.018  1.00 20.00    -0.137 SA
ENDROOT
BRANCH   5   8
HETATM    8  C2  UNL     1     -32.254   7.989   3.222  1.00 20.00     0.136 C 
HETATM    9  C7  UNL     1     -32.363   8.189   1.734  1.00 20.00     0.092 C 
HETATM   10  O9  UNL     1     -31.168   8.016   3.798  1.00 20.00    -0.297 OA
ENDBRANCH   5   8
TORSDOF 1
ENDMDL
MODEL 8
REMARK VINA RESULT:      -3.8      2.936      4.002
REMARK  1 active torsions:
REMARK  status: ('A' for Active; 'I' for Inactive)
REMARK    1  A    between atoms: C2_2  and  C6_6 
ROOT
HETATM    1  C1  UNL     1     -36.679  14.010  -5.232  1.00 20.00     0.074 C 
HETATM    2  C3  UNL     1     -34.928  15.133  -6.586  1.00 20.00     0.031 C 
HETATM    3  C4  UNL     1     -34.701  16.397  -5.765  1.00 20.00     0.025 C 
HETATM    4  C5  UNL     1     -35.261  14.008  -5.608  1.00 20.00     0.154 C 
HETATM    5  C6  UNL     1     -33.740  16.021  -4.648  1.00 20.00     0.117 C 
HETATM    6  N8  UNL     1     -37.801  14.011  -4.934  1.00 20.00    -0.196 NA
HETATM    7  S10 UNL     1     -34.197  14.332  -4.165  1.00 20.00    -0.137 SA
ENDROOT
BRANCH   5   8
HETATM    8  C2  UNL     1     -33.877  16.907  -3.457  1.00 20.00     0.136 C 
HETATM    9  C7  UNL     1     -34.800  16.437  -2.367  1.00 20.00     0.092 C 
HETATM   10  O9  UNL     1     -33.262  17.969  -3.369  1.00 20.00    -0.297 OA
ENDBRANCH   5   8
TORSDOF 1
ENDMDL
MODEL 9
REMARK VINA RESULT:      -3.7      2.864      4.241
REMARK  1 active torsions:
REMARK  status: ('A' for Active; 'I' for Inactive)
REMARK    1  A    between atoms: C2_2  and  C6_6 
ROOT
HETATM    1  C1  UNL     1     -37.109  13.896  -5.105  1.00 20.00     0.074 C 
HETATM    2  C3  UNL     1     -35.350  13.338  -6.766  1.00 20.00     0.031 C 
HETATM    3  C4  UNL     1     -34.827  14.730  -7.104  1.00 20.00     0.025 C 
HETATM    4  C5  UNL     1     -35.760  13.350  -5.295  1.00 20.00     0.154 C 
HETATM    5  C6  UNL     1     -33.828  15.092  -6.017  1.00 20.00     0.117 C 
HETATM    6  N8  UNL     1     -38.175  14.328  -4.954  1.00 20.00    -0.196 NA
HETATM    7  S10 UNL     1     -34.507  14.395  -4.484  1.00 20.00    -0.137 SA
ENDROOT
BRANCH   5   8
HETATM    8  C2  UNL     1     -33.683  16.565  -5.844  1.00 20.00     0.136 C 
HETATM    9  C7  UNL     1     -34.018  17.422  -7.035  1.00 20.00     0.092 C 
HETATM   10  O9  UNL     1     -33.312  17.057  -4.780  1.00 20.00    -0.297 OA
ENDBRANCH   5   8
TORSDOF 1
ENDMDL
