MODEL 1
REMARK VINA RESULT:      -4.4      0.000      0.000
REMARK  0 active torsions:
REMARK  status: ('A' for Active; 'I' for Inactive)
ROOT
HETATM    1  C1  UNL     1     -32.799   4.298   2.416  1.00 20.00     0.015 C 
HETATM    2  C2  UNL     1     -33.105   5.394   2.797  1.00 20.00    -0.075 C 
HETATM    3  C3  UNL     1     -34.402   6.536   5.461  1.00 20.00     0.034 C 
HETATM    4  C4  UNL     1     -32.013   8.324   2.242  1.00 20.00     0.034 C 
HETATM    5  C5  UNL     1     -34.820   6.698   4.007  1.00 20.00     0.057 C 
HETATM    6  C6  UNL     1     -33.416   7.747   2.114  1.00 20.00     0.057 C 
HETATM    7  C7  UNL     1     -33.163   7.411   5.545  1.00 20.00     0.275 C 
HETATM    8  C8  UNL     1     -31.829   8.409   3.748  1.00 20.00     0.275 C 
HETATM    9  C9  UNL     1     -33.483   6.744   3.266  1.00 20.00     0.221 C 
HETATM   10  N10 UNL     1     -32.485   7.201   4.261  1.00 20.00     0.110 N 
ENDROOT
TORSDOF 0
ENDMDL
MODEL 2
REMARK VINA RESULT:      -4.0     11.180     12.518
REMARK  0 active torsions:
REMARK  status: ('A' for Active; 'I' for Inactive)
ROOT
HETATM    1  C1  UNL     1     -34.633  16.938  -1.535  1.00 20.00     0.015 C 
HETATM    2  C2  UNL     1     -34.834  16.407  -2.592  1.00 20.00    -0.075 C 
HETATM    3  C3  UNL     1     -36.889  16.891  -4.964  1.00 20.00     0.034 C 
HETATM    4  C4  UNL     1     -33.014  14.849  -4.677  1.00 20.00     0.034 C 
HETATM    5  C5  UNL     1     -36.584  15.637  -4.157  1.00 20.00     0.057 C 
HETATM    6  C6  UNL     1     -34.307  14.438  -3.987  1.00 20.00     0.057 C 
HETATM    7  C7  UNL     1     -35.657  17.022  -5.844  1.00 20.00     0.275 C 
HETATM    8  C8  UNL     1     -33.493  15.883  -5.683  1.00 20.00     0.275 C 
HETATM    9  C9  UNL     1     -35.082  15.752  -3.895  1.00 20.00     0.221 C 
HETATM   10  N10 UNL     1     -34.548  16.616  -4.973  1.00 20.00     0.110 N 
ENDROOT
TORSDOF 0
ENDMDL
MODEL 3
REMARK VINA RESULT:      -4.0     11.209     12.326
REMARK  0 active torsions:
REMARK  status: ('A' for Active; 'I' for Inactive)
ROOT
HETATM    1  C1  UNL     1     -34.010  15.053  -7.682  1.00 20.00     0.015 C 
HETATM    2  C2  UNL     1     -34.434  14.835  -6.581  1.00 20.00    -0.075 C 
HETATM    3  C3  UNL     1     -33.623  15.786  -3.663  1.00 20.00     0.034 C 
HETATM    4  C4  UNL     1     -37.300  14.137  -5.403  1.00 20.00     0.034 C 
HETATM    5  C5  UNL     1     -33.805  14.388  -4.235  1.00 20.00     0.057 C 
HETATM    6  C6  UNL     1     -35.966  13.419  -5.259  1.00 20.00     0.057 C 
HETATM    7  C7  UNL     1     -35.054  16.288  -3.559  1.00 20.00     0.275 C 
HETATM    8  C8  UNL     1     -37.107  15.368  -4.532  1.00 20.00     0.275 C 
HETATM    9  C9  UNL     1     -34.957  14.568  -5.224  1.00 20.00     0.221 C 
HETATM   10  N10 UNL     1     -35.710  15.756  -4.759  1.00 20.00     0.110 N 
ENDROOT
TORSDOF 0
ENDMDL
MODEL 4
REMARK VINA RESULT:      -3.9     11.017     12.384
REMARK  0 active torsions:
REMARK  status: ('A' for Active; 'I' for Inactive)
ROOT
HETATM    1  C1  UNL     1     -33.334  17.493  -1.654  1.00 20.00     0.015 C 
HETATM    2  C2  UNL     1     -33.784  17.052  -2.675  1.00 20.00    -0.075 C 
HETATM    3  C3  UNL     1     -33.176  14.488  -4.446  1.00 20.00     0.034 C 
HETATM    4  C4  UNL     1     -36.630  17.172  -4.080  1.00 20.00     0.034 C 
HETATM    5  C5  UNL     1     -33.220  15.963  -4.819  1.00 20.00     0.057 C 
HETATM    6  C6  UNL     1     -35.249  17.541  -4.603  1.00 20.00     0.057 C 
HETATM    7  C7  UNL     1     -34.646  14.155  -4.253  1.00 20.00     0.275 C 
HETATM    8  C8  UNL     1     -36.575  15.654  -4.047  1.00 20.00     0.275 C 
HETATM    9  C9  UNL     1     -34.340  16.510  -3.933  1.00 20.00     0.221 C 
HETATM   10  N10 UNL     1     -35.206  15.351  -3.614  1.00 20.00     0.110 N 
ENDROOT
TORSDOF 0
ENDMDL
MODEL 5
REMARK VINA RESULT:      -3.9     11.212     12.773
REMARK  0 active torsions:
REMARK  status: ('A' for Active; 'I' for Inactive)
ROOT
HETATM    1  C1  UNL     1     -37.629  14.393  -5.425  1.00 20.00     0.015 C 
HETATM    2  C2  UNL     1     -36.433  14.458  -5.488  1.00 20.00    -0.075 C 
HETATM    3  C3  UNL     1     -34.343  14.682  -7.868  1.00 20.00     0.034 C 
HETATM    4  C4  UNL     1     -34.169  15.608  -3.581  1.00 20.00     0.034 C 
HETATM    5  C5  UNL     1     -34.437  13.685  -6.722  1.00 20.00     0.057 C 
HETATM    6  C6  UNL     1     -34.336  14.229  -4.202  1.00 20.00     0.057 C 
HETATM    7  C7  UNL     1     -33.864  15.942  -7.168  1.00 20.00     0.275 C 
HETATM    8  C8  UNL     1     -33.767  16.460  -4.773  1.00 20.00     0.275 C 
HETATM    9  C9  UNL     1     -34.958  14.537  -5.565  1.00 20.00     0.221 C 
HETATM   10  N10 UNL     1     -34.571  15.931  -5.882  1.00 20.00     0.110 N 
ENDROOT
TORSDOF 0
ENDMDL
MODEL 6
REMARK VINA RESULT:      -3.9     11.231     12.594
REMARK  0 active torsions:
REMARK  status: ('A' for Active; 'I' for Inactive)
ROOT
HETATM    1  C1  UNL     1     -35.356  16.619  -1.960  1.00 20.00     0.015 C 
HETATM    2  C2  UNL     1     -34.990  16.206  -3.026  1.00 20.00    -0.075 C 
HETATM    3  C3  UNL     1     -35.758  13.701  -4.819  1.00 20.00     0.034 C 
HETATM    4  C4  UNL     1     -33.853  17.565  -5.661  1.00 20.00     0.034 C 
HETATM    5  C5  UNL     1     -34.407  14.175  -4.305  1.00 20.00     0.057 C 
HETATM    6  C6  UNL     1     -33.287  16.446  -4.799  1.00 20.00     0.057 C 
HETATM    7  C7  UNL     1     -36.075  14.723  -5.898  1.00 20.00     0.275 C 
HETATM    8  C8  UNL     1     -35.012  16.881  -6.368  1.00 20.00     0.275 C 
HETATM    9  C9  UNL     1     -34.539  15.698  -4.339  1.00 20.00     0.221 C 
HETATM   10  N10 UNL     1     -35.582  15.991  -5.349  1.00 20.00     0.110 N 
ENDROOT
TORSDOF 0
ENDMDL
MODEL 7
REMARK VINA RESULT:      -3.7     11.698     12.890
REMARK  0 active torsions:
REMARK  status: ('A' for Active; 'I' for Inactive)
ROOT
HETATM    1  C1  UNL     1     -33.926  17.246  -7.596  1.00 20.00     0.015 C 
HETATM    2  C2  UNL     1     -34.033  16.320  -6.840  1.00 20.00    -0.075 C 
HETATM    3  C3  UNL     1     -33.664  15.958  -3.708  1.00 20.00     0.034 C 
HETATM    4  C4  UNL     1     -35.808  13.687  -6.793  1.00 20.00     0.034 C 
HETATM    5  C5  UNL     1     -33.041  15.203  -4.873  1.00 20.00     0.057 C 
HETATM    6  C6  UNL     1     -34.301  13.870  -6.687  1.00 20.00     0.057 C 
HETATM    7  C7  UNL     1     -35.098  15.453  -3.719  1.00 20.00     0.275 C 
HETATM    8  C8  UNL     1     -36.295  14.186  -5.442  1.00 20.00     0.275 C 
HETATM    9  C9  UNL     1     -34.165  15.179  -5.909  1.00 20.00     0.221 C 
HETATM   10  N10 UNL     1     -35.425  15.330  -5.144  1.00 20.00     0.110 N 
ENDROOT
TORSDOF 0
ENDMDL
MODEL 8
REMARK VINA RESULT:      -3.7     11.349     13.085
REMARK  0 active torsions:
REMARK  status: ('A' for Active; 'I' for Inactive)
ROOT
HETATM    1  C1  UNL     1     -35.509  17.688  -6.784  1.00 20.00     0.015 C 
HETATM    2  C2  UNL     1     -34.958  16.644  -6.566  1.00 20.00    -0.075 C 
HETATM    3  C3  UNL     1     -33.574  15.356  -4.016  1.00 20.00     0.034 C 
HETATM    4  C4  UNL     1     -35.236  13.701  -7.726  1.00 20.00     0.034 C 
HETATM    5  C5  UNL     1     -33.043  15.580  -5.424  1.00 20.00     0.057 C 
HETATM    6  C6  UNL     1     -34.021  14.609  -7.605  1.00 20.00     0.057 C 
HETATM    7  C7  UNL     1     -34.553  14.210  -4.213  1.00 20.00     0.275 C 
HETATM    8  C8  UNL     1     -35.482  13.287  -6.285  1.00 20.00     0.275 C 
HETATM    9  C9  UNL     1     -34.278  15.359  -6.298  1.00 20.00     0.221 C 
HETATM   10  N10 UNL     1     -35.185  14.495  -5.506  1.00 20.00     0.110 N 
ENDROOT
TORSDOF 0
ENDMDL
MODEL 9
REMARK VINA RESULT:      -3.7      1.157      3.466
REMARK  0 active torsions:
REMARK  status: ('A' for Active; 'I' for Inactive)
ROOT
HETATM    1  C1  UNL     1     -33.406   7.637   6.403  1.00 20.00     0.015 C 
HETATM    2  C2  UNL     1     -33.648   7.276   5.284  1.00 20.00    -0.075 C 
HETATM    3  C3  UNL     1     -32.715   8.217   2.399  1.00 20.00     0.034 C 
HETATM    4  C4  UNL     1     -34.429   4.493   3.968  1.00 20.00     0.034 C 
HETATM    5  C5  UNL     1     -34.110   8.037   2.980  1.00 20.00     0.057 C 
HETATM    6  C6  UNL     1     -35.117   5.849   3.903  1.00 20.00     0.057 C 
HETATM    7  C7  UNL     1     -32.249   6.782   2.214  1.00 20.00     0.275 C 
HETATM    8  C8  UNL     1     -33.206   4.703   3.091  1.00 20.00     0.275 C 
HETATM    9  C9  UNL     1     -33.945   6.831   3.906  1.00 20.00     0.221 C 
HETATM   10  N10 UNL     1     -32.782   6.077   3.385  1.00 20.00     0.110 N 
ENDROOT
TORSDOF 0
ENDMDL
