MODEL 1
REMARK VINA RESULT:      -5.4      0.000      0.000
REMARK  1 active torsions:
REMARK  status: ('A' for Active; 'I' for Inactive)
REMARK    1  A    between atoms: C2_2  and  C8_8 
ROOT
HETATM    1  C1  UNL     1     -33.479   6.810   4.806  1.00 20.00     0.136 C 
HETATM    2  C3  UNL     1     -34.515   6.125   5.669  1.00 20.00     0.079 C 
HETATM    3  C4  UNL     1     -35.076   4.857   5.035  1.00 20.00     0.007 C 
HETATM    4  C5  UNL     1     -33.961   4.048   4.382  1.00 20.00     0.002 C 
HETATM    5  C6  UNL     1     -33.341   4.800   3.204  1.00 20.00     0.018 C 
HETATM    6  C7  UNL     1     -34.180   7.114   2.378  1.00 20.00     0.030 A 
HETATM    7  C8  UNL     1     -32.683   7.125   2.307  1.00 20.00     0.064 A 
HETATM    8  C9  UNL     1     -33.378   6.311   3.392  1.00 20.00     0.031 A 
HETATM    9  O10 UNL     1     -32.781   7.725   5.230  1.00 20.00    -0.297 OA
ENDROOT
BRANCH   7  10
HETATM   10  C2  UNL     1     -31.956   8.365   2.602  1.00 20.00     0.236 C 
HETATM   11  O11 UNL     1     -32.048   9.382   1.923  1.00 20.00    -0.306 OA
ENDBRANCH   7  10
TORSDOF 1
ENDMDL
MODEL 2
REMARK VINA RESULT:      -5.1      1.576      3.939
REMARK  1 active torsions:
REMARK  status: ('A' for Active; 'I' for Inactive)
REMARK    1  A    between atoms: C2_2  and  C8_8 
ROOT
HETATM    1  C1  UNL     1     -32.746   7.562   4.198  1.00 20.00     0.136 C 
HETATM    2  C3  UNL     1     -31.486   8.334   3.875  1.00 20.00     0.079 C 
HETATM    3  C4  UNL     1     -31.264   8.514   2.377  1.00 20.00     0.007 C 
HETATM    4  C5  UNL     1     -32.576   8.855   1.680  1.00 20.00     0.002 C 
HETATM    5  C6  UNL     1     -33.570   7.696   1.763  1.00 20.00     0.018 C 
HETATM    6  C7  UNL     1     -33.021   5.411   2.864  1.00 20.00     0.030 A 
HETATM    7  C8  UNL     1     -34.428   5.765   3.239  1.00 20.00     0.064 A 
HETATM    8  C9  UNL     1     -33.402   6.874   3.035  1.00 20.00     0.031 A 
HETATM    9  O10 UNL     1     -33.189   7.488   5.339  1.00 20.00    -0.297 OA
ENDROOT
BRANCH   7  10
HETATM   10  C2  UNL     1     -34.935   5.402   4.567  1.00 20.00     0.236 C 
HETATM   11  O11 UNL     1     -34.564   4.409   5.184  1.00 20.00    -0.306 OA
ENDBRANCH   7  10
TORSDOF 1
ENDMDL
MODEL 3
REMARK VINA RESULT:      -4.8     11.292     12.392
REMARK  1 active torsions:
REMARK  status: ('A' for Active; 'I' for Inactive)
REMARK    1  A    between atoms: C2_2  and  C8_8 
ROOT
HETATM    1  C1  UNL     1     -35.500  15.859  -3.392  1.00 20.00     0.136 C 
HETATM    2  C3  UNL     1     -35.164  16.618  -2.127  1.00 20.00     0.079 C 
HETATM    3  C4  UNL     1     -33.764  17.224  -2.150  1.00 20.00     0.007 C 
HETATM    4  C5  UNL     1     -33.470  17.834  -3.517  1.00 20.00     0.002 C 
HETATM    5  C6  UNL     1     -33.419  16.764  -4.607  1.00 20.00     0.018 C 
HETATM    6  C7  UNL     1     -33.697  14.225  -4.139  1.00 20.00     0.030 A 
HETATM    7  C8  UNL     1     -34.430  14.532  -5.410  1.00 20.00     0.064 A 
HETATM    8  C9  UNL     1     -34.346  15.590  -4.315  1.00 20.00     0.031 A 
HETATM    9  O10 UNL     1     -36.638  15.473  -3.635  1.00 20.00    -0.297 OA
ENDROOT
BRANCH   7  10
HETATM   10  C2  UNL     1     -35.675  13.818  -5.715  1.00 20.00     0.236 C 
HETATM   11  O11 UNL     1     -35.932  12.696  -5.293  1.00 20.00    -0.306 OA
ENDBRANCH   7  10
TORSDOF 1
ENDMDL
MODEL 4
REMARK VINA RESULT:      -4.8      1.556      2.281
REMARK  1 active torsions:
REMARK  status: ('A' for Active; 'I' for Inactive)
REMARK    1  A    between atoms: C2_2  and  C8_8 
ROOT
HETATM    1  C1  UNL     1     -34.111   5.995   3.192  1.00 20.00     0.136 C 
HETATM    2  C3  UNL     1     -34.364   4.749   4.012  1.00 20.00     0.079 C 
HETATM    3  C4  UNL     1     -34.050   4.935   5.493  1.00 20.00     0.007 C 
HETATM    4  C5  UNL     1     -34.550   6.292   5.978  1.00 20.00     0.002 C 
HETATM    5  C6  UNL     1     -33.799   7.438   5.300  1.00 20.00     0.018 C 
HETATM    6  C7  UNL     1     -31.851   7.085   3.622  1.00 20.00     0.030 A 
HETATM    7  C8  UNL     1     -32.686   8.218   3.110  1.00 20.00     0.064 A 
HETATM    8  C9  UNL     1     -33.349   7.087   3.888  1.00 20.00     0.031 A 
HETATM    9  O10 UNL     1     -34.487   6.096   2.029  1.00 20.00    -0.297 OA
ENDROOT
BRANCH   7  10
HETATM   10  C2  UNL     1     -32.868   8.385   1.663  1.00 20.00     0.236 C 
HETATM   11  O11 UNL     1     -32.224   9.181   0.988  1.00 20.00    -0.306 OA
ENDBRANCH   7  10
TORSDOF 1
ENDMDL
MODEL 5
REMARK VINA RESULT:      -4.4     11.657     12.537
REMARK  1 active torsions:
REMARK  status: ('A' for Active; 'I' for Inactive)
REMARK    1  A    between atoms: C2_2  and  C8_8 
ROOT
HETATM    1  C1  UNL     1     -34.644  15.246  -3.775  1.00 20.00     0.136 C 
HETATM    2  C3  UNL     1     -33.326  15.897  -3.421  1.00 20.00     0.079 C 
HETATM    3  C4  UNL     1     -33.492  17.183  -2.619  1.00 20.00     0.007 C 
HETATM    4  C5  UNL     1     -34.578  17.016  -1.561  1.00 20.00     0.002 C 
HETATM    5  C6  UNL     1     -35.951  16.805  -2.199  1.00 20.00     0.018 C 
HETATM    6  C7  UNL     1     -36.365  16.842  -4.761  1.00 20.00     0.030 A 
HETATM    7  C8  UNL     1     -37.206  15.744  -4.185  1.00 20.00     0.064 A 
HETATM    8  C9  UNL     1     -35.868  16.085  -3.539  1.00 20.00     0.031 A 
HETATM    9  O10 UNL     1     -34.706  14.114  -4.243  1.00 20.00    -0.297 OA
ENDROOT
BRANCH   7  10
HETATM   10  C2  UNL     1     -37.412  14.513  -4.956  1.00 20.00     0.236 C 
HETATM   11  O11 UNL     1     -38.486  13.922  -5.012  1.00 20.00    -0.306 OA
ENDBRANCH   7  10
TORSDOF 1
ENDMDL
MODEL 6
REMARK VINA RESULT:      -4.3     11.517     13.053
REMARK  1 active torsions:
REMARK  status: ('A' for Active; 'I' for Inactive)
REMARK    1  A    between atoms: C2_2  and  C8_8 
ROOT
HETATM    1  C1  UNL     1     -33.577  16.943  -4.715  1.00 20.00     0.136 C 
HETATM    2  C3  UNL     1     -33.293  18.426  -4.632  1.00 20.00     0.079 C 
HETATM    3  C4  UNL     1     -33.587  19.014  -3.256  1.00 20.00     0.007 C 
HETATM    4  C5  UNL     1     -33.099  18.074  -2.159  1.00 20.00     0.002 C 
HETATM    5  C6  UNL     1     -33.876  16.757  -2.165  1.00 20.00     0.018 C 
HETATM    6  C7  UNL     1     -35.845  16.261  -3.782  1.00 20.00     0.030 A 
HETATM    7  C8  UNL     1     -35.034  15.007  -3.662  1.00 20.00     0.064 A 
HETATM    8  C9  UNL     1     -34.343  16.362  -3.560  1.00 20.00     0.031 A 
HETATM    9  O10 UNL     1     -33.220  16.265  -5.673  1.00 20.00    -0.297 OA
ENDROOT
BRANCH   7  10
HETATM   10  C2  UNL     1     -34.877  14.134  -4.831  1.00 20.00     0.236 C 
HETATM   11  O11 UNL     1     -35.391  13.024  -4.920  1.00 20.00    -0.306 OA
ENDBRANCH   7  10
TORSDOF 1
ENDMDL
MODEL 7
REMARK VINA RESULT:      -4.3      1.994      4.206
REMARK  1 active torsions:
REMARK  status: ('A' for Active; 'I' for Inactive)
REMARK    1  A    between atoms: C2_2  and  C8_8 
ROOT
HETATM    1  C1  UNL     1     -32.932   6.209   2.760  1.00 20.00     0.136 C 
HETATM    2  C3  UNL     1     -32.349   7.258   1.840  1.00 20.00     0.079 C 
HETATM    3  C4  UNL     1     -32.235   8.630   2.496  1.00 20.00     0.007 C 
HETATM    4  C5  UNL     1     -31.732   8.496   3.929  1.00 20.00     0.002 C 
HETATM    5  C6  UNL     1     -32.740   7.756   4.808  1.00 20.00     0.018 C 
HETATM    6  C7  UNL     1     -35.054   6.940   3.962  1.00 20.00     0.030 A 
HETATM    7  C8  UNL     1     -34.502   5.874   4.859  1.00 20.00     0.064 A 
HETATM    8  C9  UNL     1     -33.549   6.727   4.028  1.00 20.00     0.031 A 
HETATM    9  O10 UNL     1     -32.919   5.016   2.477  1.00 20.00    -0.297 OA
ENDROOT
BRANCH   7  10
HETATM   10  C2  UNL     1     -34.761   4.464   4.549  1.00 20.00     0.236 C 
HETATM   11  O11 UNL     1     -34.015   3.550   4.883  1.00 20.00    -0.306 OA
ENDBRANCH   7  10
TORSDOF 1
ENDMDL
MODEL 8
REMARK VINA RESULT:      -4.3     11.453     12.854
REMARK  1 active torsions:
REMARK  status: ('A' for Active; 'I' for Inactive)
REMARK    1  A    between atoms: C2_2  and  C8_8 
ROOT
HETATM    1  C1  UNL     1     -34.001  15.785  -6.212  1.00 20.00     0.136 C 
HETATM    2  C3  UNL     1     -33.880  15.105  -7.558  1.00 20.00     0.079 C 
HETATM    3  C4  UNL     1     -34.392  13.669  -7.549  1.00 20.00     0.007 C 
HETATM    4  C5  UNL     1     -35.687  13.569  -6.749  1.00 20.00     0.002 C 
HETATM    5  C6  UNL     1     -35.456  13.881  -5.270  1.00 20.00     0.018 C 
HETATM    6  C7  UNL     1     -33.121  14.404  -4.263  1.00 20.00     0.030 A 
HETATM    7  C8  UNL     1     -34.109  15.325  -3.613  1.00 20.00     0.064 A 
HETATM    8  C9  UNL     1     -34.328  14.883  -5.055  1.00 20.00     0.031 A 
HETATM    9  O10 UNL     1     -33.824  16.990  -6.074  1.00 20.00    -0.297 OA
ENDROOT
BRANCH   7  10
HETATM   10  C2  UNL     1     -33.702  16.691  -3.265  1.00 20.00     0.236 C 
HETATM   11  O11 UNL     1     -33.352  17.026  -2.138  1.00 20.00    -0.306 OA
ENDBRANCH   7  10
TORSDOF 1
ENDMDL
MODEL 9
REMARK VINA RESULT:      -4.3     11.741     12.569
REMARK  1 active torsions:
REMARK  status: ('A' for Active; 'I' for Inactive)
REMARK    1  A    between atoms: C2_2  and  C8_8 
ROOT
HETATM    1  C1  UNL     1     -33.999  14.929  -4.353  1.00 20.00     0.136 C 
HETATM    2  C3  UNL     1     -33.577  15.962  -3.332  1.00 20.00     0.079 C 
HETATM    3  C4  UNL     1     -34.662  16.995  -3.044  1.00 20.00     0.007 C 
HETATM    4  C5  UNL     1     -36.026  16.321  -2.941  1.00 20.00     0.002 C 
HETATM    5  C6  UNL     1     -36.450  15.710  -4.276  1.00 20.00     0.018 C 
HETATM    6  C7  UNL     1     -35.051  15.909  -6.454  1.00 20.00     0.030 A 
HETATM    7  C8  UNL     1     -35.612  14.520  -6.404  1.00 20.00     0.064 A 
HETATM    8  C9  UNL     1     -35.262  15.237  -5.105  1.00 20.00     0.031 A 
HETATM    9  O10 UNL     1     -33.339  13.917  -4.565  1.00 20.00    -0.297 OA
ENDROOT
BRANCH   7  10
HETATM   10  C2  UNL     1     -34.816  13.401  -6.920  1.00 20.00     0.236 C 
HETATM   11  O11 UNL     1     -35.138  12.225  -6.789  1.00 20.00    -0.306 OA
ENDBRANCH   7  10
TORSDOF 1
ENDMDL
