MODEL 1
REMARK VINA RESULT:      -5.3      0.000      0.000
REMARK  2 active torsions:
REMARK  status: ('A' for Active; 'I' for Inactive)
REMARK    1  A    between atoms: C4_4  and  C6_6 
REMARK    2  A    between atoms: C7_7  and  C9_9 
ROOT
HETATM    1  C1  UNL     1     -32.734   8.040   5.355  1.00 20.00    -0.003 C 
HETATM    2  C2  UNL     1     -33.746   7.017   5.399  1.00 20.00     0.011 C 
HETATM    3  C3  UNL     1     -32.058   8.311   4.232  1.00 20.00    -0.021 C 
HETATM    4  C4  UNL     1     -34.158   6.399   4.282  1.00 20.00    -0.012 C 
HETATM    5  C8  UNL     1     -32.291   7.569   2.936  1.00 20.00     0.016 C 
HETATM    6  C9  UNL     1     -33.595   6.704   2.910  1.00 20.00     0.051 C 
HETATM    7  C10 UNL     1     -32.279   8.551   1.758  1.00 20.00     0.015 C 
ENDROOT
BRANCH   4   8
HETATM    8  C6  UNL     1     -35.261   5.443   4.437  1.00 20.00     0.266 C 
HETATM    9  O11 UNL     1     -35.097   4.316   4.888  1.00 20.00    -0.302 OA
ENDBRANCH   4   8
BRANCH   6  10
HETATM   10  C7  UNL     1     -33.332   5.455   2.113  1.00 20.00    -0.027 C 
HETATM   11  C5  UNL     1     -32.643   4.406   2.573  1.00 20.00     0.007 C 
ENDBRANCH   6  10
TORSDOF 2
ENDMDL
MODEL 2
REMARK VINA RESULT:      -5.2      2.140      3.483
REMARK  2 active torsions:
REMARK  status: ('A' for Active; 'I' for Inactive)
REMARK    1  A    between atoms: C4_4  and  C6_6 
REMARK    2  A    between atoms: C7_7  and  C9_9 
ROOT
HETATM    1  C1  UNL     1     -33.821   7.298   6.019  1.00 20.00    -0.003 C 
HETATM    2  C2  UNL     1     -32.973   7.952   5.056  1.00 20.00     0.011 C 
HETATM    3  C3  UNL     1     -34.460   6.157   5.732  1.00 20.00    -0.021 C 
HETATM    4  C4  UNL     1     -32.669   7.367   3.888  1.00 20.00    -0.012 C 
HETATM    5  C8  UNL     1     -34.353   5.474   4.388  1.00 20.00     0.016 C 
HETATM    6  C9  UNL     1     -33.193   6.006   3.481  1.00 20.00     0.051 C 
HETATM    7  C10 UNL     1     -34.229   3.957   4.577  1.00 20.00     0.015 C 
ENDROOT
BRANCH   4   8
HETATM    8  C6  UNL     1     -31.720   8.085   3.029  1.00 20.00     0.266 C 
HETATM    9  O11 UNL     1     -32.062   9.004   2.294  1.00 20.00    -0.302 OA
ENDBRANCH   4   8
BRANCH   6  10
HETATM   10  C7  UNL     1     -33.648   5.978   2.046  1.00 20.00    -0.027 C 
HETATM   11  C5  UNL     1     -34.891   6.269   1.650  1.00 20.00     0.007 C 
ENDBRANCH   6  10
TORSDOF 2
ENDMDL
MODEL 3
REMARK VINA RESULT:      -5.0      1.884      3.397
REMARK  2 active torsions:
REMARK  status: ('A' for Active; 'I' for Inactive)
REMARK    1  A    between atoms: C4_4  and  C6_6 
REMARK    2  A    between atoms: C7_7  and  C9_9 
ROOT
HETATM    1  C1  UNL     1     -34.712   4.917   5.463  1.00 20.00    -0.003 C 
HETATM    2  C2  UNL     1     -34.305   6.246   5.840  1.00 20.00     0.011 C 
HETATM    3  C3  UNL     1     -34.492   4.438   4.233  1.00 20.00    -0.021 C 
HETATM    4  C4  UNL     1     -33.556   7.001   5.022  1.00 20.00    -0.012 C 
HETATM    5  C8  UNL     1     -33.815   5.243   3.148  1.00 20.00     0.016 C 
HETATM    6  C9  UNL     1     -33.097   6.538   3.656  1.00 20.00     0.051 C 
HETATM    7  C10 UNL     1     -32.832   4.359   2.370  1.00 20.00     0.015 C 
ENDROOT
BRANCH   4   8
HETATM    8  C6  UNL     1     -33.123   8.299   5.552  1.00 20.00     0.266 C 
HETATM    9  O11 UNL     1     -31.981   8.720   5.410  1.00 20.00    -0.302 OA
ENDBRANCH   4   8
BRANCH   6  10
HETATM   10  C7  UNL     1     -33.243   7.614   2.613  1.00 20.00    -0.027 C 
HETATM   11  C5  UNL     1     -32.214   8.182   1.976  1.00 20.00     0.007 C 
ENDBRANCH   6  10
TORSDOF 2
ENDMDL
MODEL 4
REMARK VINA RESULT:      -4.8     11.996     12.769
REMARK  2 active torsions:
REMARK  status: ('A' for Active; 'I' for Inactive)
REMARK    1  A    between atoms: C4_4  and  C6_6 
REMARK    2  A    between atoms: C7_7  and  C9_9 
ROOT
HETATM    1  C1  UNL     1     -34.377  16.908  -2.202  1.00 20.00    -0.003 C 
HETATM    2  C2  UNL     1     -33.193  17.479  -1.613  1.00 20.00     0.011 C 
HETATM    3  C3  UNL     1     -35.551  16.909  -1.560  1.00 20.00    -0.021 C 
HETATM    4  C4  UNL     1     -33.253  18.168  -0.463  1.00 20.00    -0.012 C 
HETATM    5  C8  UNL     1     -35.729  17.493  -0.178  1.00 20.00     0.016 C 
HETATM    6  C9  UNL     1     -34.539  18.386   0.306  1.00 20.00     0.051 C 
HETATM    7  C10 UNL     1     -37.047  18.274  -0.102  1.00 20.00     0.015 C 
ENDROOT
BRANCH   4   8
HETATM    8  C6  UNL     1     -32.001  18.784  -0.009  1.00 20.00     0.266 C 
HETATM    9  O11 UNL     1     -30.906  18.272  -0.207  1.00 20.00    -0.302 OA
ENDBRANCH   4   8
BRANCH   6  10
HETATM   10  C7  UNL     1     -34.355  18.188   1.788  1.00 20.00    -0.027 C 
HETATM   11  C5  UNL     1     -34.699  19.091   2.711  1.00 20.00     0.007 C 
ENDBRANCH   6  10
TORSDOF 2
ENDMDL
MODEL 5
REMARK VINA RESULT:      -4.6     11.620     12.309
REMARK  2 active torsions:
REMARK  status: ('A' for Active; 'I' for Inactive)
REMARK    1  A    between atoms: C4_4  and  C6_6 
REMARK    2  A    between atoms: C7_7  and  C9_9 
ROOT
HETATM    1  C1  UNL     1     -33.182  15.526  -3.853  1.00 20.00    -0.003 C 
HETATM    2  C2  UNL     1     -34.073  14.708  -4.635  1.00 20.00     0.011 C 
HETATM    3  C3  UNL     1     -33.643  16.466  -3.020  1.00 20.00    -0.021 C 
HETATM    4  C4  UNL     1     -35.400  14.752  -4.448  1.00 20.00    -0.012 C 
HETATM    5  C8  UNL     1     -35.116  16.751  -2.838  1.00 20.00     0.016 C 
HETATM    6  C9  UNL     1     -36.064  15.657  -3.432  1.00 20.00     0.051 C 
HETATM    7  C10 UNL     1     -35.429  16.981  -1.355  1.00 20.00     0.015 C 
ENDROOT
BRANCH   4   8
HETATM    8  C6  UNL     1     -36.199  13.805  -5.234  1.00 20.00     0.266 C 
HETATM    9  O11 UNL     1     -35.915  12.616  -5.320  1.00 20.00    -0.302 OA
ENDBRANCH   4   8
BRANCH   6  10
HETATM   10  C7  UNL     1     -37.292  16.330  -3.987  1.00 20.00    -0.027 C 
HETATM   11  C5  UNL     1     -37.261  17.413  -4.770  1.00 20.00     0.007 C 
ENDBRANCH   6  10
TORSDOF 2
ENDMDL
MODEL 6
REMARK VINA RESULT:      -4.5     11.519     12.953
REMARK  2 active torsions:
REMARK  status: ('A' for Active; 'I' for Inactive)
REMARK    1  A    between atoms: C4_4  and  C6_6 
REMARK    2  A    between atoms: C7_7  and  C9_9 
ROOT
HETATM    1  C1  UNL     1     -33.721  15.978  -3.636  1.00 20.00    -0.003 C 
HETATM    2  C2  UNL     1     -34.635  14.905  -3.931  1.00 20.00     0.011 C 
HETATM    3  C3  UNL     1     -33.337  16.852  -4.574  1.00 20.00    -0.021 C 
HETATM    4  C4  UNL     1     -35.255  14.829  -5.119  1.00 20.00    -0.012 C 
HETATM    5  C8  UNL     1     -33.817  16.782  -6.005  1.00 20.00     0.016 C 
HETATM    6  C9  UNL     1     -35.040  15.832  -6.232  1.00 20.00     0.051 C 
HETATM    7  C10 UNL     1     -34.132  18.190  -6.525  1.00 20.00     0.015 C 
ENDROOT
BRANCH   4   8
HETATM    8  C6  UNL     1     -36.236  13.748  -5.271  1.00 20.00     0.266 C 
HETATM    9  O11 UNL     1     -35.918  12.565  -5.265  1.00 20.00    -0.302 OA
ENDBRANCH   4   8
BRANCH   6  10
HETATM   10  C7  UNL     1     -34.894  15.167  -7.575  1.00 20.00    -0.027 C 
HETATM   11  C5  UNL     1     -33.886  14.352  -7.900  1.00 20.00     0.007 C 
ENDBRANCH   6  10
TORSDOF 2
ENDMDL
MODEL 7
REMARK VINA RESULT:      -4.4     11.378     12.362
REMARK  2 active torsions:
REMARK  status: ('A' for Active; 'I' for Inactive)
REMARK    1  A    between atoms: C4_4  and  C6_6 
REMARK    2  A    between atoms: C7_7  and  C9_9 
ROOT
HETATM    1  C1  UNL     1     -36.737  14.063  -4.974  1.00 20.00    -0.003 C 
HETATM    2  C2  UNL     1     -35.313  13.892  -4.842  1.00 20.00     0.011 C 
HETATM    3  C3  UNL     1     -37.370  15.114  -4.437  1.00 20.00    -0.021 C 
HETATM    4  C4  UNL     1     -34.544  14.853  -4.308  1.00 20.00    -0.012 C 
HETATM    5  C8  UNL     1     -36.654  16.188  -3.651  1.00 20.00     0.016 C 
HETATM    6  C9  UNL     1     -35.096  16.165  -3.794  1.00 20.00     0.051 C 
HETATM    7  C10 UNL     1     -37.204  17.570  -4.028  1.00 20.00     0.015 C 
ENDROOT
BRANCH   4   8
HETATM    8  C6  UNL     1     -33.098  14.605  -4.314  1.00 20.00     0.266 C 
HETATM    9  O11 UNL     1     -32.620  13.487  -4.167  1.00 20.00    -0.302 OA
ENDBRANCH   4   8
BRANCH   6  10
HETATM   10  C7  UNL     1     -34.483  16.562  -2.476  1.00 20.00    -0.027 C 
HETATM   11  C5  UNL     1     -35.191  16.837  -1.376  1.00 20.00     0.007 C 
ENDBRANCH   6  10
TORSDOF 2
ENDMDL
MODEL 8
REMARK VINA RESULT:      -4.4     11.830     12.699
REMARK  2 active torsions:
REMARK  status: ('A' for Active; 'I' for Inactive)
REMARK    1  A    between atoms: C4_4  and  C6_6 
REMARK    2  A    between atoms: C7_7  and  C9_9 
ROOT
HETATM    1  C1  UNL     1     -33.271  15.955  -5.941  1.00 20.00    -0.003 C 
HETATM    2  C2  UNL     1     -34.336  14.994  -6.065  1.00 20.00     0.011 C 
HETATM    3  C3  UNL     1     -33.219  16.818  -4.919  1.00 20.00    -0.021 C 
HETATM    4  C4  UNL     1     -35.236  14.824  -5.084  1.00 20.00    -0.012 C 
HETATM    5  C8  UNL     1     -34.265  16.862  -3.829  1.00 20.00     0.016 C 
HETATM    6  C9  UNL     1     -35.219  15.621  -3.797  1.00 20.00     0.051 C 
HETATM    7  C10 UNL     1     -33.595  17.055  -2.463  1.00 20.00     0.015 C 
ENDROOT
BRANCH   4   8
HETATM    8  C6  UNL     1     -36.217  13.751  -5.281  1.00 20.00     0.266 C 
HETATM    9  O11 UNL     1     -35.905  12.566  -5.283  1.00 20.00    -0.302 OA
ENDBRANCH   4   8
BRANCH   6  10
HETATM   10  C7  UNL     1     -36.596  16.080  -3.395  1.00 20.00    -0.027 C 
HETATM   11  C5  UNL     1     -37.182  17.186  -3.863  1.00 20.00     0.007 C 
ENDBRANCH   6  10
TORSDOF 2
ENDMDL
MODEL 9
REMARK VINA RESULT:      -4.1     11.555     12.417
REMARK  2 active torsions:
REMARK  status: ('A' for Active; 'I' for Inactive)
REMARK    1  A    between atoms: C4_4  and  C6_6 
REMARK    2  A    between atoms: C7_7  and  C9_9 
ROOT
HETATM    1  C1  UNL     1     -37.244  16.487  -3.799  1.00 20.00    -0.003 C 
HETATM    2  C2  UNL     1     -36.178  16.957  -2.951  1.00 20.00     0.011 C 
HETATM    3  C3  UNL     1     -37.045  15.527  -4.709  1.00 20.00    -0.021 C 
HETATM    4  C4  UNL     1     -34.983  16.347  -2.936  1.00 20.00    -0.012 C 
HETATM    5  C8  UNL     1     -35.702  14.870  -4.928  1.00 20.00     0.016 C 
HETATM    6  C9  UNL     1     -34.653  15.149  -3.801  1.00 20.00     0.051 C 
HETATM    7  C10 UNL     1     -35.881  13.360  -5.128  1.00 20.00     0.015 C 
ENDROOT
BRANCH   4   8
HETATM    8  C6  UNL     1     -34.008  16.853  -1.964  1.00 20.00     0.266 C 
HETATM    9  O11 UNL     1     -34.334  17.262  -0.856  1.00 20.00    -0.302 OA
ENDBRANCH   4   8
BRANCH   6  10
HETATM   10  C7  UNL     1     -33.287  15.258  -4.425  1.00 20.00    -0.027 C 
HETATM   11  C5  UNL     1     -33.058  15.783  -5.633  1.00 20.00     0.007 C 
ENDBRANCH   6  10
TORSDOF 2
ENDMDL
