MODEL 1
REMARK VINA RESULT:      -5.6      0.000      0.000
REMARK  1 active torsions:
REMARK  status: ('A' for Active; 'I' for Inactive)
REMARK    1  A    between atoms: C4_4  and  C5_5 
ROOT
HETATM    1  C1  UNL     1     -35.604   6.087   3.740  1.00 20.00    -0.022 C 
HETATM    2  C2  UNL     1     -35.072   6.186   2.505  1.00 20.00    -0.021 C 
HETATM    3  C3  UNL     1     -33.522   6.989   4.715  1.00 20.00    -0.006 C 
HETATM    4  C4  UNL     1     -32.997   7.078   3.478  1.00 20.00     0.009 C 
HETATM    5  C6  UNL     1     -33.835   4.561   4.498  1.00 20.00     0.013 C 
HETATM    6  C7  UNL     1     -33.220   4.674   3.064  1.00 20.00     0.014 C 
HETATM    7  C8  UNL     1     -34.570   5.887   4.845  1.00 20.00     0.031 C 
HETATM    8  C9  UNL     1     -33.550   6.076   2.477  1.00 20.00     0.045 C 
ENDROOT
BRANCH   4   9
HETATM    9  C5  UNL     1     -31.973   8.054   3.142  1.00 20.00     0.248 C 
HETATM   10  O10 UNL     1     -31.201   8.457   4.026  1.00 20.00    -0.274 OA
HETATM   11 CL11 UNL     1     -31.901   8.607   1.477  1.00 20.00    -0.039 Cl
ENDBRANCH   4   9
TORSDOF 1
ENDMDL
MODEL 2
REMARK VINA RESULT:      -4.7     11.463     12.485
REMARK  1 active torsions:
REMARK  status: ('A' for Active; 'I' for Inactive)
REMARK    1  A    between atoms: C4_4  and  C5_5 
ROOT
HETATM    1  C1  UNL     1     -33.705  17.024  -4.532  1.00 20.00    -0.022 C 
HETATM    2  C2  UNL     1     -34.933  17.256  -5.040  1.00 20.00    -0.021 C 
HETATM    3  C3  UNL     1     -34.369  14.715  -3.965  1.00 20.00    -0.006 C 
HETATM    4  C4  UNL     1     -35.594  14.957  -4.469  1.00 20.00     0.009 C 
HETATM    5  C6  UNL     1     -34.604  16.512  -2.304  1.00 20.00     0.013 C 
HETATM    6  C7  UNL     1     -36.028  16.783  -2.894  1.00 20.00     0.014 C 
HETATM    7  C8  UNL     1     -33.680  15.967  -3.431  1.00 20.00     0.031 C 
HETATM    8  C9  UNL     1     -36.033  16.411  -4.404  1.00 20.00     0.045 C 
ENDROOT
BRANCH   4   9
HETATM    9  C5  UNL     1     -36.427  13.899  -5.018  1.00 20.00     0.248 C 
HETATM   10  O10 UNL     1     -35.928  12.786  -5.243  1.00 20.00    -0.274 OA
HETATM   11 CL11 UNL     1     -38.112  14.280  -5.332  1.00 20.00    -0.039 Cl
ENDBRANCH   4   9
TORSDOF 1
ENDMDL
MODEL 3
REMARK VINA RESULT:      -4.7     11.543     12.486
REMARK  1 active torsions:
REMARK  status: ('A' for Active; 'I' for Inactive)
REMARK    1  A    between atoms: C4_4  and  C5_5 
ROOT
HETATM    1  C1  UNL     1     -33.678  17.263  -4.414  1.00 20.00    -0.022 C 
HETATM    2  C2  UNL     1     -34.730  17.220  -5.257  1.00 20.00    -0.021 C 
HETATM    3  C3  UNL     1     -33.835  14.820  -4.085  1.00 20.00    -0.006 C 
HETATM    4  C4  UNL     1     -34.889  14.789  -4.923  1.00 20.00     0.009 C 
HETATM    5  C6  UNL     1     -34.993  16.352  -2.551  1.00 20.00     0.013 C 
HETATM    6  C7  UNL     1     -36.214  16.306  -3.528  1.00 20.00     0.014 C 
HETATM    7  C8  UNL     1     -33.681  16.156  -3.363  1.00 20.00     0.031 C 
HETATM    8  C9  UNL     1     -35.699  16.074  -4.977  1.00 20.00     0.045 C 
ENDROOT
BRANCH   4   9
HETATM    9  C5  UNL     1     -35.223  13.606  -5.700  1.00 20.00     0.248 C 
HETATM   10  O10 UNL     1     -35.969  12.745  -5.208  1.00 20.00    -0.274 OA
HETATM   11 CL11 UNL     1     -34.532  13.476  -7.308  1.00 20.00    -0.039 Cl
ENDBRANCH   4   9
TORSDOF 1
ENDMDL
MODEL 4
REMARK VINA RESULT:      -4.6     11.538     12.671
REMARK  1 active torsions:
REMARK  status: ('A' for Active; 'I' for Inactive)
REMARK    1  A    between atoms: C4_4  and  C5_5 
ROOT
HETATM    1  C1  UNL     1     -34.807  17.356  -3.486  1.00 20.00    -0.022 C 
HETATM    2  C2  UNL     1     -34.694  16.173  -2.848  1.00 20.00    -0.021 C 
HETATM    3  C3  UNL     1     -35.745  16.209  -5.461  1.00 20.00    -0.006 C 
HETATM    4  C4  UNL     1     -35.622  15.032  -4.819  1.00 20.00     0.009 C 
HETATM    5  C6  UNL     1     -33.329  16.638  -5.311  1.00 20.00     0.013 C 
HETATM    6  C7  UNL     1     -33.196  15.267  -4.569  1.00 20.00     0.014 C 
HETATM    7  C8  UNL     1     -34.725  17.250  -5.006  1.00 20.00     0.031 C 
HETATM    8  C9  UNL     1     -34.509  14.982  -3.785  1.00 20.00     0.045 C 
ENDROOT
BRANCH   4   9
HETATM    9  C5  UNL     1     -36.486  13.899  -5.110  1.00 20.00     0.248 C 
HETATM   10  O10 UNL     1     -35.987  12.772  -5.251  1.00 20.00    -0.274 OA
HETATM   11 CL11 UNL     1     -38.208  14.213  -5.247  1.00 20.00    -0.039 Cl
ENDBRANCH   4   9
TORSDOF 1
ENDMDL
MODEL 5
REMARK VINA RESULT:      -4.6     11.279     12.348
REMARK  1 active torsions:
REMARK  status: ('A' for Active; 'I' for Inactive)
REMARK    1  A    between atoms: C4_4  and  C5_5 
ROOT
HETATM    1  C1  UNL     1     -34.401  18.530  -3.414  1.00 20.00    -0.022 C 
HETATM    2  C2  UNL     1     -35.663  18.064  -3.502  1.00 20.00    -0.021 C 
HETATM    3  C3  UNL     1     -33.539  16.216  -3.429  1.00 20.00    -0.006 C 
HETATM    4  C4  UNL     1     -34.804  15.760  -3.511  1.00 20.00     0.009 C 
HETATM    5  C6  UNL     1     -33.997  17.351  -1.297  1.00 20.00     0.013 C 
HETATM    6  C7  UNL     1     -35.463  16.813  -1.399  1.00 20.00     0.014 C 
HETATM    7  C8  UNL     1     -33.432  17.568  -2.730  1.00 20.00     0.031 C 
HETATM    8  C9  UNL     1     -35.852  16.675  -2.899  1.00 20.00     0.045 C 
ENDROOT
BRANCH   4   9
HETATM    9  C5  UNL     1     -35.127  14.484  -4.128  1.00 20.00     0.248 C 
HETATM   10  O10 UNL     1     -34.297  13.562  -4.091  1.00 20.00    -0.274 OA
HETATM   11 CL11 UNL     1     -36.697  14.335  -4.900  1.00 20.00    -0.039 Cl
ENDBRANCH   4   9
TORSDOF 1
ENDMDL
MODEL 6
REMARK VINA RESULT:      -4.6     11.030     12.217
REMARK  1 active torsions:
REMARK  status: ('A' for Active; 'I' for Inactive)
REMARK    1  A    between atoms: C4_4  and  C5_5 
ROOT
HETATM    1  C1  UNL     1     -35.413  17.265  -1.413  1.00 20.00    -0.022 C 
HETATM    2  C2  UNL     1     -34.106  16.975  -1.573  1.00 20.00    -0.021 C 
HETATM    3  C3  UNL     1     -35.971  15.841  -3.352  1.00 20.00    -0.006 C 
HETATM    4  C4  UNL     1     -34.662  15.563  -3.507  1.00 20.00     0.009 C 
HETATM    5  C6  UNL     1     -35.581  18.250  -3.657  1.00 20.00     0.013 C 
HETATM    6  C7  UNL     1     -34.063  17.915  -3.840  1.00 20.00     0.014 C 
HETATM    7  C8  UNL     1     -36.223  17.200  -2.705  1.00 20.00     0.031 C 
HETATM    8  C9  UNL     1     -33.717  16.646  -3.011  1.00 20.00     0.045 C 
ENDROOT
BRANCH   4   9
HETATM    9  C5  UNL     1     -34.202  14.325  -4.115  1.00 20.00     0.248 C 
HETATM   10  O10 UNL     1     -35.035  13.483  -4.488  1.00 20.00    -0.274 OA
HETATM   11 CL11 UNL     1     -32.469  14.102  -4.280  1.00 20.00    -0.039 Cl
ENDBRANCH   4   9
TORSDOF 1
ENDMDL
MODEL 7
REMARK VINA RESULT:      -4.4     11.121     12.056
REMARK  1 active torsions:
REMARK  status: ('A' for Active; 'I' for Inactive)
REMARK    1  A    between atoms: C4_4  and  C5_5 
ROOT
HETATM    1  C1  UNL     1     -35.001  16.158  -5.790  1.00 20.00    -0.022 C 
HETATM    2  C2  UNL     1     -33.731  16.384  -5.394  1.00 20.00    -0.021 C 
HETATM    3  C3  UNL     1     -35.733  16.113  -3.432  1.00 20.00    -0.006 C 
HETATM    4  C4  UNL     1     -34.461  16.332  -3.047  1.00 20.00     0.009 C 
HETATM    5  C6  UNL     1     -35.116  14.026  -4.576  1.00 20.00     0.013 C 
HETATM    6  C7  UNL     1     -33.642  14.288  -4.120  1.00 20.00     0.014 C 
HETATM    7  C8  UNL     1     -35.839  15.389  -4.772  1.00 20.00     0.031 C 
HETATM    8  C9  UNL     1     -33.405  15.821  -4.014  1.00 20.00     0.045 C 
ENDROOT
BRANCH   4   9
HETATM    9  C5  UNL     1     -34.136  16.996  -1.795  1.00 20.00     0.248 C 
HETATM   10  O10 UNL     1     -32.999  17.465  -1.631  1.00 20.00    -0.274 OA
HETATM   11 CL11 UNL     1     -35.399  17.086  -0.578  1.00 20.00    -0.039 Cl
ENDBRANCH   4   9
TORSDOF 1
ENDMDL
MODEL 8
REMARK VINA RESULT:      -4.4      0.775      2.070
REMARK  1 active torsions:
REMARK  status: ('A' for Active; 'I' for Inactive)
REMARK    1  A    between atoms: C4_4  and  C5_5 
ROOT
HETATM    1  C1  UNL     1     -34.000   5.144   5.413  1.00 20.00    -0.022 C 
HETATM    2  C2  UNL     1     -33.959   6.449   5.752  1.00 20.00    -0.021 C 
HETATM    3  C3  UNL     1     -33.006   5.679   3.216  1.00 20.00    -0.006 C 
HETATM    4  C4  UNL     1     -32.976   6.980   3.561  1.00 20.00     0.009 C 
HETATM    5  C6  UNL     1     -35.448   5.579   3.478  1.00 20.00     0.013 C 
HETATM    6  C7  UNL     1     -35.403   7.092   3.874  1.00 20.00     0.014 C 
HETATM    7  C8  UNL     1     -34.118   4.899   3.910  1.00 20.00     0.031 C 
HETATM    8  C9  UNL     1     -34.042   7.399   4.561  1.00 20.00     0.045 C 
ENDROOT
BRANCH   4   9
HETATM    9  C5  UNL     1     -32.001   7.905   3.005  1.00 20.00     0.248 C 
HETATM   10  O10 UNL     1     -31.000   8.209   3.672  1.00 20.00    -0.274 OA
HETATM   11 CL11 UNL     1     -32.317   8.540   1.399  1.00 20.00    -0.039 Cl
ENDBRANCH   4   9
TORSDOF 1
ENDMDL
MODEL 9
REMARK VINA RESULT:      -4.3     11.683     12.504
REMARK  1 active torsions:
REMARK  status: ('A' for Active; 'I' for Inactive)
REMARK    1  A    between atoms: C4_4  and  C5_5 
ROOT
HETATM    1  C1  UNL     1     -35.847  18.173  -2.820  1.00 20.00    -0.022 C 
HETATM    2  C2  UNL     1     -34.723  18.777  -3.255  1.00 20.00    -0.021 C 
HETATM    3  C3  UNL     1     -34.632  17.319  -0.847  1.00 20.00    -0.006 C 
HETATM    4  C4  UNL     1     -33.513  17.920  -1.293  1.00 20.00     0.009 C 
HETATM    5  C6  UNL     1     -34.807  15.949  -2.881  1.00 20.00     0.013 C 
HETATM    6  C7  UNL     1     -33.503  16.651  -3.388  1.00 20.00     0.014 C 
HETATM    7  C8  UNL     1     -35.593  16.932  -1.968  1.00 20.00     0.031 C 
HETATM    8  C9  UNL     1     -33.438  18.090  -2.802  1.00 20.00     0.045 C 
ENDROOT
BRANCH   4   9
HETATM    9  C5  UNL     1     -32.459  18.359  -0.392  1.00 20.00     0.248 C 
HETATM   10  O10 UNL     1     -31.273  18.209  -0.723  1.00 20.00    -0.274 OA
HETATM   11 CL11 UNL     1     -32.949  19.080   1.132  1.00 20.00    -0.039 Cl
ENDBRANCH   4   9
TORSDOF 1
ENDMDL
