MODEL 1
REMARK VINA RESULT:      -4.1      0.000      0.000
REMARK  1 active torsions:
REMARK  status: ('A' for Active; 'I' for Inactive)
REMARK    1  A    between atoms: C6_6  and  N10_10 
ROOT
HETATM    1  C1  UNL     1     -35.472  13.918  -4.952  1.00 20.00     0.066 C 
HETATM    2  C2  UNL     1     -34.099  16.236  -3.008  1.00 20.00    -0.054 C 
HETATM    3  C3  UNL     1     -33.530  17.135  -2.202  1.00 20.00     0.016 C 
HETATM    4  C4  UNL     1     -33.527  15.197  -3.951  1.00 20.00     0.057 C 
HETATM    5  C5  UNL     1     -34.940  15.220  -4.599  1.00 20.00     0.134 C 
HETATM    6  C6  UNL     1     -35.532  15.845  -3.298  1.00 20.00     0.268 C 
HETATM    7  N9  UNL     1     -35.898  12.876  -5.233  1.00 20.00    -0.197 NA
ENDROOT
BRANCH   6   8
HETATM    8  N10 UNL     1     -36.376  16.971  -3.687  1.00 20.00     0.089 N 
HETATM    9  C7  UNL     1     -36.761  17.754  -2.512  1.00 20.00     0.310 C 
HETATM   10  C8  UNL     1     -37.565  16.500  -4.397  1.00 20.00     0.310 C 
ENDBRANCH   6   8
TORSDOF 1
ENDMDL
MODEL 2
REMARK VINA RESULT:      -4.0     11.345     12.125
REMARK  1 active torsions:
REMARK  status: ('A' for Active; 'I' for Inactive)
REMARK    1  A    between atoms: C6_6  and  N10_10 
ROOT
HETATM    1  C1  UNL     1     -32.544   8.016   1.893  1.00 20.00     0.066 C 
HETATM    2  C2  UNL     1     -33.971   5.583   3.650  1.00 20.00    -0.054 C 
HETATM    3  C3  UNL     1     -34.576   4.605   4.326  1.00 20.00     0.016 C 
HETATM    4  C4  UNL     1     -33.313   5.633   2.286  1.00 20.00     0.057 C 
HETATM    5  C5  UNL     1     -32.616   6.912   2.831  1.00 20.00     0.134 C 
HETATM    6  C6  UNL     1     -33.715   7.049   3.930  1.00 20.00     0.268 C 
HETATM    7  N9  UNL     1     -32.488   8.898   1.143  1.00 20.00    -0.197 NA
ENDROOT
BRANCH   6   8
HETATM    8  N10 UNL     1     -33.045   7.290   5.204  1.00 20.00     0.089 N 
HETATM    9  C7  UNL     1     -34.016   7.313   6.298  1.00 20.00     0.310 C 
HETATM   10  C8  UNL     1     -32.298   8.548   5.161  1.00 20.00     0.310 C 
ENDBRANCH   6   8
TORSDOF 1
ENDMDL
MODEL 3
REMARK VINA RESULT:      -3.8      2.220      3.612
REMARK  1 active torsions:
REMARK  status: ('A' for Active; 'I' for Inactive)
REMARK    1  A    between atoms: C6_6  and  N10_10 
ROOT
HETATM    1  C1  UNL     1     -37.281  14.231  -4.945  1.00 20.00     0.066 C 
HETATM    2  C2  UNL     1     -34.362  15.817  -4.933  1.00 20.00    -0.054 C 
HETATM    3  C3  UNL     1     -33.211  16.492  -4.920  1.00 20.00     0.016 C 
HETATM    4  C4  UNL     1     -35.377  15.499  -3.855  1.00 20.00     0.057 C 
HETATM    5  C5  UNL     1     -35.844  14.380  -4.827  1.00 20.00     0.134 C 
HETATM    6  C6  UNL     1     -35.158  15.121  -6.017  1.00 20.00     0.268 C 
HETATM    7  N9  UNL     1     -38.432  14.113  -5.038  1.00 20.00    -0.197 NA
ENDROOT
BRANCH   6   8
HETATM    8  N10 UNL     1     -34.383  14.138  -6.769  1.00 20.00     0.089 N 
HETATM    9  C7  UNL     1     -33.724  14.771  -7.912  1.00 20.00     0.310 C 
HETATM   10  C8  UNL     1     -35.243  13.043  -7.219  1.00 20.00     0.310 C 
ENDBRANCH   6   8
TORSDOF 1
ENDMDL
MODEL 4
REMARK VINA RESULT:      -3.7      2.350      3.057
REMARK  1 active torsions:
REMARK  status: ('A' for Active; 'I' for Inactive)
REMARK    1  A    between atoms: C6_6  and  N10_10 
ROOT
HETATM    1  C1  UNL     1     -35.187  13.747  -5.104  1.00 20.00     0.066 C 
HETATM    2  C2  UNL     1     -33.985  16.777  -4.462  1.00 20.00    -0.054 C 
HETATM    3  C3  UNL     1     -33.537  18.001  -4.177  1.00 20.00     0.016 C 
HETATM    4  C4  UNL     1     -34.140  15.521  -3.629  1.00 20.00     0.057 C 
HETATM    5  C5  UNL     1     -34.187  14.792  -5.001  1.00 20.00     0.134 C 
HETATM    6  C6  UNL     1     -34.558  16.133  -5.707  1.00 20.00     0.268 C 
HETATM    7  N9  UNL     1     -35.988  12.911  -5.186  1.00 20.00    -0.197 NA
ENDROOT
BRANCH   6   8
HETATM    8  N10 UNL     1     -33.702  16.272  -6.881  1.00 20.00     0.089 N 
HETATM    9  C7  UNL     1     -33.953  17.549  -7.550  1.00 20.00     0.310 C 
HETATM   10  C8  UNL     1     -33.919  15.161  -7.808  1.00 20.00     0.310 C 
ENDBRANCH   6   8
TORSDOF 1
ENDMDL
MODEL 5
REMARK VINA RESULT:      -3.7      1.203      1.312
REMARK  1 active torsions:
REMARK  status: ('A' for Active; 'I' for Inactive)
REMARK    1  A    between atoms: C6_6  and  N10_10 
ROOT
HETATM    1  C1  UNL     1     -34.497  14.022  -6.144  1.00 20.00     0.066 C 
HETATM    2  C2  UNL     1     -34.325  15.914  -3.418  1.00 20.00    -0.054 C 
HETATM    3  C3  UNL     1     -34.247  16.638  -2.300  1.00 20.00     0.016 C 
HETATM    4  C4  UNL     1     -33.293  15.145  -4.217  1.00 20.00     0.057 C 
HETATM    5  C5  UNL     1     -34.330  15.238  -5.371  1.00 20.00     0.134 C 
HETATM    6  C6  UNL     1     -35.463  15.523  -4.337  1.00 20.00     0.268 C 
HETATM    7  N9  UNL     1     -34.629  13.049  -6.761  1.00 20.00    -0.197 NA
ENDROOT
BRANCH   6   8
HETATM    8  N10 UNL     1     -36.237  16.662  -4.823  1.00 20.00     0.089 N 
HETATM    9  C7  UNL     1     -37.265  17.035  -3.852  1.00 20.00     0.310 C 
HETATM   10  C8  UNL     1     -36.847  16.352  -6.117  1.00 20.00     0.310 C 
ENDBRANCH   6   8
TORSDOF 1
ENDMDL
MODEL 6
REMARK VINA RESULT:      -3.6      1.439      2.241
REMARK  1 active torsions:
REMARK  status: ('A' for Active; 'I' for Inactive)
REMARK    1  A    between atoms: C6_6  and  N10_10 
ROOT
HETATM    1  C1  UNL     1     -37.353  14.495  -5.072  1.00 20.00     0.066 C 
HETATM    2  C2  UNL     1     -34.065  14.584  -4.605  1.00 20.00    -0.054 C 
HETATM    3  C3  UNL     1     -32.744  14.575  -4.411  1.00 20.00     0.016 C 
HETATM    4  C4  UNL     1     -34.945  14.013  -5.698  1.00 20.00     0.057 C 
HETATM    5  C5  UNL     1     -36.005  15.020  -5.169  1.00 20.00     0.134 C 
HETATM    6  C6  UNL     1     -35.238  15.122  -3.814  1.00 20.00     0.268 C 
HETATM    7  N9  UNL     1     -38.431  14.073  -4.995  1.00 20.00    -0.197 NA
ENDROOT
BRANCH   6   8
HETATM    8  N10 UNL     1     -35.112  16.537  -3.477  1.00 20.00     0.089 N 
HETATM    9  C7  UNL     1     -34.254  16.711  -2.305  1.00 20.00     0.310 C 
HETATM   10  C8  UNL     1     -36.430  17.125  -3.234  1.00 20.00     0.310 C 
ENDBRANCH   6   8
TORSDOF 1
ENDMDL
MODEL 7
REMARK VINA RESULT:      -3.6      2.519      4.459
REMARK  1 active torsions:
REMARK  status: ('A' for Active; 'I' for Inactive)
REMARK    1  A    between atoms: C6_6  and  N10_10 
ROOT
HETATM    1  C1  UNL     1     -32.792  18.157  -1.352  1.00 20.00     0.066 C 
HETATM    2  C2  UNL     1     -34.979  16.332  -3.061  1.00 20.00    -0.054 C 
HETATM    3  C3  UNL     1     -35.843  15.563  -3.727  1.00 20.00     0.016 C 
HETATM    4  C4  UNL     1     -34.845  16.692  -1.596  1.00 20.00     0.057 C 
HETATM    5  C5  UNL     1     -33.993  17.884  -2.116  1.00 20.00     0.134 C 
HETATM    6  C6  UNL     1     -33.761  17.134  -3.465  1.00 20.00     0.268 C 
HETATM    7  N9  UNL     1     -31.831  18.375  -0.740  1.00 20.00    -0.197 NA
ENDROOT
BRANCH   6   8
HETATM    8  N10 UNL     1     -34.017  18.077  -4.550  1.00 20.00     0.089 N 
HETATM    9  C7  UNL     1     -33.882  17.414  -5.848  1.00 20.00     0.310 C 
HETATM   10  C8  UNL     1     -33.105  19.218  -4.465  1.00 20.00     0.310 C 
ENDBRANCH   6   8
TORSDOF 1
ENDMDL
MODEL 8
REMARK VINA RESULT:      -3.6      1.140      3.408
REMARK  1 active torsions:
REMARK  status: ('A' for Active; 'I' for Inactive)
REMARK    1  A    between atoms: C6_6  and  N10_10 
ROOT
HETATM    1  C1  UNL     1     -36.673  17.201  -3.213  1.00 20.00     0.066 C 
HETATM    2  C2  UNL     1     -34.135  15.212  -4.012  1.00 20.00    -0.054 C 
HETATM    3  C3  UNL     1     -33.092  14.449  -4.343  1.00 20.00     0.016 C 
HETATM    4  C4  UNL     1     -34.365  16.206  -2.892  1.00 20.00     0.057 C 
HETATM    5  C5  UNL     1     -35.872  15.993  -3.209  1.00 20.00     0.134 C 
HETATM    6  C6  UNL     1     -35.502  15.441  -4.620  1.00 20.00     0.268 C 
HETATM    7  N9  UNL     1     -37.313  18.169  -3.217  1.00 20.00    -0.197 NA
ENDROOT
BRANCH   6   8
HETATM    8  N10 UNL     1     -36.259  14.210  -4.832  1.00 20.00     0.089 N 
HETATM    9  C7  UNL     1     -35.756  13.494  -6.005  1.00 20.00     0.310 C 
HETATM   10  C8  UNL     1     -37.684  14.506  -4.988  1.00 20.00     0.310 C 
ENDBRANCH   6   8
TORSDOF 1
ENDMDL
MODEL 9
REMARK VINA RESULT:      -3.5      1.472      3.036
REMARK  1 active torsions:
REMARK  status: ('A' for Active; 'I' for Inactive)
REMARK    1  A    between atoms: C6_6  and  N10_10 
ROOT
HETATM    1  C1  UNL     1     -35.438  13.232  -6.177  1.00 20.00     0.066 C 
HETATM    2  C2  UNL     1     -36.545  15.729  -4.286  1.00 20.00    -0.054 C 
HETATM    3  C3  UNL     1     -37.014  16.747  -3.562  1.00 20.00     0.016 C 
HETATM    4  C4  UNL     1     -37.211  14.514  -4.899  1.00 20.00     0.057 C 
HETATM    5  C5  UNL     1     -35.770  13.932  -4.952  1.00 20.00     0.134 C 
HETATM    6  C6  UNL     1     -35.180  15.372  -4.833  1.00 20.00     0.268 C 
HETATM    7  N9  UNL     1     -35.172  12.672  -7.158  1.00 20.00    -0.197 NA
ENDROOT
BRANCH   6   8
HETATM    8  N10 UNL     1     -34.134  15.344  -3.815  1.00 20.00     0.089 N 
HETATM    9  C7  UNL     1     -33.705  16.702  -3.482  1.00 20.00     0.310 C 
HETATM   10  C8  UNL     1     -32.994  14.548  -4.272  1.00 20.00     0.310 C 
ENDBRANCH   6   8
TORSDOF 1
ENDMDL
