MODEL 1
REMARK VINA RESULT:      -5.3      0.000      0.000
REMARK  2 active torsions:
REMARK  status: ('A' for Active; 'I' for Inactive)
REMARK    1  A    between atoms: C5_5  and  O9_9 
REMARK    2  A    between atoms: C8_8  and  O9_9 
ROOT
HETATM    1  C1  UNL     1     -33.977   7.159   5.957  1.00 20.00    -0.028 C 
HETATM    2  C2  UNL     1     -33.196   7.632   4.975  1.00 20.00     0.002 C 
HETATM    3  C3  UNL     1     -34.672   5.834   5.888  1.00 20.00     0.028 C 
HETATM    4  C4  UNL     1     -34.136   4.934   4.771  1.00 20.00     0.022 C 
HETATM    5  C5  UNL     1     -32.957   6.899   3.683  1.00 20.00     0.158 C 
HETATM    6  C6  UNL     1     -33.929   5.729   3.487  1.00 20.00     0.090 C 
HETATM    7 BR10 UNL     1     -33.222   4.524   2.108  1.00 20.00    -0.088 Br
ENDROOT
BRANCH   5   8
HETATM    8  O9  UNL     1     -33.132   7.811   2.598  1.00 20.00    -0.381 OA
BRANCH   8   9
HETATM    9  C8  UNL     1     -31.910   8.444   2.255  1.00 20.00     0.164 C 
HETATM   10  C7  UNL     1     -32.149   9.381   1.089  1.00 20.00     0.033 C 
ENDBRANCH   8   9
ENDBRANCH   5   8
TORSDOF 2
ENDMDL
MODEL 2
REMARK VINA RESULT:      -4.3      1.940      2.567
REMARK  2 active torsions:
REMARK  status: ('A' for Active; 'I' for Inactive)
REMARK    1  A    between atoms: C5_5  and  O9_9 
REMARK    2  A    between atoms: C8_8  and  O9_9 
ROOT
HETATM    1  C1  UNL     1     -33.827   4.743   2.823  1.00 20.00    -0.028 C 
HETATM    2  C2  UNL     1     -33.485   6.015   2.574  1.00 20.00     0.002 C 
HETATM    3  C3  UNL     1     -34.188   4.242   4.188  1.00 20.00     0.028 C 
HETATM    4  C4  UNL     1     -34.470   5.369   5.185  1.00 20.00     0.022 C 
HETATM    5  C5  UNL     1     -33.397   7.072   3.642  1.00 20.00     0.158 C 
HETATM    6  C6  UNL     1     -33.432   6.479   5.055  1.00 20.00     0.090 C 
HETATM    7 BR10 UNL     1     -33.864   7.898   6.342  1.00 20.00    -0.088 Br
ENDROOT
BRANCH   5   8
HETATM    8  O9  UNL     1     -32.166   7.780   3.486  1.00 20.00    -0.381 OA
BRANCH   8   9
HETATM    9  C8  UNL     1     -31.876   8.014   2.117  1.00 20.00     0.164 C 
HETATM   10  C7  UNL     1     -32.330   9.410   1.747  1.00 20.00     0.033 C 
ENDBRANCH   8   9
ENDBRANCH   5   8
TORSDOF 2
ENDMDL
MODEL 3
REMARK VINA RESULT:      -3.9     11.977     13.189
REMARK  2 active torsions:
REMARK  status: ('A' for Active; 'I' for Inactive)
REMARK    1  A    between atoms: C5_5  and  O9_9 
REMARK    2  A    between atoms: C8_8  and  O9_9 
ROOT
HETATM    1  C1  UNL     1     -34.329  13.990  -7.918  1.00 20.00    -0.028 C 
HETATM    2  C2  UNL     1     -34.958  13.258  -6.988  1.00 20.00     0.002 C 
HETATM    3  C3  UNL     1     -33.776  15.358  -7.652  1.00 20.00     0.028 C 
HETATM    4  C4  UNL     1     -33.685  15.687  -6.160  1.00 20.00     0.022 C 
HETATM    5  C5  UNL     1     -35.207  13.741  -5.585  1.00 20.00     0.158 C 
HETATM    6  C6  UNL     1     -34.949  15.244  -5.429  1.00 20.00     0.090 C 
HETATM    7 BR10 UNL     1     -34.757  15.675  -3.523  1.00 20.00    -0.088 Br
ENDROOT
BRANCH   5   8
HETATM    8  O9  UNL     1     -36.571  13.486  -5.247  1.00 20.00    -0.381 OA
BRANCH   8   9
HETATM    9  C8  UNL     1     -37.442  14.403  -5.892  1.00 20.00     0.164 C 
HETATM   10  C7  UNL     1     -38.598  14.720  -4.967  1.00 20.00     0.033 C 
ENDBRANCH   8   9
ENDBRANCH   5   8
TORSDOF 2
ENDMDL
MODEL 4
REMARK VINA RESULT:      -3.9      2.038      3.264
REMARK  2 active torsions:
REMARK  status: ('A' for Active; 'I' for Inactive)
REMARK    1  A    between atoms: C5_5  and  O9_9 
REMARK    2  A    between atoms: C8_8  and  O9_9 
ROOT
HETATM    1  C1  UNL     1     -34.524   6.406   5.743  1.00 20.00    -0.028 C 
HETATM    2  C2  UNL     1     -34.912   6.149   4.486  1.00 20.00     0.002 C 
HETATM    3  C3  UNL     1     -33.341   7.262   6.079  1.00 20.00     0.028 C 
HETATM    4  C4  UNL     1     -32.841   8.086   4.889  1.00 20.00     0.022 C 
HETATM    5  C5  UNL     1     -34.185   6.665   3.274  1.00 20.00     0.158 C 
HETATM    6  C6  UNL     1     -32.806   7.240   3.621  1.00 20.00     0.090 C 
HETATM    7 BR10 UNL     1     -32.179   8.359   2.134  1.00 20.00    -0.088 Br
ENDROOT
BRANCH   5   8
HETATM    8  O9  UNL     1     -34.000   5.586   2.356  1.00 20.00    -0.381 OA
BRANCH   8   9
HETATM    9  C8  UNL     1     -33.007   4.682   2.816  1.00 20.00     0.164 C 
HETATM   10  C7  UNL     1     -33.671   3.596   3.636  1.00 20.00     0.033 C 
ENDBRANCH   8   9
ENDBRANCH   5   8
TORSDOF 2
ENDMDL
MODEL 5
REMARK VINA RESULT:      -3.8     11.421     12.292
REMARK  2 active torsions:
REMARK  status: ('A' for Active; 'I' for Inactive)
REMARK    1  A    between atoms: C5_5  and  O9_9 
REMARK    2  A    between atoms: C8_8  and  O9_9 
ROOT
HETATM    1  C1  UNL     1     -33.664  15.494  -3.708  1.00 20.00    -0.028 C 
HETATM    2  C2  UNL     1     -34.002  14.311  -4.240  1.00 20.00     0.002 C 
HETATM    3  C3  UNL     1     -34.644  16.607  -3.488  1.00 20.00     0.028 C 
HETATM    4  C4  UNL     1     -36.102  16.150  -3.597  1.00 20.00     0.022 C 
HETATM    5  C5  UNL     1     -35.394  13.981  -4.705  1.00 20.00     0.158 C 
HETATM    6  C6  UNL     1     -36.291  15.221  -4.792  1.00 20.00     0.090 C 
HETATM    7 BR10 UNL     1     -38.171  14.658  -4.859  1.00 20.00    -0.088 Br
ENDROOT
BRANCH   5   8
HETATM    8  O9  UNL     1     -35.317  13.395  -6.005  1.00 20.00    -0.381 OA
BRANCH   8   9
HETATM    9  C8  UNL     1     -35.173  14.387  -7.010  1.00 20.00     0.164 C 
HETATM   10  C7  UNL     1     -34.021  14.008  -7.917  1.00 20.00     0.033 C 
ENDBRANCH   8   9
ENDBRANCH   5   8
TORSDOF 2
ENDMDL
MODEL 6
REMARK VINA RESULT:      -3.7     11.830     12.534
REMARK  2 active torsions:
REMARK  status: ('A' for Active; 'I' for Inactive)
REMARK    1  A    between atoms: C5_5  and  O9_9 
REMARK    2  A    between atoms: C8_8  and  O9_9 
ROOT
HETATM    1  C1  UNL     1     -34.289  17.303  -1.147  1.00 20.00    -0.028 C 
HETATM    2  C2  UNL     1     -35.133  16.576  -1.892  1.00 20.00     0.002 C 
HETATM    3  C3  UNL     1     -33.164  18.107  -1.727  1.00 20.00     0.028 C 
HETATM    4  C4  UNL     1     -33.285  18.299  -3.241  1.00 20.00     0.022 C 
HETATM    5  C5  UNL     1     -35.025  16.460  -3.388  1.00 20.00     0.158 C 
HETATM    6  C6  UNL     1     -33.692  16.996  -3.922  1.00 20.00     0.090 C 
HETATM    7 BR10 UNL     1     -33.849  17.317  -5.852  1.00 20.00    -0.088 Br
ENDROOT
BRANCH   5   8
HETATM    8  O9  UNL     1     -35.128  15.082  -3.751  1.00 20.00    -0.381 OA
BRANCH   8   9
HETATM    9  C8  UNL     1     -36.304  14.834  -4.506  1.00 20.00     0.164 C 
HETATM   10  C7  UNL     1     -36.117  13.563  -5.308  1.00 20.00     0.033 C 
ENDBRANCH   8   9
ENDBRANCH   5   8
TORSDOF 2
ENDMDL
MODEL 7
REMARK VINA RESULT:      -3.6     11.876     12.391
REMARK  2 active torsions:
REMARK  status: ('A' for Active; 'I' for Inactive)
REMARK    1  A    between atoms: C5_5  and  O9_9 
REMARK    2  A    between atoms: C8_8  and  O9_9 
ROOT
HETATM    1  C1  UNL     1     -31.291  18.915   1.189  1.00 20.00    -0.028 C 
HETATM    2  C2  UNL     1     -31.776  18.553  -0.007  1.00 20.00     0.002 C 
HETATM    3  C3  UNL     1     -32.141  19.046   2.416  1.00 20.00     0.028 C 
HETATM    4  C4  UNL     1     -33.520  18.400   2.260  1.00 20.00     0.022 C 
HETATM    5  C5  UNL     1     -33.233  18.270  -0.257  1.00 20.00     0.158 C 
HETATM    6  C6  UNL     1     -34.125  18.734   0.901  1.00 20.00     0.090 C 
HETATM    7 BR10 UNL     1     -35.877  17.859   0.760  1.00 20.00    -0.088 Br
ENDROOT
BRANCH   5   8
HETATM    8  O9  UNL     1     -33.640  18.963  -1.438  1.00 20.00    -0.381 OA
BRANCH   8   9
HETATM    9  C8  UNL     1     -33.342  18.211  -2.604  1.00 20.00     0.164 C 
HETATM   10  C7  UNL     1     -33.879  16.806  -2.436  1.00 20.00     0.033 C 
ENDBRANCH   8   9
ENDBRANCH   5   8
TORSDOF 2
ENDMDL
MODEL 8
REMARK VINA RESULT:      -3.5      2.096      4.270
REMARK  2 active torsions:
REMARK  status: ('A' for Active; 'I' for Inactive)
REMARK    1  A    between atoms: C5_5  and  O9_9 
REMARK    2  A    between atoms: C8_8  and  O9_9 
ROOT
HETATM    1  C1  UNL     1     -32.181   7.557   1.693  1.00 20.00    -0.028 C 
HETATM    2  C2  UNL     1     -32.957   6.539   2.089  1.00 20.00     0.002 C 
HETATM    3  C3  UNL     1     -31.761   8.672   2.601  1.00 20.00     0.028 C 
HETATM    4  C4  UNL     1     -32.003   8.362   4.081  1.00 20.00     0.022 C 
HETATM    5  C5  UNL     1     -33.520   6.420   3.480  1.00 20.00     0.158 C 
HETATM    6  C6  UNL     1     -33.370   7.718   4.284  1.00 20.00     0.090 C 
HETATM    7 BR10 UNL     1     -33.605   7.328   6.193  1.00 20.00    -0.088 Br
ENDROOT
BRANCH   5   8
HETATM    8  O9  UNL     1     -34.911   6.111   3.389  1.00 20.00    -0.381 OA
BRANCH   8   9
HETATM    9  C8  UNL     1     -35.284   5.126   4.340  1.00 20.00     0.164 C 
HETATM   10  C7  UNL     1     -34.209   4.061   4.395  1.00 20.00     0.033 C 
ENDBRANCH   8   9
ENDBRANCH   5   8
TORSDOF 2
ENDMDL
MODEL 9
REMARK VINA RESULT:      -3.5     11.748     12.410
REMARK  2 active torsions:
REMARK  status: ('A' for Active; 'I' for Inactive)
REMARK    1  A    between atoms: C5_5  and  O9_9 
REMARK    2  A    between atoms: C8_8  and  O9_9 
ROOT
HETATM    1  C1  UNL     1     -35.073  16.405  -2.771  1.00 20.00    -0.028 C 
HETATM    2  C2  UNL     1     -36.177  16.081  -3.460  1.00 20.00     0.002 C 
HETATM    3  C3  UNL     1     -33.695  15.981  -3.181  1.00 20.00     0.028 C 
HETATM    4  C4  UNL     1     -33.632  15.457  -4.618  1.00 20.00     0.022 C 
HETATM    5  C5  UNL     1     -36.157  15.230  -4.701  1.00 20.00     0.158 C 
HETATM    6  C6  UNL     1     -34.809  14.531  -4.910  1.00 20.00     0.090 C 
HETATM    7 BR10 UNL     1     -34.679  13.915  -6.769  1.00 20.00    -0.088 Br
ENDROOT
BRANCH   5   8
HETATM    8  O9  UNL     1     -37.166  14.226  -4.585  1.00 20.00    -0.381 OA
BRANCH   8   9
HETATM    9  C8  UNL     1     -38.424  14.704  -5.039  1.00 20.00     0.164 C 
HETATM   10  C7  UNL     1     -38.241  15.375  -6.384  1.00 20.00     0.033 C 
ENDBRANCH   8   9
ENDBRANCH   5   8
TORSDOF 2
ENDMDL
