MODEL 1
REMARK VINA RESULT:      -5.2      0.000      0.000
REMARK  1 active torsions:
REMARK  status: ('A' for Active; 'I' for Inactive)
REMARK    1  A    between atoms: C4_4  and  C10_10 
ROOT
HETATM    1  C1  UNL     1     -31.206   8.349   3.283  1.00 20.00     0.174 C 
HETATM    2  C2  UNL     1     -31.593   8.226   1.851  1.00 20.00     0.025 A 
HETATM    3  C3  UNL     1     -32.996   7.752   1.827  1.00 20.00     0.030 A 
HETATM    4  C4  UNL     1     -33.427   7.604   3.253  1.00 20.00     0.130 C 
HETATM    5  C5  UNL     1     -32.652   9.084   1.183  1.00 20.00    -0.035 A 
HETATM    6  C6  UNL     1     -33.100  10.376   1.816  1.00 20.00     0.016 C 
HETATM    7  C7  UNL     1     -32.642   9.132  -0.325  1.00 20.00     0.016 C 
HETATM    8  O11 UNL     1     -32.405   8.217   4.067  1.00 20.00    -0.385 OA
ENDROOT
BRANCH   4   9
HETATM    9  C10 UNL     1     -33.562   6.146   3.670  1.00 20.00     0.007 C 
HETATM   10  C8  UNL     1     -34.992   5.840   4.118  1.00 20.00     0.012 C 
HETATM   11  C9  UNL     1     -33.150   5.215   2.529  1.00 20.00     0.012 C 
ENDBRANCH   4   9
TORSDOF 1
ENDMDL
MODEL 2
REMARK VINA RESULT:      -5.0      0.953      1.467
REMARK  1 active torsions:
REMARK  status: ('A' for Active; 'I' for Inactive)
REMARK    1  A    between atoms: C4_4  and  C10_10 
ROOT
HETATM    1  C1  UNL     1     -32.218   8.075   4.310  1.00 20.00     0.174 C 
HETATM    2  C2  UNL     1     -31.686   7.898   2.931  1.00 20.00     0.025 A 
HETATM    3  C3  UNL     1     -32.789   7.336   2.118  1.00 20.00     0.030 A 
HETATM    4  C4  UNL     1     -33.969   7.193   3.028  1.00 20.00     0.130 C 
HETATM    5  C5  UNL     1     -32.183   8.673   1.726  1.00 20.00    -0.035 A 
HETATM    6  C6  UNL     1     -32.965   9.948   1.906  1.00 20.00     0.016 C 
HETATM    7  C7  UNL     1     -31.292   8.689   0.508  1.00 20.00     0.016 C 
HETATM    8  O11 UNL     1     -33.642   7.886   4.251  1.00 20.00    -0.385 OA
ENDROOT
BRANCH   4   9
HETATM    9  C10 UNL     1     -34.268   5.739   3.365  1.00 20.00     0.007 C 
HETATM   10  C8  UNL     1     -33.135   4.828   2.892  1.00 20.00     0.012 C 
HETATM   11  C9  UNL     1     -34.499   5.567   4.867  1.00 20.00     0.012 C 
ENDBRANCH   4   9
TORSDOF 1
ENDMDL
MODEL 3
REMARK VINA RESULT:      -4.7      0.923      3.987
REMARK  1 active torsions:
REMARK  status: ('A' for Active; 'I' for Inactive)
REMARK    1  A    between atoms: C4_4  and  C10_10 
ROOT
HETATM    1  C1  UNL     1     -31.732   8.035   3.622  1.00 20.00     0.174 C 
HETATM    2  C2  UNL     1     -33.120   7.571   3.892  1.00 20.00     0.025 A 
HETATM    3  C3  UNL     1     -33.831   7.572   2.593  1.00 20.00     0.030 A 
HETATM    4  C4  UNL     1     -32.848   8.032   1.562  1.00 20.00     0.130 C 
HETATM    5  C5  UNL     1     -33.697   6.271   3.365  1.00 20.00    -0.035 A 
HETATM    6  C6  UNL     1     -32.787   5.178   2.868  1.00 20.00     0.016 C 
HETATM    7  C7  UNL     1     -34.938   5.748   4.045  1.00 20.00     0.016 C 
HETATM    8  O11 UNL     1     -31.551   8.046   2.195  1.00 20.00    -0.385 OA
ENDROOT
BRANCH   4   9
HETATM    9  C10 UNL     1     -33.151   9.436   1.057  1.00 20.00     0.007 C 
HETATM   10  C8  UNL     1     -32.119  10.435   1.580  1.00 20.00     0.012 C 
HETATM   11  C9  UNL     1     -33.195   9.465  -0.471  1.00 20.00     0.012 C 
ENDBRANCH   4   9
TORSDOF 1
ENDMDL
MODEL 4
REMARK VINA RESULT:      -4.6      9.942     10.837
REMARK  1 active torsions:
REMARK  status: ('A' for Active; 'I' for Inactive)
REMARK    1  A    between atoms: C4_4  and  C10_10 
ROOT
HETATM    1  C1  UNL     1     -33.229  14.825  -4.448  1.00 20.00     0.174 C 
HETATM    2  C2  UNL     1     -34.641  14.377  -4.307  1.00 20.00     0.025 A 
HETATM    3  C3  UNL     1     -35.386  15.500  -3.693  1.00 20.00     0.030 A 
HETATM    4  C4  UNL     1     -34.402  16.608  -3.482  1.00 20.00     0.130 C 
HETATM    5  C5  UNL     1     -35.805  14.992  -5.062  1.00 20.00    -0.035 A 
HETATM    6  C6  UNL     1     -35.561  15.825  -6.293  1.00 20.00     0.016 C 
HETATM    7  C7  UNL     1     -37.078  14.185  -5.132  1.00 20.00     0.016 C 
HETATM    8  O11 UNL     1     -33.197  16.238  -4.184  1.00 20.00    -0.385 OA
ENDROOT
BRANCH   4   9
HETATM    9  C10 UNL     1     -34.059  16.808  -2.013  1.00 20.00     0.007 C 
HETATM   10  C8  UNL     1     -33.097  17.983  -1.835  1.00 20.00     0.012 C 
HETATM   11  C9  UNL     1     -35.327  17.028  -1.185  1.00 20.00     0.012 C 
ENDBRANCH   4   9
TORSDOF 1
ENDMDL
MODEL 5
REMARK VINA RESULT:      -4.5      1.306      4.337
REMARK  1 active torsions:
REMARK  status: ('A' for Active; 'I' for Inactive)
REMARK    1  A    between atoms: C4_4  and  C10_10 
ROOT
HETATM    1  C1  UNL     1     -33.065   5.080   2.442  1.00 20.00     0.174 C 
HETATM    2  C2  UNL     1     -33.207   5.398   3.889  1.00 20.00     0.025 A 
HETATM    3  C3  UNL     1     -33.355   6.869   3.991  1.00 20.00     0.030 A 
HETATM    4  C4  UNL     1     -33.304   7.406   2.594  1.00 20.00     0.130 C 
HETATM    5  C5  UNL     1     -34.465   5.973   4.511  1.00 20.00    -0.035 A 
HETATM    6  C6  UNL     1     -35.783   5.891   3.785  1.00 20.00     0.016 C 
HETATM    7  C7  UNL     1     -34.604   5.855   6.009  1.00 20.00     0.016 C 
HETATM    8  O11 UNL     1     -33.388   6.272   1.705  1.00 20.00    -0.385 OA
ENDROOT
BRANCH   4   9
HETATM    9  C10 UNL     1     -32.008   8.149   2.305  1.00 20.00     0.007 C 
HETATM   10  C8  UNL     1     -32.273   9.393   1.458  1.00 20.00     0.012 C 
HETATM   11  C9  UNL     1     -31.300   8.530   3.605  1.00 20.00     0.012 C 
ENDBRANCH   4   9
TORSDOF 1
ENDMDL
MODEL 6
REMARK VINA RESULT:      -4.5     10.122     10.959
REMARK  1 active torsions:
REMARK  status: ('A' for Active; 'I' for Inactive)
REMARK    1  A    between atoms: C4_4  and  C10_10 
ROOT
HETATM    1  C1  UNL     1     -34.300  17.651  -4.682  1.00 20.00     0.174 C 
HETATM    2  C2  UNL     1     -35.066  17.239  -3.474  1.00 20.00     0.025 A 
HETATM    3  C3  UNL     1     -34.573  15.896  -3.093  1.00 20.00     0.030 A 
HETATM    4  C4  UNL     1     -33.510  15.528  -4.082  1.00 20.00     0.130 C 
HETATM    5  C5  UNL     1     -34.446  17.041  -2.104  1.00 20.00    -0.035 A 
HETATM    6  C6  UNL     1     -33.095  17.628  -1.785  1.00 20.00     0.016 C 
HETATM    7  C7  UNL     1     -35.384  17.033  -0.923  1.00 20.00     0.016 C 
HETATM    8  O11 UNL     1     -33.218  16.718  -4.845  1.00 20.00    -0.385 OA
ENDROOT
BRANCH   4   9
HETATM    9  C10 UNL     1     -33.964  14.440  -5.044  1.00 20.00     0.007 C 
HETATM   10  C8  UNL     1     -35.368  13.950  -4.685  1.00 20.00     0.012 C 
HETATM   11  C9  UNL     1     -33.928  14.943  -6.487  1.00 20.00     0.012 C 
ENDBRANCH   4   9
TORSDOF 1
ENDMDL
MODEL 7
REMARK VINA RESULT:      -4.3      9.936     10.817
REMARK  1 active torsions:
REMARK  status: ('A' for Active; 'I' for Inactive)
REMARK    1  A    between atoms: C4_4  and  C10_10 
ROOT
HETATM    1  C1  UNL     1     -35.231  17.466  -4.474  1.00 20.00     0.174 C 
HETATM    2  C2  UNL     1     -34.001  16.638  -4.356  1.00 20.00     0.025 A 
HETATM    3  C3  UNL     1     -33.964  16.124  -2.967  1.00 20.00     0.030 A 
HETATM    4  C4  UNL     1     -35.184  16.653  -2.278  1.00 20.00     0.130 C 
HETATM    5  C5  UNL     1     -34.008  15.139  -4.122  1.00 20.00    -0.035 A 
HETATM    6  C6  UNL     1     -35.251  14.330  -4.389  1.00 20.00     0.016 C 
HETATM    7  C7  UNL     1     -32.734  14.392  -4.432  1.00 20.00     0.016 C 
HETATM    8  O11 UNL     1     -36.025  17.231  -3.298  1.00 20.00    -0.385 OA
ENDROOT
BRANCH   4   9
HETATM    9  C10 UNL     1     -34.852  17.734  -1.259  1.00 20.00     0.007 C 
HETATM   10  C8  UNL     1     -35.528  17.443   0.081  1.00 20.00     0.012 C 
HETATM   11  C9  UNL     1     -33.339  17.860  -1.076  1.00 20.00     0.012 C 
ENDBRANCH   4   9
TORSDOF 1
ENDMDL
MODEL 8
REMARK VINA RESULT:      -4.3      9.764     11.181
REMARK  1 active torsions:
REMARK  status: ('A' for Active; 'I' for Inactive)
REMARK    1  A    between atoms: C4_4  and  C10_10 
ROOT
HETATM    1  C1  UNL     1     -34.454  18.708  -3.537  1.00 20.00     0.174 C 
HETATM    2  C2  UNL     1     -35.214  18.068  -2.429  1.00 20.00     0.025 A 
HETATM    3  C3  UNL     1     -34.728  16.673  -2.328  1.00 20.00     0.030 A 
HETATM    4  C4  UNL     1     -33.677  16.504  -3.380  1.00 20.00     0.130 C 
HETATM    5  C5  UNL     1     -34.585  17.597  -1.131  1.00 20.00    -0.035 A 
HETATM    6  C6  UNL     1     -33.227  18.100  -0.714  1.00 20.00     0.016 C 
HETATM    7  C7  UNL     1     -35.514  17.359   0.033  1.00 20.00     0.016 C 
HETATM    8  O11 UNL     1     -33.381  17.820  -3.893  1.00 20.00    -0.385 OA
ENDROOT
BRANCH   4   9
HETATM    9  C10 UNL     1     -34.147  15.632  -4.535  1.00 20.00     0.007 C 
HETATM   10  C8  UNL     1     -33.130  15.648  -5.676  1.00 20.00     0.012 C 
HETATM   11  C9  UNL     1     -34.400  14.199  -4.066  1.00 20.00     0.012 C 
ENDBRANCH   4   9
TORSDOF 1
ENDMDL
MODEL 9
REMARK VINA RESULT:      -4.2      9.894     10.929
REMARK  1 active torsions:
REMARK  status: ('A' for Active; 'I' for Inactive)
REMARK    1  A    between atoms: C4_4  and  C10_10 
ROOT
HETATM    1  C1  UNL     1     -35.956  17.001  -2.253  1.00 20.00     0.174 C 
HETATM    2  C2  UNL     1     -34.634  17.033  -1.571  1.00 20.00     0.025 A 
HETATM    3  C3  UNL     1     -33.623  16.647  -2.582  1.00 20.00     0.030 A 
HETATM    4  C4  UNL     1     -34.363  16.395  -3.859  1.00 20.00     0.130 C 
HETATM    5  C5  UNL     1     -33.525  18.009  -1.917  1.00 20.00    -0.035 A 
HETATM    6  C6  UNL     1     -33.827  19.262  -2.697  1.00 20.00     0.016 C 
HETATM    7  C7  UNL     1     -32.432  18.194  -0.894  1.00 20.00     0.016 C 
HETATM    8  O11 UNL     1     -35.711  16.870  -3.664  1.00 20.00    -0.385 OA
ENDROOT
BRANCH   4   9
HETATM    9  C10 UNL     1     -34.421  14.916  -4.214  1.00 20.00     0.007 C 
HETATM   10  C8  UNL     1     -35.245  14.695  -5.482  1.00 20.00     0.012 C 
HETATM   11  C9  UNL     1     -33.013  14.344  -4.386  1.00 20.00     0.012 C 
ENDBRANCH   4   9
TORSDOF 1
ENDMDL
