MODEL 1
REMARK VINA RESULT:      -6.5      0.000      0.000
REMARK  2 active torsions:
REMARK  status: ('A' for Active; 'I' for Inactive)
REMARK    1  A    between atoms: C1_1  and  C8_8 
REMARK    2  A    between atoms: C2_2  and  C9_9 
ROOT
HETATM    1  C3  UNL     1     -34.288   6.327   5.432  1.00 20.00     0.142 C 
HETATM    2  C4  UNL     1     -34.339   4.790   5.500  1.00 20.00     0.081 C 
HETATM    3  C5  UNL     1     -34.246   4.796   3.956  1.00 20.00     0.032 C 
HETATM    4  C8  UNL     1     -34.559   6.320   3.909  1.00 20.00     0.135 C 
HETATM    5  O10 UNL     1     -34.105   7.196   6.258  1.00 20.00    -0.297 OA
ENDROOT
BRANCH   4   6
HETATM    6  C1  UNL     1     -33.630   7.127   3.156  1.00 20.00    -0.094 C 
HETATM    7  C2  UNL     1     -32.857   7.798   2.529  1.00 20.00    -0.101 C 
BRANCH   7   8
HETATM    8  C9  UNL     1     -31.916   8.616   1.765  1.00 20.00     0.065 A 
HETATM    9  C6  UNL     1     -32.339   9.994   1.386  1.00 20.00     0.018 A 
HETATM   10  C7  UNL     1     -32.251   8.920   0.343  1.00 20.00     0.018 A 
ENDBRANCH   7   8
ENDBRANCH   4   6
TORSDOF 2
ENDMDL
MODEL 2
REMARK VINA RESULT:      -6.2      1.708      2.034
REMARK  2 active torsions:
REMARK  status: ('A' for Active; 'I' for Inactive)
REMARK    1  A    between atoms: C1_1  and  C8_8 
REMARK    2  A    between atoms: C2_2  and  C9_9 
ROOT
HETATM    1  C3  UNL     1     -33.628   5.300   3.407  1.00 20.00     0.142 C 
HETATM    2  C4  UNL     1     -34.845   5.432   4.341  1.00 20.00     0.081 C 
HETATM    3  C5  UNL     1     -34.426   6.907   4.548  1.00 20.00     0.032 C 
HETATM    4  C8  UNL     1     -33.035   6.639   3.904  1.00 20.00     0.135 C 
HETATM    5  O10 UNL     1     -33.280   4.465   2.599  1.00 20.00    -0.297 OA
ENDROOT
BRANCH   4   6
HETATM    6  C1  UNL     1     -32.657   7.532   2.837  1.00 20.00    -0.094 C 
HETATM    7  C2  UNL     1     -32.343   8.276   1.948  1.00 20.00    -0.101 C 
BRANCH   7   8
HETATM    8  C9  UNL     1     -31.960   9.182   0.865  1.00 20.00     0.065 A 
HETATM    9  C6  UNL     1     -32.621  10.517   0.809  1.00 20.00     0.018 A 
HETATM   10  C7  UNL     1     -32.968   9.461  -0.199  1.00 20.00     0.018 A 
ENDBRANCH   7   8
ENDBRANCH   4   6
TORSDOF 2
ENDMDL
MODEL 3
REMARK VINA RESULT:      -5.6      1.881      5.100
REMARK  2 active torsions:
REMARK  status: ('A' for Active; 'I' for Inactive)
REMARK    1  A    between atoms: C1_1  and  C8_8 
REMARK    2  A    between atoms: C2_2  and  C9_9 
ROOT
HETATM    1  C3  UNL     1     -32.708   9.672   1.503  1.00 20.00     0.142 C 
HETATM    2  C4  UNL     1     -31.773   9.389   0.313  1.00 20.00     0.081 C 
HETATM    3  C5  UNL     1     -31.400   8.066   1.022  1.00 20.00     0.032 C 
HETATM    4  C8  UNL     1     -32.060   8.549   2.346  1.00 20.00     0.135 C 
HETATM    5  O10 UNL     1     -33.601  10.470   1.695  1.00 20.00    -0.297 OA
ENDROOT
BRANCH   4   6
HETATM    6  C1  UNL     1     -33.018   7.645   2.933  1.00 20.00    -0.094 C 
HETATM    7  C2  UNL     1     -33.816   6.892   3.422  1.00 20.00    -0.101 C 
BRANCH   7   8
HETATM    8  C9  UNL     1     -34.788   5.976   4.018  1.00 20.00     0.065 A 
HETATM    9  C6  UNL     1     -34.576   5.561   5.434  1.00 20.00     0.018 A 
HETATM   10  C7  UNL     1     -34.341   4.585   4.319  1.00 20.00     0.018 A 
ENDBRANCH   7   8
ENDBRANCH   4   6
TORSDOF 2
ENDMDL
MODEL 4
REMARK VINA RESULT:      -4.4     11.266     12.118
REMARK  2 active torsions:
REMARK  status: ('A' for Active; 'I' for Inactive)
REMARK    1  A    between atoms: C1_1  and  C8_8 
REMARK    2  A    between atoms: C2_2  and  C9_9 
ROOT
HETATM    1  C3  UNL     1     -35.421  13.584  -5.926  1.00 20.00     0.142 C 
HETATM    2  C4  UNL     1     -34.566  13.519  -7.204  1.00 20.00     0.081 C 
HETATM    3  C5  UNL     1     -34.197  14.998  -6.939  1.00 20.00     0.032 C 
HETATM    4  C8  UNL     1     -35.333  15.128  -5.884  1.00 20.00     0.135 C 
HETATM    5  O10 UNL     1     -35.952  12.744  -5.230  1.00 20.00    -0.297 OA
ENDROOT
BRANCH   4   6
HETATM    6  C1  UNL     1     -34.936  15.647  -4.598  1.00 20.00    -0.094 C 
HETATM    7  C2  UNL     1     -34.606  16.079  -3.528  1.00 20.00    -0.101 C 
BRANCH   7   8
HETATM    8  C9  UNL     1     -34.204  16.605  -2.224  1.00 20.00     0.065 A 
HETATM    9  C6  UNL     1     -35.280  16.943  -1.248  1.00 20.00     0.018 A 
HETATM   10  C7  UNL     1     -34.506  18.035  -1.926  1.00 20.00     0.018 A 
ENDBRANCH   7   8
ENDBRANCH   4   6
TORSDOF 2
ENDMDL
MODEL 5
REMARK VINA RESULT:      -4.4     11.185     11.844
REMARK  2 active torsions:
REMARK  status: ('A' for Active; 'I' for Inactive)
REMARK    1  A    between atoms: C1_1  and  C8_8 
REMARK    2  A    between atoms: C2_2  and  C9_9 
ROOT
HETATM    1  C3  UNL     1     -32.174  18.446  -0.125  1.00 20.00     0.142 C 
HETATM    2  C4  UNL     1     -32.842  18.721   1.235  1.00 20.00     0.081 C 
HETATM    3  C5  UNL     1     -34.199  18.514   0.522  1.00 20.00     0.032 C 
HETATM    4  C8  UNL     1     -33.517  18.602  -0.875  1.00 20.00     0.135 C 
HETATM    5  O10 UNL     1     -31.035  18.203  -0.464  1.00 20.00    -0.297 OA
ENDROOT
BRANCH   4   6
HETATM    6  C1  UNL     1     -33.801  17.515  -1.779  1.00 20.00    -0.094 C 
HETATM    7  C2  UNL     1     -34.037  16.610  -2.532  1.00 20.00    -0.101 C 
BRANCH   7   8
HETATM    8  C9  UNL     1     -34.324  15.507  -3.448  1.00 20.00     0.065 A 
HETATM    9  C6  UNL     1     -33.218  15.021  -4.321  1.00 20.00     0.018 A 
HETATM   10  C7  UNL     1     -34.353  15.805  -4.910  1.00 20.00     0.018 A 
ENDBRANCH   7   8
ENDBRANCH   4   6
TORSDOF 2
ENDMDL
MODEL 6
REMARK VINA RESULT:      -4.3     11.173     11.858
REMARK  2 active torsions:
REMARK  status: ('A' for Active; 'I' for Inactive)
REMARK    1  A    between atoms: C1_1  and  C8_8 
REMARK    2  A    between atoms: C2_2  and  C9_9 
ROOT
HETATM    1  C3  UNL     1     -33.992  14.754  -5.769  1.00 20.00     0.142 C 
HETATM    2  C4  UNL     1     -35.058  13.813  -6.361  1.00 20.00     0.081 C 
HETATM    3  C5  UNL     1     -35.635  13.695  -4.931  1.00 20.00     0.032 C 
HETATM    4  C8  UNL     1     -34.355  14.341  -4.324  1.00 20.00     0.135 C 
HETATM    5  O10 UNL     1     -33.186  15.518  -6.258  1.00 20.00    -0.297 OA
ENDROOT
BRANCH   4   6
HETATM    6  C1  UNL     1     -34.578  15.462  -3.444  1.00 20.00    -0.094 C 
HETATM    7  C2  UNL     1     -34.762  16.396  -2.712  1.00 20.00    -0.101 C 
BRANCH   7   8
HETATM    8  C9  UNL     1     -34.988  17.533  -1.820  1.00 20.00     0.065 A 
HETATM    9  C6  UNL     1     -34.006  17.761  -0.721  1.00 20.00     0.018 A 
HETATM   10  C7  UNL     1     -35.381  17.246  -0.410  1.00 20.00     0.018 A 
ENDBRANCH   7   8
ENDBRANCH   4   6
TORSDOF 2
ENDMDL
MODEL 7
REMARK VINA RESULT:      -4.3     10.136     11.118
REMARK  2 active torsions:
REMARK  status: ('A' for Active; 'I' for Inactive)
REMARK    1  A    between atoms: C1_1  and  C8_8 
REMARK    2  A    between atoms: C2_2  and  C9_9 
ROOT
HETATM    1  C3  UNL     1     -42.530   7.235  -0.603  1.00 20.00     0.142 C 
HETATM    2  C4  UNL     1     -41.145   7.640  -0.066  1.00 20.00     0.081 C 
HETATM    3  C5  UNL     1     -40.837   6.129   0.057  1.00 20.00     0.032 C 
HETATM    4  C8  UNL     1     -42.340   5.772  -0.139  1.00 20.00     0.135 C 
HETATM    5  O10 UNL     1     -43.417   7.838  -1.169  1.00 20.00    -0.297 OA
ENDROOT
BRANCH   4   6
HETATM    6  C1  UNL     1     -42.623   4.801  -1.167  1.00 20.00    -0.094 C 
HETATM    7  C2  UNL     1     -42.859   3.993  -2.022  1.00 20.00    -0.101 C 
BRANCH   7   8
HETATM    8  C9  UNL     1     -43.145   3.007  -3.065  1.00 20.00     0.065 A 
HETATM    9  C6  UNL     1     -41.990   2.408  -3.793  1.00 20.00     0.018 A 
HETATM   10  C7  UNL     1     -42.886   3.396  -4.481  1.00 20.00     0.018 A 
ENDBRANCH   7   8
ENDBRANCH   4   6
TORSDOF 2
ENDMDL
MODEL 8
REMARK VINA RESULT:      -4.1     11.315     11.921
REMARK  2 active torsions:
REMARK  status: ('A' for Active; 'I' for Inactive)
REMARK    1  A    between atoms: C1_1  and  C8_8 
REMARK    2  A    between atoms: C2_2  and  C9_9 
ROOT
HETATM    1  C3  UNL     1     -36.506  13.988  -5.458  1.00 20.00     0.142 C 
HETATM    2  C4  UNL     1     -35.528  13.265  -6.402  1.00 20.00     0.081 C 
HETATM    3  C5  UNL     1     -34.520  14.399  -6.098  1.00 20.00     0.032 C 
HETATM    4  C8  UNL     1     -35.640  15.269  -5.456  1.00 20.00     0.135 C 
HETATM    5  O10 UNL     1     -37.549  13.667  -4.927  1.00 20.00    -0.297 OA
ENDROOT
BRANCH   4   6
HETATM    6  C1  UNL     1     -35.360  15.772  -4.133  1.00 20.00    -0.094 C 
HETATM    7  C2  UNL     1     -35.127  16.191  -3.033  1.00 20.00    -0.101 C 
BRANCH   7   8
HETATM    8  C9  UNL     1     -34.843  16.701  -1.692  1.00 20.00     0.065 A 
HETATM    9  C6  UNL     1     -34.888  18.177  -1.484  1.00 20.00     0.018 A 
HETATM   10  C7  UNL     1     -33.573  17.455  -1.487  1.00 20.00     0.018 A 
ENDBRANCH   7   8
ENDBRANCH   4   6
TORSDOF 2
ENDMDL
MODEL 9
REMARK VINA RESULT:      -4.0     11.195     11.626
REMARK  2 active torsions:
REMARK  status: ('A' for Active; 'I' for Inactive)
REMARK    1  A    between atoms: C1_1  and  C8_8 
REMARK    2  A    between atoms: C2_2  and  C9_9 
ROOT
HETATM    1  C3  UNL     1     -32.355  18.594   2.337  1.00 20.00     0.142 C 
HETATM    2  C4  UNL     1     -33.274  18.305   3.538  1.00 20.00     0.081 C 
HETATM    3  C5  UNL     1     -34.458  18.356   2.543  1.00 20.00     0.032 C 
HETATM    4  C8  UNL     1     -33.555  18.993   1.448  1.00 20.00     0.135 C 
HETATM    5  O10 UNL     1     -31.155  18.530   2.167  1.00 20.00    -0.297 OA
ENDROOT
BRANCH   4   6
HETATM    6  C1  UNL     1     -33.566  18.333   0.166  1.00 20.00    -0.094 C 
HETATM    7  C2  UNL     1     -33.575  17.782  -0.901  1.00 20.00    -0.101 C 
BRANCH   7   8
HETATM    8  C9  UNL     1     -33.586  17.112  -2.201  1.00 20.00     0.065 A 
HETATM    9  C6  UNL     1     -34.480  17.662  -3.260  1.00 20.00     0.018 A 
HETATM   10  C7  UNL     1     -34.817  16.363  -2.588  1.00 20.00     0.018 A 
ENDBRANCH   7   8
ENDBRANCH   4   6
TORSDOF 2
ENDMDL
