MODEL 1
REMARK VINA RESULT:      -5.7      0.000      0.000
REMARK  2 active torsions:
REMARK  status: ('A' for Active; 'I' for Inactive)
REMARK    1  A    between atoms: C1_1  and  C6_6 
REMARK    2  A    between atoms: C7_7  and  C9_9 
ROOT
HETATM    1  C2  UNL     1     -34.386   7.266   4.730  1.00 20.00     0.012 C 
HETATM    2  C3  UNL     1     -34.254   5.817   2.633  1.00 20.00     0.012 C 
HETATM    3  C4  UNL     1     -32.873   7.487   4.654  1.00 20.00     0.005 C 
HETATM    4  C5  UNL     1     -32.743   6.051   2.586  1.00 20.00     0.005 C 
HETATM    5  C6  UNL     1     -34.857   6.001   4.021  1.00 20.00     0.047 C 
HETATM    6  C7  UNL     1     -32.317   7.376   3.230  1.00 20.00    -0.015 C 
ENDROOT
BRANCH   5   7
HETATM    7  C1  UNL     1     -34.516   4.787   4.869  1.00 20.00     0.235 C 
HETATM    8  O10 UNL     1     -34.348   3.664   4.406  1.00 20.00    -0.306 OA
ENDBRANCH   5   7
BRANCH   6   9
HETATM    9  C9  UNL     1     -32.712   8.579   2.370  1.00 20.00     0.000 C 
HETATM   10  C8  UNL     1     -31.808   8.735   1.192  1.00 20.00     0.005 C 
ENDBRANCH   6   9
TORSDOF 2
ENDMDL
MODEL 2
REMARK VINA RESULT:      -5.2      2.130      3.982
REMARK  2 active torsions:
REMARK  status: ('A' for Active; 'I' for Inactive)
REMARK    1  A    between atoms: C1_1  and  C6_6 
REMARK    2  A    between atoms: C7_7  and  C9_9 
ROOT
HETATM    1  C2  UNL     1     -32.576   7.694   4.540  1.00 20.00     0.012 C 
HETATM    2  C3  UNL     1     -32.951   6.037   2.635  1.00 20.00     0.012 C 
HETATM    3  C4  UNL     1     -34.075   7.654   4.849  1.00 20.00     0.005 C 
HETATM    4  C5  UNL     1     -34.445   6.022   2.964  1.00 20.00     0.005 C 
HETATM    5  C6  UNL     1     -32.235   7.298   3.108  1.00 20.00     0.047 C 
HETATM    6  C7  UNL     1     -34.743   6.338   4.435  1.00 20.00    -0.015 C 
ENDROOT
BRANCH   5   7
HETATM    7  C1  UNL     1     -32.582   8.440   2.168  1.00 20.00     0.235 C 
HETATM    8  O10 UNL     1     -31.887   8.764   1.211  1.00 20.00    -0.306 OA
ENDBRANCH   5   7
BRANCH   6   9
HETATM    9  C9  UNL     1     -34.344   5.183   5.356  1.00 20.00     0.000 C 
HETATM   10  C8  UNL     1     -34.255   3.891   4.615  1.00 20.00     0.005 C 
ENDBRANCH   6   9
TORSDOF 2
ENDMDL
MODEL 3
REMARK VINA RESULT:      -4.3     11.127     12.364
REMARK  2 active torsions:
REMARK  status: ('A' for Active; 'I' for Inactive)
REMARK    1  A    between atoms: C1_1  and  C6_6 
REMARK    2  A    between atoms: C7_7  and  C9_9 
ROOT
HETATM    1  C2  UNL     1     -35.554  14.307  -4.919  1.00 20.00     0.012 C 
HETATM    2  C3  UNL     1     -34.405  15.765  -6.671  1.00 20.00     0.012 C 
HETATM    3  C4  UNL     1     -34.268  14.316  -4.090  1.00 20.00     0.005 C 
HETATM    4  C5  UNL     1     -33.131  15.751  -5.824  1.00 20.00     0.005 C 
HETATM    5  C6  UNL     1     -35.330  14.583  -6.402  1.00 20.00     0.047 C 
HETATM    6  C7  UNL     1     -33.404  15.561  -4.327  1.00 20.00    -0.015 C 
ENDROOT
BRANCH   5   7
HETATM    7  C1  UNL     1     -34.751  13.346  -7.066  1.00 20.00     0.235 C 
HETATM    8  O10 UNL     1     -35.096  12.203  -6.786  1.00 20.00    -0.306 OA
ENDBRANCH   5   7
BRANCH   6   9
HETATM    9  C9  UNL     1     -34.025  16.811  -3.698  1.00 20.00     0.000 C 
HETATM   10  C8  UNL     1     -34.083  16.710  -2.210  1.00 20.00     0.005 C 
ENDBRANCH   6   9
TORSDOF 2
ENDMDL
MODEL 4
REMARK VINA RESULT:      -4.2     10.949     11.982
REMARK  2 active torsions:
REMARK  status: ('A' for Active; 'I' for Inactive)
REMARK    1  A    between atoms: C1_1  and  C6_6 
REMARK    2  A    between atoms: C7_7  and  C9_9 
ROOT
HETATM    1  C2  UNL     1     -34.331  14.002  -4.059  1.00 20.00     0.012 C 
HETATM    2  C3  UNL     1     -36.698  14.773  -4.621  1.00 20.00     0.012 C 
HETATM    3  C4  UNL     1     -33.835  15.438  -4.244  1.00 20.00     0.005 C 
HETATM    4  C5  UNL     1     -36.173  16.198  -4.806  1.00 20.00     0.005 C 
HETATM    5  C6  UNL     1     -35.629  13.701  -4.800  1.00 20.00     0.047 C 
HETATM    6  C7  UNL     1     -34.917  16.490  -3.975  1.00 20.00    -0.015 C 
ENDROOT
BRANCH   5   7
HETATM    7  C1  UNL     1     -35.341  13.538  -6.283  1.00 20.00     0.235 C 
HETATM    8  O10 UNL     1     -35.099  12.458  -6.811  1.00 20.00    -0.306 OA
ENDBRANCH   5   7
BRANCH   6   9
HETATM    9  C9  UNL     1     -35.237  16.608  -2.483  1.00 20.00     0.000 C 
HETATM   10  C8  UNL     1     -34.048  17.050  -1.697  1.00 20.00     0.005 C 
ENDBRANCH   6   9
TORSDOF 2
ENDMDL
MODEL 5
REMARK VINA RESULT:      -4.1     11.145     12.308
REMARK  2 active torsions:
REMARK  status: ('A' for Active; 'I' for Inactive)
REMARK    1  A    between atoms: C1_1  and  C6_6 
REMARK    2  A    between atoms: C7_7  and  C9_9 
ROOT
HETATM    1  C2  UNL     1     -32.881  15.582  -5.211  1.00 20.00     0.012 C 
HETATM    2  C3  UNL     1     -34.687  14.220  -4.027  1.00 20.00     0.012 C 
HETATM    3  C4  UNL     1     -33.747  16.835  -5.057  1.00 20.00     0.005 C 
HETATM    4  C5  UNL     1     -35.533  15.487  -3.893  1.00 20.00     0.005 C 
HETATM    5  C6  UNL     1     -33.674  14.280  -5.166  1.00 20.00     0.047 C 
HETATM    6  C7  UNL     1     -34.694  16.771  -3.853  1.00 20.00    -0.015 C 
ENDROOT
BRANCH   5   7
HETATM    7  C1  UNL     1     -34.405  14.084  -6.484  1.00 20.00     0.235 C 
HETATM    8  O10 UNL     1     -34.701  12.983  -6.936  1.00 20.00    -0.306 OA
ENDBRANCH   5   7
BRANCH   6   9
HETATM    9  C9  UNL     1     -33.940  16.916  -2.529  1.00 20.00     0.000 C 
HETATM   10  C8  UNL     1     -34.874  16.971  -1.366  1.00 20.00     0.005 C 
ENDBRANCH   6   9
TORSDOF 2
ENDMDL
MODEL 6
REMARK VINA RESULT:      -4.1     11.205     12.181
REMARK  2 active torsions:
REMARK  status: ('A' for Active; 'I' for Inactive)
REMARK    1  A    between atoms: C1_1  and  C6_6 
REMARK    2  A    between atoms: C7_7  and  C9_9 
ROOT
HETATM    1  C2  UNL     1     -35.940  15.889  -5.444  1.00 20.00     0.012 C 
HETATM    2  C3  UNL     1     -33.702  14.679  -5.657  1.00 20.00     0.012 C 
HETATM    3  C4  UNL     1     -35.915  15.637  -3.935  1.00 20.00     0.005 C 
HETATM    4  C5  UNL     1     -33.707  14.436  -4.147  1.00 20.00     0.005 C 
HETATM    5  C6  UNL     1     -35.091  14.906  -6.244  1.00 20.00     0.047 C 
HETATM    6  C7  UNL     1     -34.497  15.496  -3.368  1.00 20.00    -0.015 C 
ENDROOT
BRANCH   5   7
HETATM    7  C1  UNL     1     -35.810  13.570  -6.333  1.00 20.00     0.235 C 
HETATM    8  O10 UNL     1     -35.236  12.504  -6.523  1.00 20.00    -0.306 OA
ENDBRANCH   5   7
BRANCH   6   9
HETATM    9  C9  UNL     1     -33.763  16.839  -3.332  1.00 20.00     0.000 C 
HETATM   10  C8  UNL     1     -33.550  17.314  -1.933  1.00 20.00     0.005 C 
ENDBRANCH   6   9
TORSDOF 2
ENDMDL
MODEL 7
REMARK VINA RESULT:      -4.1     11.437     12.736
REMARK  2 active torsions:
REMARK  status: ('A' for Active; 'I' for Inactive)
REMARK    1  A    between atoms: C1_1  and  C6_6 
REMARK    2  A    between atoms: C7_7  and  C9_9 
ROOT
HETATM    1  C2  UNL     1     -33.852  17.026  -5.545  1.00 20.00     0.012 C 
HETATM    2  C3  UNL     1     -33.222  14.690  -4.730  1.00 20.00     0.012 C 
HETATM    3  C4  UNL     1     -35.160  16.931  -4.756  1.00 20.00     0.005 C 
HETATM    4  C5  UNL     1     -34.540  14.622  -3.956  1.00 20.00     0.005 C 
HETATM    5  C6  UNL     1     -33.250  15.670  -5.898  1.00 20.00     0.047 C 
HETATM    6  C7  UNL     1     -35.069  16.001  -3.541  1.00 20.00    -0.015 C 
ENDROOT
BRANCH   5   7
HETATM    7  C1  UNL     1     -34.035  15.048  -7.041  1.00 20.00     0.235 C 
HETATM    8  O10 UNL     1     -34.065  13.842  -7.265  1.00 20.00    -0.306 OA
ENDBRANCH   5   7
BRANCH   6   9
HETATM    9  C9  UNL     1     -34.231  16.615  -2.417  1.00 20.00     0.000 C 
HETATM   10  C8  UNL     1     -35.078  17.019  -1.256  1.00 20.00     0.005 C 
ENDBRANCH   6   9
TORSDOF 2
ENDMDL
MODEL 8
REMARK VINA RESULT:      -3.7     11.376     12.435
REMARK  2 active torsions:
REMARK  status: ('A' for Active; 'I' for Inactive)
REMARK    1  A    between atoms: C1_1  and  C6_6 
REMARK    2  A    between atoms: C7_7  and  C9_9 
ROOT
HETATM    1  C2  UNL     1     -33.680  16.823  -4.838  1.00 20.00     0.012 C 
HETATM    2  C3  UNL     1     -35.697  15.467  -4.056  1.00 20.00     0.012 C 
HETATM    3  C4  UNL     1     -32.924  15.519  -5.099  1.00 20.00     0.005 C 
HETATM    4  C5  UNL     1     -34.914  14.180  -4.321  1.00 20.00     0.005 C 
HETATM    5  C6  UNL     1     -34.809  16.684  -3.822  1.00 20.00     0.047 C 
HETATM    6  C7  UNL     1     -33.847  14.336  -5.412  1.00 20.00    -0.015 C 
ENDROOT
BRANCH   5   7
HETATM    7  C1  UNL     1     -34.224  16.603  -2.421  1.00 20.00     0.235 C 
HETATM    8  O10 UNL     1     -33.241  17.240  -2.060  1.00 20.00    -0.306 OA
ENDBRANCH   5   7
BRANCH   6   9
HETATM    9  C9  UNL     1     -34.472  14.456  -6.804  1.00 20.00     0.000 C 
HETATM   10  C8  UNL     1     -35.099  13.174  -7.240  1.00 20.00     0.005 C 
ENDBRANCH   6   9
TORSDOF 2
ENDMDL
MODEL 9
REMARK VINA RESULT:      -3.7     11.515     12.700
REMARK  2 active torsions:
REMARK  status: ('A' for Active; 'I' for Inactive)
REMARK    1  A    between atoms: C1_1  and  C6_6 
REMARK    2  A    between atoms: C7_7  and  C9_9 
ROOT
HETATM    1  C2  UNL     1     -35.410  14.722  -4.360  1.00 20.00     0.012 C 
HETATM    2  C3  UNL     1     -32.921  15.174  -4.707  1.00 20.00     0.012 C 
HETATM    3  C4  UNL     1     -35.710  15.454  -5.670  1.00 20.00     0.005 C 
HETATM    4  C5  UNL     1     -33.252  15.905  -6.009  1.00 20.00     0.005 C 
HETATM    5  C6  UNL     1     -34.085  15.125  -3.722  1.00 20.00     0.047 C 
HETATM    6  C7  UNL     1     -34.546  15.411  -6.667  1.00 20.00    -0.015 C 
ENDROOT
BRANCH   5   7
HETATM    7  C1  UNL     1     -34.231  16.488  -3.067  1.00 20.00     0.235 C 
HETATM    8  O10 UNL     1     -33.384  16.978  -2.328  1.00 20.00    -0.306 OA
ENDBRANCH   5   7
BRANCH   6   9
HETATM    9  C9  UNL     1     -34.375  14.019  -7.281  1.00 20.00     0.000 C 
HETATM   10  C8  UNL     1     -35.637  13.537  -7.917  1.00 20.00     0.005 C 
ENDBRANCH   6   9
TORSDOF 2
ENDMDL
