MODEL 1
REMARK VINA RESULT:      -4.6      0.000      0.000
REMARK  2 active torsions:
REMARK  status: ('A' for Active; 'I' for Inactive)
REMARK    1  A    between atoms: C3_3  and  C5_5 
REMARK    2  A    between atoms: C3_3  and  O11_11 
ROOT
HETATM    1  C1  UNL     1     -32.719   4.297   2.637  1.00 20.00     0.012 C 
HETATM    2  C2  UNL     1     -33.082   5.429   2.469  1.00 20.00    -0.111 C 
HETATM    3  C4  UNL     1     -33.517   6.782   2.268  1.00 20.00     0.087 A 
HETATM    4  C5  UNL     1     -33.950   7.631   3.442  1.00 20.00     0.111 A 
HETATM    5  C6  UNL     1     -32.652   7.947   2.719  1.00 20.00    -0.019 A 
HETATM    6  C7  UNL     1     -32.635   9.173   1.837  1.00 20.00     0.017 C 
HETATM    7  C8  UNL     1     -31.330   7.692   3.405  1.00 20.00     0.017 C 
ENDROOT
BRANCH   4   8
HETATM    8  C3  UNL     1     -33.945   7.103   4.814  1.00 20.00     0.264 C 
HETATM    9  O10 UNL     1     -33.225   7.525   5.708  1.00 20.00    -0.265 OA
BRANCH   8  10
HETATM   10  O11 UNL     1     -34.854   6.091   4.916  1.00 20.00    -0.326 OA
HETATM   11  C9  UNL     1     -34.513   5.049   5.834  1.00 20.00     0.213 C 
ENDBRANCH   8  10
ENDBRANCH   4   8
TORSDOF 2
ENDMDL
MODEL 2
REMARK VINA RESULT:      -4.5     10.999     12.267
REMARK  2 active torsions:
REMARK  status: ('A' for Active; 'I' for Inactive)
REMARK    1  A    between atoms: C3_3  and  C5_5 
REMARK    2  A    between atoms: C3_3  and  O11_11 
ROOT
HETATM    1  C1  UNL     1     -34.043  14.887  -7.793  1.00 20.00     0.012 C 
HETATM    2  C2  UNL     1     -34.441  15.336  -6.753  1.00 20.00    -0.111 C 
HETATM    3  C4  UNL     1     -34.919  15.874  -5.511  1.00 20.00     0.087 A 
HETATM    4  C5  UNL     1     -35.875  15.082  -4.649  1.00 20.00     0.111 A 
HETATM    5  C6  UNL     1     -34.446  15.300  -4.186  1.00 20.00    -0.019 A 
HETATM    6  C7  UNL     1     -34.228  16.273  -3.053  1.00 20.00     0.017 C 
HETATM    7  C8  UNL     1     -33.480  14.137  -4.164  1.00 20.00     0.017 C 
ENDROOT
BRANCH   4   8
HETATM    8  C3  UNL     1     -36.349  13.750  -5.053  1.00 20.00     0.264 C 
HETATM    9  O10 UNL     1     -35.609  12.816  -5.329  1.00 20.00    -0.265 OA
BRANCH   8  10
HETATM   10  O11 UNL     1     -37.712  13.736  -5.067  1.00 20.00    -0.326 OA
HETATM   11  C9  UNL     1     -38.343  14.959  -4.677  1.00 20.00     0.213 C 
ENDBRANCH   8  10
ENDBRANCH   4   8
TORSDOF 2
ENDMDL
MODEL 3
REMARK VINA RESULT:      -4.4      1.296      3.140
REMARK  2 active torsions:
REMARK  status: ('A' for Active; 'I' for Inactive)
REMARK    1  A    between atoms: C3_3  and  C5_5 
REMARK    2  A    between atoms: C3_3  and  O11_11 
ROOT
HETATM    1  C1  UNL     1     -34.618   4.746   6.054  1.00 20.00     0.012 C 
HETATM    2  C2  UNL     1     -34.774   5.365   5.037  1.00 20.00    -0.111 C 
HETATM    3  C4  UNL     1     -34.961   6.105   3.822  1.00 20.00     0.087 A 
HETATM    4  C5  UNL     1     -34.000   7.207   3.438  1.00 20.00     0.111 A 
HETATM    5  C6  UNL     1     -34.019   5.912   2.645  1.00 20.00    -0.019 A 
HETATM    6  C7  UNL     1     -34.625   5.959   1.263  1.00 20.00     0.017 C 
HETATM    7  C8  UNL     1     -32.858   4.951   2.751  1.00 20.00     0.017 C 
ENDROOT
BRANCH   4   8
HETATM    8  C3  UNL     1     -32.855   7.558   4.292  1.00 20.00     0.264 C 
HETATM    9  O10 UNL     1     -32.911   7.643   5.511  1.00 20.00    -0.265 OA
BRANCH   8  10
HETATM   10  O11 UNL     1     -31.754   7.766   3.515  1.00 20.00    -0.326 OA
HETATM   11  C9  UNL     1     -31.945   8.643   2.401  1.00 20.00     0.213 C 
ENDBRANCH   8  10
ENDBRANCH   4   8
TORSDOF 2
ENDMDL
MODEL 4
REMARK VINA RESULT:      -4.2     11.059     12.326
REMARK  2 active torsions:
REMARK  status: ('A' for Active; 'I' for Inactive)
REMARK    1  A    between atoms: C3_3  and  C5_5 
REMARK    2  A    between atoms: C3_3  and  O11_11 
ROOT
HETATM    1  C1  UNL     1     -33.938  16.589  -6.898  1.00 20.00     0.012 C 
HETATM    2  C2  UNL     1     -34.714  16.465  -5.991  1.00 20.00    -0.111 C 
HETATM    3  C4  UNL     1     -35.643  16.316  -4.907  1.00 20.00     0.087 A 
HETATM    4  C5  UNL     1     -35.773  14.995  -4.183  1.00 20.00     0.111 A 
HETATM    5  C6  UNL     1     -35.149  16.186  -3.476  1.00 20.00    -0.019 A 
HETATM    6  C7  UNL     1     -35.969  16.857  -2.401  1.00 20.00     0.017 C 
HETATM    7  C8  UNL     1     -33.667  16.190  -3.181  1.00 20.00     0.017 C 
ENDROOT
BRANCH   4   8
HETATM    8  C3  UNL     1     -34.963  13.829  -4.564  1.00 20.00     0.264 C 
HETATM    9  O10 UNL     1     -33.811  13.645  -4.196  1.00 20.00    -0.265 OA
BRANCH   8  10
HETATM   10  O11 UNL     1     -35.695  13.012  -5.375  1.00 20.00    -0.326 OA
HETATM   11  C9  UNL     1     -35.328  13.030  -6.758  1.00 20.00     0.213 C 
ENDBRANCH   8  10
ENDBRANCH   4   8
TORSDOF 2
ENDMDL
MODEL 5
REMARK VINA RESULT:      -4.0     11.625     12.559
REMARK  2 active torsions:
REMARK  status: ('A' for Active; 'I' for Inactive)
REMARK    1  A    between atoms: C3_3  and  C5_5 
REMARK    2  A    between atoms: C3_3  and  O11_11 
ROOT
HETATM    1  C1  UNL     1     -37.152  15.851  -4.568  1.00 20.00     0.012 C 
HETATM    2  C2  UNL     1     -36.162  15.843  -3.890  1.00 20.00    -0.111 C 
HETATM    3  C4  UNL     1     -34.979  15.833  -3.077  1.00 20.00     0.087 A 
HETATM    4  C5  UNL     1     -33.631  15.525  -3.689  1.00 20.00     0.111 A 
HETATM    5  C6  UNL     1     -33.939  16.933  -3.210  1.00 20.00    -0.019 A 
HETATM    6  C7  UNL     1     -33.260  17.395  -1.944  1.00 20.00     0.017 C 
HETATM    7  C8  UNL     1     -34.131  18.042  -4.219  1.00 20.00     0.017 C 
ENDROOT
BRANCH   4   8
HETATM    8  C3  UNL     1     -33.489  15.223  -5.121  1.00 20.00     0.264 C 
HETATM    9  O10 UNL     1     -33.036  16.007  -5.944  1.00 20.00    -0.265 OA
BRANCH   8  10
HETATM   10  O11 UNL     1     -33.937  13.959  -5.367  1.00 20.00    -0.326 OA
HETATM   11  C9  UNL     1     -34.542  13.760  -6.648  1.00 20.00     0.213 C 
ENDBRANCH   8  10
ENDBRANCH   4   8
TORSDOF 2
ENDMDL
MODEL 6
REMARK VINA RESULT:      -4.0     10.963     12.311
REMARK  2 active torsions:
REMARK  status: ('A' for Active; 'I' for Inactive)
REMARK    1  A    between atoms: C3_3  and  C5_5 
REMARK    2  A    between atoms: C3_3  and  O11_11 
ROOT
HETATM    1  C1  UNL     1     -32.700  14.055  -4.199  1.00 20.00     0.012 C 
HETATM    2  C2  UNL     1     -33.477  14.750  -4.795  1.00 20.00    -0.111 C 
HETATM    3  C4  UNL     1     -34.405  15.580  -5.509  1.00 20.00     0.087 A 
HETATM    4  C5  UNL     1     -35.840  15.142  -5.695  1.00 20.00     0.111 A 
HETATM    5  C6  UNL     1     -35.520  16.304  -4.773  1.00 20.00    -0.019 A 
HETATM    6  C7  UNL     1     -35.878  17.689  -5.257  1.00 20.00     0.017 C 
HETATM    7  C8  UNL     1     -35.676  16.140  -3.278  1.00 20.00     0.017 C 
ENDROOT
BRANCH   4   8
HETATM    8  C3  UNL     1     -36.327  13.861  -5.163  1.00 20.00     0.264 C 
HETATM    9  O10 UNL     1     -35.704  12.810  -5.232  1.00 20.00    -0.265 OA
BRANCH   8  10
HETATM   10  O11 UNL     1     -37.554  14.039  -4.596  1.00 20.00    -0.326 OA
HETATM   11  C9  UNL     1     -38.545  14.620  -5.448  1.00 20.00     0.213 C 
ENDBRANCH   8  10
ENDBRANCH   4   8
TORSDOF 2
ENDMDL
MODEL 7
REMARK VINA RESULT:      -4.0     11.131     12.276
REMARK  2 active torsions:
REMARK  status: ('A' for Active; 'I' for Inactive)
REMARK    1  A    between atoms: C3_3  and  C5_5 
REMARK    2  A    between atoms: C3_3  and  O11_11 
ROOT
HETATM    1  C1  UNL     1     -34.077  14.008  -7.819  1.00 20.00     0.012 C 
HETATM    2  C2  UNL     1     -34.941  13.816  -7.009  1.00 20.00    -0.111 C 
HETATM    3  C4  UNL     1     -35.974  13.585  -6.040  1.00 20.00     0.087 A 
HETATM    4  C5  UNL     1     -35.735  13.883  -4.577  1.00 20.00     0.111 A 
HETATM    5  C6  UNL     1     -36.690  14.750  -5.378  1.00 20.00    -0.019 A 
HETATM    6  C7  UNL     1     -38.165  14.587  -5.104  1.00 20.00     0.017 C 
HETATM    7  C8  UNL     1     -36.304  16.171  -5.719  1.00 20.00     0.017 C 
ENDROOT
BRANCH   4   8
HETATM    8  C3  UNL     1     -34.447  14.409  -4.102  1.00 20.00     0.264 C 
HETATM    9  O10 UNL     1     -33.359  13.959  -4.436  1.00 20.00    -0.265 OA
BRANCH   8  10
HETATM   10  O11 UNL     1     -34.666  15.451  -3.251  1.00 20.00    -0.326 OA
HETATM   11  C9  UNL     1     -33.642  16.450  -3.226  1.00 20.00     0.213 C 
ENDBRANCH   8  10
ENDBRANCH   4   8
TORSDOF 2
ENDMDL
MODEL 8
REMARK VINA RESULT:      -4.0     11.452     12.850
REMARK  2 active torsions:
REMARK  status: ('A' for Active; 'I' for Inactive)
REMARK    1  A    between atoms: C3_3  and  C5_5 
REMARK    2  A    between atoms: C3_3  and  O11_11 
ROOT
HETATM    1  C1  UNL     1     -34.031  16.634  -2.469  1.00 20.00     0.012 C 
HETATM    2  C2  UNL     1     -33.712  16.508  -3.618  1.00 20.00    -0.111 C 
HETATM    3  C4  UNL     1     -33.329  16.356  -4.993  1.00 20.00     0.087 A 
HETATM    4  C5  UNL     1     -33.771  15.146  -5.785  1.00 20.00     0.111 A 
HETATM    5  C6  UNL     1     -34.354  16.512  -6.104  1.00 20.00    -0.019 A 
HETATM    6  C7  UNL     1     -33.893  17.177  -7.378  1.00 20.00     0.017 C 
HETATM    7  C8  UNL     1     -35.798  16.807  -5.770  1.00 20.00     0.017 C 
ENDROOT
BRANCH   4   8
HETATM    8  C3  UNL     1     -34.596  14.092  -5.177  1.00 20.00     0.264 C 
HETATM    9  O10 UNL     1     -34.404  13.632  -4.059  1.00 20.00    -0.265 OA
BRANCH   8  10
HETATM   10  O11 UNL     1     -35.581  13.725  -6.046  1.00 20.00    -0.326 OA
HETATM   11  C9  UNL     1     -35.134  13.087  -7.246  1.00 20.00     0.213 C 
ENDBRANCH   8  10
ENDBRANCH   4   8
TORSDOF 2
ENDMDL
MODEL 9
REMARK VINA RESULT:      -4.0     11.834     13.039
REMARK  2 active torsions:
REMARK  status: ('A' for Active; 'I' for Inactive)
REMARK    1  A    between atoms: C3_3  and  C5_5 
REMARK    2  A    between atoms: C3_3  and  O11_11 
ROOT
HETATM    1  C1  UNL     1     -34.050  17.004  -1.708  1.00 20.00     0.012 C 
HETATM    2  C2  UNL     1     -34.685  16.469  -2.574  1.00 20.00    -0.111 C 
HETATM    3  C4  UNL     1     -35.445  15.830  -3.611  1.00 20.00     0.087 A 
HETATM    4  C5  UNL     1     -35.158  16.123  -5.066  1.00 20.00     0.111 A 
HETATM    5  C6  UNL     1     -34.813  14.762  -4.488  1.00 20.00    -0.019 A 
HETATM    6  C7  UNL     1     -35.686  13.599  -4.893  1.00 20.00     0.017 C 
HETATM    7  C8  UNL     1     -33.365  14.376  -4.291  1.00 20.00     0.017 C 
ENDROOT
BRANCH   4   8
HETATM    8  C3  UNL     1     -34.104  17.068  -5.464  1.00 20.00     0.264 C 
HETATM    9  O10 UNL     1     -33.908  18.145  -4.918  1.00 20.00    -0.265 OA
BRANCH   8  10
HETATM   10  O11 UNL     1     -33.404  16.553  -6.515  1.00 20.00    -0.326 OA
HETATM   11  C9  UNL     1     -34.138  16.420  -7.736  1.00 20.00     0.213 C 
ENDBRANCH   8  10
ENDBRANCH   4   8
TORSDOF 2
ENDMDL
