MODEL 1
REMARK VINA RESULT:      -5.8      0.000      0.000
REMARK  1 active torsions:
REMARK  status: ('A' for Active; 'I' for Inactive)
REMARK    1  A    between atoms: C3_3  and  C6_6 
ROOT
HETATM    1  C1  UNL     1     -34.820   5.190   5.271  1.00 20.00    -0.030 A 
HETATM    2  C2  UNL     1     -34.848   5.396   3.945  1.00 20.00    -0.025 A 
HETATM    3  C4  UNL     1     -34.128   6.347   5.947  1.00 20.00     0.033 A 
HETATM    4  C5  UNL     1     -34.227   6.663   3.527  1.00 20.00     0.024 A 
HETATM    5  C6  UNL     1     -32.755   6.906   3.756  1.00 20.00     0.068 A 
HETATM    6  C7  UNL     1     -33.752   7.293   4.823  1.00 20.00     0.009 A 
ENDROOT
BRANCH   5   7
HETATM    7  C3  UNL     1     -32.085   7.966   2.993  1.00 20.00     0.128 C 
HETATM    8  C8  UNL     1     -32.711   8.354   1.681  1.00 20.00     0.091 C 
HETATM    9  O9  UNL     1     -31.064   8.513   3.407  1.00 20.00    -0.298 OA
ENDBRANCH   5   7
TORSDOF 1
ENDMDL
MODEL 2
REMARK VINA RESULT:      -5.8      1.280      2.126
REMARK  1 active torsions:
REMARK  status: ('A' for Active; 'I' for Inactive)
REMARK    1  A    between atoms: C3_3  and  C6_6 
ROOT
HETATM    1  C1  UNL     1     -34.275   6.242   4.632  1.00 20.00    -0.030 A 
HETATM    2  C2  UNL     1     -33.512   7.315   4.895  1.00 20.00    -0.025 A 
HETATM    3  C4  UNL     1     -33.976   5.738   3.242  1.00 20.00     0.033 A 
HETATM    4  C5  UNL     1     -32.610   7.685   3.793  1.00 20.00     0.024 A 
HETATM    5  C6  UNL     1     -33.167   8.133   2.465  1.00 20.00     0.068 A 
HETATM    6  C7  UNL     1     -32.902   6.667   2.708  1.00 20.00     0.009 A 
ENDROOT
BRANCH   5   7
HETATM    7  C3  UNL     1     -32.294   8.868   1.541  1.00 20.00     0.128 C 
HETATM    8  C8  UNL     1     -32.744  10.245   1.136  1.00 20.00     0.091 C 
HETATM    9  O9  UNL     1     -31.244   8.383   1.122  1.00 20.00    -0.298 OA
ENDBRANCH   5   7
TORSDOF 1
ENDMDL
MODEL 3
REMARK VINA RESULT:      -5.0      1.775      3.775
REMARK  1 active torsions:
REMARK  status: ('A' for Active; 'I' for Inactive)
REMARK    1  A    between atoms: C3_3  and  C6_6 
ROOT
HETATM    1  C1  UNL     1     -32.048   8.763   1.921  1.00 20.00    -0.030 A 
HETATM    2  C2  UNL     1     -32.983   7.842   1.640  1.00 20.00    -0.025 A 
HETATM    3  C4  UNL     1     -31.490   8.511   3.300  1.00 20.00     0.033 A 
HETATM    4  C5  UNL     1     -33.191   6.859   2.716  1.00 20.00     0.024 A 
HETATM    5  C6  UNL     1     -33.713   7.298   4.062  1.00 20.00     0.068 A 
HETATM    6  C7  UNL     1     -32.225   7.284   3.805  1.00 20.00     0.009 A 
ENDROOT
BRANCH   5   7
HETATM    7  C3  UNL     1     -34.286   6.289   4.962  1.00 20.00     0.128 C 
HETATM    8  C8  UNL     1     -34.681   4.976   4.343  1.00 20.00     0.091 C 
HETATM    9  O9  UNL     1     -34.434   6.506   6.164  1.00 20.00    -0.298 OA
ENDBRANCH   5   7
TORSDOF 1
ENDMDL
MODEL 4
REMARK VINA RESULT:      -4.8      2.056      4.028
REMARK  1 active torsions:
REMARK  status: ('A' for Active; 'I' for Inactive)
REMARK    1  A    between atoms: C3_3  and  C6_6 
ROOT
HETATM    1  C1  UNL     1     -31.831   8.366   2.406  1.00 20.00    -0.030 A 
HETATM    2  C2  UNL     1     -31.741   8.037   3.705  1.00 20.00    -0.025 A 
HETATM    3  C4  UNL     1     -33.139   7.861   1.848  1.00 20.00     0.033 A 
HETATM    4  C5  UNL     1     -32.913   7.310   4.216  1.00 20.00     0.024 A 
HETATM    5  C6  UNL     1     -33.268   5.949   3.670  1.00 20.00     0.068 A 
HETATM    6  C7  UNL     1     -33.833   7.187   3.016  1.00 20.00     0.009 A 
ENDROOT
BRANCH   5   7
HETATM    7  C3  UNL     1     -34.165   5.085   4.448  1.00 20.00     0.128 C 
HETATM    8  C8  UNL     1     -34.752   5.674   5.701  1.00 20.00     0.091 C 
HETATM    9  O9  UNL     1     -34.427   3.938   4.090  1.00 20.00    -0.298 OA
ENDBRANCH   5   7
TORSDOF 1
ENDMDL
MODEL 5
REMARK VINA RESULT:      -4.7      1.762      4.401
REMARK  1 active torsions:
REMARK  status: ('A' for Active; 'I' for Inactive)
REMARK    1  A    between atoms: C3_3  and  C6_6 
ROOT
HETATM    1  C1  UNL     1     -32.082   9.875   0.183  1.00 20.00    -0.030 A 
HETATM    2  C2  UNL     1     -31.413   8.754   0.500  1.00 20.00    -0.025 A 
HETATM    3  C4  UNL     1     -32.952  10.288   1.344  1.00 20.00     0.033 A 
HETATM    4  C5  UNL     1     -31.693   8.260   1.857  1.00 20.00     0.024 A 
HETATM    5  C6  UNL     1     -33.080   7.801   2.234  1.00 20.00     0.068 A 
HETATM    6  C7  UNL     1     -32.695   9.249   2.419  1.00 20.00     0.009 A 
ENDROOT
BRANCH   5   7
HETATM    7  C3  UNL     1     -33.247   6.954   3.422  1.00 20.00     0.128 C 
HETATM    8  C8  UNL     1     -33.658   5.527   3.182  1.00 20.00     0.091 C 
HETATM    9  O9  UNL     1     -33.058   7.389   4.557  1.00 20.00    -0.298 OA
ENDBRANCH   5   7
TORSDOF 1
ENDMDL
MODEL 6
REMARK VINA RESULT:      -4.3     11.473     12.017
REMARK  1 active torsions:
REMARK  status: ('A' for Active; 'I' for Inactive)
REMARK    1  A    between atoms: C3_3  and  C6_6 
ROOT
HETATM    1  C1  UNL     1     -34.379  17.402  -0.977  1.00 20.00    -0.030 A 
HETATM    2  C2  UNL     1     -35.330  16.746  -1.661  1.00 20.00    -0.025 A 
HETATM    3  C4  UNL     1     -33.194  17.655  -1.876  1.00 20.00     0.033 A 
HETATM    4  C5  UNL     1     -34.973  16.475  -3.063  1.00 20.00     0.024 A 
HETATM    5  C6  UNL     1     -33.806  15.578  -3.395  1.00 20.00     0.068 A 
HETATM    6  C7  UNL     1     -33.583  17.061  -3.217  1.00 20.00     0.009 A 
ENDROOT
BRANCH   5   7
HETATM    7  C3  UNL     1     -33.715  15.004  -4.744  1.00 20.00     0.128 C 
HETATM    8  C8  UNL     1     -33.254  15.925  -5.841  1.00 20.00     0.091 C 
HETATM    9  O9  UNL     1     -33.998  13.828  -4.965  1.00 20.00    -0.298 OA
ENDBRANCH   5   7
TORSDOF 1
ENDMDL
MODEL 7
REMARK VINA RESULT:      -4.2     11.343     11.960
REMARK  1 active torsions:
REMARK  status: ('A' for Active; 'I' for Inactive)
REMARK    1  A    between atoms: C3_3  and  C6_6 
ROOT
HETATM    1  C1  UNL     1     -34.413  16.991  -1.687  1.00 20.00    -0.030 A 
HETATM    2  C2  UNL     1     -35.613  16.580  -2.128  1.00 20.00    -0.025 A 
HETATM    3  C4  UNL     1     -33.376  16.762  -2.760  1.00 20.00     0.033 A 
HETATM    4  C5  UNL     1     -35.592  16.049  -3.500  1.00 20.00     0.024 A 
HETATM    5  C6  UNL     1     -34.801  14.807  -3.828  1.00 20.00     0.068 A 
HETATM    6  C7  UNL     1     -34.140  16.161  -3.924  1.00 20.00     0.009 A 
ENDROOT
BRANCH   5   7
HETATM    7  C3  UNL     1     -35.108  14.077  -5.064  1.00 20.00     0.128 C 
HETATM    8  C8  UNL     1     -34.764  14.764  -6.358  1.00 20.00     0.091 C 
HETATM    9  O9  UNL     1     -35.619  12.958  -5.044  1.00 20.00    -0.298 OA
ENDBRANCH   5   7
TORSDOF 1
ENDMDL
MODEL 8
REMARK VINA RESULT:      -4.1     11.408     12.421
REMARK  1 active torsions:
REMARK  status: ('A' for Active; 'I' for Inactive)
REMARK    1  A    between atoms: C3_3  and  C6_6 
ROOT
HETATM    1  C1  UNL     1     -33.743  17.144  -3.713  1.00 20.00    -0.030 A 
HETATM    2  C2  UNL     1     -33.293  16.648  -4.877  1.00 20.00    -0.025 A 
HETATM    3  C4  UNL     1     -34.534  16.085  -2.986  1.00 20.00     0.033 A 
HETATM    4  C5  UNL     1     -33.670  15.245  -5.110  1.00 20.00     0.024 A 
HETATM    5  C6  UNL     1     -35.121  14.857  -5.253  1.00 20.00     0.068 A 
HETATM    6  C7  UNL     1     -34.481  14.866  -3.886  1.00 20.00     0.009 A 
ENDROOT
BRANCH   5   7
HETATM    7  C3  UNL     1     -35.452  13.568  -5.873  1.00 20.00     0.128 C 
HETATM    8  C8  UNL     1     -35.157  13.429  -7.342  1.00 20.00     0.091 C 
HETATM    9  O9  UNL     1     -35.942  12.646  -5.224  1.00 20.00    -0.298 OA
ENDBRANCH   5   7
TORSDOF 1
ENDMDL
MODEL 9
REMARK VINA RESULT:      -4.1     11.605     12.006
REMARK  1 active torsions:
REMARK  status: ('A' for Active; 'I' for Inactive)
REMARK    1  A    between atoms: C3_3  and  C6_6 
ROOT
HETATM    1  C1  UNL     1     -34.382  17.581  -0.581  1.00 20.00    -0.030 A 
HETATM    2  C2  UNL     1     -35.331  16.967  -1.305  1.00 20.00    -0.025 A 
HETATM    3  C4  UNL     1     -33.192  17.881  -1.460  1.00 20.00     0.033 A 
HETATM    4  C5  UNL     1     -34.969  16.774  -2.718  1.00 20.00     0.024 A 
HETATM    5  C6  UNL     1     -33.802  15.895  -3.096  1.00 20.00     0.068 A 
HETATM    6  C7  UNL     1     -33.576  17.365  -2.834  1.00 20.00     0.009 A 
ENDROOT
BRANCH   5   7
HETATM    7  C3  UNL     1     -33.707  15.398  -4.474  1.00 20.00     0.128 C 
HETATM    8  C8  UNL     1     -34.597  14.242  -4.840  1.00 20.00     0.091 C 
HETATM    9  O9  UNL     1     -32.939  15.904  -5.292  1.00 20.00    -0.298 OA
ENDBRANCH   5   7
TORSDOF 1
ENDMDL
