MODEL 1
REMARK VINA RESULT:      -4.7      0.000      0.000
REMARK  1 active torsions:
REMARK  status: ('A' for Active; 'I' for Inactive)
REMARK    1  A    between atoms: C1_1  and  C4_4 
ROOT
HETATM    1  C2  UNL     1     -35.019   6.143   3.575  1.00 20.00     0.041 A 
HETATM    2  C3  UNL     1     -33.852   5.255   3.882  1.00 20.00     0.100 A 
HETATM    3  C4  UNL     1     -33.739   6.744   4.125  1.00 20.00     0.050 A 
HETATM    4  C5  UNL     1     -33.757   7.203   5.561  1.00 20.00     0.026 C 
HETATM    5 CL8  UNL     1     -33.010   4.468   2.570  1.00 20.00    -0.124 Cl
ENDROOT
BRANCH   3   6
HETATM    6  C1  UNL     1     -32.933   7.561   3.188  1.00 20.00     0.228 C 
HETATM    7  O6  UNL     1     -33.274   7.729   2.021  1.00 20.00    -0.279 OA
HETATM    8 CL7  UNL     1     -31.512   8.214   3.946  1.00 20.00    -0.043 Cl
ENDBRANCH   3   6
TORSDOF 1
ENDMDL
MODEL 2
REMARK VINA RESULT:      -4.6      2.149      3.385
REMARK  1 active torsions:
REMARK  status: ('A' for Active; 'I' for Inactive)
REMARK    1  A    between atoms: C1_1  and  C4_4 
ROOT
HETATM    1  C2  UNL     1     -33.638   7.571   3.069  1.00 20.00     0.041 A 
HETATM    2  C3  UNL     1     -32.850   7.121   4.261  1.00 20.00     0.100 A 
HETATM    3  C4  UNL     1     -33.678   6.114   3.491  1.00 20.00     0.050 A 
HETATM    4  C5  UNL     1     -32.927   5.129   2.632  1.00 20.00     0.026 C 
HETATM    5 CL8  UNL     1     -33.314   7.675   5.850  1.00 20.00    -0.124 Cl
ENDROOT
BRANCH   3   6
HETATM    6  C1  UNL     1     -34.946   5.630   4.086  1.00 20.00     0.228 C 
HETATM    7  O6  UNL     1     -36.038   5.947   3.624  1.00 20.00    -0.279 OA
HETATM    8 CL7  UNL     1     -34.673   4.598   5.457  1.00 20.00    -0.043 Cl
ENDBRANCH   3   6
TORSDOF 1
ENDMDL
MODEL 3
REMARK VINA RESULT:      -4.4      1.346      1.346
REMARK  1 active torsions:
REMARK  status: ('A' for Active; 'I' for Inactive)
REMARK    1  A    between atoms: C1_1  and  C4_4 
ROOT
HETATM    1  C2  UNL     1     -34.859   6.484   3.461  1.00 20.00     0.041 A 
HETATM    2  C3  UNL     1     -33.850   5.440   3.830  1.00 20.00     0.100 A 
HETATM    3  C4  UNL     1     -33.620   6.879   4.242  1.00 20.00     0.050 A 
HETATM    4  C5  UNL     1     -33.804   7.207   5.702  1.00 20.00     0.026 C 
HETATM    5 CL8  UNL     1     -32.910   4.680   2.572  1.00 20.00    -0.124 Cl
ENDROOT
BRANCH   3   6
HETATM    6  C1  UNL     1     -32.602   7.674   3.516  1.00 20.00     0.228 C 
HETATM    7  O6  UNL     1     -31.574   8.060   4.064  1.00 20.00    -0.279 OA
HETATM    8 CL7  UNL     1     -33.054   7.962   1.863  1.00 20.00    -0.043 Cl
ENDBRANCH   3   6
TORSDOF 1
ENDMDL
MODEL 4
REMARK VINA RESULT:      -4.3      1.376      2.812
REMARK  1 active torsions:
REMARK  status: ('A' for Active; 'I' for Inactive)
REMARK    1  A    between atoms: C1_1  and  C4_4 
ROOT
HETATM    1  C2  UNL     1     -34.318   5.155   5.395  1.00 20.00     0.041 A 
HETATM    2  C3  UNL     1     -34.457   6.638   5.554  1.00 20.00     0.100 A 
HETATM    3  C4  UNL     1     -34.506   6.029   4.169  1.00 20.00     0.050 A 
HETATM    4  C5  UNL     1     -35.854   5.983   3.493  1.00 20.00     0.026 C 
HETATM    5 CL8  UNL     1     -33.086   7.569   6.102  1.00 20.00    -0.124 Cl
ENDROOT
BRANCH   3   6
HETATM    6  C1  UNL     1     -33.333   6.185   3.278  1.00 20.00     0.228 C 
HETATM    7  O6  UNL     1     -32.781   7.270   3.122  1.00 20.00    -0.279 OA
HETATM    8 CL7  UNL     1     -32.877   4.685   2.528  1.00 20.00    -0.043 Cl
ENDBRANCH   3   6
TORSDOF 1
ENDMDL
MODEL 5
REMARK VINA RESULT:      -4.3      1.691      1.758
REMARK  1 active torsions:
REMARK  status: ('A' for Active; 'I' for Inactive)
REMARK    1  A    between atoms: C1_1  and  C4_4 
ROOT
HETATM    1  C2  UNL     1     -35.300   5.820   3.595  1.00 20.00     0.041 A 
HETATM    2  C3  UNL     1     -34.152   4.872   3.756  1.00 20.00     0.100 A 
HETATM    3  C4  UNL     1     -34.310   6.022   4.726  1.00 20.00     0.050 A 
HETATM    4  C5  UNL     1     -34.778   5.680   6.118  1.00 20.00     0.026 C 
HETATM    5 CL8  UNL     1     -32.889   4.848   2.551  1.00 20.00    -0.124 Cl
ENDROOT
BRANCH   3   6
HETATM    6  C1  UNL     1     -33.397   7.183   4.611  1.00 20.00     0.228 C 
HETATM    7  O6  UNL     1     -32.908   7.721   5.600  1.00 20.00    -0.279 OA
HETATM    8 CL7  UNL     1     -33.131   7.645   2.957  1.00 20.00    -0.043 Cl
ENDBRANCH   3   6
TORSDOF 1
ENDMDL
MODEL 6
REMARK VINA RESULT:      -4.2      1.483      3.027
REMARK  1 active torsions:
REMARK  status: ('A' for Active; 'I' for Inactive)
REMARK    1  A    between atoms: C1_1  and  C4_4 
ROOT
HETATM    1  C2  UNL     1     -33.821   6.967   5.077  1.00 20.00     0.041 A 
HETATM    2  C3  UNL     1     -33.580   7.551   3.720  1.00 20.00     0.100 A 
HETATM    3  C4  UNL     1     -34.304   6.228   3.844  1.00 20.00     0.050 A 
HETATM    4  C5  UNL     1     -35.788   6.236   3.576  1.00 20.00     0.026 C 
HETATM    5 CL8  UNL     1     -31.947   7.655   3.113  1.00 20.00    -0.124 Cl
ENDROOT
BRANCH   3   6
HETATM    6  C1  UNL     1     -33.582   4.983   3.490  1.00 20.00     0.228 C 
HETATM    7  O6  UNL     1     -32.825   4.929   2.525  1.00 20.00    -0.279 OA
HETATM    8 CL7  UNL     1     -33.944   3.683   4.584  1.00 20.00    -0.043 Cl
ENDBRANCH   3   6
TORSDOF 1
ENDMDL
MODEL 7
REMARK VINA RESULT:      -4.2      1.955      3.216
REMARK  1 active torsions:
REMARK  status: ('A' for Active; 'I' for Inactive)
REMARK    1  A    between atoms: C1_1  and  C4_4 
ROOT
HETATM    1  C2  UNL     1     -33.751   7.592   2.593  1.00 20.00     0.041 A 
HETATM    2  C3  UNL     1     -32.325   7.282   2.930  1.00 20.00     0.100 A 
HETATM    3  C4  UNL     1     -33.431   6.434   3.520  1.00 20.00     0.050 A 
HETATM    4  C5  UNL     1     -33.593   5.043   2.963  1.00 20.00     0.026 C 
HETATM    5 CL8  UNL     1     -31.412   8.412   3.898  1.00 20.00    -0.124 Cl
ENDROOT
BRANCH   3   6
HETATM    6  C1  UNL     1     -33.780   6.611   4.949  1.00 20.00     0.228 C 
HETATM    7  O6  UNL     1     -33.441   7.609   5.577  1.00 20.00    -0.279 OA
HETATM    8 CL7  UNL     1     -34.696   5.270   5.569  1.00 20.00    -0.043 Cl
ENDBRANCH   3   6
TORSDOF 1
ENDMDL
MODEL 8
REMARK VINA RESULT:      -4.1      1.960      2.414
REMARK  1 active torsions:
REMARK  status: ('A' for Active; 'I' for Inactive)
REMARK    1  A    between atoms: C1_1  and  C4_4 
ROOT
HETATM    1  C2  UNL     1     -33.320   4.682   3.421  1.00 20.00     0.041 A 
HETATM    2  C3  UNL     1     -34.594   4.944   4.164  1.00 20.00     0.100 A 
HETATM    3  C4  UNL     1     -33.944   6.064   3.381  1.00 20.00     0.050 A 
HETATM    4  C5  UNL     1     -34.618   6.476   2.096  1.00 20.00     0.026 C 
HETATM    5 CL8  UNL     1     -34.585   4.914   5.909  1.00 20.00    -0.124 Cl
ENDROOT
BRANCH   3   6
HETATM    6  C1  UNL     1     -33.236   7.135   4.120  1.00 20.00     0.228 C 
HETATM    7  O6  UNL     1     -33.559   7.453   5.260  1.00 20.00    -0.279 OA
HETATM    8 CL7  UNL     1     -31.948   7.833   3.186  1.00 20.00    -0.043 Cl
ENDBRANCH   3   6
TORSDOF 1
ENDMDL
MODEL 9
REMARK VINA RESULT:      -3.7      2.562      2.936
REMARK  1 active torsions:
REMARK  status: ('A' for Active; 'I' for Inactive)
REMARK    1  A    between atoms: C1_1  and  C4_4 
ROOT
HETATM    1  C2  UNL     1     -33.437   5.325   3.168  1.00 20.00     0.041 A 
HETATM    2  C3  UNL     1     -34.481   6.356   2.868  1.00 20.00     0.100 A 
HETATM    3  C4  UNL     1     -33.382   6.675   3.858  1.00 20.00     0.050 A 
HETATM    4  C5  UNL     1     -32.312   7.635   3.401  1.00 20.00     0.026 C 
HETATM    5 CL8  UNL     1     -36.127   6.077   3.377  1.00 20.00    -0.124 Cl
ENDROOT
BRANCH   3   6
HETATM    6  C1  UNL     1     -33.707   6.697   5.303  1.00 20.00     0.228 C 
HETATM    7  O6  UNL     1     -33.456   7.671   6.006  1.00 20.00    -0.279 OA
HETATM    8 CL7  UNL     1     -34.459   5.221   5.827  1.00 20.00    -0.043 Cl
ENDBRANCH   3   6
TORSDOF 1
ENDMDL
