MODEL 1
REMARK VINA RESULT:      -5.8      0.000      0.000
REMARK  5 active torsions:
REMARK  status: ('A' for Active; 'I' for Inactive)
REMARK    1  A    between atoms: C1_1  and  C3_3 
REMARK    2  A    between atoms: C1_1  and  O11_11 
REMARK    3  A    between atoms: C4_4  and  C7_7 
REMARK    4  A    between atoms: C7_7  and  C8_8 
REMARK    5  A    between atoms: C9_9  and  O11_11 
ROOT
HETATM    1  C2  UNL     1     -33.994   6.145   2.019  1.00 20.00     0.020 A 
HETATM    2  C3  UNL     1     -32.835   6.513   2.906  1.00 20.00     0.090 A 
HETATM    3  C4  UNL     1     -34.223   6.349   3.492  1.00 20.00    -0.000 A 
ENDROOT
BRANCH   2   4
HETATM    4  C1  UNL     1     -32.256   7.857   2.812  1.00 20.00     0.263 C 
HETATM    5  O10 UNL     1     -31.329   8.255   3.505  1.00 20.00    -0.265 OA
BRANCH   4   6
HETATM    6  O11 UNL     1     -32.908   8.568   1.847  1.00 20.00    -0.322 OA
BRANCH   6   7
HETATM    7  C9  UNL     1     -32.076   9.125   0.826  1.00 20.00     0.174 C 
HETATM    8  C6  UNL     1     -32.938   9.515  -0.355  1.00 20.00     0.034 C 
ENDBRANCH   6   7
ENDBRANCH   4   6
ENDBRANCH   2   4
BRANCH   3   9
HETATM    9  C7  UNL     1     -34.531   5.186   4.372  1.00 20.00     0.005 C 
BRANCH   9  10
HETATM   10  C8  UNL     1     -34.539   5.562   5.864  1.00 20.00    -0.004 C 
HETATM   11  C5  UNL     1     -34.002   6.962   6.117  1.00 20.00     0.005 C 
ENDBRANCH   9  10
ENDBRANCH   3   9
TORSDOF 5
ENDMDL
MODEL 2
REMARK VINA RESULT:      -5.8      1.927      4.843
REMARK  5 active torsions:
REMARK  status: ('A' for Active; 'I' for Inactive)
REMARK    1  A    between atoms: C1_1  and  C3_3 
REMARK    2  A    between atoms: C1_1  and  O11_11 
REMARK    3  A    between atoms: C4_4  and  C7_7 
REMARK    4  A    between atoms: C7_7  and  C8_8 
REMARK    5  A    between atoms: C9_9  and  O11_11 
ROOT
HETATM    1  C2  UNL     1     -33.282   6.793   2.566  1.00 20.00     0.020 A 
HETATM    2  C3  UNL     1     -33.625   7.651   3.754  1.00 20.00     0.090 A 
HETATM    3  C4  UNL     1     -32.200   7.594   3.241  1.00 20.00    -0.000 A 
ENDROOT
BRANCH   2   4
HETATM    4  C1  UNL     1     -33.947   7.011   5.035  1.00 20.00     0.263 C 
HETATM    5  O10 UNL     1     -33.432   7.316   6.102  1.00 20.00    -0.265 OA
BRANCH   4   6
HETATM    6  O11 UNL     1     -34.891   6.047   4.838  1.00 20.00    -0.322 OA
BRANCH   6   7
HETATM    7  C9  UNL     1     -34.601   4.774   5.423  1.00 20.00     0.174 C 
HETATM    8  C6  UNL     1     -34.078   3.845   4.349  1.00 20.00     0.034 C 
ENDBRANCH   6   7
ENDBRANCH   4   6
ENDBRANCH   2   4
BRANCH   3   9
HETATM    9  C7  UNL     1     -31.603   8.775   2.556  1.00 20.00     0.005 C 
BRANCH   9  10
HETATM   10  C8  UNL     1     -31.925   8.810   1.052  1.00 20.00    -0.004 C 
HETATM   11  C5  UNL     1     -32.674  10.069   0.644  1.00 20.00     0.005 C 
ENDBRANCH   9  10
ENDBRANCH   3   9
TORSDOF 5
ENDMDL
MODEL 3
REMARK VINA RESULT:      -5.7      1.918      5.040
REMARK  5 active torsions:
REMARK  status: ('A' for Active; 'I' for Inactive)
REMARK    1  A    between atoms: C1_1  and  C3_3 
REMARK    2  A    between atoms: C1_1  and  O11_11 
REMARK    3  A    between atoms: C4_4  and  C7_7 
REMARK    4  A    between atoms: C7_7  and  C8_8 
REMARK    5  A    between atoms: C9_9  and  O11_11 
ROOT
HETATM    1  C2  UNL     1     -33.200   7.903   3.638  1.00 20.00     0.020 A 
HETATM    2  C3  UNL     1     -32.540   6.702   3.013  1.00 20.00     0.090 A 
HETATM    3  C4  UNL     1     -32.910   7.900   2.161  1.00 20.00    -0.000 A 
ENDROOT
BRANCH   2   4
HETATM    4  C1  UNL     1     -33.304   5.459   2.864  1.00 20.00     0.263 C 
HETATM    5  O10 UNL     1     -32.895   4.471   2.268  1.00 20.00    -0.265 OA
BRANCH   4   6
HETATM    6  O11 UNL     1     -34.511   5.588   3.484  1.00 20.00    -0.322 OA
BRANCH   6   7
HETATM    7  C9  UNL     1     -34.775   4.637   4.520  1.00 20.00     0.174 C 
HETATM    8  C6  UNL     1     -34.574   5.303   5.864  1.00 20.00     0.034 C 
ENDBRANCH   6   7
ENDBRANCH   4   6
ENDBRANCH   2   4
BRANCH   3   9
HETATM    9  C7  UNL     1     -31.844   8.779   1.603  1.00 20.00     0.005 C 
BRANCH   9  10
HETATM   10  C8  UNL     1     -32.412   9.927   0.751  1.00 20.00    -0.004 C 
HETATM   11  C5  UNL     1     -33.184   9.429  -0.460  1.00 20.00     0.005 C 
ENDBRANCH   9  10
ENDBRANCH   3   9
TORSDOF 5
ENDMDL
MODEL 4
REMARK VINA RESULT:      -5.4      1.115      1.433
REMARK  5 active torsions:
REMARK  status: ('A' for Active; 'I' for Inactive)
REMARK    1  A    between atoms: C1_1  and  C3_3 
REMARK    2  A    between atoms: C1_1  and  O11_11 
REMARK    3  A    between atoms: C4_4  and  C7_7 
REMARK    4  A    between atoms: C7_7  and  C8_8 
REMARK    5  A    between atoms: C9_9  and  O11_11 
ROOT
HETATM    1  C2  UNL     1     -33.837   7.570   4.032  1.00 20.00     0.020 A 
HETATM    2  C3  UNL     1     -33.107   7.519   2.717  1.00 20.00     0.090 A 
HETATM    3  C4  UNL     1     -33.172   6.290   3.601  1.00 20.00    -0.000 A 
ENDROOT
BRANCH   2   4
HETATM    4  C1  UNL     1     -31.831   8.228   2.575  1.00 20.00     0.263 C 
HETATM    5  O10 UNL     1     -31.059   8.442   3.500  1.00 20.00    -0.265 OA
BRANCH   4   6
HETATM    6  O11 UNL     1     -31.656   8.595   1.273  1.00 20.00    -0.322 OA
BRANCH   6   7
HETATM    7  C9  UNL     1     -32.389   9.751   0.857  1.00 20.00     0.174 C 
HETATM    8  C6  UNL     1     -33.121   9.434  -0.430  1.00 20.00     0.034 C 
ENDBRANCH   6   7
ENDBRANCH   4   6
ENDBRANCH   2   4
BRANCH   3   9
HETATM    9  C7  UNL     1     -33.996   5.117   3.194  1.00 20.00     0.005 C 
BRANCH   9  10
HETATM   10  C8  UNL     1     -34.229   4.130   4.350  1.00 20.00    -0.004 C 
HETATM   11  C5  UNL     1     -34.642   4.825   5.638  1.00 20.00     0.005 C 
ENDBRANCH   9  10
ENDBRANCH   3   9
TORSDOF 5
ENDMDL
MODEL 5
REMARK VINA RESULT:      -5.4      0.872      1.356
REMARK  5 active torsions:
REMARK  status: ('A' for Active; 'I' for Inactive)
REMARK    1  A    between atoms: C1_1  and  C3_3 
REMARK    2  A    between atoms: C1_1  and  O11_11 
REMARK    3  A    between atoms: C4_4  and  C7_7 
REMARK    4  A    between atoms: C7_7  and  C8_8 
REMARK    5  A    between atoms: C9_9  and  O11_11 
ROOT
HETATM    1  C2  UNL     1     -33.780   6.621   2.590  1.00 20.00     0.020 A 
HETATM    2  C3  UNL     1     -32.510   7.095   3.243  1.00 20.00     0.090 A 
HETATM    3  C4  UNL     1     -33.838   7.252   3.955  1.00 20.00    -0.000 A 
ENDROOT
BRANCH   2   4
HETATM    4  C1  UNL     1     -31.836   8.289   2.722  1.00 20.00     0.263 C 
HETATM    5  O10 UNL     1     -31.272   9.118   3.423  1.00 20.00    -0.265 OA
BRANCH   4   6
HETATM    6  O11 UNL     1     -31.941   8.315   1.363  1.00 20.00    -0.322 OA
BRANCH   6   7
HETATM    7  C9  UNL     1     -32.221   9.597   0.792  1.00 20.00     0.174 C 
HETATM    8  C6  UNL     1     -33.131   9.417  -0.404  1.00 20.00     0.034 C 
ENDBRANCH   6   7
ENDBRANCH   4   6
ENDBRANCH   2   4
BRANCH   3   9
HETATM    9  C7  UNL     1     -34.148   6.422   5.154  1.00 20.00     0.005 C 
BRANCH   9  10
HETATM   10  C8  UNL     1     -35.006   5.191   4.813  1.00 20.00    -0.004 C 
HETATM   11  C5  UNL     1     -34.170   3.942   4.583  1.00 20.00     0.005 C 
ENDBRANCH   9  10
ENDBRANCH   3   9
TORSDOF 5
ENDMDL
MODEL 6
REMARK VINA RESULT:      -5.1      2.335      4.784
REMARK  5 active torsions:
REMARK  status: ('A' for Active; 'I' for Inactive)
REMARK    1  A    between atoms: C1_1  and  C3_3 
REMARK    2  A    between atoms: C1_1  and  O11_11 
REMARK    3  A    between atoms: C4_4  and  C7_7 
REMARK    4  A    between atoms: C7_7  and  C8_8 
REMARK    5  A    between atoms: C9_9  and  O11_11 
ROOT
HETATM    1  C2  UNL     1     -32.938   5.181   2.222  1.00 20.00     0.020 A 
HETATM    2  C3  UNL     1     -34.189   5.549   2.973  1.00 20.00     0.090 A 
HETATM    3  C4  UNL     1     -33.024   6.516   2.912  1.00 20.00    -0.000 A 
ENDROOT
BRANCH   2   4
HETATM    4  C1  UNL     1     -34.491   4.877   4.242  1.00 20.00     0.263 C 
HETATM    5  O10 UNL     1     -34.201   3.714   4.486  1.00 20.00    -0.265 OA
BRANCH   4   6
HETATM    6  O11 UNL     1     -35.129   5.745   5.077  1.00 20.00    -0.322 OA
BRANCH   6   7
HETATM    7  C9  UNL     1     -34.399   6.120   6.249  1.00 20.00     0.174 C 
HETATM    8  C6  UNL     1     -33.687   7.430   5.989  1.00 20.00     0.034 C 
ENDBRANCH   6   7
ENDBRANCH   4   6
ENDBRANCH   2   4
BRANCH   3   9
HETATM    9  C7  UNL     1     -33.132   7.769   2.112  1.00 20.00     0.005 C 
BRANCH   9  10
HETATM   10  C8  UNL     1     -31.762   8.412   1.836  1.00 20.00    -0.004 C 
HETATM   11  C5  UNL     1     -31.748   9.230   0.554  1.00 20.00     0.005 C 
ENDBRANCH   9  10
ENDBRANCH   3   9
TORSDOF 5
ENDMDL
MODEL 7
REMARK VINA RESULT:      -4.5      1.011      1.185
REMARK  5 active torsions:
REMARK  status: ('A' for Active; 'I' for Inactive)
REMARK    1  A    between atoms: C1_1  and  C3_3 
REMARK    2  A    between atoms: C1_1  and  O11_11 
REMARK    3  A    between atoms: C4_4  and  C7_7 
REMARK    4  A    between atoms: C7_7  and  C8_8 
REMARK    5  A    between atoms: C9_9  and  O11_11 
ROOT
HETATM    1  C2  UNL     1     -33.075   5.270   2.080  1.00 20.00     0.020 A 
HETATM    2  C3  UNL     1     -32.742   6.314   3.112  1.00 20.00     0.090 A 
HETATM    3  C4  UNL     1     -33.981   5.455   3.267  1.00 20.00    -0.000 A 
ENDROOT
BRANCH   2   4
HETATM    4  C1  UNL     1     -32.896   7.733   2.775  1.00 20.00     0.263 C 
HETATM    5  O10 UNL     1     -33.800   8.443   3.196  1.00 20.00    -0.265 OA
BRANCH   4   6
HETATM    6  O11 UNL     1     -31.890   8.115   1.938  1.00 20.00    -0.322 OA
BRANCH   6   7
HETATM    7  C9  UNL     1     -32.303   8.810   0.758  1.00 20.00     0.174 C 
HETATM    8  C6  UNL     1     -32.428  10.286   1.072  1.00 20.00     0.034 C 
ENDBRANCH   6   7
ENDBRANCH   4   6
ENDBRANCH   2   4
BRANCH   3   9
HETATM    9  C7  UNL     1     -34.043   4.416   4.334  1.00 20.00     0.005 C 
BRANCH   9  10
HETATM   10  C8  UNL     1     -34.746   4.918   5.607  1.00 20.00    -0.004 C 
HETATM   11  C5  UNL     1     -34.357   6.344   5.965  1.00 20.00     0.005 C 
ENDBRANCH   9  10
ENDBRANCH   3   9
TORSDOF 5
ENDMDL
MODEL 8
REMARK VINA RESULT:      -4.5     10.318     11.152
REMARK  5 active torsions:
REMARK  status: ('A' for Active; 'I' for Inactive)
REMARK    1  A    between atoms: C1_1  and  C3_3 
REMARK    2  A    between atoms: C1_1  and  O11_11 
REMARK    3  A    between atoms: C4_4  and  C7_7 
REMARK    4  A    between atoms: C7_7  and  C8_8 
REMARK    5  A    between atoms: C9_9  and  O11_11 
ROOT
HETATM    1  C2  UNL     1     -33.698  16.620  -4.301  1.00 20.00     0.020 A 
HETATM    2  C3  UNL     1     -34.590  15.437  -4.033  1.00 20.00     0.090 A 
HETATM    3  C4  UNL     1     -33.988  16.216  -2.880  1.00 20.00    -0.000 A 
ENDROOT
BRANCH   2   4
HETATM    4  C1  UNL     1     -34.095  14.085  -4.314  1.00 20.00     0.263 C 
HETATM    5  O10 UNL     1     -32.911  13.775  -4.314  1.00 20.00    -0.265 OA
BRANCH   4   6
HETATM    6  O11 UNL     1     -35.148  13.258  -4.569  1.00 20.00    -0.322 OA
BRANCH   6   7
HETATM    7  C9  UNL     1     -35.964  13.627  -5.684  1.00 20.00     0.174 C 
HETATM    8  C6  UNL     1     -35.261  13.229  -6.964  1.00 20.00     0.034 C 
ENDBRANCH   6   7
ENDBRANCH   4   6
ENDBRANCH   2   4
BRANCH   3   9
HETATM    9  C7  UNL     1     -34.856  17.068  -2.019  1.00 20.00     0.005 C 
BRANCH   9  10
HETATM   10  C8  UNL     1     -34.099  17.651  -0.812  1.00 20.00    -0.004 C 
HETATM   11  C5  UNL     1     -32.719  18.169  -1.184  1.00 20.00     0.005 C 
ENDBRANCH   9  10
ENDBRANCH   3   9
TORSDOF 5
ENDMDL
MODEL 9
REMARK VINA RESULT:      -4.4     10.573     11.438
REMARK  5 active torsions:
REMARK  status: ('A' for Active; 'I' for Inactive)
REMARK    1  A    between atoms: C1_1  and  C3_3 
REMARK    2  A    between atoms: C1_1  and  O11_11 
REMARK    3  A    between atoms: C4_4  and  C7_7 
REMARK    4  A    between atoms: C7_7  and  C8_8 
REMARK    5  A    between atoms: C9_9  and  O11_11 
ROOT
HETATM    1  C2  UNL     1     -33.375  14.344  -4.419  1.00 20.00     0.020 A 
HETATM    2  C3  UNL     1     -34.627  14.864  -5.072  1.00 20.00     0.090 A 
HETATM    3  C4  UNL     1     -34.277  15.279  -3.658  1.00 20.00    -0.000 A 
ENDROOT
BRANCH   2   4
HETATM    4  C1  UNL     1     -35.757  13.953  -5.288  1.00 20.00     0.263 C 
HETATM    5  O10 UNL     1     -35.710  12.746  -5.095  1.00 20.00    -0.265 OA
BRANCH   4   6
HETATM    6  O11 UNL     1     -36.836  14.661  -5.727  1.00 20.00    -0.322 OA
BRANCH   6   7
HETATM    7  C9  UNL     1     -37.896  14.818  -4.779  1.00 20.00     0.174 C 
HETATM    8  C6  UNL     1     -37.954  16.265  -4.339  1.00 20.00     0.034 C 
ENDBRANCH   6   7
ENDBRANCH   4   6
ENDBRANCH   2   4
BRANCH   3   9
HETATM    9  C7  UNL     1     -33.842  16.676  -3.373  1.00 20.00     0.005 C 
BRANCH   9  10
HETATM   10  C8  UNL     1     -33.918  17.025  -1.877  1.00 20.00    -0.004 C 
HETATM   11  C5  UNL     1     -35.328  16.904  -1.320  1.00 20.00     0.005 C 
ENDBRANCH   9  10
ENDBRANCH   3   9
TORSDOF 5
ENDMDL
