MODEL 1
REMARK VINA RESULT:      -5.3      0.000      0.000
REMARK  3 active torsions:
REMARK  status: ('A' for Active; 'I' for Inactive)
REMARK    1  A    between atoms: C3_3  and  C8_8 
REMARK    2  A    between atoms: C6_6  and  C9_9 
REMARK    3  A    between atoms: C7_7  and  C10_10 
ROOT
HETATM    1  C5  UNL     1     -31.110   7.882   3.700  1.00 20.00     0.019 C 
HETATM    2  C8  UNL     1     -32.183   7.607   2.540  1.00 20.00     0.078 C 
HETATM    3  C9  UNL     1     -32.347   8.341   4.531  1.00 20.00    -0.001 C 
HETATM    4  C10 UNL     1     -33.071   7.160   3.737  1.00 20.00     0.010 C 
ENDROOT
BRANCH   2   5
HETATM    5  C3  UNL     1     -32.647   8.775   1.661  1.00 20.00     0.223 C 
HETATM    6  O11 UNL     1     -33.669   9.406   1.914  1.00 20.00    -0.279 OA
HETATM    7 CL12 UNL     1     -31.570   9.058   0.328  1.00 20.00    -0.043 Cl
ENDBRANCH   2   5
BRANCH   4   8
HETATM    8  C7  UNL     1     -34.417   7.074   4.454  1.00 20.00     0.014 C 
HETATM    9  C2  UNL     1     -34.372   6.184   5.667  1.00 20.00    -0.025 C 
HETATM   10  C1  UNL     1     -34.257   4.915   5.238  1.00 20.00    -0.025 C 
HETATM   11  C6  UNL     1     -34.064   4.974   3.727  1.00 20.00     0.013 C 
HETATM   12  C4  UNL     1     -35.083   6.083   3.463  1.00 20.00     0.017 C 
ENDBRANCH   4   8
TORSDOF 3
ENDMDL
MODEL 2
REMARK VINA RESULT:      -5.1      2.693      4.446
REMARK  3 active torsions:
REMARK  status: ('A' for Active; 'I' for Inactive)
REMARK    1  A    between atoms: C3_3  and  C8_8 
REMARK    2  A    between atoms: C6_6  and  C9_9 
REMARK    3  A    between atoms: C7_7  and  C10_10 
ROOT
HETATM    1  C5  UNL     1     -34.527   7.123   4.485  1.00 20.00     0.019 C 
HETATM    2  C8  UNL     1     -34.099   6.414   3.110  1.00 20.00     0.078 C 
HETATM    3  C9  UNL     1     -33.015   7.483   4.597  1.00 20.00    -0.001 C 
HETATM    4  C10 UNL     1     -33.135   7.630   3.012  1.00 20.00     0.010 C 
ENDROOT
BRANCH   2   5
HETATM    5  C3  UNL     1     -33.515   4.998   3.152  1.00 20.00     0.223 C 
HETATM    6  O11 UNL     1     -32.643   4.636   2.367  1.00 20.00    -0.279 OA
HETATM    7 CL12 UNL     1     -34.230   4.032   4.407  1.00 20.00    -0.043 Cl
ENDBRANCH   2   5
BRANCH   4   8
HETATM    8  C7  UNL     1     -31.787   8.251   2.648  1.00 20.00     0.014 C 
HETATM    9  C2  UNL     1     -31.840   9.754   2.581  1.00 20.00    -0.025 C 
HETATM   10  C1  UNL     1     -32.550  10.089   1.490  1.00 20.00    -0.025 C 
HETATM   11  C6  UNL     1     -33.111   8.795   0.912  1.00 20.00     0.013 C 
HETATM   12  C4  UNL     1     -31.856   7.948   1.128  1.00 20.00     0.017 C 
ENDBRANCH   4   8
TORSDOF 3
ENDMDL
MODEL 3
REMARK VINA RESULT:      -5.1     10.673     11.838
REMARK  3 active torsions:
REMARK  status: ('A' for Active; 'I' for Inactive)
REMARK    1  A    between atoms: C3_3  and  C8_8 
REMARK    2  A    between atoms: C6_6  and  C9_9 
REMARK    3  A    between atoms: C7_7  and  C10_10 
ROOT
HETATM    1  C5  UNL     1     -32.875  14.336  -4.512  1.00 20.00     0.019 C 
HETATM    2  C8  UNL     1     -34.361  14.324  -3.907  1.00 20.00     0.078 C 
HETATM    3  C9  UNL     1     -33.293  15.708  -5.120  1.00 20.00    -0.001 C 
HETATM    4  C10 UNL     1     -34.097  15.849  -3.749  1.00 20.00     0.010 C 
ENDROOT
BRANCH   2   5
HETATM    5  C3  UNL     1     -35.521  13.855  -4.792  1.00 20.00     0.223 C 
HETATM    6  O11 UNL     1     -35.416  12.880  -5.530  1.00 20.00    -0.279 OA
HETATM    7 CL12 UNL     1     -36.932  14.851  -4.604  1.00 20.00    -0.043 Cl
ENDBRANCH   2   5
BRANCH   4   8
HETATM    8  C7  UNL     1     -34.556  17.305  -3.798  1.00 20.00     0.014 C 
HETATM    9  C2  UNL     1     -33.471  18.269  -3.402  1.00 20.00    -0.025 C 
HETATM   10  C1  UNL     1     -33.269  18.136  -2.080  1.00 20.00    -0.025 C 
HETATM   11  C6  UNL     1     -34.118  16.957  -1.619  1.00 20.00     0.013 C 
HETATM   12  C4  UNL     1     -35.349  17.287  -2.465  1.00 20.00     0.017 C 
ENDBRANCH   4   8
TORSDOF 3
ENDMDL
MODEL 4
REMARK VINA RESULT:      -4.8     11.042     11.864
REMARK  3 active torsions:
REMARK  status: ('A' for Active; 'I' for Inactive)
REMARK    1  A    between atoms: C3_3  and  C8_8 
REMARK    2  A    between atoms: C6_6  and  C9_9 
REMARK    3  A    between atoms: C7_7  and  C10_10 
ROOT
HETATM    1  C5  UNL     1     -35.177  17.010  -0.997  1.00 20.00     0.019 C 
HETATM    2  C8  UNL     1     -33.759  17.091  -1.744  1.00 20.00     0.078 C 
HETATM    3  C9  UNL     1     -35.765  17.394  -2.388  1.00 20.00    -0.001 C 
HETATM    4  C10 UNL     1     -34.569  16.483  -2.925  1.00 20.00     0.010 C 
ENDROOT
BRANCH   2   5
HETATM    5  C3  UNL     1     -33.088  18.458  -1.923  1.00 20.00     0.223 C 
HETATM    6  O11 UNL     1     -32.797  18.893  -3.034  1.00 20.00    -0.279 OA
HETATM    7 CL12 UNL     1     -32.816  19.257  -0.405  1.00 20.00    -0.043 Cl
ENDBRANCH   2   5
BRANCH   4   8
HETATM    8  C7  UNL     1     -34.898  16.372  -4.413  1.00 20.00     0.014 C 
HETATM    9  C2  UNL     1     -35.776  15.190  -4.725  1.00 20.00    -0.025 C 
HETATM   10  C1  UNL     1     -35.037  14.079  -4.568  1.00 20.00    -0.025 C 
HETATM   11  C6  UNL     1     -33.696  14.516  -3.991  1.00 20.00     0.013 C 
HETATM   12  C4  UNL     1     -33.536  15.771  -4.852  1.00 20.00     0.017 C 
ENDBRANCH   4   8
TORSDOF 3
ENDMDL
MODEL 5
REMARK VINA RESULT:      -4.7     10.805     11.870
REMARK  3 active torsions:
REMARK  status: ('A' for Active; 'I' for Inactive)
REMARK    1  A    between atoms: C3_3  and  C8_8 
REMARK    2  A    between atoms: C6_6  and  C9_9 
REMARK    3  A    between atoms: C7_7  and  C10_10 
ROOT
HETATM    1  C5  UNL     1     -34.109  14.030  -4.085  1.00 20.00     0.019 C 
HETATM    2  C8  UNL     1     -35.393  14.985  -4.197  1.00 20.00     0.078 C 
HETATM    3  C9  UNL     1     -33.298  15.348  -4.270  1.00 20.00    -0.001 C 
HETATM    4  C10 UNL     1     -34.486  15.969  -3.404  1.00 20.00     0.010 C 
ENDROOT
BRANCH   2   5
HETATM    5  C3  UNL     1     -35.901  15.391  -5.585  1.00 20.00     0.223 C 
HETATM    6  O11 UNL     1     -36.311  16.525  -5.816  1.00 20.00    -0.279 OA
HETATM    7 CL12 UNL     1     -35.816  14.080  -6.723  1.00 20.00    -0.043 Cl
ENDBRANCH   2   5
BRANCH   4   8
HETATM    8  C7  UNL     1     -33.964  17.374  -3.107  1.00 20.00     0.014 C 
HETATM    9  C2  UNL     1     -33.328  17.480  -1.747  1.00 20.00    -0.025 C 
HETATM   10  C1  UNL     1     -34.309  17.401  -0.831  1.00 20.00    -0.025 C 
HETATM   11  C6  UNL     1     -35.594  17.078  -1.585  1.00 20.00     0.013 C 
HETATM   12  C4  UNL     1     -35.339  18.008  -2.772  1.00 20.00     0.017 C 
ENDBRANCH   4   8
TORSDOF 3
ENDMDL
MODEL 6
REMARK VINA RESULT:      -4.4     10.855     11.953
REMARK  3 active torsions:
REMARK  status: ('A' for Active; 'I' for Inactive)
REMARK    1  A    between atoms: C3_3  and  C8_8 
REMARK    2  A    between atoms: C6_6  and  C9_9 
REMARK    3  A    between atoms: C7_7  and  C10_10 
ROOT
HETATM    1  C5  UNL     1     -36.276  17.330  -2.514  1.00 20.00     0.019 C 
HETATM    2  C8  UNL     1     -34.958  16.621  -1.935  1.00 20.00     0.078 C 
HETATM    3  C9  UNL     1     -35.348  17.759  -3.690  1.00 20.00    -0.001 C 
HETATM    4  C10 UNL     1     -34.695  16.324  -3.439  1.00 20.00     0.010 C 
ENDROOT
BRANCH   2   5
HETATM    5  C3  UNL     1     -33.944  17.461  -1.150  1.00 20.00     0.223 C 
HETATM    6  O11 UNL     1     -32.796  17.628  -1.552  1.00 20.00    -0.279 OA
HETATM    7 CL12 UNL     1     -34.623  18.108   0.313  1.00 20.00    -0.043 Cl
ENDBRANCH   2   5
BRANCH   4   8
HETATM    8  C7  UNL     1     -33.759  16.187  -4.638  1.00 20.00     0.014 C 
HETATM    9  C2  UNL     1     -34.479  15.766  -5.891  1.00 20.00    -0.025 C 
HETATM   10  C1  UNL     1     -34.848  14.483  -5.738  1.00 20.00    -0.025 C 
HETATM   11  C6  UNL     1     -34.509  14.092  -4.304  1.00 20.00     0.013 C 
HETATM   12  C4  UNL     1     -33.161  14.812  -4.241  1.00 20.00     0.017 C 
ENDBRANCH   4   8
TORSDOF 3
ENDMDL
MODEL 7
REMARK VINA RESULT:      -4.3     11.049     12.025
REMARK  3 active torsions:
REMARK  status: ('A' for Active; 'I' for Inactive)
REMARK    1  A    between atoms: C3_3  and  C8_8 
REMARK    2  A    between atoms: C6_6  and  C9_9 
REMARK    3  A    between atoms: C7_7  and  C10_10 
ROOT
HETATM    1  C5  UNL     1     -36.197  15.991  -5.465  1.00 20.00     0.019 C 
HETATM    2  C8  UNL     1     -34.625  15.823  -5.187  1.00 20.00     0.078 C 
HETATM    3  C9  UNL     1     -36.358  15.506  -3.993  1.00 20.00    -0.001 C 
HETATM    4  C10 UNL     1     -35.019  16.348  -3.776  1.00 20.00     0.010 C 
ENDROOT
BRANCH   2   5
HETATM    5  C3  UNL     1     -33.990  14.435  -5.317  1.00 20.00     0.223 C 
HETATM    6  O11 UNL     1     -34.394  13.614  -6.136  1.00 20.00    -0.279 OA
HETATM    7 CL12 UNL     1     -32.683  14.205  -4.195  1.00 20.00    -0.043 Cl
ENDBRANCH   2   5
BRANCH   4   8
HETATM    8  C7  UNL     1     -34.884  16.344  -2.254  1.00 20.00     0.014 C 
HETATM    9  C2  UNL     1     -35.752  17.381  -1.593  1.00 20.00    -0.025 C 
HETATM   10  C1  UNL     1     -35.227  18.587  -1.868  1.00 20.00    -0.025 C 
HETATM   11  C6  UNL     1     -34.089  18.361  -2.856  1.00 20.00     0.013 C 
HETATM   12  C4  UNL     1     -33.531  17.100  -2.194  1.00 20.00     0.017 C 
ENDBRANCH   4   8
TORSDOF 3
ENDMDL
MODEL 8
REMARK VINA RESULT:      -4.3      2.710      4.573
REMARK  3 active torsions:
REMARK  status: ('A' for Active; 'I' for Inactive)
REMARK    1  A    between atoms: C3_3  and  C8_8 
REMARK    2  A    between atoms: C6_6  and  C9_9 
REMARK    3  A    between atoms: C7_7  and  C10_10 
ROOT
HETATM    1  C5  UNL     1     -33.484   5.203   2.813  1.00 20.00     0.019 C 
HETATM    2  C8  UNL     1     -32.969   6.259   3.907  1.00 20.00     0.078 C 
HETATM    3  C9  UNL     1     -34.314   6.402   2.264  1.00 20.00    -0.001 C 
HETATM    4  C10 UNL     1     -33.027   7.239   2.700  1.00 20.00     0.010 C 
ENDROOT
BRANCH   2   5
HETATM    5  C3  UNL     1     -33.837   6.538   5.139  1.00 20.00     0.223 C 
HETATM    6  O11 UNL     1     -33.853   7.641   5.680  1.00 20.00    -0.279 OA
HETATM    7 CL12 UNL     1     -34.745   5.141   5.631  1.00 20.00    -0.043 Cl
ENDBRANCH   2   5
BRANCH   4   8
HETATM    8  C7  UNL     1     -33.320   8.611   2.096  1.00 20.00     0.014 C 
HETATM    9  C2  UNL     1     -32.837   8.734   0.676  1.00 20.00    -0.025 C 
HETATM   10  C1  UNL     1     -31.494   8.777   0.704  1.00 20.00    -0.025 C 
HETATM   11  C6  UNL     1     -31.073   8.519   2.146  1.00 20.00     0.013 C 
HETATM   12  C4  UNL     1     -32.164   9.367   2.801  1.00 20.00     0.017 C 
ENDBRANCH   4   8
TORSDOF 3
ENDMDL
MODEL 9
REMARK VINA RESULT:      -4.3     11.366     12.450
REMARK  3 active torsions:
REMARK  status: ('A' for Active; 'I' for Inactive)
REMARK    1  A    between atoms: C3_3  and  C8_8 
REMARK    2  A    between atoms: C6_6  and  C9_9 
REMARK    3  A    between atoms: C7_7  and  C10_10 
ROOT
HETATM    1  C5  UNL     1     -36.920  17.374  -3.885  1.00 20.00     0.019 C 
HETATM    2  C8  UNL     1     -37.184  16.193  -4.939  1.00 20.00     0.078 C 
HETATM    3  C9  UNL     1     -36.152  16.283  -3.080  1.00 20.00    -0.001 C 
HETATM    4  C10 UNL     1     -35.740  15.778  -4.537  1.00 20.00     0.010 C 
ENDROOT
BRANCH   2   5
HETATM    5  C3  UNL     1     -38.339  15.216  -4.690  1.00 20.00     0.223 C 
HETATM    6  O11 UNL     1     -38.209  14.007  -4.861  1.00 20.00    -0.279 OA
HETATM    7 CL12 UNL     1     -39.780  16.028  -4.157  1.00 20.00    -0.043 Cl
ENDBRANCH   2   5
BRANCH   4   8
HETATM    8  C7  UNL     1     -34.684  14.720  -4.220  1.00 20.00     0.014 C 
HETATM    9  C2  UNL     1     -33.291  15.288  -4.171  1.00 20.00    -0.025 C 
HETATM   10  C1  UNL     1     -32.933  15.601  -5.428  1.00 20.00    -0.025 C 
HETATM   11  C6  UNL     1     -34.162  15.388  -6.305  1.00 20.00     0.013 C 
HETATM   12  C4  UNL     1     -34.629  14.093  -5.638  1.00 20.00     0.017 C 
ENDBRANCH   4   8
TORSDOF 3
ENDMDL
