MODEL 1
REMARK VINA RESULT:      -4.5      0.000      0.000
REMARK  2 active torsions:
REMARK  status: ('A' for Active; 'I' for Inactive)
REMARK    1  A    between atoms: C6_6  and  C7_7 
REMARK    2  A    between atoms: C6_6  and  N8_8 
ROOT
HETATM    1  C1  UNL     1     -33.282   6.107   2.938  1.00 20.00     0.283 C 
HETATM    2  C2  UNL     1     -34.426   5.464   3.715  1.00 20.00     0.105 C 
HETATM    3  C3  UNL     1     -33.214   7.523   4.818  1.00 20.00     0.346 C 
HETATM    4  N8  UNL     1     -33.234   7.514   3.354  1.00 20.00     0.098 N 
HETATM    5  S9  UNL     1     -34.284   6.166   5.377  1.00 20.00    -0.138 SA
ENDROOT
BRANCH   4   6
HETATM    6  C6  UNL     1     -32.091   8.215   2.787  1.00 20.00     0.277 C 
BRANCH   6   7
HETATM    7  C7  UNL     1     -32.409   8.802   1.408  1.00 20.00     0.006 C 
HETATM    8  C4  UNL     1     -32.799  10.279   1.481  1.00 20.00     0.011 C 
HETATM    9  C5  UNL     1     -31.262   8.597   0.417  1.00 20.00     0.011 C 
ENDBRANCH   6   7
ENDBRANCH   4   6
TORSDOF 2
ENDMDL
MODEL 2
REMARK VINA RESULT:      -4.2      0.928      1.451
REMARK  2 active torsions:
REMARK  status: ('A' for Active; 'I' for Inactive)
REMARK    1  A    between atoms: C6_6  and  C7_7 
REMARK    2  A    between atoms: C6_6  and  N8_8 
ROOT
HETATM    1  C1  UNL     1     -33.187   7.728   4.854  1.00 20.00     0.283 C 
HETATM    2  C2  UNL     1     -34.022   6.537   5.312  1.00 20.00     0.105 C 
HETATM    3  C3  UNL     1     -33.518   6.751   2.738  1.00 20.00     0.346 C 
HETATM    4  N8  UNL     1     -32.499   7.309   3.628  1.00 20.00     0.098 N 
HETATM    5  S9  UNL     1     -34.712   5.863   3.781  1.00 20.00    -0.138 SA
ENDROOT
BRANCH   4   6
HETATM    6  C6  UNL     1     -31.770   8.405   3.006  1.00 20.00     0.277 C 
BRANCH   6   7
HETATM    7  C7  UNL     1     -32.329   8.746   1.620  1.00 20.00     0.006 C 
HETATM    8  C4  UNL     1     -32.886  10.169   1.552  1.00 20.00     0.011 C 
HETATM    9  C5  UNL     1     -31.298   8.519   0.513  1.00 20.00     0.011 C 
ENDBRANCH   6   7
ENDBRANCH   4   6
TORSDOF 2
ENDMDL
MODEL 3
REMARK VINA RESULT:      -4.1      1.328      2.009
REMARK  2 active torsions:
REMARK  status: ('A' for Active; 'I' for Inactive)
REMARK    1  A    between atoms: C6_6  and  C7_7 
REMARK    2  A    between atoms: C6_6  and  N8_8 
ROOT
HETATM    1  C1  UNL     1     -34.422   6.882   4.432  1.00 20.00     0.283 C 
HETATM    2  C2  UNL     1     -34.426   5.789   5.496  1.00 20.00     0.105 C 
HETATM    3  C3  UNL     1     -33.652   5.123   3.070  1.00 20.00     0.346 C 
HETATM    4  N8  UNL     1     -33.392   6.510   3.456  1.00 20.00     0.098 N 
HETATM    5  S9  UNL     1     -34.234   4.255   4.557  1.00 20.00    -0.138 SA
ENDROOT
BRANCH   4   6
HETATM    6  C6  UNL     1     -33.379   7.403   2.306  1.00 20.00     0.277 C 
BRANCH   6   7
HETATM    7  C7  UNL     1     -32.047   8.152   2.182  1.00 20.00     0.006 C 
HETATM    8  C4  UNL     1     -32.197   9.486   1.448  1.00 20.00     0.011 C 
HETATM    9  C5  UNL     1     -31.375   8.359   3.541  1.00 20.00     0.011 C 
ENDBRANCH   6   7
ENDBRANCH   4   6
TORSDOF 2
ENDMDL
MODEL 4
REMARK VINA RESULT:      -3.6      2.277      4.550
REMARK  2 active torsions:
REMARK  status: ('A' for Active; 'I' for Inactive)
REMARK    1  A    between atoms: C6_6  and  C7_7 
REMARK    2  A    between atoms: C6_6  and  N8_8 
ROOT
HETATM    1  C1  UNL     1     -31.738   8.010   3.352  1.00 20.00     0.283 C 
HETATM    2  C2  UNL     1     -31.571   9.333   2.611  1.00 20.00     0.105 C 
HETATM    3  C3  UNL     1     -33.352   7.633   1.680  1.00 20.00     0.346 C 
HETATM    4  N8  UNL     1     -33.121   7.575   3.124  1.00 20.00     0.098 N 
HETATM    5  S9  UNL     1     -32.454   9.083   1.052  1.00 20.00    -0.138 SA
ENDROOT
BRANCH   4   6
HETATM    6  C6  UNL     1     -33.375   6.248   3.665  1.00 20.00     0.277 C 
BRANCH   6   7
HETATM    7  C7  UNL     1     -34.343   6.293   4.852  1.00 20.00     0.006 C 
HETATM    8  C4  UNL     1     -34.648   4.900   5.406  1.00 20.00     0.011 C 
HETATM    9  C5  UNL     1     -33.845   7.216   5.966  1.00 20.00     0.011 C 
ENDBRANCH   6   7
ENDBRANCH   4   6
TORSDOF 2
ENDMDL
MODEL 5
REMARK VINA RESULT:      -3.5     10.204     11.096
REMARK  2 active torsions:
REMARK  status: ('A' for Active; 'I' for Inactive)
REMARK    1  A    between atoms: C6_6  and  C7_7 
REMARK    2  A    between atoms: C6_6  and  N8_8 
ROOT
HETATM    1  C1  UNL     1     -35.518  16.216  -4.822  1.00 20.00     0.283 C 
HETATM    2  C2  UNL     1     -36.615  15.298  -5.349  1.00 20.00     0.105 C 
HETATM    3  C3  UNL     1     -34.556  14.173  -4.157  1.00 20.00     0.346 C 
HETATM    4  N8  UNL     1     -34.897  15.518  -3.691  1.00 20.00     0.098 N 
HETATM    5  S9  UNL     1     -35.881  13.646  -5.283  1.00 20.00    -0.138 SA
ENDROOT
BRANCH   4   6
HETATM    6  C6  UNL     1     -33.734  16.230  -3.179  1.00 20.00     0.277 C 
BRANCH   6   7
HETATM    7  C7  UNL     1     -34.133  17.348  -2.210  1.00 20.00     0.006 C 
HETATM    8  C4  UNL     1     -35.226  16.910  -1.234  1.00 20.00     0.011 C 
HETATM    9  C5  UNL     1     -32.928  17.908  -1.451  1.00 20.00     0.011 C 
ENDBRANCH   6   7
ENDBRANCH   4   6
TORSDOF 2
ENDMDL
MODEL 6
REMARK VINA RESULT:      -3.4     10.787     11.207
REMARK  2 active torsions:
REMARK  status: ('A' for Active; 'I' for Inactive)
REMARK    1  A    between atoms: C6_6  and  C7_7 
REMARK    2  A    between atoms: C6_6  and  N8_8 
ROOT
HETATM    1  C1  UNL     1     -36.330  14.829  -4.515  1.00 20.00     0.283 C 
HETATM    2  C2  UNL     1     -35.956  13.609  -5.351  1.00 20.00     0.105 C 
HETATM    3  C3  UNL     1     -34.195  15.557  -5.187  1.00 20.00     0.346 C 
HETATM    4  N8  UNL     1     -35.071  15.400  -4.025  1.00 20.00     0.098 N 
HETATM    5  S9  UNL     1     -34.497  14.139  -6.280  1.00 20.00    -0.138 SA
ENDROOT
BRANCH   4   6
HETATM    6  C6  UNL     1     -35.276  16.659  -3.322  1.00 20.00     0.277 C 
BRANCH   6   7
HETATM    7  C7  UNL     1     -34.588  16.665  -1.952  1.00 20.00     0.006 C 
HETATM    8  C4  UNL     1     -33.280  17.457  -1.963  1.00 20.00     0.011 C 
HETATM    9  C5  UNL     1     -35.515  17.172  -0.846  1.00 20.00     0.011 C 
ENDBRANCH   6   7
ENDBRANCH   4   6
TORSDOF 2
ENDMDL
MODEL 7
REMARK VINA RESULT:      -3.4      1.885      4.439
REMARK  2 active torsions:
REMARK  status: ('A' for Active; 'I' for Inactive)
REMARK    1  A    between atoms: C6_6  and  C7_7 
REMARK    2  A    between atoms: C6_6  and  N8_8 
ROOT
HETATM    1  C1  UNL     1     -33.394   7.531   2.216  1.00 20.00     0.283 C 
HETATM    2  C2  UNL     1     -31.957   8.015   2.056  1.00 20.00     0.105 C 
HETATM    3  C3  UNL     1     -32.830   7.584   4.501  1.00 20.00     0.346 C 
HETATM    4  N8  UNL     1     -33.437   6.754   3.459  1.00 20.00     0.098 N 
HETATM    5  S9  UNL     1     -31.462   8.495   3.729  1.00 20.00    -0.138 SA
ENDROOT
BRANCH   4   6
HETATM    6  C6  UNL     1     -34.792   6.346   3.806  1.00 20.00     0.277 C 
BRANCH   6   7
HETATM    7  C7  UNL     1     -34.822   4.953   4.442  1.00 20.00     0.006 C 
HETATM    8  C4  UNL     1     -33.801   4.004   3.812  1.00 20.00     0.011 C 
HETATM    9  C5  UNL     1     -34.638   5.009   5.959  1.00 20.00     0.011 C 
ENDBRANCH   6   7
ENDBRANCH   4   6
TORSDOF 2
ENDMDL
MODEL 8
REMARK VINA RESULT:      -3.3     10.735     11.465
REMARK  2 active torsions:
REMARK  status: ('A' for Active; 'I' for Inactive)
REMARK    1  A    between atoms: C6_6  and  C7_7 
REMARK    2  A    between atoms: C6_6  and  N8_8 
ROOT
HETATM    1  C1  UNL     1     -33.249  15.748  -5.654  1.00 20.00     0.283 C 
HETATM    2  C2  UNL     1     -34.030  15.368  -6.907  1.00 20.00     0.105 C 
HETATM    3  C3  UNL     1     -34.866  14.393  -4.610  1.00 20.00     0.346 C 
HETATM    4  N8  UNL     1     -34.199  15.693  -4.537  1.00 20.00     0.098 N 
HETATM    5  S9  UNL     1     -35.094  14.007  -6.371  1.00 20.00    -0.138 SA
ENDROOT
BRANCH   4   6
HETATM    6  C6  UNL     1     -33.547  15.902  -3.251  1.00 20.00     0.277 C 
BRANCH   6   7
HETATM    7  C7  UNL     1     -34.121  17.116  -2.512  1.00 20.00     0.006 C 
HETATM    8  C4  UNL     1     -35.353  16.760  -1.679  1.00 20.00     0.011 C 
HETATM    9  C5  UNL     1     -33.070  17.812  -1.646  1.00 20.00     0.011 C 
ENDBRANCH   6   7
ENDBRANCH   4   6
TORSDOF 2
ENDMDL
MODEL 9
REMARK VINA RESULT:      -3.3     11.136     11.923
REMARK  2 active torsions:
REMARK  status: ('A' for Active; 'I' for Inactive)
REMARK    1  A    between atoms: C6_6  and  C7_7 
REMARK    2  A    between atoms: C6_6  and  N8_8 
ROOT
HETATM    1  C1  UNL     1     -35.439  16.653  -5.050  1.00 20.00     0.283 C 
HETATM    2  C2  UNL     1     -35.672  15.460  -5.972  1.00 20.00     0.105 C 
HETATM    3  C3  UNL     1     -33.186  16.030  -5.325  1.00 20.00     0.346 C 
HETATM    4  N8  UNL     1     -34.194  16.382  -4.324  1.00 20.00     0.098 N 
HETATM    5  S9  UNL     1     -34.028  15.070  -6.617  1.00 20.00    -0.138 SA
ENDROOT
BRANCH   4   6
HETATM    6  C6  UNL     1     -33.779  17.513  -3.505  1.00 20.00     0.277 C 
BRANCH   6   7
HETATM    7  C7  UNL     1     -33.635  17.125  -2.029  1.00 20.00     0.006 C 
HETATM    8  C4  UNL     1     -32.735  18.092  -1.260  1.00 20.00     0.011 C 
HETATM    9  C5  UNL     1     -34.992  16.987  -1.336  1.00 20.00     0.011 C 
ENDBRANCH   6   7
ENDBRANCH   4   6
TORSDOF 2
ENDMDL
