MODEL 1
REMARK VINA RESULT:      -6.2      0.000      0.000
REMARK  1 active torsions:
REMARK  status: ('A' for Active; 'I' for Inactive)
REMARK    1  A    between atoms: C1_1  and  C9_9 
ROOT
HETATM    1  C2  UNL     1     -34.269   4.599   5.437  1.00 20.00     0.010 C 
HETATM    2  C3  UNL     1     -32.947   5.338   3.318  1.00 20.00     0.025 C 
HETATM    3  C4  UNL     1     -33.457   7.045   5.066  1.00 20.00     0.025 C 
HETATM    4  C5  UNL     1     -34.713   6.899   3.063  1.00 20.00     0.026 C 
HETATM    5  C6  UNL     1     -34.200   4.648   3.890  1.00 20.00    -0.008 C 
HETATM    6  C7  UNL     1     -34.635   6.103   5.380  1.00 20.00    -0.008 C 
HETATM    7  C8  UNL     1     -35.248   5.807   3.973  1.00 20.00    -0.005 C 
HETATM    8  C9  UNL     1     -33.269   6.820   3.558  1.00 20.00     0.049 C 
ENDROOT
BRANCH   8   9
HETATM    9  C1  UNL     1     -32.366   7.814   2.875  1.00 20.00     0.181 C 
HETATM   10  O10 UNL     1     -32.734   8.172   1.722  1.00 20.00    -0.647 OA
HETATM   11  O11 UNL     1     -31.354   8.161   3.547  1.00 20.00    -0.647 OA
ENDBRANCH   8   9
TORSDOF 1
ENDMDL
MODEL 2
REMARK VINA RESULT:      -5.0     11.396     12.536
REMARK  1 active torsions:
REMARK  status: ('A' for Active; 'I' for Inactive)
REMARK    1  A    between atoms: C1_1  and  C9_9 
ROOT
HETATM    1  C2  UNL     1     -33.832  16.591  -2.820  1.00 20.00     0.010 C 
HETATM    2  C3  UNL     1     -36.096  15.714  -3.761  1.00 20.00     0.025 C 
HETATM    3  C4  UNL     1     -34.053  14.311  -4.057  1.00 20.00     0.025 C 
HETATM    4  C5  UNL     1     -34.925  15.631  -5.821  1.00 20.00     0.026 C 
HETATM    5  C6  UNL     1     -35.073  16.864  -3.706  1.00 20.00    -0.008 C 
HETATM    6  C7  UNL     1     -33.331  15.668  -3.959  1.00 20.00    -0.008 C 
HETATM    7  C8  UNL     1     -34.143  16.583  -4.932  1.00 20.00    -0.005 C 
HETATM    8  C9  UNL     1     -35.394  14.714  -4.690  1.00 20.00     0.049 C 
ENDROOT
BRANCH   8   9
HETATM    9  C1  UNL     1     -36.234  13.565  -5.186  1.00 20.00     0.181 C 
HETATM   10  O10 UNL     1     -35.590  12.609  -5.700  1.00 20.00    -0.647 OA
HETATM   11  O11 UNL     1     -37.478  13.708  -5.021  1.00 20.00    -0.647 OA
ENDBRANCH   8   9
TORSDOF 1
ENDMDL
MODEL 3
REMARK VINA RESULT:      -4.9     11.310     12.620
REMARK  1 active torsions:
REMARK  status: ('A' for Active; 'I' for Inactive)
REMARK    1  A    between atoms: C1_1  and  C9_9 
ROOT
HETATM    1  C2  UNL     1     -33.771  17.420  -4.553  1.00 20.00     0.010 C 
HETATM    2  C3  UNL     1     -34.641  15.429  -5.987  1.00 20.00     0.025 C 
HETATM    3  C4  UNL     1     -35.619  15.786  -3.719  1.00 20.00     0.025 C 
HETATM    4  C5  UNL     1     -33.985  14.120  -4.122  1.00 20.00     0.026 C 
HETATM    5  C6  UNL     1     -33.427  16.153  -5.375  1.00 20.00    -0.008 C 
HETATM    6  C7  UNL     1     -34.262  16.458  -3.441  1.00 20.00    -0.008 C 
HETATM    7  C8  UNL     1     -33.226  15.430  -4.003  1.00 20.00    -0.005 C 
HETATM    8  C9  UNL     1     -35.236  14.723  -4.761  1.00 20.00     0.049 C 
ENDROOT
BRANCH   8   9
HETATM    9  C1  UNL     1     -36.300  13.693  -5.039  1.00 20.00     0.181 C 
HETATM   10  O10 UNL     1     -37.482  14.058  -4.790  1.00 20.00    -0.647 OA
HETATM   11  O11 UNL     1     -35.869  12.593  -5.486  1.00 20.00    -0.647 OA
ENDBRANCH   8   9
TORSDOF 1
ENDMDL
MODEL 4
REMARK VINA RESULT:      -4.8     11.584     12.826
REMARK  1 active torsions:
REMARK  status: ('A' for Active; 'I' for Inactive)
REMARK    1  A    between atoms: C1_1  and  C9_9 
ROOT
HETATM    1  C2  UNL     1     -33.338  16.899  -4.871  1.00 20.00     0.010 C 
HETATM    2  C3  UNL     1     -34.271  14.576  -4.153  1.00 20.00     0.025 C 
HETATM    3  C4  UNL     1     -35.488  15.862  -5.913  1.00 20.00     0.025 C 
HETATM    4  C5  UNL     1     -36.247  15.795  -3.670  1.00 20.00     0.026 C 
HETATM    5  C6  UNL     1     -33.801  15.977  -3.716  1.00 20.00    -0.008 C 
HETATM    6  C7  UNL     1     -34.838  17.073  -5.217  1.00 20.00    -0.008 C 
HETATM    7  C8  UNL     1     -35.122  16.816  -3.701  1.00 20.00    -0.005 C 
HETATM    8  C9  UNL     1     -35.656  14.880  -4.743  1.00 20.00     0.049 C 
ENDROOT
BRANCH   8   9
HETATM    9  C1  UNL     1     -36.530  13.688  -5.034  1.00 20.00     0.181 C 
HETATM   10  O10 UNL     1     -35.913  12.623  -5.313  1.00 20.00    -0.647 OA
HETATM   11  O11 UNL     1     -37.771  13.910  -4.962  1.00 20.00    -0.647 OA
ENDBRANCH   8   9
TORSDOF 1
ENDMDL
MODEL 5
REMARK VINA RESULT:      -4.7      2.489      3.670
REMARK  1 active torsions:
REMARK  status: ('A' for Active; 'I' for Inactive)
REMARK    1  A    between atoms: C1_1  and  C9_9 
ROOT
HETATM    1  C2  UNL     1     -31.938   7.931   3.218  1.00 20.00     0.010 C 
HETATM    2  C3  UNL     1     -33.388   6.897   5.117  1.00 20.00     0.025 C 
HETATM    3  C4  UNL     1     -32.843   5.491   3.129  1.00 20.00     0.025 C 
HETATM    4  C5  UNL     1     -34.959   6.527   3.380  1.00 20.00     0.026 C 
HETATM    5  C6  UNL     1     -33.190   8.055   4.121  1.00 20.00    -0.008 C 
HETATM    6  C7  UNL     1     -32.725   6.856   2.426  1.00 20.00    -0.008 C 
HETATM    7  C8  UNL     1     -34.020   7.609   2.873  1.00 20.00    -0.005 C 
HETATM    8  C9  UNL     1     -33.906   5.780   4.200  1.00 20.00     0.049 C 
ENDROOT
BRANCH   8   9
HETATM    9  C1  UNL     1     -34.464   4.561   4.888  1.00 20.00     0.181 C 
HETATM   10  O10 UNL     1     -34.400   3.490   4.222  1.00 20.00    -0.647 OA
HETATM   11  O11 UNL     1     -34.925   4.770   6.045  1.00 20.00    -0.647 OA
ENDBRANCH   8   9
TORSDOF 1
ENDMDL
MODEL 6
REMARK VINA RESULT:      -4.4     11.838     12.774
REMARK  1 active torsions:
REMARK  status: ('A' for Active; 'I' for Inactive)
REMARK    1  A    between atoms: C1_1  and  C9_9 
ROOT
HETATM    1  C2  UNL     1     -33.741  16.872  -3.843  1.00 20.00     0.010 C 
HETATM    2  C3  UNL     1     -33.377  14.440  -4.701  1.00 20.00     0.025 C 
HETATM    3  C4  UNL     1     -34.674  16.029  -6.123  1.00 20.00     0.025 C 
HETATM    4  C5  UNL     1     -35.746  14.383  -4.798  1.00 20.00     0.026 C 
HETATM    5  C6  UNL     1     -33.864  15.354  -3.560  1.00 20.00    -0.008 C 
HETATM    6  C7  UNL     1     -34.970  16.708  -4.773  1.00 20.00    -0.008 C 
HETATM    7  C8  UNL     1     -35.392  15.518  -3.852  1.00 20.00    -0.005 C 
HETATM    8  C9  UNL     1     -34.530  14.556  -5.709  1.00 20.00     0.049 C 
ENDROOT
BRANCH   8   9
HETATM    9  C1  UNL     1     -34.515  13.573  -6.850  1.00 20.00     0.181 C 
HETATM   10  O10 UNL     1     -33.989  13.995  -7.918  1.00 20.00    -0.647 OA
HETATM   11  O11 UNL     1     -35.032  12.451  -6.590  1.00 20.00    -0.647 OA
ENDBRANCH   8   9
TORSDOF 1
ENDMDL
MODEL 7
REMARK VINA RESULT:      -4.3     11.925     13.490
REMARK  1 active torsions:
REMARK  status: ('A' for Active; 'I' for Inactive)
REMARK    1  A    between atoms: C1_1  and  C9_9 
ROOT
HETATM    1  C2  UNL     1     -33.707  16.849  -7.011  1.00 20.00     0.010 C 
HETATM    2  C3  UNL     1     -34.053  14.574  -5.792  1.00 20.00     0.025 C 
HETATM    3  C4  UNL     1     -36.061  15.816  -6.599  1.00 20.00     0.025 C 
HETATM    4  C5  UNL     1     -35.408  15.848  -4.323  1.00 20.00     0.026 C 
HETATM    5  C6  UNL     1     -33.425  15.980  -5.759  1.00 20.00    -0.008 C 
HETATM    6  C7  UNL     1     -35.138  17.039  -6.448  1.00 20.00    -0.008 C 
HETATM    7  C8  UNL     1     -34.507  16.845  -5.031  1.00 20.00    -0.005 C 
HETATM    8  C9  UNL     1     -35.528  14.882  -5.502  1.00 20.00     0.049 C 
ENDROOT
BRANCH   8   9
HETATM    9  C1  UNL     1     -36.406  13.697  -5.194  1.00 20.00     0.181 C 
HETATM   10  O10 UNL     1     -37.605  13.973  -4.910  1.00 20.00    -0.647 OA
HETATM   11  O11 UNL     1     -35.827  12.577  -5.261  1.00 20.00    -0.647 OA
ENDBRANCH   8   9
TORSDOF 1
ENDMDL
MODEL 8
REMARK VINA RESULT:      -4.3     11.776     12.835
REMARK  1 active torsions:
REMARK  status: ('A' for Active; 'I' for Inactive)
REMARK    1  A    between atoms: C1_1  and  C9_9 
ROOT
HETATM    1  C2  UNL     1     -33.272  16.303  -5.065  1.00 20.00     0.010 C 
HETATM    2  C3  UNL     1     -35.595  15.715  -6.086  1.00 20.00     0.025 C 
HETATM    3  C4  UNL     1     -35.370  15.814  -3.602  1.00 20.00     0.025 C 
HETATM    4  C5  UNL     1     -35.401  13.752  -4.769  1.00 20.00     0.026 C 
HETATM    5  C6  UNL     1     -34.088  15.400  -6.024  1.00 20.00    -0.008 C 
HETATM    6  C7  UNL     1     -33.897  15.485  -3.907  1.00 20.00    -0.008 C 
HETATM    7  C8  UNL     1     -33.991  14.297  -4.919  1.00 20.00    -0.005 C 
HETATM    8  C9  UNL     1     -36.094  15.115  -4.764  1.00 20.00     0.049 C 
ENDROOT
BRANCH   8   9
HETATM    9  C1  UNL     1     -37.589  15.005  -4.607  1.00 20.00     0.181 C 
HETATM   10  O10 UNL     1     -38.078  13.876  -4.884  1.00 20.00    -0.647 OA
HETATM   11  O11 UNL     1     -38.160  16.062  -4.217  1.00 20.00    -0.647 OA
ENDBRANCH   8   9
TORSDOF 1
ENDMDL
MODEL 9
REMARK VINA RESULT:      -4.0      0.589      1.620
REMARK  1 active torsions:
REMARK  status: ('A' for Active; 'I' for Inactive)
REMARK    1  A    between atoms: C1_1  and  C9_9 
ROOT
HETATM    1  C2  UNL     1     -35.187   5.729   5.269  1.00 20.00     0.010 C 
HETATM    2  C3  UNL     1     -32.981   7.047   4.845  1.00 20.00     0.025 C 
HETATM    3  C4  UNL     1     -34.701   6.982   3.038  1.00 20.00     0.025 C 
HETATM    4  C5  UNL     1     -32.772   5.609   2.972  1.00 20.00     0.026 C 
HETATM    5  C6  UNL     1     -33.638   5.718   5.264  1.00 20.00    -0.008 C 
HETATM    6  C7  UNL     1     -35.104   5.662   3.723  1.00 20.00    -0.008 C 
HETATM    7  C8  UNL     1     -33.740   4.924   3.920  1.00 20.00    -0.005 C 
HETATM    8  C9  UNL     1     -33.192   7.036   3.325  1.00 20.00     0.049 C 
ENDROOT
BRANCH   8   9
HETATM    9  C1  UNL     1     -32.434   8.076   2.541  1.00 20.00     0.181 C 
HETATM   10  O10 UNL     1     -32.914   8.353   1.408  1.00 20.00    -0.647 OA
HETATM   11  O11 UNL     1     -31.411   8.536   3.123  1.00 20.00    -0.647 OA
ENDBRANCH   8   9
TORSDOF 1
ENDMDL
