MODEL 1
REMARK VINA RESULT:      -5.6      0.000      0.000
REMARK  1 active torsions:
REMARK  status: ('A' for Active; 'I' for Inactive)
REMARK    1  A    between atoms: C5_5  and  C10_10 
ROOT
HETATM    1  C1  UNL     1     -34.125   4.484   3.816  1.00 20.00     0.003 C 
HETATM    2  C2  UNL     1     -33.614   4.565   2.577  1.00 20.00    -0.025 C 
HETATM    3  C3  UNL     1     -34.430   5.694   5.980  1.00 20.00    -0.019 C 
HETATM    4  C4  UNL     1     -34.146   5.634   4.675  1.00 20.00    -0.057 C 
HETATM    5  C6  UNL     1     -32.997   5.821   2.016  1.00 20.00     0.039 C 
HETATM    6  C7  UNL     1     -34.258   7.085   6.503  1.00 20.00     0.028 C 
HETATM    7  C8  UNL     1     -33.447   7.762   5.391  1.00 20.00     0.014 C 
HETATM    8  C9  UNL     1     -33.791   6.984   4.116  1.00 20.00     0.029 C 
HETATM    9  C10 UNL     1     -32.655   6.871   3.094  1.00 20.00     0.059 C 
ENDROOT
BRANCH   9  10
HETATM   10  C5  UNL     1     -32.414   8.193   2.432  1.00 20.00     0.236 C 
HETATM   11  O11 UNL     1     -31.572   8.366   1.557  1.00 20.00    -0.306 OA
ENDBRANCH   9  10
TORSDOF 1
ENDMDL
MODEL 2
REMARK VINA RESULT:      -4.9      0.793      2.825
REMARK  1 active torsions:
REMARK  status: ('A' for Active; 'I' for Inactive)
REMARK    1  A    between atoms: C5_5  and  C10_10 
ROOT
HETATM    1  C1  UNL     1     -34.299   6.273   5.972  1.00 20.00     0.003 C 
HETATM    2  C2  UNL     1     -33.855   7.538   6.022  1.00 20.00    -0.025 C 
HETATM    3  C3  UNL     1     -34.506   4.238   4.537  1.00 20.00    -0.019 C 
HETATM    4  C4  UNL     1     -33.998   5.436   4.845  1.00 20.00    -0.057 C 
HETATM    5  C6  UNL     1     -33.064   8.183   4.912  1.00 20.00     0.039 C 
HETATM    6  C7  UNL     1     -33.970   3.749   3.229  1.00 20.00     0.028 C 
HETATM    7  C8  UNL     1     -33.366   5.019   2.618  1.00 20.00     0.014 C 
HETATM    8  C9  UNL     1     -33.007   5.905   3.817  1.00 20.00     0.029 C 
HETATM    9  C10 UNL     1     -33.140   7.413   3.578  1.00 20.00     0.059 C 
ENDROOT
BRANCH   9  10
HETATM   10  C5  UNL     1     -32.051   7.896   2.669  1.00 20.00     0.236 C 
HETATM   11  O11 UNL     1     -32.141   8.913   1.989  1.00 20.00    -0.306 OA
ENDBRANCH   9  10
TORSDOF 1
ENDMDL
MODEL 3
REMARK VINA RESULT:      -4.8      1.651      3.285
REMARK  1 active torsions:
REMARK  status: ('A' for Active; 'I' for Inactive)
REMARK    1  A    between atoms: C5_5  and  C10_10 
ROOT
HETATM    1  C1  UNL     1     -34.008   6.879   5.855  1.00 20.00     0.003 C 
HETATM    2  C2  UNL     1     -34.643   5.700   5.766  1.00 20.00    -0.025 C 
HETATM    3  C3  UNL     1     -32.389   8.414   4.729  1.00 20.00    -0.019 C 
HETATM    4  C4  UNL     1     -33.232   7.376   4.754  1.00 20.00    -0.057 C 
HETATM    5  C6  UNL     1     -34.562   4.804   4.556  1.00 20.00     0.039 C 
HETATM    6  C7  UNL     1     -31.729   8.537   3.392  1.00 20.00     0.028 C 
HETATM    7  C8  UNL     1     -32.017   7.175   2.750  1.00 20.00     0.014 C 
HETATM    8  C9  UNL     1     -33.303   6.681   3.423  1.00 20.00     0.029 C 
HETATM    9  C10 UNL     1     -33.403   5.163   3.604  1.00 20.00     0.059 C 
ENDROOT
BRANCH   9  10
HETATM   10  C5  UNL     1     -33.627   4.491   2.284  1.00 20.00     0.236 C 
HETATM   11  O11 UNL     1     -32.769   3.828   1.710  1.00 20.00    -0.306 OA
ENDBRANCH   9  10
TORSDOF 1
ENDMDL
MODEL 4
REMARK VINA RESULT:      -4.8     12.015     12.377
REMARK  1 active torsions:
REMARK  status: ('A' for Active; 'I' for Inactive)
REMARK    1  A    between atoms: C5_5  and  C10_10 
ROOT
HETATM    1  C1  UNL     1     -33.226  15.244  -4.555  1.00 20.00     0.003 C 
HETATM    2  C2  UNL     1     -33.859  14.553  -5.515  1.00 20.00    -0.025 C 
HETATM    3  C3  UNL     1     -33.534  16.735  -2.573  1.00 20.00    -0.019 C 
HETATM    4  C4  UNL     1     -33.965  15.861  -3.491  1.00 20.00    -0.057 C 
HETATM    5  C6  UNL     1     -35.358  14.408  -5.580  1.00 20.00     0.039 C 
HETATM    6  C7  UNL     1     -34.657  17.185  -1.694  1.00 20.00     0.028 C 
HETATM    7  C8  UNL     1     -35.897  16.744  -2.480  1.00 20.00     0.014 C 
HETATM    8  C9  UNL     1     -35.428  15.557  -3.330  1.00 20.00     0.029 C 
HETATM    9  C10 UNL     1     -36.111  15.421  -4.694  1.00 20.00     0.059 C 
ENDROOT
BRANCH   9  10
HETATM   10  C5  UNL     1     -37.530  14.968  -4.527  1.00 20.00     0.236 C 
HETATM   11  O11 UNL     1     -37.945  13.887  -4.930  1.00 20.00    -0.306 OA
ENDBRANCH   9  10
TORSDOF 1
ENDMDL
MODEL 5
REMARK VINA RESULT:      -4.8     11.856     12.575
REMARK  1 active torsions:
REMARK  status: ('A' for Active; 'I' for Inactive)
REMARK    1  A    between atoms: C5_5  and  C10_10 
ROOT
HETATM    1  C1  UNL     1     -35.869  17.319   0.257  1.00 20.00     0.003 C 
HETATM    2  C2  UNL     1     -35.361  17.966   1.317  1.00 20.00    -0.025 C 
HETATM    3  C3  UNL     1     -35.492  16.711  -2.137  1.00 20.00    -0.019 C 
HETATM    4  C4  UNL     1     -35.092  17.148  -0.937  1.00 20.00    -0.057 C 
HETATM    5  C6  UNL     1     -33.987  18.588   1.327  1.00 20.00     0.039 C 
HETATM    6  C7  UNL     1     -34.371  16.761  -3.126  1.00 20.00     0.028 C 
HETATM    7  C8  UNL     1     -33.348  17.665  -2.428  1.00 20.00     0.014 C 
HETATM    8  C9  UNL     1     -33.632  17.506  -0.930  1.00 20.00     0.029 C 
HETATM    9  C10 UNL     1     -33.381  18.756  -0.081  1.00 20.00     0.059 C 
ENDROOT
BRANCH   9  10
HETATM   10  C5  UNL     1     -31.910  19.015   0.045  1.00 20.00     0.236 C 
HETATM   11  O11 UNL     1     -31.051  18.200  -0.275  1.00 20.00    -0.306 OA
ENDBRANCH   9  10
TORSDOF 1
ENDMDL
MODEL 6
REMARK VINA RESULT:      -4.7     11.903     12.418
REMARK  1 active torsions:
REMARK  status: ('A' for Active; 'I' for Inactive)
REMARK    1  A    between atoms: C5_5  and  C10_10 
ROOT
HETATM    1  C1  UNL     1     -35.051  18.060   1.352  1.00 20.00     0.003 C 
HETATM    2  C2  UNL     1     -35.877  17.535   0.434  1.00 20.00    -0.025 C 
HETATM    3  C3  UNL     1     -32.703  18.779   1.812  1.00 20.00    -0.019 C 
HETATM    4  C4  UNL     1     -33.710  18.430   1.003  1.00 20.00    -0.057 C 
HETATM    5  C6  UNL     1     -35.463  17.258  -0.989  1.00 20.00     0.039 C 
HETATM    6  C7  UNL     1     -31.447  19.014   1.035  1.00 20.00     0.028 C 
HETATM    7  C8  UNL     1     -31.765  18.369  -0.319  1.00 20.00     0.014 C 
HETATM    8  C9  UNL     1     -33.292  18.431  -0.441  1.00 20.00     0.029 C 
HETATM    9  C10 UNL     1     -33.935  17.263  -1.195  1.00 20.00     0.059 C 
ENDROOT
BRANCH   9  10
HETATM   10  C5  UNL     1     -33.638  17.359  -2.661  1.00 20.00     0.236 C 
HETATM   11  O11 UNL     1     -33.544  16.382  -3.397  1.00 20.00    -0.306 OA
ENDBRANCH   9  10
TORSDOF 1
ENDMDL
MODEL 7
REMARK VINA RESULT:      -4.7     12.041     12.839
REMARK  1 active torsions:
REMARK  status: ('A' for Active; 'I' for Inactive)
REMARK    1  A    between atoms: C5_5  and  C10_10 
ROOT
HETATM    1  C1  UNL     1     -32.085  18.359  -0.651  1.00 20.00     0.003 C 
HETATM    2  C2  UNL     1     -31.992  18.970   0.540  1.00 20.00    -0.025 C 
HETATM    3  C3  UNL     1     -33.583  17.042  -2.157  1.00 20.00    -0.019 C 
HETATM    4  C4  UNL     1     -33.342  17.836  -1.108  1.00 20.00    -0.057 C 
HETATM    5  C6  UNL     1     -33.153  19.115   1.490  1.00 20.00     0.039 C 
HETATM    6  C7  UNL     1     -35.030  16.672  -2.227  1.00 20.00     0.028 C 
HETATM    7  C8  UNL     1     -35.541  17.050  -0.832  1.00 20.00     0.014 C 
HETATM    8  C9  UNL     1     -34.599  18.160  -0.350  1.00 20.00     0.029 C 
HETATM    9  C10 UNL     1     -34.337  18.183   1.159  1.00 20.00     0.059 C 
ENDROOT
BRANCH   9  10
HETATM   10  C5  UNL     1     -35.554  18.655   1.894  1.00 20.00     0.236 C 
HETATM   11  O11 UNL     1     -35.572  18.870   3.102  1.00 20.00    -0.306 OA
ENDBRANCH   9  10
TORSDOF 1
ENDMDL
MODEL 8
REMARK VINA RESULT:      -4.7      2.063      4.124
REMARK  1 active torsions:
REMARK  status: ('A' for Active; 'I' for Inactive)
REMARK    1  A    between atoms: C5_5  and  C10_10 
ROOT
HETATM    1  C1  UNL     1     -33.265   8.100   5.572  1.00 20.00     0.003 C 
HETATM    2  C2  UNL     1     -33.973   7.290   6.374  1.00 20.00    -0.025 C 
HETATM    3  C3  UNL     1     -32.150   8.301   3.345  1.00 20.00    -0.019 C 
HETATM    4  C4  UNL     1     -32.987   7.724   4.215  1.00 20.00    -0.057 C 
HETATM    5  C6  UNL     1     -34.483   5.938   5.944  1.00 20.00     0.039 C 
HETATM    6  C7  UNL     1     -32.107   7.539   2.058  1.00 20.00     0.028 C 
HETATM    7  C8  UNL     1     -32.749   6.200   2.439  1.00 20.00     0.014 C 
HETATM    8  C9  UNL     1     -33.668   6.522   3.624  1.00 20.00     0.029 C 
HETATM    9  C10 UNL     1     -33.807   5.406   4.664  1.00 20.00     0.059 C 
ENDROOT
BRANCH   9  10
HETATM   10  C5  UNL     1     -34.620   4.275   4.113  1.00 20.00     0.236 C 
HETATM   11  O11 UNL     1     -34.187   3.135   3.979  1.00 20.00    -0.306 OA
ENDBRANCH   9  10
TORSDOF 1
ENDMDL
MODEL 9
REMARK VINA RESULT:      -4.6     11.793     12.808
REMARK  1 active torsions:
REMARK  status: ('A' for Active; 'I' for Inactive)
REMARK    1  A    between atoms: C5_5  and  C10_10 
ROOT
HETATM    1  C1  UNL     1     -33.220  16.709  -5.526  1.00 20.00     0.003 C 
HETATM    2  C2  UNL     1     -33.586  15.974  -6.588  1.00 20.00    -0.025 C 
HETATM    3  C3  UNL     1     -33.760  17.275  -3.153  1.00 20.00    -0.019 C 
HETATM    4  C4  UNL     1     -33.854  16.519  -4.252  1.00 20.00    -0.057 C 
HETATM    5  C6  UNL     1     -34.690  14.949  -6.545  1.00 20.00     0.039 C 
HETATM    6  C7  UNL     1     -34.649  16.756  -2.068  1.00 20.00     0.028 C 
HETATM    7  C8  UNL     1     -35.582  15.803  -2.826  1.00 20.00     0.014 C 
HETATM    8  C9  UNL     1     -34.779  15.351  -4.051  1.00 20.00     0.029 C 
HETATM    9  C10 UNL     1     -35.607  15.086  -5.312  1.00 20.00     0.059 C 
ENDROOT
BRANCH   9  10
HETATM   10  C5  UNL     1     -36.411  13.832  -5.157  1.00 20.00     0.236 C 
HETATM   11  O11 UNL     1     -35.922  12.708  -5.192  1.00 20.00    -0.306 OA
ENDBRANCH   9  10
TORSDOF 1
ENDMDL
