MODEL 1
REMARK VINA RESULT:      -5.2      0.000      0.000
REMARK  2 active torsions:
REMARK  status: ('A' for Active; 'I' for Inactive)
REMARK    1  A    between atoms: C2_2  and  C8_8 
REMARK    2  A    between atoms: C8_8  and  N9_9 
ROOT
HETATM    1  C1  UNL     1     -32.630   8.998   0.897  1.00 20.00    -0.109 C 
HETATM    2  C2  UNL     1     -32.382   8.505   1.964  1.00 20.00    -0.077 C 
HETATM    3  C7  UNL     1     -32.934   9.596  -0.401  1.00 20.00     0.112 C 
ENDROOT
BRANCH   2   4
HETATM    4  C8  UNL     1     -32.079   7.898   3.264  1.00 20.00     0.365 C 
BRANCH   4   5
HETATM    5  N9  UNL     1     -33.290   7.371   3.889  1.00 20.00     0.103 N 
HETATM    6  C3  UNL     1     -33.112   7.240   5.342  1.00 20.00     0.299 C 
HETATM    7  C5  UNL     1     -34.383   6.677   5.971  1.00 20.00     0.198 C 
HETATM    8  O10 UNL     1     -34.706   5.411   5.393  1.00 20.00    -0.388 OA
HETATM    9  C6  UNL     1     -34.912   5.536   3.985  1.00 20.00     0.198 C 
HETATM   10  C4  UNL     1     -33.654   6.071   3.308  1.00 20.00     0.299 C 
ENDBRANCH   4   5
ENDBRANCH   2   4
TORSDOF 2
ENDMDL
MODEL 2
REMARK VINA RESULT:      -4.9      0.669      1.629
REMARK  2 active torsions:
REMARK  status: ('A' for Active; 'I' for Inactive)
REMARK    1  A    between atoms: C2_2  and  C8_8 
REMARK    2  A    between atoms: C8_8  and  N9_9 
ROOT
HETATM    1  C1  UNL     1     -32.528   9.055   0.964  1.00 20.00    -0.109 C 
HETATM    2  C2  UNL     1     -32.133   8.697   2.040  1.00 20.00    -0.077 C 
HETATM    3  C7  UNL     1     -33.006   9.491  -0.348  1.00 20.00     0.112 C 
ENDROOT
BRANCH   2   4
HETATM    4  C8  UNL     1     -31.647   8.265   3.354  1.00 20.00     0.365 C 
BRANCH   4   5
HETATM    5  N9  UNL     1     -32.464   7.173   3.879  1.00 20.00     0.103 N 
HETATM    6  C3  UNL     1     -33.326   6.614   2.828  1.00 20.00     0.299 C 
HETATM    7  C5  UNL     1     -34.177   5.485   3.401  1.00 20.00     0.198 C 
HETATM    8  O10 UNL     1     -34.967   5.963   4.492  1.00 20.00    -0.388 OA
HETATM    9  C6  UNL     1     -34.135   6.478   5.532  1.00 20.00     0.198 C 
HETATM   10  C4  UNL     1     -33.283   7.631   5.010  1.00 20.00     0.299 C 
ENDBRANCH   4   5
ENDBRANCH   2   4
TORSDOF 2
ENDMDL
MODEL 3
REMARK VINA RESULT:      -4.2     10.923     11.695
REMARK  2 active torsions:
REMARK  status: ('A' for Active; 'I' for Inactive)
REMARK    1  A    between atoms: C2_2  and  C8_8 
REMARK    2  A    between atoms: C8_8  and  N9_9 
ROOT
HETATM    1  C1  UNL     1     -34.536  16.745  -2.135  1.00 20.00    -0.109 C 
HETATM    2  C2  UNL     1     -34.047  16.395  -3.175  1.00 20.00    -0.077 C 
HETATM    3  C7  UNL     1     -35.133  17.171  -0.870  1.00 20.00     0.112 C 
ENDROOT
BRANCH   2   4
HETATM    4  C8  UNL     1     -33.452  15.973  -4.446  1.00 20.00     0.365 C 
BRANCH   4   5
HETATM    5  N9  UNL     1     -34.398  15.181  -5.229  1.00 20.00     0.103 N 
HETATM    6  C3  UNL     1     -35.011  14.133  -4.401  1.00 20.00     0.299 C 
HETATM    7  C5  UNL     1     -35.985  13.312  -5.241  1.00 20.00     0.198 C 
HETATM    8  O10 UNL     1     -35.311  12.733  -6.359  1.00 20.00    -0.388 OA
HETATM    9  C6  UNL     1     -34.740  13.747  -7.187  1.00 20.00     0.198 C 
HETATM   10  C4  UNL     1     -33.737  14.578  -6.394  1.00 20.00     0.299 C 
ENDBRANCH   4   5
ENDBRANCH   2   4
TORSDOF 2
ENDMDL
MODEL 4
REMARK VINA RESULT:      -3.9     10.813     11.457
REMARK  2 active torsions:
REMARK  status: ('A' for Active; 'I' for Inactive)
REMARK    1  A    between atoms: C2_2  and  C8_8 
REMARK    2  A    between atoms: C8_8  and  N9_9 
ROOT
HETATM    1  C1  UNL     1     -35.041  16.963  -1.273  1.00 20.00    -0.109 C 
HETATM    2  C2  UNL     1     -34.605  16.544  -2.311  1.00 20.00    -0.077 C 
HETATM    3  C7  UNL     1     -35.568  17.473  -0.009  1.00 20.00     0.112 C 
ENDROOT
BRANCH   2   4
HETATM    4  C8  UNL     1     -34.072  16.028  -3.575  1.00 20.00     0.365 C 
BRANCH   4   5
HETATM    5  N9  UNL     1     -35.139  15.472  -4.404  1.00 20.00     0.103 N 
HETATM    6  C3  UNL     1     -36.459  15.825  -3.861  1.00 20.00     0.299 C 
HETATM    7  C5  UNL     1     -37.556  15.225  -4.735  1.00 20.00     0.198 C 
HETATM    8  O10 UNL     1     -37.411  13.806  -4.810  1.00 20.00    -0.388 OA
HETATM    9  C6  UNL     1     -36.145  13.456  -5.368  1.00 20.00     0.198 C 
HETATM   10  C4  UNL     1     -35.013  14.012  -4.510  1.00 20.00     0.299 C 
ENDBRANCH   4   5
ENDBRANCH   2   4
TORSDOF 2
ENDMDL
MODEL 5
REMARK VINA RESULT:      -3.8     10.891     11.469
REMARK  2 active torsions:
REMARK  status: ('A' for Active; 'I' for Inactive)
REMARK    1  A    between atoms: C2_2  and  C8_8 
REMARK    2  A    between atoms: C8_8  and  N9_9 
ROOT
HETATM    1  C1  UNL     1     -33.315  17.887  -1.211  1.00 20.00    -0.109 C 
HETATM    2  C2  UNL     1     -34.208  17.406  -1.855  1.00 20.00    -0.077 C 
HETATM    3  C7  UNL     1     -32.227  18.469  -0.428  1.00 20.00     0.112 C 
ENDROOT
BRANCH   2   4
HETATM    4  C8  UNL     1     -35.301  16.818  -2.635  1.00 20.00     0.365 C 
BRANCH   4   5
HETATM    5  N9  UNL     1     -34.886  15.558  -3.247  1.00 20.00     0.103 N 
HETATM    6  C3  UNL     1     -33.576  15.700  -3.897  1.00 20.00     0.299 C 
HETATM    7  C5  UNL     1     -33.169  14.377  -4.539  1.00 20.00     0.198 C 
HETATM    8  O10 UNL     1     -34.153  13.962  -5.488  1.00 20.00    -0.388 OA
HETATM    9  C6  UNL     1     -35.422  13.789  -4.857  1.00 20.00     0.198 C 
HETATM   10  C4  UNL     1     -35.883  15.097  -4.223  1.00 20.00     0.299 C 
ENDBRANCH   4   5
ENDBRANCH   2   4
TORSDOF 2
ENDMDL
MODEL 6
REMARK VINA RESULT:      -3.8     10.983     11.901
REMARK  2 active torsions:
REMARK  status: ('A' for Active; 'I' for Inactive)
REMARK    1  A    between atoms: C2_2  and  C8_8 
REMARK    2  A    between atoms: C8_8  and  N9_9 
ROOT
HETATM    1  C1  UNL     1     -34.507  16.703  -2.078  1.00 20.00    -0.109 C 
HETATM    2  C2  UNL     1     -33.988  16.326  -3.094  1.00 20.00    -0.077 C 
HETATM    3  C7  UNL     1     -35.139  17.158  -0.841  1.00 20.00     0.112 C 
ENDROOT
BRANCH   2   4
HETATM    4  C8  UNL     1     -33.360  15.864  -4.335  1.00 20.00     0.365 C 
BRANCH   4   5
HETATM    5  N9  UNL     1     -34.329  15.175  -5.185  1.00 20.00     0.103 N 
HETATM    6  C3  UNL     1     -35.359  16.108  -5.664  1.00 20.00     0.299 C 
HETATM    7  C5  UNL     1     -36.365  15.365  -6.538  1.00 20.00     0.198 C 
HETATM    8  O10 UNL     1     -36.963  14.293  -5.807  1.00 20.00    -0.388 OA
HETATM    9  C6  UNL     1     -35.971  13.365  -5.367  1.00 20.00     0.198 C 
HETATM   10  C4  UNL     1     -34.957  14.060  -4.464  1.00 20.00     0.299 C 
ENDBRANCH   4   5
ENDBRANCH   2   4
TORSDOF 2
ENDMDL
MODEL 7
REMARK VINA RESULT:      -3.6     11.185     11.735
REMARK  2 active torsions:
REMARK  status: ('A' for Active; 'I' for Inactive)
REMARK    1  A    between atoms: C2_2  and  C8_8 
REMARK    2  A    between atoms: C8_8  and  N9_9 
ROOT
HETATM    1  C1  UNL     1     -33.418  17.745  -1.290  1.00 20.00    -0.109 C 
HETATM    2  C2  UNL     1     -34.299  17.134  -1.833  1.00 20.00    -0.077 C 
HETATM    3  C7  UNL     1     -32.348  18.490  -0.630  1.00 20.00     0.112 C 
ENDROOT
BRANCH   2   4
HETATM    4  C8  UNL     1     -35.371  16.391  -2.501  1.00 20.00     0.365 C 
BRANCH   4   5
HETATM    5  N9  UNL     1     -34.954  15.955  -3.832  1.00 20.00     0.103 N 
HETATM    6  C3  UNL     1     -35.848  14.905  -4.340  1.00 20.00     0.299 C 
HETATM    7  C5  UNL     1     -35.387  14.457  -5.724  1.00 20.00     0.198 C 
HETATM    8  O10 UNL     1     -34.041  13.983  -5.670  1.00 20.00    -0.388 OA
HETATM    9  C6  UNL     1     -33.161  15.008  -5.207  1.00 20.00     0.198 C 
HETATM   10  C4  UNL     1     -33.568  15.468  -3.811  1.00 20.00     0.299 C 
ENDBRANCH   4   5
ENDBRANCH   2   4
TORSDOF 2
ENDMDL
MODEL 8
REMARK VINA RESULT:      -3.5     10.723     11.654
REMARK  2 active torsions:
REMARK  status: ('A' for Active; 'I' for Inactive)
REMARK    1  A    between atoms: C2_2  and  C8_8 
REMARK    2  A    between atoms: C8_8  and  N9_9 
ROOT
HETATM    1  C1  UNL     1     -35.574  17.445  -1.139  1.00 20.00    -0.109 C 
HETATM    2  C2  UNL     1     -35.550  17.490  -2.339  1.00 20.00    -0.077 C 
HETATM    3  C7  UNL     1     -35.606  17.389   0.322  1.00 20.00     0.112 C 
ENDROOT
BRANCH   2   4
HETATM    4  C8  UNL     1     -35.526  17.548  -3.803  1.00 20.00     0.365 C 
BRANCH   4   5
HETATM    5  N9  UNL     1     -35.034  16.292  -4.367  1.00 20.00     0.103 N 
HETATM    6  C3  UNL     1     -36.028  15.222  -4.203  1.00 20.00     0.299 C 
HETATM    7  C5  UNL     1     -35.490  13.920  -4.787  1.00 20.00     0.198 C 
HETATM    8  O10 UNL     1     -34.261  13.561  -4.152  1.00 20.00    -0.388 OA
HETATM    9  C6  UNL     1     -33.280  14.581  -4.336  1.00 20.00     0.198 C 
HETATM   10  C4  UNL     1     -33.765  15.899  -3.740  1.00 20.00     0.299 C 
ENDBRANCH   4   5
ENDBRANCH   2   4
TORSDOF 2
ENDMDL
MODEL 9
REMARK VINA RESULT:      -3.5     11.155     12.140
REMARK  2 active torsions:
REMARK  status: ('A' for Active; 'I' for Inactive)
REMARK    1  A    between atoms: C2_2  and  C8_8 
REMARK    2  A    between atoms: C8_8  and  N9_9 
ROOT
HETATM    1  C1  UNL     1     -33.295  17.724  -1.277  1.00 20.00    -0.109 C 
HETATM    2  C2  UNL     1     -34.135  17.081  -1.846  1.00 20.00    -0.077 C 
HETATM    3  C7  UNL     1     -32.272  18.507  -0.586  1.00 20.00     0.112 C 
ENDROOT
BRANCH   2   4
HETATM    4  C8  UNL     1     -35.156  16.292  -2.542  1.00 20.00     0.365 C 
BRANCH   4   5
HETATM    5  N9  UNL     1     -34.765  16.038  -3.927  1.00 20.00     0.103 N 
HETATM    6  C3  UNL     1     -35.798  16.517  -4.856  1.00 20.00     0.299 C 
HETATM    7  C5  UNL     1     -35.375  16.230  -6.294  1.00 20.00     0.198 C 
HETATM    8  O10 UNL     1     -35.150  14.831  -6.476  1.00 20.00    -0.388 OA
HETATM    9  C6  UNL     1     -34.124  14.365  -5.599  1.00 20.00     0.198 C 
HETATM   10  C4  UNL     1     -34.517  14.606  -4.145  1.00 20.00     0.299 C 
ENDBRANCH   4   5
ENDBRANCH   2   4
TORSDOF 2
ENDMDL
