MODEL 1
REMARK VINA RESULT:      -4.5      0.000      0.000
REMARK  2 active torsions:
REMARK  status: ('A' for Active; 'I' for Inactive)
REMARK    1  A    between atoms: C3_3  and  C5_5 
REMARK    2  A    between atoms: C3_3  and  O8_8 
ROOT
HETATM    1  C1  UNL     1     -33.660   7.439   5.107  1.00 20.00    -0.005 C 
HETATM    2  C2  UNL     1     -33.936   6.571   6.084  1.00 20.00     0.042 C 
HETATM    3  C4  UNL     1     -34.990   5.796   3.865  1.00 20.00     0.097 C 
HETATM    4  C5  UNL     1     -34.076   7.017   3.733  1.00 20.00     0.118 C 
HETATM    5  S9  UNL     1     -34.724   5.129   5.547  1.00 20.00    -0.141 SA
ENDROOT
BRANCH   4   6
HETATM    6  C3  UNL     1     -32.826   6.694   2.973  1.00 20.00     0.267 C 
HETATM    7  O7  UNL     1     -32.584   5.598   2.486  1.00 20.00    -0.265 OA
BRANCH   6   8
HETATM    8  O8  UNL     1     -32.025   7.796   2.921  1.00 20.00    -0.326 OA
HETATM    9  C6  UNL     1     -32.174   8.611   1.754  1.00 20.00     0.213 C 
ENDBRANCH   6   8
ENDBRANCH   4   6
TORSDOF 2
ENDMDL
MODEL 2
REMARK VINA RESULT:      -4.4      0.987      1.339
REMARK  2 active torsions:
REMARK  status: ('A' for Active; 'I' for Inactive)
REMARK    1  A    between atoms: C3_3  and  C5_5 
REMARK    2  A    between atoms: C3_3  and  O8_8 
ROOT
HETATM    1  C1  UNL     1     -34.134   6.906   5.507  1.00 20.00    -0.005 C 
HETATM    2  C2  UNL     1     -34.264   5.618   5.835  1.00 20.00     0.042 C 
HETATM    3  C4  UNL     1     -34.610   5.944   3.303  1.00 20.00     0.097 C 
HETATM    4  C5  UNL     1     -34.148   7.203   4.040  1.00 20.00     0.118 C 
HETATM    5  S9  UNL     1     -34.423   4.556   4.479  1.00 20.00    -0.141 SA
ENDROOT
BRANCH   4   6
HETATM    6  C3  UNL     1     -32.753   7.591   3.655  1.00 20.00     0.267 C 
HETATM    7  O7  UNL     1     -31.915   8.006   4.443  1.00 20.00    -0.265 OA
BRANCH   6   8
HETATM    8  O8  UNL     1     -32.583   7.409   2.314  1.00 20.00    -0.326 OA
HETATM    9  C6  UNL     1     -32.131   8.557   1.590  1.00 20.00     0.213 C 
ENDBRANCH   6   8
ENDBRANCH   4   6
TORSDOF 2
ENDMDL
MODEL 3
REMARK VINA RESULT:      -3.7     11.689     12.344
REMARK  2 active torsions:
REMARK  status: ('A' for Active; 'I' for Inactive)
REMARK    1  A    between atoms: C3_3  and  C5_5 
REMARK    2  A    between atoms: C3_3  and  O8_8 
ROOT
HETATM    1  C1  UNL     1     -35.515  15.698  -4.133  1.00 20.00    -0.005 C 
HETATM    2  C2  UNL     1     -34.763  16.610  -4.756  1.00 20.00     0.042 C 
HETATM    3  C4  UNL     1     -33.559  14.333  -4.698  1.00 20.00     0.097 C 
HETATM    4  C5  UNL     1     -34.998  14.295  -4.179  1.00 20.00     0.118 C 
HETATM    5  S9  UNL     1     -33.337  15.966  -5.492  1.00 20.00    -0.141 SA
ENDROOT
BRANCH   4   6
HETATM    6  C3  UNL     1     -35.898  13.524  -5.097  1.00 20.00     0.267 C 
HETATM    7  O7  UNL     1     -37.119  13.539  -5.030  1.00 20.00    -0.265 OA
BRANCH   6   8
HETATM    8  O8  UNL     1     -35.144  12.821  -5.990  1.00 20.00    -0.326 OA
HETATM    9  C6  UNL     1     -35.412  13.093  -7.369  1.00 20.00     0.213 C 
ENDBRANCH   6   8
ENDBRANCH   4   6
TORSDOF 2
ENDMDL
MODEL 4
REMARK VINA RESULT:      -3.7     11.734     12.614
REMARK  2 active torsions:
REMARK  status: ('A' for Active; 'I' for Inactive)
REMARK    1  A    between atoms: C3_3  and  C5_5 
REMARK    2  A    between atoms: C3_3  and  O8_8 
ROOT
HETATM    1  C1  UNL     1     -34.965  15.361  -6.367  1.00 20.00    -0.005 C 
HETATM    2  C2  UNL     1     -33.642  15.428  -6.196  1.00 20.00     0.042 C 
HETATM    3  C4  UNL     1     -34.832  15.177  -3.926  1.00 20.00     0.097 C 
HETATM    4  C5  UNL     1     -35.758  15.049  -5.137  1.00 20.00     0.118 C 
HETATM    5  S9  UNL     1     -33.122  15.135  -4.574  1.00 20.00    -0.141 SA
ENDROOT
BRANCH   4   6
HETATM    6  C3  UNL     1     -36.278  13.652  -5.291  1.00 20.00     0.267 C 
HETATM    7  O7  UNL     1     -35.603  12.708  -5.678  1.00 20.00    -0.265 OA
BRANCH   6   8
HETATM    8  O8  UNL     1     -37.595  13.614  -4.939  1.00 20.00    -0.326 OA
HETATM    9  C6  UNL     1     -38.346  14.794  -5.236  1.00 20.00     0.213 C 
ENDBRANCH   6   8
ENDBRANCH   4   6
TORSDOF 2
ENDMDL
MODEL 5
REMARK VINA RESULT:      -3.5     11.628     12.339
REMARK  2 active torsions:
REMARK  status: ('A' for Active; 'I' for Inactive)
REMARK    1  A    between atoms: C3_3  and  C5_5 
REMARK    2  A    between atoms: C3_3  and  O8_8 
ROOT
HETATM    1  C1  UNL     1     -36.778  15.496  -4.012  1.00 20.00    -0.005 C 
HETATM    2  C2  UNL     1     -38.027  15.632  -4.464  1.00 20.00     0.042 C 
HETATM    3  C4  UNL     1     -36.382  15.342  -6.426  1.00 20.00     0.097 C 
HETATM    4  C5  UNL     1     -35.751  15.155  -5.045  1.00 20.00     0.118 C 
HETATM    5  S9  UNL     1     -38.193  15.381  -6.167  1.00 20.00    -0.141 SA
ENDROOT
BRANCH   4   6
HETATM    6  C3  UNL     1     -35.344  13.732  -4.809  1.00 20.00     0.267 C 
HETATM    7  O7  UNL     1     -35.963  12.764  -5.230  1.00 20.00    -0.265 OA
BRANCH   6   8
HETATM    8  O8  UNL     1     -34.202  13.701  -4.065  1.00 20.00    -0.326 OA
HETATM    9  C6  UNL     1     -33.179  14.615  -4.469  1.00 20.00     0.213 C 
ENDBRANCH   6   8
ENDBRANCH   4   6
TORSDOF 2
ENDMDL
MODEL 6
REMARK VINA RESULT:      -3.5     11.727     12.730
REMARK  2 active torsions:
REMARK  status: ('A' for Active; 'I' for Inactive)
REMARK    1  A    between atoms: C3_3  and  C5_5 
REMARK    2  A    between atoms: C3_3  and  O8_8 
ROOT
HETATM    1  C1  UNL     1     -33.797  14.451  -4.283  1.00 20.00    -0.005 C 
HETATM    2  C2  UNL     1     -33.686  15.728  -3.907  1.00 20.00     0.042 C 
HETATM    3  C4  UNL     1     -33.940  15.559  -6.465  1.00 20.00     0.097 C 
HETATM    4  C5  UNL     1     -34.116  14.229  -5.727  1.00 20.00     0.118 C 
HETATM    5  S9  UNL     1     -33.938  16.865  -5.184  1.00 20.00    -0.141 SA
ENDROOT
BRANCH   4   6
HETATM    6  C3  UNL     1     -35.530  13.740  -5.797  1.00 20.00     0.267 C 
HETATM    7  O7  UNL     1     -35.930  12.721  -5.251  1.00 20.00    -0.265 OA
BRANCH   6   8
HETATM    8  O8  UNL     1     -36.273  14.598  -6.552  1.00 20.00    -0.326 OA
HETATM    9  C6  UNL     1     -37.601  14.844  -6.078  1.00 20.00     0.213 C 
ENDBRANCH   6   8
ENDBRANCH   4   6
TORSDOF 2
ENDMDL
MODEL 7
REMARK VINA RESULT:      -3.4      2.171      3.603
REMARK  2 active torsions:
REMARK  status: ('A' for Active; 'I' for Inactive)
REMARK    1  A    between atoms: C3_3  and  C5_5 
REMARK    2  A    between atoms: C3_3  and  O8_8 
ROOT
HETATM    1  C1  UNL     1     -33.357   7.616   2.121  1.00 20.00    -0.005 C 
HETATM    2  C2  UNL     1     -32.141   8.170   2.134  1.00 20.00     0.042 C 
HETATM    3  C4  UNL     1     -32.916   7.636   4.532  1.00 20.00     0.097 C 
HETATM    4  C5  UNL     1     -33.849   7.108   3.439  1.00 20.00     0.118 C 
HETATM    5  S9  UNL     1     -31.387   8.182   3.689  1.00 20.00    -0.141 SA
ENDROOT
BRANCH   4   6
HETATM    6  C3  UNL     1     -33.830   5.612   3.370  1.00 20.00     0.267 C 
HETATM    7  O7  UNL     1     -32.995   4.964   2.753  1.00 20.00    -0.265 OA
BRANCH   6   8
HETATM    8  O8  UNL     1     -34.874   5.109   4.089  1.00 20.00    -0.326 OA
HETATM    9  C6  UNL     1     -34.556   4.676   5.415  1.00 20.00     0.213 C 
ENDBRANCH   6   8
ENDBRANCH   4   6
TORSDOF 2
ENDMDL
MODEL 8
REMARK VINA RESULT:      -3.4     12.097     12.671
REMARK  2 active torsions:
REMARK  status: ('A' for Active; 'I' for Inactive)
REMARK    1  A    between atoms: C3_3  and  C5_5 
REMARK    2  A    between atoms: C3_3  and  O8_8 
ROOT
HETATM    1  C1  UNL     1     -35.837  15.703  -4.756  1.00 20.00    -0.005 C 
HETATM    2  C2  UNL     1     -36.923  15.898  -4.004  1.00 20.00     0.042 C 
HETATM    3  C4  UNL     1     -37.566  14.837  -6.261  1.00 20.00     0.097 C 
HETATM    4  C5  UNL     1     -36.058  14.941  -6.024  1.00 20.00     0.118 C 
HETATM    5  S9  UNL     1     -38.370  15.220  -4.664  1.00 20.00    -0.141 SA
ENDROOT
BRANCH   4   6
HETATM    6  C3  UNL     1     -35.431  13.592  -5.843  1.00 20.00     0.267 C 
HETATM    7  O7  UNL     1     -35.942  12.679  -5.208  1.00 20.00    -0.265 OA
BRANCH   6   8
HETATM    8  O8  UNL     1     -34.229  13.558  -6.484  1.00 20.00    -0.326 OA
HETATM    9  C6  UNL     1     -34.232  14.056  -7.825  1.00 20.00     0.213 C 
ENDBRANCH   6   8
ENDBRANCH   4   6
TORSDOF 2
ENDMDL
MODEL 9
REMARK VINA RESULT:      -3.3     11.626     12.433
REMARK  2 active torsions:
REMARK  status: ('A' for Active; 'I' for Inactive)
REMARK    1  A    between atoms: C3_3  and  C5_5 
REMARK    2  A    between atoms: C3_3  and  O8_8 
ROOT
HETATM    1  C1  UNL     1     -35.405  13.315  -6.617  1.00 20.00    -0.005 C 
HETATM    2  C2  UNL     1     -35.993  14.101  -7.523  1.00 20.00     0.042 C 
HETATM    3  C4  UNL     1     -37.213  14.262  -5.259  1.00 20.00     0.097 C 
HETATM    4  C5  UNL     1     -35.919  13.445  -5.218  1.00 20.00     0.118 C 
HETATM    5  S9  UNL     1     -37.236  15.114  -6.877  1.00 20.00    -0.141 SA
ENDROOT
BRANCH   4   6
HETATM    6  C3  UNL     1     -34.855  14.134  -4.419  1.00 20.00     0.267 C 
HETATM    7  O7  UNL     1     -33.699  13.741  -4.336  1.00 20.00    -0.265 OA
BRANCH   6   8
HETATM    8  O8  UNL     1     -35.379  15.239  -3.817  1.00 20.00    -0.326 OA
HETATM    9  C6  UNL     1     -34.436  16.080  -3.146  1.00 20.00     0.213 C 
ENDBRANCH   6   8
ENDBRANCH   4   6
TORSDOF 2
ENDMDL
