MODEL 1
REMARK VINA RESULT:      -4.2      0.000      0.000
REMARK  2 active torsions:
REMARK  status: ('A' for Active; 'I' for Inactive)
REMARK    1  A    between atoms: C3_3  and  C7_7 
REMARK    2  A    between atoms: C6_6  and  O11_11 
ROOT
HETATM    1  C1  UNL     1     -34.736  16.562  -2.709  1.00 20.00    -0.028 C 
HETATM    2  C2  UNL     1     -36.033  16.399  -3.007  1.00 20.00     0.002 C 
HETATM    3  C4  UNL     1     -33.634  15.815  -3.398  1.00 20.00     0.028 C 
HETATM    4  C5  UNL     1     -34.140  14.646  -4.249  1.00 20.00     0.023 C 
HETATM    5  C6  UNL     1     -36.523  15.468  -4.080  1.00 20.00     0.158 C 
HETATM    6  C7  UNL     1     -35.406  15.003  -5.054  1.00 20.00     0.039 C 
HETATM    7  C8  UNL     1     -35.093  16.044  -6.142  1.00 20.00     0.026 C 
ENDROOT
BRANCH   6   8
HETATM    8  C3  UNL     1     -35.856  13.740  -5.750  1.00 20.00     0.243 C 
HETATM    9  O10 UNL     1     -35.889  12.643  -5.204  1.00 20.00    -0.306 OA
ENDBRANCH   6   8
BRANCH   5  10
HETATM   10  O11 UNL     1     -37.567  16.131  -4.791  1.00 20.00    -0.386 OA
HETATM   11  C9  UNL     1     -38.838  15.594  -4.461  1.00 20.00     0.202 C 
ENDBRANCH   5  10
TORSDOF 2
ENDMDL
MODEL 2
REMARK VINA RESULT:      -4.2      1.861      2.896
REMARK  2 active torsions:
REMARK  status: ('A' for Active; 'I' for Inactive)
REMARK    1  A    between atoms: C3_3  and  C7_7 
REMARK    2  A    between atoms: C6_6  and  O11_11 
ROOT
HETATM    1  C1  UNL     1     -33.445  17.652  -3.798  1.00 20.00    -0.028 C 
HETATM    2  C2  UNL     1     -33.622  17.368  -5.096  1.00 20.00     0.002 C 
HETATM    3  C4  UNL     1     -33.957  16.784  -2.689  1.00 20.00     0.028 C 
HETATM    4  C5  UNL     1     -34.949  15.719  -3.168  1.00 20.00     0.023 C 
HETATM    5  C6  UNL     1     -34.335  16.137  -5.582  1.00 20.00     0.158 C 
HETATM    6  C7  UNL     1     -34.510  15.050  -4.486  1.00 20.00     0.039 C 
HETATM    7  C8  UNL     1     -33.245  14.201  -4.280  1.00 20.00     0.026 C 
ENDROOT
BRANCH   6   8
HETATM    8  C3  UNL     1     -35.623  14.114  -4.896  1.00 20.00     0.243 C 
HETATM    9  O10 UNL     1     -35.437  12.950  -5.232  1.00 20.00    -0.306 OA
ENDBRANCH   6   8
BRANCH   5  10
HETATM   10  O11 UNL     1     -33.603  15.618  -6.692  1.00 20.00    -0.386 OA
HETATM   11  C9  UNL     1     -34.272  15.877  -7.916  1.00 20.00     0.202 C 
ENDBRANCH   5  10
TORSDOF 2
ENDMDL
MODEL 3
REMARK VINA RESULT:      -4.2     11.961     13.062
REMARK  2 active torsions:
REMARK  status: ('A' for Active; 'I' for Inactive)
REMARK    1  A    between atoms: C3_3  and  C7_7 
REMARK    2  A    between atoms: C6_6  and  O11_11 
ROOT
HETATM    1  C1  UNL     1     -33.237   3.979   2.867  1.00 20.00    -0.028 C 
HETATM    2  C2  UNL     1     -32.760   5.201   2.591  1.00 20.00     0.002 C 
HETATM    3  C4  UNL     1     -34.098   3.682   4.057  1.00 20.00     0.028 C 
HETATM    4  C5  UNL     1     -34.131   4.826   5.076  1.00 20.00     0.023 C 
HETATM    5  C6  UNL     1     -33.055   6.412   3.431  1.00 20.00     0.158 C 
HETATM    6  C7  UNL     1     -34.245   6.212   4.409  1.00 20.00     0.039 C 
HETATM    7  C8  UNL     1     -35.613   6.386   3.728  1.00 20.00     0.026 C 
ENDROOT
BRANCH   6   8
HETATM    8  C3  UNL     1     -34.152   7.240   5.512  1.00 20.00     0.243 C 
HETATM    9  O10 UNL     1     -33.091   7.617   5.997  1.00 20.00    -0.306 OA
ENDBRANCH   6   8
BRANCH   5  10
HETATM   10  O11 UNL     1     -33.308   7.505   2.548  1.00 20.00    -0.386 OA
HETATM   11  C9  UNL     1     -32.147   8.300   2.366  1.00 20.00     0.202 C 
ENDBRANCH   5  10
TORSDOF 2
ENDMDL
MODEL 4
REMARK VINA RESULT:      -4.0      1.391      2.233
REMARK  2 active torsions:
REMARK  status: ('A' for Active; 'I' for Inactive)
REMARK    1  A    between atoms: C3_3  and  C7_7 
REMARK    2  A    between atoms: C6_6  and  O11_11 
ROOT
HETATM    1  C1  UNL     1     -33.292  16.562  -5.272  1.00 20.00    -0.028 C 
HETATM    2  C2  UNL     1     -33.990  16.360  -4.145  1.00 20.00     0.002 C 
HETATM    3  C4  UNL     1     -33.561  15.826  -6.548  1.00 20.00     0.028 C 
HETATM    4  C5  UNL     1     -34.493  14.623  -6.365  1.00 20.00     0.023 C 
HETATM    5  C6  UNL     1     -35.134  15.390  -4.045  1.00 20.00     0.158 C 
HETATM    6  C7  UNL     1     -35.677  14.929  -5.425  1.00 20.00     0.039 C 
HETATM    7  C8  UNL     1     -36.636  15.950  -6.060  1.00 20.00     0.026 C 
ENDROOT
BRANCH   6   8
HETATM    8  C3  UNL     1     -36.441  13.638  -5.246  1.00 20.00     0.243 C 
HETATM    9  O10 UNL     1     -35.918  12.531  -5.295  1.00 20.00    -0.306 OA
ENDBRANCH   6   8
BRANCH   5  10
HETATM   10  O11 UNL     1     -36.167  16.010  -3.280  1.00 20.00    -0.386 OA
HETATM   11  C9  UNL     1     -35.630  16.753  -2.196  1.00 20.00     0.202 C 
ENDBRANCH   5  10
TORSDOF 2
ENDMDL
MODEL 5
REMARK VINA RESULT:      -3.9      1.765      2.722
REMARK  2 active torsions:
REMARK  status: ('A' for Active; 'I' for Inactive)
REMARK    1  A    between atoms: C3_3  and  C7_7 
REMARK    2  A    between atoms: C6_6  and  O11_11 
ROOT
HETATM    1  C1  UNL     1     -32.931  15.551  -5.320  1.00 20.00    -0.028 C 
HETATM    2  C2  UNL     1     -33.799  16.260  -6.056  1.00 20.00     0.002 C 
HETATM    3  C4  UNL     1     -33.347  14.457  -4.386  1.00 20.00     0.028 C 
HETATM    4  C5  UNL     1     -34.857  14.428  -4.127  1.00 20.00     0.023 C 
HETATM    5  C6  UNL     1     -35.283  16.019  -6.042  1.00 20.00     0.158 C 
HETATM    6  C7  UNL     1     -35.683  14.658  -5.408  1.00 20.00     0.039 C 
HETATM    7  C8  UNL     1     -35.530  13.479  -6.384  1.00 20.00     0.026 C 
ENDROOT
BRANCH   6   8
HETATM    8  C3  UNL     1     -37.134  14.718  -4.992  1.00 20.00     0.243 C 
HETATM    9  O10 UNL     1     -37.866  13.736  -4.952  1.00 20.00    -0.306 OA
ENDBRANCH   6   8
BRANCH   5  10
HETATM   10  O11 UNL     1     -35.752  16.105  -7.387  1.00 20.00    -0.386 OA
HETATM   11  C9  UNL     1     -36.119  17.434  -7.721  1.00 20.00     0.202 C 
ENDBRANCH   5  10
TORSDOF 2
ENDMDL
MODEL 6
REMARK VINA RESULT:      -3.9      1.866      3.302
REMARK  2 active torsions:
REMARK  status: ('A' for Active; 'I' for Inactive)
REMARK    1  A    between atoms: C3_3  and  C7_7 
REMARK    2  A    between atoms: C6_6  and  O11_11 
ROOT
HETATM    1  C1  UNL     1     -37.133  14.679  -4.759  1.00 20.00    -0.028 C 
HETATM    2  C2  UNL     1     -36.402  13.753  -5.396  1.00 20.00     0.002 C 
HETATM    3  C4  UNL     1     -36.533  15.760  -3.914  1.00 20.00     0.028 C 
HETATM    4  C5  UNL     1     -35.049  15.530  -3.605  1.00 20.00     0.023 C 
HETATM    5  C6  UNL     1     -34.901  13.711  -5.352  1.00 20.00     0.158 C 
HETATM    6  C7  UNL     1     -34.260  15.027  -4.831  1.00 20.00     0.039 C 
HETATM    7  C8  UNL     1     -34.169  16.116  -5.914  1.00 20.00     0.026 C 
ENDROOT
BRANCH   6   8
HETATM    8  C3  UNL     1     -32.855  14.736  -4.360  1.00 20.00     0.243 C 
HETATM    9  O10 UNL     1     -32.450  13.609  -4.095  1.00 20.00    -0.306 OA
ENDBRANCH   6   8
BRANCH   5  10
HETATM   10  O11 UNL     1     -34.433  13.410  -6.666  1.00 20.00    -0.386 OA
HETATM   11  C9  UNL     1     -35.511  13.134  -7.546  1.00 20.00     0.202 C 
ENDBRANCH   5  10
TORSDOF 2
ENDMDL
MODEL 7
REMARK VINA RESULT:      -3.8      2.287      2.511
REMARK  2 active torsions:
REMARK  status: ('A' for Active; 'I' for Inactive)
REMARK    1  A    between atoms: C3_3  and  C7_7 
REMARK    2  A    between atoms: C6_6  and  O11_11 
ROOT
HETATM    1  C1  UNL     1     -33.722  16.983  -5.506  1.00 20.00    -0.028 C 
HETATM    2  C2  UNL     1     -34.953  16.984  -6.037  1.00 20.00     0.002 C 
HETATM    3  C4  UNL     1     -32.963  15.730  -5.191  1.00 20.00     0.028 C 
HETATM    4  C5  UNL     1     -33.832  14.470  -5.250  1.00 20.00     0.023 C 
HETATM    5  C6  UNL     1     -35.698  15.728  -6.396  1.00 20.00     0.158 C 
HETATM    6  C7  UNL     1     -34.793  14.467  -6.456  1.00 20.00     0.039 C 
HETATM    7  C8  UNL     1     -34.018  14.351  -7.779  1.00 20.00     0.026 C 
ENDROOT
BRANCH   6   8
HETATM    8  C3  UNL     1     -35.658  13.236  -6.327  1.00 20.00     0.243 C 
HETATM    9  O10 UNL     1     -35.978  12.745  -5.250  1.00 20.00    -0.306 OA
ENDBRANCH   6   8
BRANCH   5  10
HETATM   10  O11 UNL     1     -36.341  15.946  -7.651  1.00 20.00    -0.386 OA
HETATM   11  C9  UNL     1     -36.666  17.315  -7.833  1.00 20.00     0.202 C 
ENDBRANCH   5  10
TORSDOF 2
ENDMDL
MODEL 8
REMARK VINA RESULT:      -3.8     11.354     12.336
REMARK  2 active torsions:
REMARK  status: ('A' for Active; 'I' for Inactive)
REMARK    1  A    between atoms: C3_3  and  C7_7 
REMARK    2  A    between atoms: C6_6  and  O11_11 
ROOT
HETATM    1  C1  UNL     1     -33.988   6.488   5.981  1.00 20.00    -0.028 C 
HETATM    2  C2  UNL     1     -33.264   7.367   5.274  1.00 20.00     0.002 C 
HETATM    3  C4  UNL     1     -34.900   5.479   5.352  1.00 20.00     0.028 C 
HETATM    4  C5  UNL     1     -35.153   5.742   3.864  1.00 20.00     0.023 C 
HETATM    5  C6  UNL     1     -33.269   7.422   3.772  1.00 20.00     0.158 C 
HETATM    6  C7  UNL     1     -33.874   6.155   3.108  1.00 20.00     0.039 C 
HETATM    7  C8  UNL     1     -32.876   4.987   3.033  1.00 20.00     0.026 C 
ENDROOT
BRANCH   6   8
HETATM    8  C3  UNL     1     -34.287   6.491   1.694  1.00 20.00     0.243 C 
HETATM    9  O10 UNL     1     -34.923   5.727   0.977  1.00 20.00    -0.306 OA
ENDBRANCH   6   8
BRANCH   5  10
HETATM   10  O11 UNL     1     -31.924   7.624   3.338  1.00 20.00    -0.386 OA
HETATM   11  C9  UNL     1     -31.827   8.737   2.463  1.00 20.00     0.202 C 
ENDBRANCH   5  10
TORSDOF 2
ENDMDL
MODEL 9
REMARK VINA RESULT:      -3.8      1.626      2.223
REMARK  2 active torsions:
REMARK  status: ('A' for Active; 'I' for Inactive)
REMARK    1  A    between atoms: C3_3  and  C7_7 
REMARK    2  A    between atoms: C6_6  and  O11_11 
ROOT
HETATM    1  C1  UNL     1     -35.974  17.138  -2.341  1.00 20.00    -0.028 C 
HETATM    2  C2  UNL     1     -36.374  16.206  -3.217  1.00 20.00     0.002 C 
HETATM    3  C4  UNL     1     -34.534  17.474  -2.098  1.00 20.00     0.028 C 
HETATM    4  C5  UNL     1     -33.567  16.457  -2.714  1.00 20.00     0.023 C 
HETATM    5  C6  UNL     1     -35.425  15.412  -4.069  1.00 20.00     0.158 C 
HETATM    6  C7  UNL     1     -33.994  16.013  -4.127  1.00 20.00     0.039 C 
HETATM    7  C8  UNL     1     -33.876  17.174  -5.129  1.00 20.00     0.026 C 
ENDROOT
BRANCH   6   8
HETATM    8  C3  UNL     1     -33.027  14.938  -4.562  1.00 20.00     0.243 C 
HETATM    9  O10 UNL     1     -33.211  13.742  -4.362  1.00 20.00    -0.306 OA
ENDBRANCH   6   8
BRANCH   5  10
HETATM   10  O11 UNL     1     -35.986  15.319  -5.378  1.00 20.00    -0.386 OA
HETATM   11  C9  UNL     1     -36.596  14.056  -5.589  1.00 20.00     0.202 C 
ENDBRANCH   5  10
TORSDOF 2
ENDMDL
