MODEL 1
REMARK VINA RESULT:      -5.5      0.000      0.000
REMARK  1 active torsions:
REMARK  status: ('A' for Active; 'I' for Inactive)
REMARK    1  A    between atoms: C3_3  and  C6_6 
ROOT
HETATM    1  C1  UNL     1     -34.909   5.547   5.374  1.00 20.00    -0.030 C 
HETATM    2  C2  UNL     1     -34.878   5.214   4.076  1.00 20.00    -0.026 C 
HETATM    3  C4  UNL     1     -34.109   6.672   5.958  1.00 20.00     0.032 C 
HETATM    4  C5  UNL     1     -34.041   5.936   3.051  1.00 20.00     0.018 C 
HETATM    5  C6  UNL     1     -33.581   7.317   3.574  1.00 20.00     0.098 C 
HETATM    6  C7  UNL     1     -33.033   7.239   5.008  1.00 20.00    -0.000 C 
HETATM    7  C8  UNL     1     -32.898   5.005   2.622  1.00 20.00     0.015 C 
HETATM    8  C9  UNL     1     -32.559   8.599   5.532  1.00 20.00     0.011 C 
ENDROOT
BRANCH   5   9
HETATM    9  C3  UNL     1     -32.569   7.905   2.604  1.00 20.00     0.178 C 
HETATM   10  O10 UNL     1     -31.371   7.891   3.001  1.00 20.00    -0.648 OA
HETATM   11  O11 UNL     1     -33.060   8.334   1.522  1.00 20.00    -0.648 OA
ENDBRANCH   5   9
TORSDOF 1
ENDMDL
MODEL 2
REMARK VINA RESULT:      -5.1      1.594      2.317
REMARK  1 active torsions:
REMARK  status: ('A' for Active; 'I' for Inactive)
REMARK    1  A    between atoms: C3_3  and  C6_6 
ROOT
HETATM    1  C1  UNL     1     -33.967   7.163   6.239  1.00 20.00    -0.030 C 
HETATM    2  C2  UNL     1     -34.726   6.107   5.918  1.00 20.00    -0.026 C 
HETATM    3  C4  UNL     1     -33.024   7.825   5.279  1.00 20.00     0.032 C 
HETATM    4  C5  UNL     1     -34.729   5.466   4.553  1.00 20.00     0.018 C 
HETATM    5  C6  UNL     1     -34.103   6.402   3.493  1.00 20.00     0.098 C 
HETATM    6  C7  UNL     1     -32.786   7.027   3.979  1.00 20.00    -0.000 C 
HETATM    7  C8  UNL     1     -34.054   4.092   4.667  1.00 20.00     0.015 C 
HETATM    8  C9  UNL     1     -32.148   7.945   2.931  1.00 20.00     0.011 C 
ENDROOT
BRANCH   5   9
HETATM    9  C3  UNL     1     -33.929   5.634   2.193  1.00 20.00     0.178 C 
HETATM   10  O10 UNL     1     -32.970   4.812   2.177  1.00 20.00    -0.648 OA
HETATM   11  O11 UNL     1     -34.767   5.919   1.293  1.00 20.00    -0.648 OA
ENDBRANCH   5   9
TORSDOF 1
ENDMDL
MODEL 3
REMARK VINA RESULT:      -4.8      2.279      3.403
REMARK  1 active torsions:
REMARK  status: ('A' for Active; 'I' for Inactive)
REMARK    1  A    between atoms: C3_3  and  C6_6 
ROOT
HETATM    1  C1  UNL     1     -31.754   8.163   3.312  1.00 20.00    -0.030 C 
HETATM    2  C2  UNL     1     -32.046   7.246   2.380  1.00 20.00    -0.026 C 
HETATM    3  C4  UNL     1     -32.412   8.212   4.658  1.00 20.00     0.032 C 
HETATM    4  C5  UNL     1     -33.065   6.153   2.577  1.00 20.00     0.018 C 
HETATM    5  C6  UNL     1     -33.401   5.963   4.074  1.00 20.00     0.098 C 
HETATM    6  C7  UNL     1     -33.652   7.302   4.786  1.00 20.00    -0.000 C 
HETATM    7  C8  UNL     1     -34.278   6.461   1.687  1.00 20.00     0.015 C 
HETATM    8  C9  UNL     1     -34.001   7.125   6.268  1.00 20.00     0.011 C 
ENDROOT
BRANCH   5   9
HETATM    9  C3  UNL     1     -34.581   5.014   4.203  1.00 20.00     0.178 C 
HETATM   10  O10 UNL     1     -35.718   5.548   4.074  1.00 20.00    -0.648 OA
HETATM   11  O11 UNL     1     -34.272   3.810   4.425  1.00 20.00    -0.648 OA
ENDBRANCH   5   9
TORSDOF 1
ENDMDL
MODEL 4
REMARK VINA RESULT:      -4.7     11.570     13.305
REMARK  1 active torsions:
REMARK  status: ('A' for Active; 'I' for Inactive)
REMARK    1  A    between atoms: C3_3  and  C6_6 
ROOT
HETATM    1  C1  UNL     1     -34.050  17.238  -6.344  1.00 20.00    -0.030 C 
HETATM    2  C2  UNL     1     -34.813  17.265  -5.243  1.00 20.00    -0.026 C 
HETATM    3  C4  UNL     1     -33.890  16.024  -7.209  1.00 20.00     0.032 C 
HETATM    4  C5  UNL     1     -35.605  16.081  -4.749  1.00 20.00     0.018 C 
HETATM    5  C6  UNL     1     -35.768  15.014  -5.857  1.00 20.00     0.098 C 
HETATM    6  C7  UNL     1     -34.444  14.727  -6.583  1.00 20.00    -0.000 C 
HETATM    7  C8  UNL     1     -34.947  15.567  -3.461  1.00 20.00     0.015 C 
HETATM    8  C9  UNL     1     -34.590  13.659  -7.673  1.00 20.00     0.011 C 
ENDROOT
BRANCH   5   9
HETATM    9  C3  UNL     1     -36.375  13.758  -5.252  1.00 20.00     0.178 C 
HETATM   10  O10 UNL     1     -35.569  12.804  -5.069  1.00 20.00    -0.648 OA
HETATM   11  O11 UNL     1     -37.613  13.831  -5.011  1.00 20.00    -0.648 OA
ENDBRANCH   5   9
TORSDOF 1
ENDMDL
MODEL 5
REMARK VINA RESULT:      -4.6     11.636     12.348
REMARK  1 active torsions:
REMARK  status: ('A' for Active; 'I' for Inactive)
REMARK    1  A    between atoms: C3_3  and  C6_6 
ROOT
HETATM    1  C1  UNL     1     -34.615  16.554  -2.656  1.00 20.00    -0.030 C 
HETATM    2  C2  UNL     1     -33.653  15.921  -3.341  1.00 20.00    -0.026 C 
HETATM    3  C4  UNL     1     -36.075  16.425  -2.971  1.00 20.00     0.032 C 
HETATM    4  C5  UNL     1     -33.925  15.000  -4.503  1.00 20.00     0.018 C 
HETATM    5  C6  UNL     1     -35.406  14.554  -4.529  1.00 20.00     0.098 C 
HETATM    6  C7  UNL     1     -36.369  15.732  -4.319  1.00 20.00    -0.000 C 
HETATM    7  C8  UNL     1     -33.447  15.692  -5.787  1.00 20.00     0.015 C 
HETATM    8  C9  UNL     1     -37.841  15.304  -4.358  1.00 20.00     0.011 C 
ENDROOT
BRANCH   5   9
HETATM    9  C3  UNL     1     -35.679  13.813  -5.828  1.00 20.00     0.178 C 
HETATM   10  O10 UNL     1     -36.066  14.536  -6.789  1.00 20.00    -0.648 OA
HETATM   11  O11 UNL     1     -35.485  12.566  -5.779  1.00 20.00    -0.648 OA
ENDBRANCH   5   9
TORSDOF 1
ENDMDL
MODEL 6
REMARK VINA RESULT:      -4.5     11.076     12.877
REMARK  1 active torsions:
REMARK  status: ('A' for Active; 'I' for Inactive)
REMARK    1  A    between atoms: C3_3  and  C6_6 
ROOT
HETATM    1  C1  UNL     1     -33.712  17.338  -4.403  1.00 20.00    -0.030 C 
HETATM    2  C2  UNL     1     -33.661  16.265  -3.603  1.00 20.00    -0.026 C 
HETATM    3  C4  UNL     1     -34.166  17.283  -5.831  1.00 20.00     0.032 C 
HETATM    4  C5  UNL     1     -34.062  14.879  -4.040  1.00 20.00     0.018 C 
HETATM    5  C6  UNL     1     -34.913  14.923  -5.331  1.00 20.00     0.098 C 
HETATM    6  C7  UNL     1     -34.305  15.853  -6.393  1.00 20.00    -0.000 C 
HETATM    7  C8  UNL     1     -32.793  14.021  -4.143  1.00 20.00     0.015 C 
HETATM    8  C9  UNL     1     -35.131  15.893  -7.683  1.00 20.00     0.011 C 
ENDROOT
BRANCH   5   9
HETATM    9  C3  UNL     1     -35.104  13.507  -5.849  1.00 20.00     0.178 C 
HETATM   10  O10 UNL     1     -34.355  13.180  -6.812  1.00 20.00    -0.648 OA
HETATM   11  O11 UNL     1     -35.991  12.838  -5.248  1.00 20.00    -0.648 OA
ENDBRANCH   5   9
TORSDOF 1
ENDMDL
MODEL 7
REMARK VINA RESULT:      -4.4      0.877      2.742
REMARK  1 active torsions:
REMARK  status: ('A' for Active; 'I' for Inactive)
REMARK    1  A    between atoms: C3_3  and  C6_6 
ROOT
HETATM    1  C1  UNL     1     -34.645   5.007   5.554  1.00 20.00    -0.030 C 
HETATM    2  C2  UNL     1     -34.363   6.265   5.918  1.00 20.00    -0.026 C 
HETATM    3  C4  UNL     1     -34.238   4.416   4.238  1.00 20.00     0.032 C 
HETATM    4  C5  UNL     1     -33.597   7.231   5.050  1.00 20.00     0.018 C 
HETATM    5  C6  UNL     1     -32.835   6.492   3.926  1.00 20.00     0.098 C 
HETATM    6  C7  UNL     1     -33.715   5.450   3.218  1.00 20.00    -0.000 C 
HETATM    7  C8  UNL     1     -34.572   8.309   4.555  1.00 20.00     0.015 C 
HETATM    8  C9  UNL     1     -32.974   4.721   2.091  1.00 20.00     0.011 C 
ENDROOT
BRANCH   5   9
HETATM    9  C3  UNL     1     -32.264   7.515   2.957  1.00 20.00     0.178 C 
HETATM   10  O10 UNL     1     -32.916   7.665   1.886  1.00 20.00    -0.648 OA
HETATM   11  O11 UNL     1     -31.206   8.083   3.348  1.00 20.00    -0.648 OA
ENDBRANCH   5   9
TORSDOF 1
ENDMDL
MODEL 8
REMARK VINA RESULT:      -4.2      1.716      3.148
REMARK  1 active torsions:
REMARK  status: ('A' for Active; 'I' for Inactive)
REMARK    1  A    between atoms: C3_3  and  C6_6 
ROOT
HETATM    1  C1  UNL     1     -32.425   8.428   5.357  1.00 20.00    -0.030 C 
HETATM    2  C2  UNL     1     -31.869   8.432   4.138  1.00 20.00    -0.026 C 
HETATM    3  C4  UNL     1     -33.483   7.454   5.779  1.00 20.00     0.032 C 
HETATM    4  C5  UNL     1     -32.236   7.454   3.051  1.00 20.00     0.018 C 
HETATM    5  C6  UNL     1     -32.982   6.228   3.629  1.00 20.00     0.098 C 
HETATM    6  C7  UNL     1     -34.086   6.636   4.617  1.00 20.00    -0.000 C 
HETATM    7  C8  UNL     1     -33.007   8.213   1.962  1.00 20.00     0.015 C 
HETATM    8  C9  UNL     1     -34.843   5.430   5.185  1.00 20.00     0.011 C 
ENDROOT
BRANCH   5   9
HETATM    9  C3  UNL     1     -33.520   5.388   2.482  1.00 20.00     0.178 C 
HETATM   10  O10 UNL     1     -34.564   5.834   1.930  1.00 20.00    -0.648 OA
HETATM   11  O11 UNL     1     -32.851   4.347   2.229  1.00 20.00    -0.648 OA
ENDBRANCH   5   9
TORSDOF 1
ENDMDL
MODEL 9
REMARK VINA RESULT:      -4.2     11.601     12.408
REMARK  1 active torsions:
REMARK  status: ('A' for Active; 'I' for Inactive)
REMARK    1  A    between atoms: C3_3  and  C6_6 
ROOT
HETATM    1  C1  UNL     1     -32.417  18.765   0.662  1.00 20.00    -0.030 C 
HETATM    2  C2  UNL     1     -32.060  18.472  -0.595  1.00 20.00    -0.026 C 
HETATM    3  C4  UNL     1     -33.807  18.580   1.192  1.00 20.00     0.032 C 
HETATM    4  C5  UNL     1     -33.012  17.915  -1.623  1.00 20.00     0.018 C 
HETATM    5  C6  UNL     1     -34.283  17.340  -0.956  1.00 20.00     0.098 C 
HETATM    6  C7  UNL     1     -34.862  18.291   0.103  1.00 20.00    -0.000 C 
HETATM    7  C8  UNL     1     -33.280  19.005  -2.670  1.00 20.00     0.015 C 
HETATM    8  C9  UNL     1     -36.132  17.739   0.760  1.00 20.00     0.011 C 
ENDROOT
BRANCH   5   9
HETATM    9  C3  UNL     1     -35.298  16.995  -2.034  1.00 20.00     0.178 C 
HETATM   10  O10 UNL     1     -36.256  17.808  -2.152  1.00 20.00    -0.648 OA
HETATM   11  O11 UNL     1     -35.051  15.934  -2.674  1.00 20.00    -0.648 OA
ENDBRANCH   5   9
TORSDOF 1
ENDMDL
