MODEL 1
REMARK VINA RESULT:      -4.5      0.000      0.000
REMARK  2 active torsions:
REMARK  status: ('A' for Active; 'I' for Inactive)
REMARK    1  A    between atoms: C2_2  and  C7_7 
REMARK    2  A    between atoms: C3_3  and  C6_6 
ROOT
HETATM    1  C4  UNL     1     -34.301  14.224  -7.148  1.00 20.00     0.014 C 
HETATM    2  C5  UNL     1     -33.581  15.563  -6.897  1.00 20.00     0.015 C 
HETATM    3  C6  UNL     1     -35.531  14.802  -6.402  1.00 20.00     0.067 C 
HETATM    4  C7  UNL     1     -34.547  15.805  -5.697  1.00 20.00    -0.011 C 
HETATM    5  C10 UNL     1     -35.069  17.233  -5.596  1.00 20.00     0.021 C 
ENDROOT
BRANCH   4   6
HETATM    6  C2  UNL     1     -34.003  15.338  -4.388  1.00 20.00    -0.084 C 
HETATM    7  C1  UNL     1     -32.989  14.464  -4.313  1.00 20.00     0.015 C 
HETATM    8  C8  UNL     1     -34.654  15.905  -3.161  1.00 20.00     0.043 C 
ENDBRANCH   4   6
BRANCH   3   9
HETATM    9  C3  UNL     1     -36.368  13.848  -5.545  1.00 20.00     0.128 C 
HETATM   10  C9  UNL     1     -37.714  14.349  -5.094  1.00 20.00     0.091 C 
HETATM   11  O11 UNL     1     -35.961  12.728  -5.241  1.00 20.00    -0.298 OA
ENDBRANCH   3   9
TORSDOF 2
ENDMDL
MODEL 2
REMARK VINA RESULT:      -4.2     11.753     13.181
REMARK  2 active torsions:
REMARK  status: ('A' for Active; 'I' for Inactive)
REMARK    1  A    between atoms: C2_2  and  C7_7 
REMARK    2  A    between atoms: C3_3  and  C6_6 
ROOT
HETATM    1  C4  UNL     1     -33.442   7.119   5.751  1.00 20.00     0.014 C 
HETATM    2  C5  UNL     1     -34.666   6.184   5.709  1.00 20.00     0.015 C 
HETATM    3  C6  UNL     1     -33.747   7.503   4.280  1.00 20.00     0.067 C 
HETATM    4  C7  UNL     1     -34.523   6.141   4.157  1.00 20.00    -0.011 C 
HETATM    5  C10 UNL     1     -35.846   6.237   3.406  1.00 20.00     0.021 C 
ENDROOT
BRANCH   4   6
HETATM    6  C2  UNL     1     -33.707   4.995   3.662  1.00 20.00    -0.084 C 
HETATM    7  C1  UNL     1     -33.046   5.045   2.496  1.00 20.00     0.015 C 
HETATM    8  C8  UNL     1     -33.664   3.783   4.546  1.00 20.00     0.043 C 
ENDBRANCH   4   6
BRANCH   3   9
HETATM    9  C3  UNL     1     -32.564   7.777   3.347  1.00 20.00     0.128 C 
HETATM   10  C9  UNL     1     -32.895   8.225   1.948  1.00 20.00     0.091 C 
HETATM   11  O11 UNL     1     -31.401   7.640   3.722  1.00 20.00    -0.298 OA
ENDBRANCH   3   9
TORSDOF 2
ENDMDL
MODEL 3
REMARK VINA RESULT:      -4.1      0.868      2.850
REMARK  2 active torsions:
REMARK  status: ('A' for Active; 'I' for Inactive)
REMARK    1  A    between atoms: C2_2  and  C7_7 
REMARK    2  A    between atoms: C3_3  and  C6_6 
ROOT
HETATM    1  C4  UNL     1     -35.262  15.871  -3.277  1.00 20.00     0.014 C 
HETATM    2  C5  UNL     1     -33.768  16.222  -3.411  1.00 20.00     0.015 C 
HETATM    3  C6  UNL     1     -34.951  14.504  -3.939  1.00 20.00     0.067 C 
HETATM    4  C7  UNL     1     -33.674  15.175  -4.564  1.00 20.00    -0.011 C 
HETATM    5  C10 UNL     1     -32.421  14.308  -4.517  1.00 20.00     0.021 C 
ENDROOT
BRANCH   4   6
HETATM    6  C2  UNL     1     -33.871  15.761  -5.922  1.00 20.00    -0.084 C 
HETATM    7  C1  UNL     1     -34.208  17.047  -6.097  1.00 20.00     0.015 C 
HETATM    8  C8  UNL     1     -33.667  14.830  -7.081  1.00 20.00     0.043 C 
ENDBRANCH   4   6
BRANCH   3   9
HETATM    9  C3  UNL     1     -36.006  13.896  -4.868  1.00 20.00     0.128 C 
HETATM   10  C9  UNL     1     -37.196  14.757  -5.195  1.00 20.00     0.091 C 
HETATM   11  O11 UNL     1     -35.886  12.760  -5.324  1.00 20.00    -0.298 OA
ENDBRANCH   3   9
TORSDOF 2
ENDMDL
MODEL 4
REMARK VINA RESULT:      -4.0      1.397      3.075
REMARK  2 active torsions:
REMARK  status: ('A' for Active; 'I' for Inactive)
REMARK    1  A    between atoms: C2_2  and  C7_7 
REMARK    2  A    between atoms: C3_3  and  C6_6 
ROOT
HETATM    1  C4  UNL     1     -35.950  13.346  -5.322  1.00 20.00     0.014 C 
HETATM    2  C5  UNL     1     -36.718  14.133  -6.401  1.00 20.00     0.015 C 
HETATM    3  C6  UNL     1     -35.466  14.701  -4.747  1.00 20.00     0.067 C 
HETATM    4  C7  UNL     1     -35.736  15.323  -6.166  1.00 20.00    -0.011 C 
HETATM    5  C10 UNL     1     -36.410  16.690  -6.136  1.00 20.00     0.021 C 
ENDROOT
BRANCH   4   6
HETATM    6  C2  UNL     1     -34.563  15.322  -7.088  1.00 20.00    -0.084 C 
HETATM    7  C1  UNL     1     -34.227  14.241  -7.806  1.00 20.00     0.015 C 
HETATM    8  C8  UNL     1     -33.783  16.601  -7.167  1.00 20.00     0.043 C 
ENDBRANCH   4   6
BRANCH   3   9
HETATM    9  C3  UNL     1     -34.055  14.771  -4.157  1.00 20.00     0.128 C 
HETATM   10  C9  UNL     1     -33.704  16.015  -3.385  1.00 20.00     0.091 C 
HETATM   11  O11 UNL     1     -33.247  13.856  -4.306  1.00 20.00    -0.298 OA
ENDBRANCH   3   9
TORSDOF 2
ENDMDL
MODEL 5
REMARK VINA RESULT:      -4.0      1.352      2.449
REMARK  2 active torsions:
REMARK  status: ('A' for Active; 'I' for Inactive)
REMARK    1  A    between atoms: C2_2  and  C7_7 
REMARK    2  A    between atoms: C3_3  and  C6_6 
ROOT
HETATM    1  C4  UNL     1     -33.712  14.316  -4.196  1.00 20.00     0.014 C 
HETATM    2  C5  UNL     1     -33.491  15.841  -4.217  1.00 20.00     0.015 C 
HETATM    3  C6  UNL     1     -34.190  14.415  -5.667  1.00 20.00     0.067 C 
HETATM    4  C7  UNL     1     -34.516  15.927  -5.389  1.00 20.00    -0.011 C 
HETATM    5  C10 UNL     1     -34.105  16.876  -6.509  1.00 20.00     0.021 C 
ENDROOT
BRANCH   4   6
HETATM    6  C2  UNL     1     -35.914  16.198  -4.942  1.00 20.00    -0.084 C 
HETATM    7  C1  UNL     1     -36.293  16.041  -3.666  1.00 20.00     0.015 C 
HETATM    8  C8  UNL     1     -36.870  16.659  -6.003  1.00 20.00     0.043 C 
ENDBRANCH   4   6
BRANCH   3   9
HETATM    9  C3  UNL     1     -35.313  13.479  -6.124  1.00 20.00     0.128 C 
HETATM   10  C9  UNL     1     -35.619  13.459  -7.598  1.00 20.00     0.091 C 
HETATM   11  O11 UNL     1     -35.935  12.778  -5.327  1.00 20.00    -0.298 OA
ENDBRANCH   3   9
TORSDOF 2
ENDMDL
MODEL 6
REMARK VINA RESULT:      -3.9      1.434      1.984
REMARK  2 active torsions:
REMARK  status: ('A' for Active; 'I' for Inactive)
REMARK    1  A    between atoms: C2_2  and  C7_7 
REMARK    2  A    between atoms: C3_3  and  C6_6 
ROOT
HETATM    1  C4  UNL     1     -33.080  15.819  -5.474  1.00 20.00     0.014 C 
HETATM    2  C5  UNL     1     -33.429  17.310  -5.306  1.00 20.00     0.015 C 
HETATM    3  C6  UNL     1     -34.600  15.514  -5.473  1.00 20.00     0.067 C 
HETATM    4  C7  UNL     1     -34.804  16.874  -4.711  1.00 20.00    -0.011 C 
HETATM    5  C10 UNL     1     -35.986  17.700  -5.205  1.00 20.00     0.021 C 
ENDROOT
BRANCH   4   6
HETATM    6  C2  UNL     1     -34.806  16.768  -3.223  1.00 20.00    -0.084 C 
HETATM    7  C1  UNL     1     -33.669  16.761  -2.512  1.00 20.00     0.015 C 
HETATM    8  C8  UNL     1     -36.152  16.673  -2.568  1.00 20.00     0.043 C 
ENDBRANCH   4   6
BRANCH   3   9
HETATM    9  C3  UNL     1     -35.073  14.212  -4.819  1.00 20.00     0.128 C 
HETATM   10  C9  UNL     1     -36.460  13.744  -5.169  1.00 20.00     0.091 C 
HETATM   11  O11 UNL     1     -34.355  13.580  -4.047  1.00 20.00    -0.298 OA
ENDBRANCH   3   9
TORSDOF 2
ENDMDL
MODEL 7
REMARK VINA RESULT:      -3.8      1.029      2.247
REMARK  2 active torsions:
REMARK  status: ('A' for Active; 'I' for Inactive)
REMARK    1  A    between atoms: C2_2  and  C7_7 
REMARK    2  A    between atoms: C3_3  and  C6_6 
ROOT
HETATM    1  C4  UNL     1     -36.581  16.152  -6.371  1.00 20.00     0.014 C 
HETATM    2  C5  UNL     1     -35.975  17.114  -5.332  1.00 20.00     0.015 C 
HETATM    3  C6  UNL     1     -36.357  14.998  -5.361  1.00 20.00     0.067 C 
HETATM    4  C7  UNL     1     -35.251  15.891  -4.690  1.00 20.00    -0.011 C 
HETATM    5  C10 UNL     1     -35.274  15.882  -3.166  1.00 20.00     0.021 C 
ENDROOT
BRANCH   4   6
HETATM    6  C2  UNL     1     -33.868  15.675  -5.207  1.00 20.00    -0.084 C 
HETATM    7  C1  UNL     1     -33.419  16.293  -6.309  1.00 20.00     0.015 C 
HETATM    8  C8  UNL     1     -33.008  14.729  -4.422  1.00 20.00     0.043 C 
ENDBRANCH   4   6
BRANCH   3   9
HETATM    9  C3  UNL     1     -35.974  13.621  -5.913  1.00 20.00     0.128 C 
HETATM   10  C9  UNL     1     -35.702  13.536  -7.391  1.00 20.00     0.091 C 
HETATM   11  O11 UNL     1     -35.892  12.634  -5.184  1.00 20.00    -0.298 OA
ENDBRANCH   3   9
TORSDOF 2
ENDMDL
MODEL 8
REMARK VINA RESULT:      -3.8      1.478      3.310
REMARK  2 active torsions:
REMARK  status: ('A' for Active; 'I' for Inactive)
REMARK    1  A    between atoms: C2_2  and  C7_7 
REMARK    2  A    between atoms: C3_3  and  C6_6 
ROOT
HETATM    1  C4  UNL     1     -33.735  17.051  -6.157  1.00 20.00     0.014 C 
HETATM    2  C5  UNL     1     -34.414  16.599  -7.464  1.00 20.00     0.015 C 
HETATM    3  C6  UNL     1     -33.283  15.584  -5.941  1.00 20.00     0.067 C 
HETATM    4  C7  UNL     1     -34.467  15.153  -6.882  1.00 20.00    -0.011 C 
HETATM    5  C10 UNL     1     -34.108  14.063  -7.886  1.00 20.00     0.021 C 
ENDROOT
BRANCH   4   6
HETATM    6  C2  UNL     1     -35.745  14.837  -6.180  1.00 20.00    -0.084 C 
HETATM    7  C1  UNL     1     -36.658  15.781  -5.909  1.00 20.00     0.015 C 
HETATM    8  C8  UNL     1     -35.953  13.401  -5.798  1.00 20.00     0.043 C 
ENDBRANCH   4   6
BRANCH   3   9
HETATM    9  C3  UNL     1     -33.234  15.048  -4.508  1.00 20.00     0.128 C 
HETATM   10  C9  UNL     1     -33.701  15.979  -3.421  1.00 20.00     0.091 C 
HETATM   11  O11 UNL     1     -32.832  13.913  -4.256  1.00 20.00    -0.298 OA
ENDBRANCH   3   9
TORSDOF 2
ENDMDL
MODEL 9
REMARK VINA RESULT:      -3.7      2.123      3.564
REMARK  2 active torsions:
REMARK  status: ('A' for Active; 'I' for Inactive)
REMARK    1  A    between atoms: C2_2  and  C7_7 
REMARK    2  A    between atoms: C3_3  and  C6_6 
ROOT
HETATM    1  C4  UNL     1     -33.171  14.871  -4.408  1.00 20.00     0.014 C 
HETATM    2  C5  UNL     1     -34.179  14.401  -5.474  1.00 20.00     0.015 C 
HETATM    3  C6  UNL     1     -34.373  15.326  -3.542  1.00 20.00     0.067 C 
HETATM    4  C7  UNL     1     -35.214  15.398  -4.868  1.00 20.00    -0.011 C 
HETATM    5  C10 UNL     1     -36.626  14.835  -4.749  1.00 20.00     0.021 C 
ENDROOT
BRANCH   4   6
HETATM    6  C2  UNL     1     -35.223  16.731  -5.537  1.00 20.00    -0.084 C 
HETATM    7  C1  UNL     1     -34.234  17.120  -6.355  1.00 20.00     0.015 C 
HETATM    8  C8  UNL     1     -36.402  17.612  -5.243  1.00 20.00     0.043 C 
ENDBRANCH   4   6
BRANCH   3   9
HETATM    9  C3  UNL     1     -34.211  16.588  -2.690  1.00 20.00     0.128 C 
HETATM   10  C9  UNL     1     -35.246  16.820  -1.620  1.00 20.00     0.091 C 
HETATM   11  O11 UNL     1     -33.282  17.373  -2.869  1.00 20.00    -0.298 OA
ENDBRANCH   3   9
TORSDOF 2
ENDMDL
