MODEL 1
REMARK VINA RESULT:      -4.0      0.000      0.000
REMARK  0 active torsions:
REMARK  status: ('A' for Active; 'I' for Inactive)
ROOT
HETATM    1  C1  UNL     1     -36.312  13.716  -5.526  1.00 20.00     0.459 C 
HETATM    2  C2  UNL     1     -34.439  14.719  -4.714  1.00 20.00     0.090 C 
HETATM    3  C3  UNL     1     -34.734  15.236  -6.138  1.00 20.00     0.090 C 
HETATM    4  C4  UNL     1     -34.980  15.623  -3.592  1.00 20.00     0.049 C 
HETATM    5  C5  UNL     1     -32.970  14.407  -4.433  1.00 20.00     0.049 C 
HETATM    6  C6  UNL     1     -34.574  16.744  -6.323  1.00 20.00     0.049 C 
HETATM    7  C7  UNL     1     -33.950  14.510  -7.244  1.00 20.00     0.049 C 
HETATM    8  O8  UNL     1     -35.188  13.491  -4.672  1.00 20.00    -0.322 OA
HETATM    9  O9  UNL     1     -36.122  14.892  -6.311  1.00 20.00    -0.322 OA
HETATM   10  F10 UNL     1     -37.401  13.912  -4.740  1.00 20.00    -0.189 F 
ENDROOT
TORSDOF 0
ENDMDL
MODEL 2
REMARK VINA RESULT:      -4.0      1.951      2.820
REMARK  0 active torsions:
REMARK  status: ('A' for Active; 'I' for Inactive)
ROOT
HETATM    1  C1  UNL     1     -34.185  14.568  -3.946  1.00 20.00     0.459 C 
HETATM    2  C2  UNL     1     -34.400  14.509  -6.209  1.00 20.00     0.090 C 
HETATM    3  C3  UNL     1     -35.720  14.989  -5.571  1.00 20.00     0.090 C 
HETATM    4  C4  UNL     1     -33.479  15.649  -6.682  1.00 20.00     0.049 C 
HETATM    5  C5  UNL     1     -34.563  13.501  -7.345  1.00 20.00     0.049 C 
HETATM    6  C6  UNL     1     -36.384  16.172  -6.272  1.00 20.00     0.049 C 
HETATM    7  C7  UNL     1     -36.762  13.875  -5.372  1.00 20.00     0.049 C 
HETATM    8  O8  UNL     1     -33.743  13.859  -5.105  1.00 20.00    -0.322 OA
HETATM    9  O9  UNL     1     -35.297  15.407  -4.259  1.00 20.00    -0.322 OA
HETATM   10  F10 UNL     1     -33.167  15.365  -3.531  1.00 20.00    -0.189 F 
ENDROOT
TORSDOF 0
ENDMDL
MODEL 3
REMARK VINA RESULT:      -3.9      1.639      2.083
REMARK  0 active torsions:
REMARK  status: ('A' for Active; 'I' for Inactive)
ROOT
HETATM    1  C1  UNL     1     -34.475  13.534  -7.262  1.00 20.00     0.459 C 
HETATM    2  C2  UNL     1     -35.086  14.503  -5.296  1.00 20.00     0.090 C 
HETATM    3  C3  UNL     1     -34.952  15.581  -6.392  1.00 20.00     0.090 C 
HETATM    4  C4  UNL     1     -36.525  13.997  -5.085  1.00 20.00     0.049 C 
HETATM    5  C5  UNL     1     -34.490  14.882  -3.942  1.00 20.00     0.049 C 
HETATM    6  C6  UNL     1     -36.064  16.628  -6.408  1.00 20.00     0.049 C 
HETATM    7  C7  UNL     1     -33.590  16.298  -6.402  1.00 20.00     0.049 C 
HETATM    8  O8  UNL     1     -34.326  13.411  -5.846  1.00 20.00    -0.322 OA
HETATM    9  O9  UNL     1     -35.027  14.805  -7.603  1.00 20.00    -0.322 OA
HETATM   10  F10 UNL     1     -35.346  12.578  -7.674  1.00 20.00    -0.189 F 
ENDROOT
TORSDOF 0
ENDMDL
MODEL 4
REMARK VINA RESULT:      -3.9      0.796      2.755
REMARK  0 active torsions:
REMARK  status: ('A' for Active; 'I' for Inactive)
ROOT
HETATM    1  C1  UNL     1     -35.986  13.980  -4.910  1.00 20.00     0.459 C 
HETATM    2  C2  UNL     1     -34.435  15.366  -5.831  1.00 20.00     0.090 C 
HETATM    3  C3  UNL     1     -33.933  14.853  -4.465  1.00 20.00     0.090 C 
HETATM    4  C4  UNL     1     -33.912  14.561  -7.035  1.00 20.00     0.049 C 
HETATM    5  C5  UNL     1     -34.198  16.853  -6.088  1.00 20.00     0.049 C 
HETATM    6  C6  UNL     1     -32.466  14.431  -4.432  1.00 20.00     0.049 C 
HETATM    7  C7  UNL     1     -34.203  15.817  -3.296  1.00 20.00     0.049 C 
HETATM    8  O8  UNL     1     -35.853  15.132  -5.744  1.00 20.00    -0.322 OA
HETATM    9  O9  UNL     1     -34.755  13.690  -4.248  1.00 20.00    -0.322 OA
HETATM   10  F10 UNL     1     -36.289  12.922  -5.705  1.00 20.00    -0.189 F 
ENDROOT
TORSDOF 0
ENDMDL
MODEL 5
REMARK VINA RESULT:      -3.8      2.011      3.042
REMARK  0 active torsions:
REMARK  status: ('A' for Active; 'I' for Inactive)
ROOT
HETATM    1  C1  UNL     1     -33.121  15.062  -4.778  1.00 20.00     0.459 C 
HETATM    2  C2  UNL     1     -35.040  15.748  -5.789  1.00 20.00     0.090 C 
HETATM    3  C3  UNL     1     -34.960  14.207  -5.809  1.00 20.00     0.090 C 
HETATM    4  C4  UNL     1     -35.868  16.319  -4.625  1.00 20.00     0.049 C 
HETATM    5  C5  UNL     1     -35.514  16.385  -7.094  1.00 20.00     0.049 C 
HETATM    6  C6  UNL     1     -36.263  13.487  -5.466  1.00 20.00     0.049 C 
HETATM    7  C7  UNL     1     -34.396  13.625  -7.117  1.00 20.00     0.049 C 
HETATM    8  O8  UNL     1     -33.669  16.123  -5.563  1.00 20.00    -0.322 OA
HETATM    9  O9  UNL     1     -33.994  13.933  -4.776  1.00 20.00    -0.322 OA
HETATM   10  F10 UNL     1     -33.010  15.503  -3.499  1.00 20.00    -0.189 F 
ENDROOT
TORSDOF 0
ENDMDL
MODEL 6
REMARK VINA RESULT:      -3.8      1.423      2.936
REMARK  0 active torsions:
REMARK  status: ('A' for Active; 'I' for Inactive)
ROOT
HETATM    1  C1  UNL     1     -35.586  13.302  -6.203  1.00 20.00     0.459 C 
HETATM    2  C2  UNL     1     -35.026  15.476  -6.572  1.00 20.00     0.090 C 
HETATM    3  C3  UNL     1     -34.406  14.993  -5.243  1.00 20.00     0.090 C 
HETATM    4  C4  UNL     1     -34.072  15.395  -7.777  1.00 20.00     0.049 C 
HETATM    5  C5  UNL     1     -35.648  16.870  -6.524  1.00 20.00     0.049 C 
HETATM    6  C6  UNL     1     -32.959  15.424  -5.012  1.00 20.00     0.049 C 
HETATM    7  C7  UNL     1     -35.239  15.346  -3.998  1.00 20.00     0.049 C 
HETATM    8  O8  UNL     1     -36.072  14.511  -6.790  1.00 20.00    -0.322 OA
HETATM    9  O9  UNL     1     -34.447  13.561  -5.384  1.00 20.00    -0.322 OA
HETATM   10  F10 UNL     1     -35.197  12.477  -7.208  1.00 20.00    -0.189 F 
ENDROOT
TORSDOF 0
ENDMDL
MODEL 7
REMARK VINA RESULT:      -3.8      1.712      2.770
REMARK  0 active torsions:
REMARK  status: ('A' for Active; 'I' for Inactive)
ROOT
HETATM    1  C1  UNL     1     -34.064  14.432  -4.771  1.00 20.00     0.459 C 
HETATM    2  C2  UNL     1     -35.893  15.116  -5.936  1.00 20.00     0.090 C 
HETATM    3  C3  UNL     1     -34.926  14.365  -6.875  1.00 20.00     0.090 C 
HETATM    4  C4  UNL     1     -37.023  14.240  -5.366  1.00 20.00     0.049 C 
HETATM    5  C5  UNL     1     -36.501  16.390  -6.523  1.00 20.00     0.049 C 
HETATM    6  C6  UNL     1     -35.591  13.379  -7.834  1.00 20.00     0.049 C 
HETATM    7  C7  UNL     1     -33.986  15.284  -7.674  1.00 20.00     0.049 C 
HETATM    8  O8  UNL     1     -35.036  15.477  -4.838  1.00 20.00    -0.322 OA
HETATM    9  O9  UNL     1     -34.105  13.627  -5.949  1.00 20.00    -0.322 OA
HETATM   10  F10 UNL     1     -34.375  13.638  -3.715  1.00 20.00    -0.189 F 
ENDROOT
TORSDOF 0
ENDMDL
MODEL 8
REMARK VINA RESULT:      -3.8      2.058      3.150
REMARK  0 active torsions:
REMARK  status: ('A' for Active; 'I' for Inactive)
ROOT
HETATM    1  C1  UNL     1     -33.405  14.486  -3.852  1.00 20.00     0.459 C 
HETATM    2  C2  UNL     1     -35.135  14.278  -5.314  1.00 20.00     0.090 C 
HETATM    3  C3  UNL     1     -34.986  15.753  -4.886  1.00 20.00     0.090 C 
HETATM    4  C4  UNL     1     -34.437  13.934  -6.642  1.00 20.00     0.049 C 
HETATM    5  C5  UNL     1     -36.573  13.763  -5.362  1.00 20.00     0.049 C 
HETATM    6  C6  UNL     1     -35.112  16.770  -6.019  1.00 20.00     0.049 C 
HETATM    7  C7  UNL     1     -35.917  16.169  -3.735  1.00 20.00     0.049 C 
HETATM    8  O8  UNL     1     -34.431  13.583  -4.268  1.00 20.00    -0.322 OA
HETATM    9  O9  UNL     1     -33.641  15.793  -4.374  1.00 20.00    -0.322 OA
HETATM   10  F10 UNL     1     -32.227  14.042  -4.360  1.00 20.00    -0.189 F 
ENDROOT
TORSDOF 0
ENDMDL
MODEL 9
REMARK VINA RESULT:      -3.7      1.422      2.522
REMARK  0 active torsions:
REMARK  status: ('A' for Active; 'I' for Inactive)
ROOT
HETATM    1  C1  UNL     1     -35.293  13.894  -4.792  1.00 20.00     0.459 C 
HETATM    2  C2  UNL     1     -35.647  15.600  -6.254  1.00 20.00     0.090 C 
HETATM    3  C3  UNL     1     -34.230  15.023  -6.457  1.00 20.00     0.090 C 
HETATM    4  C4  UNL     1     -36.703  15.028  -7.217  1.00 20.00     0.049 C 
HETATM    5  C5  UNL     1     -35.731  17.126  -6.277  1.00 20.00     0.049 C 
HETATM    6  C6  UNL     1     -33.812  14.836  -7.914  1.00 20.00     0.049 C 
HETATM    7  C7  UNL     1     -33.127  15.796  -5.714  1.00 20.00     0.049 C 
HETATM    8  O8  UNL     1     -35.980  15.139  -4.932  1.00 20.00    -0.322 OA
HETATM    9  O9  UNL     1     -34.330  13.729  -5.833  1.00 20.00    -0.322 OA
HETATM   10  F10 UNL     1     -36.207  12.897  -4.910  1.00 20.00    -0.189 F 
ENDROOT
TORSDOF 0
ENDMDL
