MODEL 1
REMARK VINA RESULT:      -4.6      0.000      0.000
REMARK  1 active torsions:
REMARK  status: ('A' for Active; 'I' for Inactive)
REMARK    1  A    between atoms: C2_2  and  C7_7 
ROOT
HETATM    1  C1  UNL     1     -35.404  13.881  -5.229  1.00 20.00     0.132 C 
HETATM    2  C3  UNL     1     -35.397  14.785  -6.444  1.00 20.00     0.084 C 
HETATM    3  C4  UNL     1     -33.235  14.577  -4.408  1.00 20.00     0.013 C 
HETATM    4  C5  UNL     1     -33.141  15.536  -5.613  1.00 20.00     0.007 C 
HETATM    5  C6  UNL     1     -34.732  14.599  -4.072  1.00 20.00     0.068 C 
HETATM    6  C7  UNL     1     -35.167  16.025  -4.415  1.00 20.00     0.088 C 
HETATM    7  C8  UNL     1     -34.607  15.972  -5.841  1.00 20.00     0.006 C 
HETATM    8  O9  UNL     1     -35.848  12.744  -5.196  1.00 20.00    -0.298 OA
ENDROOT
BRANCH   6   9
HETATM    9  C2  UNL     1     -34.570  17.088  -3.547  1.00 20.00     0.224 C 
HETATM   10  O10 UNL     1     -34.134  18.135  -4.016  1.00 20.00    -0.279 OA
HETATM   11 CL11 UNL     1     -34.583  16.644  -1.867  1.00 20.00    -0.043 Cl
ENDBRANCH   6   9
TORSDOF 1
ENDMDL
MODEL 2
REMARK VINA RESULT:      -4.5      1.993      3.863
REMARK  1 active torsions:
REMARK  status: ('A' for Active; 'I' for Inactive)
REMARK    1  A    between atoms: C2_2  and  C7_7 
ROOT
HETATM    1  C1  UNL     1     -34.618  17.027  -4.372  1.00 20.00     0.132 C 
HETATM    2  C3  UNL     1     -34.444  16.187  -3.123  1.00 20.00     0.084 C 
HETATM    3  C4  UNL     1     -33.488  15.478  -5.851  1.00 20.00     0.013 C 
HETATM    4  C5  UNL     1     -33.271  14.552  -4.637  1.00 20.00     0.007 C 
HETATM    5  C6  UNL     1     -34.856  16.109  -5.557  1.00 20.00     0.068 C 
HETATM    6  C7  UNL     1     -35.625  15.005  -4.830  1.00 20.00     0.088 C 
HETATM    7  C8  UNL     1     -34.534  14.787  -3.775  1.00 20.00     0.006 C 
HETATM    8  O9  UNL     1     -34.542  18.244  -4.421  1.00 20.00    -0.298 OA
ENDROOT
BRANCH   6   9
HETATM    9  C2  UNL     1     -35.935  13.803  -5.666  1.00 20.00     0.224 C 
HETATM   10  O10 UNL     1     -35.858  12.664  -5.214  1.00 20.00    -0.279 OA
HETATM   11 CL11 UNL     1     -36.396  14.234  -7.285  1.00 20.00    -0.043 Cl
ENDBRANCH   6   9
TORSDOF 1
ENDMDL
MODEL 3
REMARK VINA RESULT:      -4.3      2.287      3.871
REMARK  1 active torsions:
REMARK  status: ('A' for Active; 'I' for Inactive)
REMARK    1  A    between atoms: C2_2  and  C7_7 
ROOT
HETATM    1  C1  UNL     1     -33.864  16.175  -3.729  1.00 20.00     0.132 C 
HETATM    2  C3  UNL     1     -33.468  16.739  -5.078  1.00 20.00     0.084 C 
HETATM    3  C4  UNL     1     -36.181  15.784  -4.311  1.00 20.00     0.013 C 
HETATM    4  C5  UNL     1     -35.871  16.338  -5.717  1.00 20.00     0.007 C 
HETATM    5  C6  UNL     1     -34.879  15.065  -3.934  1.00 20.00     0.068 C 
HETATM    6  C7  UNL     1     -34.353  14.528  -5.266  1.00 20.00     0.088 C 
HETATM    7  C8  UNL     1     -34.411  15.892  -5.965  1.00 20.00     0.006 C 
HETATM    8  O9  UNL     1     -33.457  16.573  -2.649  1.00 20.00    -0.298 OA
ENDROOT
BRANCH   6   9
HETATM    9  C2  UNL     1     -35.202  13.467  -5.893  1.00 20.00     0.224 C 
HETATM   10  O10 UNL     1     -35.871  12.691  -5.217  1.00 20.00    -0.279 OA
HETATM   11 CL11 UNL     1     -35.106  13.494  -7.629  1.00 20.00    -0.043 Cl
ENDBRANCH   6   9
TORSDOF 1
ENDMDL
MODEL 4
REMARK VINA RESULT:      -4.3      2.306      2.839
REMARK  1 active torsions:
REMARK  status: ('A' for Active; 'I' for Inactive)
REMARK    1  A    between atoms: C2_2  and  C7_7 
ROOT
HETATM    1  C1  UNL     1     -37.431  14.356  -5.276  1.00 20.00     0.132 C 
HETATM    2  C3  UNL     1     -37.215  15.765  -5.793  1.00 20.00     0.084 C 
HETATM    3  C4  UNL     1     -35.660  13.355  -6.590  1.00 20.00     0.013 C 
HETATM    4  C5  UNL     1     -35.362  14.754  -7.166  1.00 20.00     0.007 C 
HETATM    5  C6  UNL     1     -36.086  13.664  -5.148  1.00 20.00     0.068 C 
HETATM    6  C7  UNL     1     -35.245  14.884  -4.768  1.00 20.00     0.088 C 
HETATM    7  C8  UNL     1     -35.682  15.704  -5.988  1.00 20.00     0.006 C 
HETATM    8  O9  UNL     1     -38.515  13.850  -5.036  1.00 20.00    -0.298 OA
ENDROOT
BRANCH   6   9
HETATM    9  C2  UNL     1     -33.773  14.629  -4.680  1.00 20.00     0.224 C 
HETATM   10  O10 UNL     1     -33.325  13.582  -4.221  1.00 20.00    -0.279 OA
HETATM   11 CL11 UNL     1     -32.840  15.962  -5.292  1.00 20.00    -0.043 Cl
ENDBRANCH   6   9
TORSDOF 1
ENDMDL
MODEL 5
REMARK VINA RESULT:      -4.2      1.780      3.715
REMARK  1 active torsions:
REMARK  status: ('A' for Active; 'I' for Inactive)
REMARK    1  A    between atoms: C2_2  and  C7_7 
ROOT
HETATM    1  C1  UNL     1     -33.973  16.761  -5.124  1.00 20.00     0.132 C 
HETATM    2  C3  UNL     1     -32.905  15.686  -5.145  1.00 20.00     0.084 C 
HETATM    3  C4  UNL     1     -35.252  15.853  -6.969  1.00 20.00     0.013 C 
HETATM    4  C5  UNL     1     -34.217  14.713  -7.062  1.00 20.00     0.007 C 
HETATM    5  C6  UNL     1     -35.314  16.134  -5.461  1.00 20.00     0.068 C 
HETATM    6  C7  UNL     1     -35.085  14.764  -4.820  1.00 20.00     0.088 C 
HETATM    7  C8  UNL     1     -33.787  14.496  -5.591  1.00 20.00     0.006 C 
HETATM    8  O9  UNL     1     -33.780  17.946  -4.905  1.00 20.00    -0.298 OA
ENDROOT
BRANCH   6   9
HETATM    9  C2  UNL     1     -36.175  13.768  -5.063  1.00 20.00     0.224 C 
HETATM   10  O10 UNL     1     -35.931  12.588  -5.298  1.00 20.00    -0.279 OA
HETATM   11 CL11 UNL     1     -37.753  14.490  -4.971  1.00 20.00    -0.043 Cl
ENDBRANCH   6   9
TORSDOF 1
ENDMDL
MODEL 6
REMARK VINA RESULT:      -4.2      2.237      3.754
REMARK  1 active torsions:
REMARK  status: ('A' for Active; 'I' for Inactive)
REMARK    1  A    between atoms: C2_2  and  C7_7 
ROOT
HETATM    1  C1  UNL     1     -35.232  16.658  -2.297  1.00 20.00     0.132 C 
HETATM    2  C3  UNL     1     -33.727  16.706  -2.471  1.00 20.00     0.084 C 
HETATM    3  C4  UNL     1     -35.745  16.952  -4.645  1.00 20.00     0.013 C 
HETATM    4  C5  UNL     1     -34.229  17.006  -4.920  1.00 20.00     0.007 C 
HETATM    5  C6  UNL     1     -35.845  15.947  -3.490  1.00 20.00     0.068 C 
HETATM    6  C7  UNL     1     -34.713  14.955  -3.763  1.00 20.00     0.088 C 
HETATM    7  C8  UNL     1     -33.636  16.042  -3.865  1.00 20.00     0.006 C 
HETATM    8  O9  UNL     1     -35.852  17.143  -1.365  1.00 20.00    -0.298 OA
ENDROOT
BRANCH   6   9
HETATM    9  C2  UNL     1     -34.887  14.129  -4.998  1.00 20.00     0.224 C 
HETATM   10  O10 UNL     1     -33.937  13.833  -5.717  1.00 20.00    -0.279 OA
HETATM   11 CL11 UNL     1     -36.546  13.676  -5.253  1.00 20.00    -0.043 Cl
ENDBRANCH   6   9
TORSDOF 1
ENDMDL
MODEL 7
REMARK VINA RESULT:      -4.2      1.653      2.404
REMARK  1 active torsions:
REMARK  status: ('A' for Active; 'I' for Inactive)
REMARK    1  A    between atoms: C2_2  and  C7_7 
ROOT
HETATM    1  C1  UNL     1     -35.416  13.889  -4.861  1.00 20.00     0.132 C 
HETATM    2  C3  UNL     1     -34.129  14.020  -4.071  1.00 20.00     0.084 C 
HETATM    3  C4  UNL     1     -36.510  15.792  -3.838  1.00 20.00     0.013 C 
HETATM    4  C5  UNL     1     -35.237  16.009  -2.995  1.00 20.00     0.007 C 
HETATM    5  C6  UNL     1     -35.951  15.275  -5.171  1.00 20.00     0.068 C 
HETATM    6  C7  UNL     1     -34.612  16.001  -5.317  1.00 20.00     0.088 C 
HETATM    7  C8  UNL     1     -34.098  15.562  -3.940  1.00 20.00     0.006 C 
HETATM    8  O9  UNL     1     -35.953  12.837  -5.167  1.00 20.00    -0.298 OA
ENDROOT
BRANCH   6   9
HETATM    9  C2  UNL     1     -34.719  17.482  -5.500  1.00 20.00     0.224 C 
HETATM   10  O10 UNL     1     -35.650  17.991  -6.117  1.00 20.00    -0.279 OA
HETATM   11 CL11 UNL     1     -33.400  18.331  -4.752  1.00 20.00    -0.043 Cl
ENDBRANCH   6   9
TORSDOF 1
ENDMDL
MODEL 8
REMARK VINA RESULT:      -4.2      1.276      1.862
REMARK  1 active torsions:
REMARK  status: ('A' for Active; 'I' for Inactive)
REMARK    1  A    between atoms: C2_2  and  C7_7 
ROOT
HETATM    1  C1  UNL     1     -35.468  13.515  -5.759  1.00 20.00     0.132 C 
HETATM    2  C3  UNL     1     -36.850  13.900  -5.271  1.00 20.00     0.084 C 
HETATM    3  C4  UNL     1     -34.706  15.786  -6.112  1.00 20.00     0.013 C 
HETATM    4  C5  UNL     1     -36.084  16.274  -5.622  1.00 20.00     0.007 C 
HETATM    5  C6  UNL     1     -34.463  14.536  -5.256  1.00 20.00     0.068 C 
HETATM    6  C7  UNL     1     -35.132  14.866  -3.921  1.00 20.00     0.088 C 
HETATM    7  C8  UNL     1     -36.480  15.223  -4.558  1.00 20.00     0.006 C 
HETATM    8  O9  UNL     1     -35.211  12.557  -6.470  1.00 20.00    -0.298 OA
ENDROOT
BRANCH   6   9
HETATM    9  C2  UNL     1     -34.488  15.979  -3.156  1.00 20.00     0.224 C 
HETATM   10  O10 UNL     1     -33.320  16.303  -3.346  1.00 20.00    -0.279 OA
HETATM   11 CL11 UNL     1     -35.581  16.707  -2.016  1.00 20.00    -0.043 Cl
ENDBRANCH   6   9
TORSDOF 1
ENDMDL
MODEL 9
REMARK VINA RESULT:      -4.2      2.447      3.448
REMARK  1 active torsions:
REMARK  status: ('A' for Active; 'I' for Inactive)
REMARK    1  A    between atoms: C2_2  and  C7_7 
ROOT
HETATM    1  C1  UNL     1     -33.343  14.554  -4.723  1.00 20.00     0.132 C 
HETATM    2  C3  UNL     1     -33.301  15.520  -5.890  1.00 20.00     0.084 C 
HETATM    3  C4  UNL     1     -35.258  15.574  -3.648  1.00 20.00     0.013 C 
HETATM    4  C5  UNL     1     -35.299  16.598  -4.801  1.00 20.00     0.007 C 
HETATM    5  C6  UNL     1     -34.790  14.291  -4.349  1.00 20.00     0.068 C 
HETATM    6  C7  UNL     1     -35.401  14.391  -5.748  1.00 20.00     0.088 C 
HETATM    7  C8  UNL     1     -34.819  15.782  -6.025  1.00 20.00     0.006 C 
HETATM    8  O9  UNL     1     -32.367  14.091  -4.154  1.00 20.00    -0.298 OA
ENDROOT
BRANCH   6   9
HETATM    9  C2  UNL     1     -36.895  14.318  -5.786  1.00 20.00     0.224 C 
HETATM   10  O10 UNL     1     -37.531  13.663  -4.966  1.00 20.00    -0.279 OA
HETATM   11 CL11 UNL     1     -37.562  15.249  -7.094  1.00 20.00    -0.043 Cl
ENDBRANCH   6   9
TORSDOF 1
ENDMDL
