MODEL 1
REMARK VINA RESULT:      -6.1      0.000      0.000
REMARK  1 active torsions:
REMARK  status: ('A' for Active; 'I' for Inactive)
REMARK    1  A    between atoms: C3_3  and  C5_5 
ROOT
HETATM    1  C1  UNL     1     -32.272   8.404   3.742  1.00 20.00     0.050 A 
HETATM    2  C2  UNL     1     -33.120   7.430   4.314  1.00 20.00    -0.026 A 
HETATM    3  C3  UNL     1     -32.141   8.061   2.413  1.00 20.00     0.113 A 
HETATM    4  C4  UNL     1     -33.445   6.572   3.288  1.00 20.00     0.060 A 
HETATM    5  C6  UNL     1     -33.649   7.254   5.691  1.00 20.00     0.041 C 
HETATM    6  C7  UNL     1     -34.291   5.361   3.354  1.00 20.00     0.066 C 
HETATM    7  C8  UNL     1     -34.223   5.831   5.878  1.00 20.00     0.005 C 
HETATM    8  C9  UNL     1     -35.082   5.375   4.678  1.00 20.00     0.007 C 
HETATM    9  O11 UNL     1     -32.856   6.936   2.126  1.00 20.00    -0.311 OA
ENDROOT
BRANCH   3  10
HETATM   10  C5  UNL     1     -31.412   8.671   1.353  1.00 20.00     0.295 C 
HETATM   11  O10 UNL     1     -31.936   9.155   0.325  1.00 20.00    -0.299 OA
ENDBRANCH   3  10
TORSDOF 1
ENDMDL
MODEL 2
REMARK VINA RESULT:      -4.8     10.961     11.453
REMARK  1 active torsions:
REMARK  status: ('A' for Active; 'I' for Inactive)
REMARK    1  A    between atoms: C3_3  and  C5_5 
ROOT
HETATM    1  C1  UNL     1     -33.511  16.414  -3.179  1.00 20.00     0.050 A 
HETATM    2  C2  UNL     1     -33.658  17.188  -2.007  1.00 20.00    -0.026 A 
HETATM    3  C3  UNL     1     -34.697  15.726  -3.332  1.00 20.00     0.113 A 
HETATM    4  C4  UNL     1     -34.924  16.918  -1.539  1.00 20.00     0.060 A 
HETATM    5  C6  UNL     1     -32.749  18.144  -1.323  1.00 20.00     0.041 C 
HETATM    6  C7  UNL     1     -35.572  17.451  -0.322  1.00 20.00     0.066 C 
HETATM    7  C8  UNL     1     -33.239  18.432   0.114  1.00 20.00     0.005 C 
HETATM    8  C9  UNL     1     -34.765  18.664   0.185  1.00 20.00     0.007 C 
HETATM    9  O11 UNL     1     -35.569  16.028  -2.328  1.00 20.00    -0.311 OA
ENDROOT
BRANCH   3  10
HETATM   10  C5  UNL     1     -35.125  14.801  -4.325  1.00 20.00     0.295 C 
HETATM   11  O10 UNL     1     -34.815  13.588  -4.338  1.00 20.00    -0.299 OA
ENDBRANCH   3  10
TORSDOF 1
ENDMDL
MODEL 3
REMARK VINA RESULT:      -4.7     11.057     11.704
REMARK  1 active torsions:
REMARK  status: ('A' for Active; 'I' for Inactive)
REMARK    1  A    between atoms: C3_3  and  C5_5 
ROOT
HETATM    1  C1  UNL     1     -34.437  15.126  -3.891  1.00 20.00     0.050 A 
HETATM    2  C2  UNL     1     -34.518  16.199  -2.976  1.00 20.00    -0.026 A 
HETATM    3  C3  UNL     1     -35.731  14.872  -4.295  1.00 20.00     0.113 A 
HETATM    4  C4  UNL     1     -35.854  16.520  -2.896  1.00 20.00     0.060 A 
HETATM    5  C6  UNL     1     -33.480  16.936  -2.210  1.00 20.00     0.041 C 
HETATM    6  C7  UNL     1     -36.486  17.560  -2.058  1.00 20.00     0.066 C 
HETATM    7  C8  UNL     1     -34.123  17.764  -1.075  1.00 20.00     0.005 C 
HETATM    8  C9  UNL     1     -35.393  18.513  -1.533  1.00 20.00     0.007 C 
HETATM    9  O11 UNL     1     -36.608  15.722  -3.687  1.00 20.00    -0.311 OA
ENDROOT
BRANCH   3  10
HETATM   10  C5  UNL     1     -36.261  13.910  -5.201  1.00 20.00     0.295 C 
HETATM   11  O10 UNL     1     -35.908  12.710  -5.239  1.00 20.00    -0.299 OA
ENDBRANCH   3  10
TORSDOF 1
ENDMDL
MODEL 4
REMARK VINA RESULT:      -4.6     10.954     11.519
REMARK  1 active torsions:
REMARK  status: ('A' for Active; 'I' for Inactive)
REMARK    1  A    between atoms: C3_3  and  C5_5 
ROOT
HETATM    1  C1  UNL     1     -35.542  16.180  -2.310  1.00 20.00     0.050 A 
HETATM    2  C2  UNL     1     -34.973  17.090  -1.393  1.00 20.00    -0.026 A 
HETATM    3  C3  UNL     1     -34.537  15.857  -3.199  1.00 20.00     0.113 A 
HETATM    4  C4  UNL     1     -33.664  17.248  -1.789  1.00 20.00     0.060 A 
HETATM    5  C6  UNL     1     -35.530  17.786  -0.204  1.00 20.00     0.041 C 
HETATM    6  C7  UNL     1     -32.633  18.116  -1.180  1.00 20.00     0.066 C 
HETATM    7  C8  UNL     1     -34.612  18.952   0.227  1.00 20.00     0.005 C 
HETATM    8  C9  UNL     1     -33.116  18.565   0.213  1.00 20.00     0.007 C 
HETATM    9  O11 UNL     1     -33.382  16.510  -2.887  1.00 20.00    -0.311 OA
ENDROOT
BRANCH   3  10
HETATM   10  C5  UNL     1     -34.525  14.992  -4.329  1.00 20.00     0.295 C 
HETATM   11  O10 UNL     1     -34.460  13.744  -4.261  1.00 20.00    -0.299 OA
ENDBRANCH   3  10
TORSDOF 1
ENDMDL
MODEL 5
REMARK VINA RESULT:      -4.5     11.284     11.990
REMARK  1 active torsions:
REMARK  status: ('A' for Active; 'I' for Inactive)
REMARK    1  A    between atoms: C3_3  and  C5_5 
ROOT
HETATM    1  C1  UNL     1     -35.606  17.649   0.941  1.00 20.00     0.050 A 
HETATM    2  C2  UNL     1     -34.998  17.479  -0.322  1.00 20.00    -0.026 A 
HETATM    3  C3  UNL     1     -34.696  18.345   1.710  1.00 20.00     0.113 A 
HETATM    4  C4  UNL     1     -33.768  18.089  -0.229  1.00 20.00     0.060 A 
HETATM    5  C6  UNL     1     -35.468  16.831  -1.574  1.00 20.00     0.041 C 
HETATM    6  C7  UNL     1     -32.720  18.177  -1.268  1.00 20.00     0.066 C 
HETATM    7  C8  UNL     1     -34.286  16.587  -2.539  1.00 20.00     0.005 C 
HETATM    8  C9  UNL     1     -33.335  17.801  -2.631  1.00 20.00     0.007 C 
HETATM    9  O11 UNL     1     -33.564  18.617   1.000  1.00 20.00    -0.311 OA
ENDROOT
BRANCH   3  10
HETATM   10  C5  UNL     1     -34.758  18.798   3.058  1.00 20.00     0.295 C 
HETATM   11  O10 UNL     1     -33.898  18.535   3.929  1.00 20.00    -0.299 OA
ENDBRANCH   3  10
TORSDOF 1
ENDMDL
MODEL 6
REMARK VINA RESULT:      -4.4     11.190     11.654
REMARK  1 active torsions:
REMARK  status: ('A' for Active; 'I' for Inactive)
REMARK    1  A    between atoms: C3_3  and  C5_5 
ROOT
HETATM    1  C1  UNL     1     -36.384  15.589  -3.765  1.00 20.00     0.050 A 
HETATM    2  C2  UNL     1     -35.807  16.498  -2.851  1.00 20.00    -0.026 A 
HETATM    3  C3  UNL     1     -35.333  14.891  -4.321  1.00 20.00     0.113 A 
HETATM    4  C4  UNL     1     -34.450  16.280  -2.916  1.00 20.00     0.060 A 
HETATM    5  C6  UNL     1     -36.404  17.506  -1.937  1.00 20.00     0.041 C 
HETATM    6  C7  UNL     1     -33.383  16.987  -2.176  1.00 20.00     0.066 C 
HETATM    7  C8  UNL     1     -35.326  18.492  -1.432  1.00 20.00     0.005 C 
HETATM    8  C9  UNL     1     -34.019  17.781  -1.017  1.00 20.00     0.007 C 
HETATM    9  O11 UNL     1     -34.142  15.311  -3.808  1.00 20.00    -0.311 OA
ENDROOT
BRANCH   3  10
HETATM   10  C5  UNL     1     -35.305  13.855  -5.297  1.00 20.00     0.295 C 
HETATM   11  O10 UNL     1     -35.915  12.768  -5.188  1.00 20.00    -0.299 OA
ENDBRANCH   3  10
TORSDOF 1
ENDMDL
MODEL 7
REMARK VINA RESULT:      -4.3     11.217     11.604
REMARK  1 active torsions:
REMARK  status: ('A' for Active; 'I' for Inactive)
REMARK    1  A    between atoms: C3_3  and  C5_5 
ROOT
HETATM    1  C1  UNL     1     -35.303  16.734  -2.387  1.00 20.00     0.050 A 
HETATM    2  C2  UNL     1     -35.297  15.805  -3.451  1.00 20.00    -0.026 A 
HETATM    3  C3  UNL     1     -33.979  17.032  -2.136  1.00 20.00     0.113 A 
HETATM    4  C4  UNL     1     -33.972  15.612  -3.769  1.00 20.00     0.060 A 
HETATM    5  C6  UNL     1     -36.394  15.120  -4.181  1.00 20.00     0.041 C 
HETATM    6  C7  UNL     1     -33.410  14.714  -4.801  1.00 20.00     0.066 C 
HETATM    7  C8  UNL     1     -35.847  13.927  -4.997  1.00 20.00     0.005 C 
HETATM    8  C9  UNL     1     -34.543  14.272  -5.750  1.00 20.00     0.007 C 
HETATM    9  O11 UNL     1     -33.156  16.346  -2.978  1.00 20.00    -0.311 OA
ENDROOT
BRANCH   3  10
HETATM   10  C5  UNL     1     -33.377  17.901  -1.182  1.00 20.00     0.295 C 
HETATM   11  O10 UNL     1     -32.209  18.342  -1.270  1.00 20.00    -0.299 OA
ENDBRANCH   3  10
TORSDOF 1
ENDMDL
MODEL 8
REMARK VINA RESULT:      -4.3     11.471     11.992
REMARK  1 active torsions:
REMARK  status: ('A' for Active; 'I' for Inactive)
REMARK    1  A    between atoms: C3_3  and  C5_5 
ROOT
HETATM    1  C1  UNL     1     -33.916  18.203   0.384  1.00 20.00     0.050 A 
HETATM    2  C2  UNL     1     -34.375  17.653  -0.834  1.00 20.00    -0.026 A 
HETATM    3  C3  UNL     1     -32.627  18.633   0.144  1.00 20.00     0.113 A 
HETATM    4  C4  UNL     1     -33.333  17.795  -1.722  1.00 20.00     0.060 A 
HETATM    5  C6  UNL     1     -35.672  17.044  -1.226  1.00 20.00     0.041 C 
HETATM    6  C7  UNL     1     -33.282  17.360  -3.134  1.00 20.00     0.066 C 
HETATM    7  C8  UNL     1     -35.531  16.265  -2.553  1.00 20.00     0.005 C 
HETATM    8  C9  UNL     1     -34.713  17.038  -3.611  1.00 20.00     0.007 C 
HETATM    9  O11 UNL     1     -32.261  18.384  -1.145  1.00 20.00    -0.311 OA
ENDROOT
BRANCH   3  10
HETATM   10  C5  UNL     1     -31.675  19.263   0.994  1.00 20.00     0.295 C 
HETATM   11  O10 UNL     1     -30.571  18.763   1.309  1.00 20.00    -0.299 OA
ENDBRANCH   3  10
TORSDOF 1
ENDMDL
MODEL 9
REMARK VINA RESULT:      -4.2     11.075     12.248
REMARK  1 active torsions:
REMARK  status: ('A' for Active; 'I' for Inactive)
REMARK    1  A    between atoms: C3_3  and  C5_5 
ROOT
HETATM    1  C1  UNL     1     -35.005  14.474  -4.402  1.00 20.00     0.050 A 
HETATM    2  C2  UNL     1     -34.656  15.713  -3.821  1.00 20.00    -0.026 A 
HETATM    3  C3  UNL     1     -34.564  14.530  -5.708  1.00 20.00     0.113 A 
HETATM    4  C4  UNL     1     -34.025  16.426  -4.814  1.00 20.00     0.060 A 
HETATM    5  C6  UNL     1     -34.842  16.257  -2.451  1.00 20.00     0.041 C 
HETATM    6  C7  UNL     1     -33.483  17.799  -4.737  1.00 20.00     0.066 C 
HETATM    7  C8  UNL     1     -34.624  17.787  -2.437  1.00 20.00     0.005 C 
HETATM    8  C9  UNL     1     -33.387  18.217  -3.256  1.00 20.00     0.007 C 
HETATM    9  O11 UNL     1     -33.963  15.726  -5.970  1.00 20.00    -0.311 OA
ENDROOT
BRANCH   3  10
HETATM   10  C5  UNL     1     -34.637  13.580  -6.766  1.00 20.00     0.295 C 
HETATM   11  O10 UNL     1     -35.052  12.407  -6.632  1.00 20.00    -0.299 OA
ENDBRANCH   3  10
TORSDOF 1
ENDMDL
