MODEL 1
REMARK VINA RESULT:      -5.1      0.000      0.000
REMARK  1 active torsions:
REMARK  status: ('A' for Active; 'I' for Inactive)
REMARK    1  A    between atoms: C7_7  and  C10_10 
ROOT
HETATM    1  C1  UNL     1     -32.226   9.695   1.386  1.00 20.00     0.015 C 
HETATM    2  C2  UNL     1     -32.748   8.699   1.806  1.00 20.00    -0.085 C 
HETATM    3  C3  UNL     1     -33.033   5.055   2.772  1.00 20.00    -0.018 C 
HETATM    4  C4  UNL     1     -33.883   5.167   3.808  1.00 20.00    -0.059 C 
HETATM    5  C5  UNL     1     -32.526   6.251   2.027  1.00 20.00     0.072 C 
HETATM    6  C6  UNL     1     -33.388   7.481   2.318  1.00 20.00     0.203 C 
HETATM    7  C7  UNL     1     -34.335   6.534   4.294  1.00 20.00     0.151 C 
HETATM    8  C8  UNL     1     -34.448   3.952   4.485  1.00 20.00     0.046 C 
HETATM    9  O11 UNL     1     -33.545   7.600   3.733  1.00 20.00    -0.364 OA
ENDROOT
BRANCH   7  10
HETATM   10  C10 UNL     1     -34.235   6.696   5.809  1.00 20.00     0.032 C 
HETATM   11  C9  UNL     1     -33.262   7.763   6.187  1.00 20.00     0.008 C 
ENDBRANCH   7  10
TORSDOF 1
ENDMDL
MODEL 2
REMARK VINA RESULT:      -4.3     11.429     13.084
REMARK  1 active torsions:
REMARK  status: ('A' for Active; 'I' for Inactive)
REMARK    1  A    between atoms: C7_7  and  C10_10 
ROOT
HETATM    1  C1  UNL     1     -33.678  17.384  -1.740  1.00 20.00     0.015 C 
HETATM    2  C2  UNL     1     -33.632  16.687  -2.716  1.00 20.00    -0.085 C 
HETATM    3  C3  UNL     1     -34.825  14.131  -5.234  1.00 20.00    -0.018 C 
HETATM    4  C4  UNL     1     -34.237  14.618  -6.340  1.00 20.00    -0.059 C 
HETATM    5  C5  UNL     1     -34.718  14.818  -3.907  1.00 20.00     0.072 C 
HETATM    6  C6  UNL     1     -33.574  15.834  -3.910  1.00 20.00     0.203 C 
HETATM    7  C7  UNL     1     -33.464  15.926  -6.293  1.00 20.00     0.151 C 
HETATM    8  C8  UNL     1     -34.282  13.869  -7.640  1.00 20.00     0.046 C 
HETATM    9  O11 UNL     1     -33.700  16.654  -5.073  1.00 20.00    -0.364 OA
ENDROOT
BRANCH   7  10
HETATM   10  C10 UNL     1     -33.832  16.882  -7.425  1.00 20.00     0.032 C 
HETATM   11  C9  UNL     1     -35.134  17.567  -7.168  1.00 20.00     0.008 C 
ENDBRANCH   7  10
TORSDOF 1
ENDMDL
MODEL 3
REMARK VINA RESULT:      -4.3     11.313     12.154
REMARK  1 active torsions:
REMARK  status: ('A' for Active; 'I' for Inactive)
REMARK    1  A    between atoms: C7_7  and  C10_10 
ROOT
HETATM    1  C1  UNL     1     -35.182  17.066  -1.043  1.00 20.00     0.015 C 
HETATM    2  C2  UNL     1     -35.018  16.670  -2.164  1.00 20.00    -0.085 C 
HETATM    3  C3  UNL     1     -33.502  14.605  -4.944  1.00 20.00    -0.018 C 
HETATM    4  C4  UNL     1     -34.577  14.488  -5.744  1.00 20.00    -0.059 C 
HETATM    5  C5  UNL     1     -33.565  15.313  -3.626  1.00 20.00     0.072 C 
HETATM    6  C6  UNL     1     -34.819  16.187  -3.536  1.00 20.00     0.203 C 
HETATM    7  C7  UNL     1     -35.925  15.042  -5.315  1.00 20.00     0.151 C 
HETATM    8  C8  UNL     1     -34.472  13.851  -7.100  1.00 20.00     0.046 C 
HETATM    9  O11 UNL     1     -35.947  15.400  -3.920  1.00 20.00    -0.364 OA
ENDROOT
BRANCH   7  10
HETATM   10  C10 UNL     1     -37.071  14.053  -5.508  1.00 20.00     0.032 C 
HETATM   11  C9  UNL     1     -38.376  14.623  -5.058  1.00 20.00     0.008 C 
ENDBRANCH   7  10
TORSDOF 1
ENDMDL
MODEL 4
REMARK VINA RESULT:      -4.3     11.581     12.384
REMARK  1 active torsions:
REMARK  status: ('A' for Active; 'I' for Inactive)
REMARK    1  A    between atoms: C7_7  and  C10_10 
ROOT
HETATM    1  C1  UNL     1     -32.713  18.703  -0.983  1.00 20.00     0.015 C 
HETATM    2  C2  UNL     1     -33.230  17.782  -1.555  1.00 20.00    -0.085 C 
HETATM    3  C3  UNL     1     -35.993  15.854  -3.268  1.00 20.00    -0.018 C 
HETATM    4  C4  UNL     1     -35.261  15.161  -4.158  1.00 20.00    -0.059 C 
HETATM    5  C5  UNL     1     -35.377  16.850  -2.334  1.00 20.00     0.072 C 
HETATM    6  C6  UNL     1     -33.861  16.656  -2.254  1.00 20.00     0.203 C 
HETATM    7  C7  UNL     1     -33.765  15.397  -4.280  1.00 20.00     0.151 C 
HETATM    8  C8  UNL     1     -35.883  14.105  -5.024  1.00 20.00     0.046 C 
HETATM    9  O11 UNL     1     -33.343  16.585  -3.583  1.00 20.00    -0.364 OA
ENDROOT
BRANCH   7  10
HETATM   10  C10 UNL     1     -33.300  15.576  -5.723  1.00 20.00     0.032 C 
HETATM   11  C9  UNL     1     -33.769  16.871  -6.299  1.00 20.00     0.008 C 
ENDBRANCH   7  10
TORSDOF 1
ENDMDL
MODEL 5
REMARK VINA RESULT:      -4.2     11.602     12.414
REMARK  1 active torsions:
REMARK  status: ('A' for Active; 'I' for Inactive)
REMARK    1  A    between atoms: C7_7  and  C10_10 
ROOT
HETATM    1  C1  UNL     1     -34.416  13.660  -7.526  1.00 20.00     0.015 C 
HETATM    2  C2  UNL     1     -34.545  14.056  -6.400  1.00 20.00    -0.085 C 
HETATM    3  C3  UNL     1     -33.693  15.995  -3.268  1.00 20.00    -0.018 C 
HETATM    4  C4  UNL     1     -34.935  16.244  -2.818  1.00 20.00    -0.059 C 
HETATM    5  C5  UNL     1     -33.445  15.273  -4.557  1.00 20.00     0.072 C 
HETATM    6  C6  UNL     1     -34.705  14.541  -5.024  1.00 20.00     0.203 C 
HETATM    7  C7  UNL     1     -36.151  15.833  -3.631  1.00 20.00     0.151 C 
HETATM    8  C8  UNL     1     -35.163  16.890  -1.482  1.00 20.00     0.046 C 
HETATM    9  O11 UNL     1     -35.802  15.454  -4.977  1.00 20.00    -0.364 OA
ENDROOT
BRANCH   7  10
HETATM   10  C10 UNL     1     -37.187  16.946  -3.769  1.00 20.00     0.032 C 
HETATM   11  C9  UNL     1     -36.759  17.979  -4.759  1.00 20.00     0.008 C 
ENDBRANCH   7  10
TORSDOF 1
ENDMDL
MODEL 6
REMARK VINA RESULT:      -4.0     10.993     12.443
REMARK  1 active torsions:
REMARK  status: ('A' for Active; 'I' for Inactive)
REMARK    1  A    between atoms: C7_7  and  C10_10 
ROOT
HETATM    1  C1  UNL     1     -35.528  17.392   0.068  1.00 20.00     0.015 C 
HETATM    2  C2  UNL     1     -35.315  17.276  -1.108  1.00 20.00    -0.085 C 
HETATM    3  C3  UNL     1     -33.297  17.321  -4.305  1.00 20.00    -0.018 C 
HETATM    4  C4  UNL     1     -33.921  16.335  -4.974  1.00 20.00    -0.059 C 
HETATM    5  C5  UNL     1     -33.679  17.698  -2.907  1.00 20.00     0.072 C 
HETATM    6  C6  UNL     1     -35.055  17.135  -2.546  1.00 20.00     0.203 C 
HETATM    7  C7  UNL     1     -35.024  15.528  -4.311  1.00 20.00     0.151 C 
HETATM    8  C8  UNL     1     -33.583  16.031  -6.404  1.00 20.00     0.046 C 
HETATM    9  O11 UNL     1     -35.081  15.748  -2.889  1.00 20.00    -0.364 OA
ENDROOT
BRANCH   7  10
HETATM   10  C10 UNL     1     -34.858  14.021  -4.490  1.00 20.00     0.032 C 
HETATM   11  C9  UNL     1     -35.995  13.427  -5.255  1.00 20.00     0.008 C 
ENDBRANCH   7  10
TORSDOF 1
ENDMDL
MODEL 7
REMARK VINA RESULT:      -4.0     11.375     12.041
REMARK  1 active torsions:
REMARK  status: ('A' for Active; 'I' for Inactive)
REMARK    1  A    between atoms: C7_7  and  C10_10 
ROOT
HETATM    1  C1  UNL     1     -37.058  14.159  -5.390  1.00 20.00     0.015 C 
HETATM    2  C2  UNL     1     -36.248  14.673  -4.669  1.00 20.00    -0.085 C 
HETATM    3  C3  UNL     1     -33.450  17.015  -3.681  1.00 20.00    -0.018 C 
HETATM    4  C4  UNL     1     -33.781  17.226  -2.395  1.00 20.00    -0.059 C 
HETATM    5  C5  UNL     1     -34.287  16.169  -4.589  1.00 20.00     0.072 C 
HETATM    6  C6  UNL     1     -35.257  15.300  -3.785  1.00 20.00     0.203 C 
HETATM    7  C7  UNL     1     -35.059  16.639  -1.819  1.00 20.00     0.151 C 
HETATM    8  C8  UNL     1     -32.884  18.005  -1.478  1.00 20.00     0.046 C 
HETATM    9  O11 UNL     1     -35.936  16.133  -2.844  1.00 20.00    -0.364 OA
ENDROOT
BRANCH   7  10
HETATM   10  C10 UNL     1     -35.885  17.652  -1.030  1.00 20.00     0.032 C 
HETATM   11  C9  UNL     1     -35.744  17.453   0.443  1.00 20.00     0.008 C 
ENDBRANCH   7  10
TORSDOF 1
ENDMDL
MODEL 8
REMARK VINA RESULT:      -4.0     11.418     12.144
REMARK  1 active torsions:
REMARK  status: ('A' for Active; 'I' for Inactive)
REMARK    1  A    between atoms: C7_7  and  C10_10 
ROOT
HETATM    1  C1  UNL     1     -35.660  15.290  -4.754  1.00 20.00     0.015 C 
HETATM    2  C2  UNL     1     -35.240  15.708  -3.710  1.00 20.00    -0.085 C 
HETATM    3  C3  UNL     1     -33.214  17.910  -1.400  1.00 20.00    -0.018 C 
HETATM    4  C4  UNL     1     -34.049  17.953  -0.346  1.00 20.00    -0.059 C 
HETATM    5  C5  UNL     1     -33.564  17.186  -2.663  1.00 20.00     0.072 C 
HETATM    6  C6  UNL     1     -34.728  16.219  -2.433  1.00 20.00     0.203 C 
HETATM    7  C7  UNL     1     -35.416  17.293  -0.415  1.00 20.00     0.151 C 
HETATM    8  C8  UNL     1     -33.643  18.608   0.942  1.00 20.00     0.046 C 
HETATM    9  O11 UNL     1     -35.774  16.921  -1.760  1.00 20.00    -0.364 OA
ENDROOT
BRANCH   7  10
HETATM   10  C10 UNL     1     -36.544  18.195   0.080  1.00 20.00     0.032 C 
HETATM   11  C9  UNL     1     -37.367  18.721  -1.049  1.00 20.00     0.008 C 
ENDBRANCH   7  10
TORSDOF 1
ENDMDL
MODEL 9
REMARK VINA RESULT:      -4.0     11.202     12.063
REMARK  1 active torsions:
REMARK  status: ('A' for Active; 'I' for Inactive)
REMARK    1  A    between atoms: C7_7  and  C10_10 
ROOT
HETATM    1  C1  UNL     1     -39.532  15.045  -5.410  1.00 20.00     0.015 C 
HETATM    2  C2  UNL     1     -38.391  14.762  -5.167  1.00 20.00    -0.085 C 
HETATM    3  C3  UNL     1     -34.727  14.150  -5.869  1.00 20.00    -0.018 C 
HETATM    4  C4  UNL     1     -34.208  14.540  -4.692  1.00 20.00    -0.059 C 
HETATM    5  C5  UNL     1     -36.194  14.238  -6.160  1.00 20.00     0.072 C 
HETATM    6  C6  UNL     1     -36.996  14.414  -4.869  1.00 20.00     0.203 C 
HETATM    7  C7  UNL     1     -35.098  15.133  -3.612  1.00 20.00     0.151 C 
HETATM    8  C8  UNL     1     -32.749  14.362  -4.387  1.00 20.00     0.046 C 
HETATM    9  O11 UNL     1     -36.406  15.471  -4.110  1.00 20.00    -0.364 OA
ENDROOT
BRANCH   7  10
HETATM   10  C10 UNL     1     -34.538  16.419  -3.010  1.00 20.00     0.032 C 
HETATM   11  C9  UNL     1     -35.190  16.749  -1.708  1.00 20.00     0.008 C 
ENDBRANCH   7  10
TORSDOF 1
ENDMDL
