MODEL 1
REMARK VINA RESULT:      -5.1      0.000      0.000
REMARK  1 active torsions:
REMARK  status: ('A' for Active; 'I' for Inactive)
REMARK    1  A    between atoms: C3_3  and  C8_8 
ROOT
HETATM    1  C1  UNL     1     -33.622  16.930  -4.205  1.00 20.00    -0.025 C 
HETATM    2  C2  UNL     1     -33.431  16.719  -5.515  1.00 20.00    -0.024 C 
HETATM    3  C4  UNL     1     -33.124  14.697  -4.461  1.00 20.00     0.018 C 
HETATM    4  C5  UNL     1     -33.996  15.605  -3.586  1.00 20.00     0.013 C 
HETATM    5  C6  UNL     1     -33.694  15.253  -5.776  1.00 20.00     0.024 C 
HETATM    6  C7  UNL     1     -35.419  15.175  -4.052  1.00 20.00     0.005 C 
HETATM    7  C8  UNL     1     -35.221  14.968  -5.604  1.00 20.00     0.027 C 
HETATM    8  C10 UNL     1     -36.520  16.136  -3.618  1.00 20.00     0.012 C 
HETATM    9  C11 UNL     1     -36.104  15.824  -6.518  1.00 20.00     0.024 C 
ENDROOT
BRANCH   7  10
HETATM   10  C3  UNL     1     -35.477  13.527  -5.987  1.00 20.00     0.132 C 
HETATM   11  C9  UNL     1     -35.091  13.119  -7.383  1.00 20.00     0.091 C 
HETATM   12  O12 UNL     1     -35.975  12.729  -5.195  1.00 20.00    -0.298 OA
ENDBRANCH   7  10
TORSDOF 1
ENDMDL
MODEL 2
REMARK VINA RESULT:      -4.7      1.182      1.895
REMARK  1 active torsions:
REMARK  status: ('A' for Active; 'I' for Inactive)
REMARK    1  A    between atoms: C3_3  and  C8_8 
ROOT
HETATM    1  C1  UNL     1     -33.373  16.914  -4.830  1.00 20.00    -0.025 C 
HETATM    2  C2  UNL     1     -32.918  15.660  -4.966  1.00 20.00    -0.024 C 
HETATM    3  C4  UNL     1     -34.669  15.578  -3.474  1.00 20.00     0.018 C 
HETATM    4  C5  UNL     1     -34.804  16.825  -4.357  1.00 20.00     0.013 C 
HETATM    5  C6  UNL     1     -34.053  14.730  -4.599  1.00 20.00     0.024 C 
HETATM    6  C7  UNL     1     -35.714  16.275  -5.495  1.00 20.00     0.005 C 
HETATM    7  C8  UNL     1     -35.159  14.812  -5.699  1.00 20.00     0.027 C 
HETATM    8  C10 UNL     1     -35.763  17.175  -6.726  1.00 20.00     0.012 C 
HETATM    9  C11 UNL     1     -34.645  14.474  -7.102  1.00 20.00     0.024 C 
ENDROOT
BRANCH   7  10
HETATM   10  C3  UNL     1     -36.223  13.788  -5.375  1.00 20.00     0.132 C 
HETATM   11  C9  UNL     1     -37.638  14.290  -5.280  1.00 20.00     0.091 C 
HETATM   12  O12 UNL     1     -35.945  12.603  -5.198  1.00 20.00    -0.298 OA
ENDBRANCH   7  10
TORSDOF 1
ENDMDL
MODEL 3
REMARK VINA RESULT:      -4.6      1.309      2.531
REMARK  1 active torsions:
REMARK  status: ('A' for Active; 'I' for Inactive)
REMARK    1  A    between atoms: C3_3  and  C8_8 
ROOT
HETATM    1  C1  UNL     1     -33.063  15.410  -4.838  1.00 20.00    -0.025 C 
HETATM    2  C2  UNL     1     -33.520  14.199  -4.491  1.00 20.00    -0.024 C 
HETATM    3  C4  UNL     1     -35.110  15.726  -3.832  1.00 20.00     0.018 C 
HETATM    4  C5  UNL     1     -34.259  16.324  -4.959  1.00 20.00     0.013 C 
HETATM    5  C6  UNL     1     -35.026  14.298  -4.395  1.00 20.00     0.024 C 
HETATM    6  C7  UNL     1     -35.112  15.934  -6.203  1.00 20.00     0.005 C 
HETATM    7  C8  UNL     1     -35.619  14.487  -5.828  1.00 20.00     0.027 C 
HETATM    8  C10 UNL     1     -34.368  16.085  -7.525  1.00 20.00     0.012 C 
HETATM    9  C11 UNL     1     -35.235  13.365  -6.797  1.00 20.00     0.024 C 
ENDROOT
BRANCH   7  10
HETATM   10  C3  UNL     1     -37.128  14.463  -5.720  1.00 20.00     0.132 C 
HETATM   11  C9  UNL     1     -37.883  15.446  -6.572  1.00 20.00     0.091 C 
HETATM   12  O12 UNL     1     -37.708  13.677  -4.973  1.00 20.00    -0.298 OA
ENDBRANCH   7  10
TORSDOF 1
ENDMDL
MODEL 4
REMARK VINA RESULT:      -4.6      1.230      2.597
REMARK  1 active torsions:
REMARK  status: ('A' for Active; 'I' for Inactive)
REMARK    1  A    between atoms: C3_3  and  C8_8 
ROOT
HETATM    1  C1  UNL     1     -33.694  16.991  -6.371  1.00 20.00    -0.025 C 
HETATM    2  C2  UNL     1     -34.945  17.340  -6.040  1.00 20.00    -0.024 C 
HETATM    3  C4  UNL     1     -35.107  15.509  -7.425  1.00 20.00     0.018 C 
HETATM    4  C5  UNL     1     -33.723  15.533  -6.765  1.00 20.00     0.013 C 
HETATM    5  C6  UNL     1     -35.810  16.109  -6.197  1.00 20.00     0.024 C 
HETATM    6  C7  UNL     1     -33.985  14.642  -5.514  1.00 20.00     0.005 C 
HETATM    7  C8  UNL     1     -35.440  15.077  -5.084  1.00 20.00     0.027 C 
HETATM    8  C10 UNL     1     -32.892  14.740  -4.454  1.00 20.00     0.012 C 
HETATM    9  C11 UNL     1     -35.586  15.637  -3.665  1.00 20.00     0.024 C 
ENDROOT
BRANCH   7  10
HETATM   10  C3  UNL     1     -36.397  13.911  -5.186  1.00 20.00     0.132 C 
HETATM   11  C9  UNL     1     -37.864  14.241  -5.225  1.00 20.00     0.091 C 
HETATM   12  O12 UNL     1     -35.995  12.749  -5.235  1.00 20.00    -0.298 OA
ENDBRANCH   7  10
TORSDOF 1
ENDMDL
MODEL 5
REMARK VINA RESULT:      -4.6      1.437      2.020
REMARK  1 active torsions:
REMARK  status: ('A' for Active; 'I' for Inactive)
REMARK    1  A    between atoms: C3_3  and  C8_8 
ROOT
HETATM    1  C1  UNL     1     -34.549  18.366  -4.279  1.00 20.00    -0.025 C 
HETATM    2  C2  UNL     1     -35.323  17.878  -5.257  1.00 20.00    -0.024 C 
HETATM    3  C4  UNL     1     -33.428  16.576  -5.194  1.00 20.00     0.018 C 
HETATM    4  C5  UNL     1     -33.632  17.253  -3.833  1.00 20.00     0.013 C 
HETATM    5  C6  UNL     1     -34.935  16.430  -5.456  1.00 20.00     0.024 C 
HETATM    6  C7  UNL     1     -34.443  16.154  -3.083  1.00 20.00     0.005 C 
HETATM    7  C8  UNL     1     -35.395  15.601  -4.214  1.00 20.00     0.027 C 
HETATM    8  C10 UNL     1     -35.106  16.652  -1.803  1.00 20.00     0.012 C 
HETATM    9  C11 UNL     1     -36.898  15.702  -3.940  1.00 20.00     0.024 C 
ENDROOT
BRANCH   7  10
HETATM   10  C3  UNL     1     -35.105  14.142  -4.488  1.00 20.00     0.132 C 
HETATM   11  C9  UNL     1     -36.012  13.445  -5.466  1.00 20.00     0.091 C 
HETATM   12  O12 UNL     1     -34.174  13.555  -3.940  1.00 20.00    -0.298 OA
ENDBRANCH   7  10
TORSDOF 1
ENDMDL
MODEL 6
REMARK VINA RESULT:      -4.4      1.005      2.547
REMARK  1 active torsions:
REMARK  status: ('A' for Active; 'I' for Inactive)
REMARK    1  A    between atoms: C3_3  and  C8_8 
ROOT
HETATM    1  C1  UNL     1     -35.293  17.339  -3.660  1.00 20.00    -0.025 C 
HETATM    2  C2  UNL     1     -35.153  16.209  -2.952  1.00 20.00    -0.024 C 
HETATM    3  C4  UNL     1     -36.880  15.860  -4.433  1.00 20.00     0.018 C 
HETATM    4  C5  UNL     1     -35.968  16.974  -4.960  1.00 20.00     0.013 C 
HETATM    5  C6  UNL     1     -35.720  15.083  -3.788  1.00 20.00     0.024 C 
HETATM    6  C7  UNL     1     -34.997  16.151  -5.859  1.00 20.00     0.005 C 
HETATM    7  C8  UNL     1     -34.785  14.834  -5.015  1.00 20.00     0.027 C 
HETATM    8  C10 UNL     1     -33.745  16.919  -6.269  1.00 20.00     0.012 C 
HETATM    9  C11 UNL     1     -33.341  14.510  -4.620  1.00 20.00     0.024 C 
ENDROOT
BRANCH   7  10
HETATM   10  C3  UNL     1     -35.305  13.629  -5.766  1.00 20.00     0.132 C 
HETATM   11  C9  UNL     1     -35.030  13.584  -7.245  1.00 20.00     0.091 C 
HETATM   12  O12 UNL     1     -35.922  12.731  -5.197  1.00 20.00    -0.298 OA
ENDBRANCH   7  10
TORSDOF 1
ENDMDL
MODEL 7
REMARK VINA RESULT:      -4.4      1.539      3.704
REMARK  1 active torsions:
REMARK  status: ('A' for Active; 'I' for Inactive)
REMARK    1  A    between atoms: C3_3  and  C8_8 
ROOT
HETATM    1  C1  UNL     1     -36.671  14.390  -7.084  1.00 20.00    -0.025 C 
HETATM    2  C2  UNL     1     -36.822  15.414  -6.233  1.00 20.00    -0.024 C 
HETATM    3  C4  UNL     1     -36.022  13.638  -5.007  1.00 20.00     0.018 C 
HETATM    4  C5  UNL     1     -35.652  13.452  -6.483  1.00 20.00     0.013 C 
HETATM    5  C6  UNL     1     -35.890  15.168  -5.067  1.00 20.00     0.024 C 
HETATM    6  C7  UNL     1     -34.237  14.103  -6.511  1.00 20.00     0.005 C 
HETATM    7  C8  UNL     1     -34.413  15.340  -5.547  1.00 20.00     0.027 C 
HETATM    8  C10 UNL     1     -33.724  14.390  -7.918  1.00 20.00     0.012 C 
HETATM    9  C11 UNL     1     -34.129  16.717  -6.156  1.00 20.00     0.024 C 
ENDROOT
BRANCH   7  10
HETATM   10  C3  UNL     1     -33.508  15.210  -4.342  1.00 20.00     0.132 C 
HETATM   11  C9  UNL     1     -33.665  16.247  -3.263  1.00 20.00     0.091 C 
HETATM   12  O12 UNL     1     -32.686  14.300  -4.248  1.00 20.00    -0.298 OA
ENDBRANCH   7  10
TORSDOF 1
ENDMDL
MODEL 8
REMARK VINA RESULT:      -4.3      1.887      3.626
REMARK  1 active torsions:
REMARK  status: ('A' for Active; 'I' for Inactive)
REMARK    1  A    between atoms: C3_3  and  C8_8 
ROOT
HETATM    1  C1  UNL     1     -34.078  14.833  -6.257  1.00 20.00    -0.025 C 
HETATM    2  C2  UNL     1     -35.065  14.400  -5.460  1.00 20.00    -0.024 C 
HETATM    3  C4  UNL     1     -33.182  14.586  -4.150  1.00 20.00     0.018 C 
HETATM    4  C5  UNL     1     -33.047  15.497  -5.376  1.00 20.00     0.013 C 
HETATM    5  C6  UNL     1     -34.702  14.790  -4.045  1.00 20.00     0.024 C 
HETATM    6  C7  UNL     1     -33.608  16.834  -4.805  1.00 20.00     0.005 C 
HETATM    7  C8  UNL     1     -34.803  16.343  -3.899  1.00 20.00     0.027 C 
HETATM    8  C10 UNL     1     -33.932  17.868  -5.877  1.00 20.00     0.012 C 
HETATM    9  C11 UNL     1     -36.188  16.895  -4.250  1.00 20.00     0.024 C 
ENDROOT
BRANCH   7  10
HETATM   10  C3  UNL     1     -34.554  16.697  -2.450  1.00 20.00     0.132 C 
HETATM   11  C9  UNL     1     -33.271  17.418  -2.140  1.00 20.00     0.091 C 
HETATM   12  O12 UNL     1     -35.362  16.410  -1.568  1.00 20.00    -0.298 OA
ENDBRANCH   7  10
TORSDOF 1
ENDMDL
MODEL 9
REMARK VINA RESULT:      -4.3      2.330      3.975
REMARK  1 active torsions:
REMARK  status: ('A' for Active; 'I' for Inactive)
REMARK    1  A    between atoms: C3_3  and  C8_8 
ROOT
HETATM    1  C1  UNL     1     -34.881  14.325  -5.430  1.00 20.00    -0.025 C 
HETATM    2  C2  UNL     1     -34.427  14.122  -4.185  1.00 20.00    -0.024 C 
HETATM    3  C4  UNL     1     -32.934  15.536  -5.219  1.00 20.00     0.018 C 
HETATM    4  C5  UNL     1     -34.297  15.631  -5.914  1.00 20.00     0.013 C 
HETATM    5  C6  UNL     1     -33.550  15.302  -3.830  1.00 20.00     0.024 C 
HETATM    6  C7  UNL     1     -34.932  16.825  -5.141  1.00 20.00     0.005 C 
HETATM    7  C8  UNL     1     -34.444  16.572  -3.662  1.00 20.00     0.027 C 
HETATM    8  C10 UNL     1     -36.435  16.964  -5.359  1.00 20.00     0.012 C 
HETATM    9  C11 UNL     1     -35.542  16.406  -2.607  1.00 20.00     0.024 C 
ENDROOT
BRANCH   7  10
HETATM   10  C3  UNL     1     -33.563  17.708  -3.190  1.00 20.00     0.132 C 
HETATM   11  C9  UNL     1     -33.061  17.631  -1.774  1.00 20.00     0.091 C 
HETATM   12  O12 UNL     1     -33.272  18.648  -3.928  1.00 20.00    -0.298 OA
ENDBRANCH   7  10
TORSDOF 1
ENDMDL
