MODEL 1
REMARK VINA RESULT:      -5.0      0.000      0.000
REMARK  1 active torsions:
REMARK  status: ('A' for Active; 'I' for Inactive)
REMARK    1  A    between atoms: C7_7  and  O11_11 
ROOT
HETATM    1  C1  UNL     1     -35.701   5.905   3.817  1.00 20.00    -0.029 C 
HETATM    2  C2  UNL     1     -33.235   7.260   5.374  1.00 20.00    -0.022 C 
HETATM    3  C3  UNL     1     -32.676   8.037   4.441  1.00 20.00     0.002 C 
HETATM    4  C4  UNL     1     -34.825   6.214   2.857  1.00 20.00    -0.018 C 
HETATM    5  C5  UNL     1     -35.025   5.493   5.083  1.00 20.00     0.036 C 
HETATM    6  C6  UNL     1     -33.560   5.887   4.849  1.00 20.00     0.026 C 
HETATM    7  C7  UNL     1     -32.501   7.309   3.148  1.00 20.00     0.155 C 
HETATM    8  C8  UNL     1     -33.391   6.056   3.313  1.00 20.00     0.010 C 
HETATM    9  C9  UNL     1     -32.772   4.828   2.645  1.00 20.00     0.023 C 
ENDROOT
BRANCH   7  10
HETATM   10  O11 UNL     1     -32.893   8.100   2.039  1.00 20.00    -0.386 OA
HETATM   11  C10 UNL     1     -31.779   8.739   1.427  1.00 20.00     0.202 C 
ENDBRANCH   7  10
TORSDOF 1
ENDMDL
MODEL 2
REMARK VINA RESULT:      -4.5      1.213      2.312
REMARK  1 active torsions:
REMARK  status: ('A' for Active; 'I' for Inactive)
REMARK    1  A    between atoms: C7_7  and  O11_11 
ROOT
HETATM    1  C1  UNL     1     -34.251   5.562   5.946  1.00 20.00    -0.029 C 
HETATM    2  C2  UNL     1     -32.982   4.503   3.186  1.00 20.00    -0.022 C 
HETATM    3  C3  UNL     1     -32.582   5.627   2.585  1.00 20.00     0.002 C 
HETATM    4  C4  UNL     1     -34.357   6.596   5.106  1.00 20.00    -0.018 C 
HETATM    5  C5  UNL     1     -34.429   4.253   5.250  1.00 20.00     0.036 C 
HETATM    6  C6  UNL     1     -34.367   4.628   3.762  1.00 20.00     0.026 C 
HETATM    7  C7  UNL     1     -33.640   6.682   2.624  1.00 20.00     0.155 C 
HETATM    8  C8  UNL     1     -34.635   6.158   3.685  1.00 20.00     0.010 C 
HETATM    9  C9  UNL     1     -36.082   6.490   3.319  1.00 20.00     0.023 C 
ENDROOT
BRANCH   7  10
HETATM   10  O11 UNL     1     -33.109   7.949   2.968  1.00 20.00    -0.386 OA
HETATM   11  C10 UNL     1     -31.988   8.288   2.161  1.00 20.00     0.202 C 
ENDBRANCH   7  10
TORSDOF 1
ENDMDL
MODEL 3
REMARK VINA RESULT:      -4.2     11.275     12.532
REMARK  1 active torsions:
REMARK  status: ('A' for Active; 'I' for Inactive)
REMARK    1  A    between atoms: C7_7  and  O11_11 
ROOT
HETATM    1  C1  UNL     1     -33.278  16.058  -5.263  1.00 20.00    -0.029 C 
HETATM    2  C2  UNL     1     -35.485  13.763  -4.813  1.00 20.00    -0.022 C 
HETATM    3  C3  UNL     1     -36.639  14.433  -4.879  1.00 20.00     0.002 C 
HETATM    4  C4  UNL     1     -34.340  16.703  -4.770  1.00 20.00    -0.018 C 
HETATM    5  C5  UNL     1     -33.132  14.691  -4.682  1.00 20.00     0.036 C 
HETATM    6  C6  UNL     1     -34.467  14.467  -3.957  1.00 20.00     0.026 C 
HETATM    7  C7  UNL     1     -36.603  15.678  -4.053  1.00 20.00     0.155 C 
HETATM    8  C8  UNL     1     -35.098  15.874  -3.758  1.00 20.00     0.010 C 
HETATM    9  C9  UNL     1     -34.864  16.437  -2.355  1.00 20.00     0.023 C 
ENDROOT
BRANCH   7  10
HETATM   10  O11 UNL     1     -37.160  16.784  -4.742  1.00 20.00    -0.386 OA
HETATM   11  C10 UNL     1     -38.251  17.354  -4.029  1.00 20.00     0.202 C 
ENDBRANCH   7  10
TORSDOF 1
ENDMDL
MODEL 4
REMARK VINA RESULT:      -4.0     11.463     12.882
REMARK  1 active torsions:
REMARK  status: ('A' for Active; 'I' for Inactive)
REMARK    1  A    between atoms: C7_7  and  O11_11 
ROOT
HETATM    1  C1  UNL     1     -34.055  16.159  -7.286  1.00 20.00    -0.029 C 
HETATM    2  C2  UNL     1     -35.671  13.435  -6.725  1.00 20.00    -0.022 C 
HETATM    3  C3  UNL     1     -36.360  13.713  -5.615  1.00 20.00     0.002 C 
HETATM    4  C4  UNL     1     -34.290  16.170  -5.970  1.00 20.00    -0.018 C 
HETATM    5  C5  UNL     1     -33.813  14.779  -7.801  1.00 20.00     0.036 C 
HETATM    6  C6  UNL     1     -34.236  13.881  -6.630  1.00 20.00     0.026 C 
HETATM    7  C7  UNL     1     -35.500  14.359  -4.577  1.00 20.00     0.155 C 
HETATM    8  C8  UNL     1     -34.240  14.785  -5.365  1.00 20.00     0.010 C 
HETATM    9  C9  UNL     1     -32.970  14.637  -4.525  1.00 20.00     0.023 C 
ENDROOT
BRANCH   7  10
HETATM   10  O11 UNL     1     -36.147  15.463  -3.968  1.00 20.00    -0.386 OA
HETATM   11  C10 UNL     1     -37.543  15.472  -4.241  1.00 20.00     0.202 C 
ENDBRANCH   7  10
TORSDOF 1
ENDMDL
MODEL 5
REMARK VINA RESULT:      -4.0     11.002     12.242
REMARK  1 active torsions:
REMARK  status: ('A' for Active; 'I' for Inactive)
REMARK    1  A    between atoms: C7_7  and  O11_11 
ROOT
HETATM    1  C1  UNL     1     -33.776  15.355  -6.894  1.00 20.00    -0.029 C 
HETATM    2  C2  UNL     1     -36.030  14.896  -4.646  1.00 20.00    -0.022 C 
HETATM    3  C3  UNL     1     -35.705  15.786  -3.703  1.00 20.00     0.002 C 
HETATM    4  C4  UNL     1     -33.210  15.771  -5.758  1.00 20.00    -0.018 C 
HETATM    5  C5  UNL     1     -34.687  14.192  -6.674  1.00 20.00     0.036 C 
HETATM    6  C6  UNL     1     -34.831  14.136  -5.147  1.00 20.00     0.026 C 
HETATM    7  C7  UNL     1     -34.245  15.750  -3.389  1.00 20.00     0.155 C 
HETATM    8  C8  UNL     1     -33.640  14.948  -4.564  1.00 20.00     0.010 C 
HETATM    9  C9  UNL     1     -32.482  14.059  -4.108  1.00 20.00     0.023 C 
ENDROOT
BRANCH   7  10
HETATM   10  O11 UNL     1     -33.693  17.052  -3.291  1.00 20.00    -0.386 OA
HETATM   11  C10 UNL     1     -33.363  17.385  -1.948  1.00 20.00     0.202 C 
ENDBRANCH   7  10
TORSDOF 1
ENDMDL
MODEL 6
REMARK VINA RESULT:      -4.0     10.971     12.537
REMARK  1 active torsions:
REMARK  status: ('A' for Active; 'I' for Inactive)
REMARK    1  A    between atoms: C7_7  and  O11_11 
ROOT
HETATM    1  C1  UNL     1     -34.815  16.099  -3.188  1.00 20.00    -0.029 C 
HETATM    2  C2  UNL     1     -33.903  16.687  -6.216  1.00 20.00    -0.022 C 
HETATM    3  C3  UNL     1     -34.332  15.608  -6.878  1.00 20.00     0.002 C 
HETATM    4  C4  UNL     1     -34.702  14.891  -3.748  1.00 20.00    -0.018 C 
HETATM    5  C5  UNL     1     -33.797  17.058  -3.713  1.00 20.00     0.036 C 
HETATM    6  C6  UNL     1     -33.211  16.326  -4.929  1.00 20.00     0.026 C 
HETATM    7  C7  UNL     1     -33.973  14.344  -6.167  1.00 20.00     0.155 C 
HETATM    8  C8  UNL     1     -33.574  14.824  -4.753  1.00 20.00     0.010 C 
HETATM    9  C9  UNL     1     -32.422  13.998  -4.177  1.00 20.00     0.023 C 
ENDROOT
BRANCH   7  10
HETATM   10  O11 UNL     1     -35.055  13.430  -6.135  1.00 20.00    -0.386 OA
HETATM   11  C10 UNL     1     -36.063  13.773  -7.078  1.00 20.00     0.202 C 
ENDBRANCH   7  10
TORSDOF 1
ENDMDL
MODEL 7
REMARK VINA RESULT:      -4.0     11.308     12.921
REMARK  1 active torsions:
REMARK  status: ('A' for Active; 'I' for Inactive)
REMARK    1  A    between atoms: C7_7  and  O11_11 
ROOT
HETATM    1  C1  UNL     1     -33.816  14.692  -4.195  1.00 20.00    -0.029 C 
HETATM    2  C2  UNL     1     -35.547  16.703  -6.014  1.00 20.00    -0.022 C 
HETATM    3  C3  UNL     1     -36.762  16.147  -6.011  1.00 20.00     0.002 C 
HETATM    4  C4  UNL     1     -34.811  13.941  -4.677  1.00 20.00    -0.018 C 
HETATM    5  C5  UNL     1     -33.366  15.724  -5.176  1.00 20.00     0.036 C 
HETATM    6  C6  UNL     1     -34.458  15.691  -6.255  1.00 20.00     0.026 C 
HETATM    7  C7  UNL     1     -36.698  14.678  -6.284  1.00 20.00     0.155 C 
HETATM    8  C8  UNL     1     -35.203  14.337  -6.083  1.00 20.00     0.010 C 
HETATM    9  C9  UNL     1     -34.728  13.269  -7.069  1.00 20.00     0.023 C 
ENDROOT
BRANCH   7  10
HETATM   10  O11 UNL     1     -37.535  13.943  -5.410  1.00 20.00    -0.386 OA
HETATM   11  C10 UNL     1     -38.678  14.694  -5.017  1.00 20.00     0.202 C 
ENDBRANCH   7  10
TORSDOF 1
ENDMDL
MODEL 8
REMARK VINA RESULT:      -4.0     11.680     12.866
REMARK  1 active torsions:
REMARK  status: ('A' for Active; 'I' for Inactive)
REMARK    1  A    between atoms: C7_7  and  O11_11 
ROOT
HETATM    1  C1  UNL     1     -35.779  16.716  -2.227  1.00 20.00    -0.029 C 
HETATM    2  C2  UNL     1     -33.237  18.600  -2.804  1.00 20.00    -0.022 C 
HETATM    3  C3  UNL     1     -33.289  18.783  -4.127  1.00 20.00     0.002 C 
HETATM    4  C4  UNL     1     -35.461  16.472  -3.501  1.00 20.00    -0.018 C 
HETATM    5  C5  UNL     1     -34.573  16.981  -1.388  1.00 20.00     0.036 C 
HETATM    6  C6  UNL     1     -33.452  17.160  -2.421  1.00 20.00     0.026 C 
HETATM    7  C7  UNL     1     -33.511  17.497  -4.855  1.00 20.00     0.155 C 
HETATM    8  C8  UNL     1     -33.969  16.525  -3.743  1.00 20.00     0.010 C 
HETATM    9  C9  UNL     1     -33.434  15.110  -3.970  1.00 20.00     0.023 C 
ENDROOT
BRANCH   7  10
HETATM   10  O11 UNL     1     -34.480  17.631  -5.879  1.00 20.00    -0.386 OA
HETATM   11  C10 UNL     1     -34.013  17.109  -7.118  1.00 20.00     0.202 C 
ENDBRANCH   7  10
TORSDOF 1
ENDMDL
MODEL 9
REMARK VINA RESULT:      -4.0     11.333     12.722
REMARK  1 active torsions:
REMARK  status: ('A' for Active; 'I' for Inactive)
REMARK    1  A    between atoms: C7_7  and  O11_11 
ROOT
HETATM    1  C1  UNL     1     -36.834  14.885  -6.028  1.00 20.00    -0.029 C 
HETATM    2  C2  UNL     1     -34.319  14.400  -4.083  1.00 20.00    -0.022 C 
HETATM    3  C3  UNL     1     -33.576  15.495  -4.269  1.00 20.00     0.002 C 
HETATM    4  C4  UNL     1     -35.847  15.608  -6.565  1.00 20.00    -0.018 C 
HETATM    5  C5  UNL     1     -36.332  13.623  -5.409  1.00 20.00     0.036 C 
HETATM    6  C6  UNL     1     -34.810  13.819  -5.383  1.00 20.00     0.026 C 
HETATM    7  C7  UNL     1     -33.413  15.813  -5.720  1.00 20.00     0.155 C 
HETATM    8  C8  UNL     1     -34.496  14.948  -6.405  1.00 20.00     0.010 C 
HETATM    9  C9  UNL     1     -34.022  14.411  -7.756  1.00 20.00     0.023 C 
ENDROOT
BRANCH   7  10
HETATM   10  O11 UNL     1     -33.589  17.194  -5.980  1.00 20.00    -0.386 OA
HETATM   11  C10 UNL     1     -33.536  17.967  -4.786  1.00 20.00     0.202 C 
ENDBRANCH   7  10
TORSDOF 1
ENDMDL
