MODEL 1
REMARK VINA RESULT:      -5.4      0.000      0.000
REMARK  1 active torsions:
REMARK  status: ('A' for Active; 'I' for Inactive)
REMARK    1  A    between atoms: C3_3  and  C9_9 
ROOT
HETATM    1  C1  UNL     1     -33.429   5.689   2.955  1.00 20.00    -0.067 A 
HETATM    2  C2  UNL     1     -32.963   4.510   2.603  1.00 20.00     0.016 C 
HETATM    3  C4  UNL     1     -31.809   9.496   1.793  1.00 20.00     0.000 C 
HETATM    4  C5  UNL     1     -31.134   8.410   2.635  1.00 20.00     0.001 C 
HETATM    5  C6  UNL     1     -33.298   9.239   1.549  1.00 20.00     0.001 C 
HETATM    6  C7  UNL     1     -32.111   7.745   3.598  1.00 20.00     0.015 C 
HETATM    7  C8  UNL     1     -33.624   7.749   1.526  1.00 20.00     0.015 C 
HETATM    8  C9  UNL     1     -34.421   6.385   3.673  1.00 20.00     0.096 A 
HETATM    9  C10 UNL     1     -33.257   7.095   2.845  1.00 20.00    -0.003 A 
ENDROOT
BRANCH   8  10
HETATM   10  C3  UNL     1     -34.337   6.288   5.132  1.00 20.00     0.132 C 
HETATM   11  C11 UNL     1     -34.523   4.920   5.731  1.00 20.00     0.091 C 
HETATM   12  O12 UNL     1     -34.123   7.276   5.832  1.00 20.00    -0.298 OA
ENDBRANCH   8  10
TORSDOF 1
ENDMDL
MODEL 2
REMARK VINA RESULT:      -5.3      2.087      4.466
REMARK  1 active torsions:
REMARK  status: ('A' for Active; 'I' for Inactive)
REMARK    1  A    between atoms: C3_3  and  C9_9 
ROOT
HETATM    1  C1  UNL     1     -31.823   8.181   3.208  1.00 20.00    -0.067 A 
HETATM    2  C2  UNL     1     -30.664   8.335   3.811  1.00 20.00     0.016 C 
HETATM    3  C4  UNL     1     -34.463   4.817   3.633  1.00 20.00     0.000 C 
HETATM    4  C5  UNL     1     -33.046   4.826   3.057  1.00 20.00     0.001 C 
HETATM    5  C6  UNL     1     -35.034   6.218   3.866  1.00 20.00     0.001 C 
HETATM    6  C7  UNL     1     -32.781   6.067   2.212  1.00 20.00     0.015 C 
HETATM    7  C8  UNL     1     -33.941   7.235   4.180  1.00 20.00     0.015 C 
HETATM    8  C9  UNL     1     -32.764   8.746   2.325  1.00 20.00     0.096 A 
HETATM    9  C10 UNL     1     -32.947   7.330   3.036  1.00 20.00    -0.003 A 
ENDROOT
BRANCH   8  10
HETATM   10  C3  UNL     1     -32.355   8.820   0.921  1.00 20.00     0.132 C 
HETATM   11  C11 UNL     1     -33.397   9.277  -0.063  1.00 20.00     0.091 C 
HETATM   12  O12 UNL     1     -31.215   8.527   0.565  1.00 20.00    -0.298 OA
ENDBRANCH   8  10
TORSDOF 1
ENDMDL
MODEL 3
REMARK VINA RESULT:      -5.1     11.011     11.979
REMARK  1 active torsions:
REMARK  status: ('A' for Active; 'I' for Inactive)
REMARK    1  A    between atoms: C3_3  and  C9_9 
ROOT
HETATM    1  C1  UNL     1     -35.479  16.663  -4.644  1.00 20.00    -0.067 A 
HETATM    2  C2  UNL     1     -35.574  17.468  -5.680  1.00 20.00     0.016 C 
HETATM    3  C4  UNL     1     -34.038  17.731  -0.740  1.00 20.00     0.000 C 
HETATM    4  C5  UNL     1     -33.260  17.739  -2.057  1.00 20.00     0.001 C 
HETATM    5  C6  UNL     1     -35.407  17.054  -0.845  1.00 20.00     0.001 C 
HETATM    6  C7  UNL     1     -33.619  16.548  -2.939  1.00 20.00     0.015 C 
HETATM    7  C8  UNL     1     -36.004  17.189  -2.242  1.00 20.00     0.015 C 
HETATM    8  C9  UNL     1     -35.692  15.359  -4.156  1.00 20.00     0.096 A 
HETATM    9  C10 UNL     1     -35.098  16.553  -3.280  1.00 20.00    -0.003 A 
ENDROOT
BRANCH   8  10
HETATM   10  C3  UNL     1     -34.807  14.325  -4.693  1.00 20.00     0.132 C 
HETATM   11  C11 UNL     1     -34.459  14.424  -6.153  1.00 20.00     0.091 C 
HETATM   12  O12 UNL     1     -34.367  13.420  -3.985  1.00 20.00    -0.298 OA
ENDBRANCH   8  10
TORSDOF 1
ENDMDL
MODEL 4
REMARK VINA RESULT:      -5.1     11.219     12.295
REMARK  1 active torsions:
REMARK  status: ('A' for Active; 'I' for Inactive)
REMARK    1  A    between atoms: C3_3  and  C9_9 
ROOT
HETATM    1  C1  UNL     1     -35.089  15.975  -6.150  1.00 20.00    -0.067 A 
HETATM    2  C2  UNL     1     -34.443  16.575  -7.127  1.00 20.00     0.016 C 
HETATM    3  C4  UNL     1     -34.730  16.866  -1.962  1.00 20.00     0.000 C 
HETATM    4  C5  UNL     1     -33.645  16.333  -2.901  1.00 20.00     0.001 C 
HETATM    5  C6  UNL     1     -36.129  16.855  -2.581  1.00 20.00     0.001 C 
HETATM    6  C7  UNL     1     -34.195  15.306  -3.885  1.00 20.00     0.015 C 
HETATM    7  C8  UNL     1     -36.084  17.030  -4.096  1.00 20.00     0.015 C 
HETATM    8  C9  UNL     1     -36.034  14.988  -5.810  1.00 20.00     0.096 A 
HETATM    9  C10 UNL     1     -35.288  15.913  -4.745  1.00 20.00    -0.003 A 
ENDROOT
BRANCH   8  10
HETATM   10  C3  UNL     1     -35.609  13.602  -6.012  1.00 20.00     0.132 C 
HETATM   11  C11 UNL     1     -34.784  13.319  -7.238  1.00 20.00     0.091 C 
HETATM   12  O12 UNL     1     -35.910  12.713  -5.217  1.00 20.00    -0.298 OA
ENDBRANCH   8  10
TORSDOF 1
ENDMDL
MODEL 5
REMARK VINA RESULT:      -4.9     10.524     11.854
REMARK  1 active torsions:
REMARK  status: ('A' for Active; 'I' for Inactive)
REMARK    1  A    between atoms: C3_3  and  C9_9 
ROOT
HETATM    1  C1  UNL     1     -33.554  14.776  -4.511  1.00 20.00    -0.067 A 
HETATM    2  C2  UNL     1     -32.541  14.001  -4.191  1.00 20.00     0.016 C 
HETATM    3  C4  UNL     1     -34.813  18.294  -2.389  1.00 20.00     0.000 C 
HETATM    4  C5  UNL     1     -34.797  16.851  -1.880  1.00 20.00     0.001 C 
HETATM    5  C6  UNL     1     -34.549  18.412  -3.892  1.00 20.00     0.001 C 
HETATM    6  C7  UNL     1     -35.225  15.861  -2.958  1.00 20.00     0.015 C 
HETATM    7  C8  UNL     1     -33.657  17.286  -4.405  1.00 20.00     0.015 C 
HETATM    8  C9  UNL     1     -34.601  15.011  -5.424  1.00 20.00     0.096 A 
HETATM    9  C10 UNL     1     -34.298  15.933  -4.158  1.00 20.00    -0.003 A 
ENDROOT
BRANCH   8  10
HETATM   10  C3  UNL     1     -35.704  14.048  -5.390  1.00 20.00     0.132 C 
HETATM   11  C11 UNL     1     -37.042  14.535  -5.876  1.00 20.00     0.091 C 
HETATM   12  O12 UNL     1     -35.543  12.897  -4.987  1.00 20.00    -0.298 OA
ENDBRANCH   8  10
TORSDOF 1
ENDMDL
MODEL 6
REMARK VINA RESULT:      -4.7     10.699     12.464
REMARK  1 active torsions:
REMARK  status: ('A' for Active; 'I' for Inactive)
REMARK    1  A    between atoms: C3_3  and  C9_9 
ROOT
HETATM    1  C1  UNL     1     -34.944  17.185  -2.094  1.00 20.00    -0.067 A 
HETATM    2  C2  UNL     1     -35.036  17.042  -0.790  1.00 20.00     0.016 C 
HETATM    3  C4  UNL     1     -35.265  14.042  -5.007  1.00 20.00     0.000 C 
HETATM    4  C5  UNL     1     -34.201  14.204  -3.920  1.00 20.00     0.001 C 
HETATM    5  C6  UNL     1     -36.161  15.273  -5.170  1.00 20.00     0.001 C 
HETATM    6  C7  UNL     1     -33.785  15.660  -3.740  1.00 20.00     0.015 C 
HETATM    7  C8  UNL     1     -36.320  16.040  -3.861  1.00 20.00     0.015 C 
HETATM    8  C9  UNL     1     -34.763  18.088  -3.160  1.00 20.00     0.096 A 
HETATM    9  C10 UNL     1     -34.973  16.518  -3.348  1.00 20.00    -0.003 A 
ENDROOT
BRANCH   8  10
HETATM   10  C3  UNL     1     -33.427  18.674  -3.278  1.00 20.00     0.132 C 
HETATM   11  C11 UNL     1     -33.061  19.261  -4.614  1.00 20.00     0.091 C 
HETATM   12  O12 UNL     1     -32.643  18.689  -2.330  1.00 20.00    -0.298 OA
ENDBRANCH   8  10
TORSDOF 1
ENDMDL
MODEL 7
REMARK VINA RESULT:      -4.6      1.579      2.730
REMARK  1 active torsions:
REMARK  status: ('A' for Active; 'I' for Inactive)
REMARK    1  A    between atoms: C3_3  and  C9_9 
ROOT
HETATM    1  C1  UNL     1     -31.821   8.031   3.284  1.00 20.00    -0.067 A 
HETATM    2  C2  UNL     1     -31.021   8.498   4.217  1.00 20.00     0.016 C 
HETATM    3  C4  UNL     1     -32.997  10.090  -0.299  1.00 20.00     0.000 C 
HETATM    4  C5  UNL     1     -33.295  10.488   1.148  1.00 20.00     0.001 C 
HETATM    5  C6  UNL     1     -32.402   8.686  -0.435  1.00 20.00     0.001 C 
HETATM    6  C7  UNL     1     -33.616   9.277   2.018  1.00 20.00     0.015 C 
HETATM    7  C8  UNL     1     -31.588   8.291   0.794  1.00 20.00     0.015 C 
HETATM    8  C9  UNL     1     -32.604   6.940   2.856  1.00 20.00     0.096 A 
HETATM    9  C10 UNL     1     -32.453   8.303   2.041  1.00 20.00    -0.003 A 
ENDROOT
BRANCH   8  10
HETATM   10  C3  UNL     1     -33.812   6.677   3.639  1.00 20.00     0.132 C 
HETATM   11  C11 UNL     1     -33.801   7.131   5.074  1.00 20.00     0.091 C 
HETATM   12  O12 UNL     1     -34.790   6.115   3.148  1.00 20.00    -0.298 OA
ENDBRANCH   8  10
TORSDOF 1
ENDMDL
MODEL 8
REMARK VINA RESULT:      -4.5     10.445     12.019
REMARK  1 active torsions:
REMARK  status: ('A' for Active; 'I' for Inactive)
REMARK    1  A    between atoms: C3_3  and  C9_9 
ROOT
HETATM    1  C1  UNL     1     -33.660  17.675  -3.276  1.00 20.00    -0.067 A 
HETATM    2  C2  UNL     1     -33.342  18.752  -3.961  1.00 20.00     0.016 C 
HETATM    3  C4  UNL     1     -35.737  14.235  -4.797  1.00 20.00     0.000 C 
HETATM    4  C5  UNL     1     -36.261  15.668  -4.682  1.00 20.00     0.001 C 
HETATM    5  C6  UNL     1     -34.404  14.015  -4.078  1.00 20.00     0.001 C 
HETATM    6  C7  UNL     1     -35.802  16.342  -3.394  1.00 20.00     0.015 C 
HETATM    7  C8  UNL     1     -33.557  15.284  -4.045  1.00 20.00     0.015 C 
HETATM    8  C9  UNL     1     -33.598  17.026  -2.027  1.00 20.00     0.096 A 
HETATM    9  C10 UNL     1     -34.287  16.402  -3.324  1.00 20.00    -0.003 A 
ENDROOT
BRANCH   8  10
HETATM   10  C3  UNL     1     -34.417  17.610  -0.964  1.00 20.00     0.132 C 
HETATM   11  C11 UNL     1     -34.117  19.035  -0.584  1.00 20.00     0.091 C 
HETATM   12  O12 UNL     1     -35.308  16.968  -0.410  1.00 20.00    -0.298 OA
ENDBRANCH   8  10
TORSDOF 1
ENDMDL
MODEL 9
REMARK VINA RESULT:      -4.5     11.162     12.302
REMARK  1 active torsions:
REMARK  status: ('A' for Active; 'I' for Inactive)
REMARK    1  A    between atoms: C3_3  and  C9_9 
ROOT
HETATM    1  C1  UNL     1     -34.030  15.530  -4.644  1.00 20.00    -0.067 A 
HETATM    2  C2  UNL     1     -32.951  15.563  -5.395  1.00 20.00     0.016 C 
HETATM    3  C4  UNL     1     -38.089  15.485  -6.052  1.00 20.00     0.000 C 
HETATM    4  C5  UNL     1     -37.049  16.591  -6.236  1.00 20.00     0.001 C 
HETATM    5  C6  UNL     1     -37.654  14.397  -5.067  1.00 20.00     0.001 C 
HETATM    6  C7  UNL     1     -36.194  16.785  -4.987  1.00 20.00     0.015 C 
HETATM    7  C8  UNL     1     -36.138  14.221  -5.046  1.00 20.00     0.015 C 
HETATM    8  C9  UNL     1     -34.536  15.484  -3.330  1.00 20.00     0.096 A 
HETATM    9  C10 UNL     1     -35.450  15.510  -4.637  1.00 20.00    -0.003 A 
ENDROOT
BRANCH   8  10
HETATM   10  C3  UNL     1     -34.351  16.698  -2.533  1.00 20.00     0.132 C 
HETATM   11  C11 UNL     1     -35.293  16.898  -1.376  1.00 20.00     0.091 C 
HETATM   12  O12 UNL     1     -33.468  17.513  -2.794  1.00 20.00    -0.298 OA
ENDBRANCH   8  10
TORSDOF 1
ENDMDL
