MODEL 1
REMARK VINA RESULT:      -4.8      0.000      0.000
REMARK  3 active torsions:
REMARK  status: ('A' for Active; 'I' for Inactive)
REMARK    1  A    between atoms: C1_1  and  C2_2 
REMARK    2  A    between atoms: C4_4  and  C8_8 
REMARK    3  A    between atoms: C8_8  and  N9_9 
ROOT
HETATM    1  C1  UNL     1     -33.472   6.702   3.687  1.00 20.00    -0.015 C 
HETATM    2  C3  UNL     1     -34.084   6.066   4.500  1.00 20.00    -0.097 C 
HETATM    3  C5  UNL     1     -34.827   5.290   5.492  1.00 20.00     0.113 C 
ENDROOT
BRANCH   1   4
HETATM    4  C2  UNL     1     -32.774   7.429   2.756  1.00 20.00    -0.013 C 
HETATM    5  C4  UNL     1     -32.163   8.066   1.942  1.00 20.00    -0.062 C 
BRANCH   5   6
HETATM    6  C8  UNL     1     -31.411   8.841   0.950  1.00 20.00     0.365 C 
BRANCH   6   7
HETATM    7  N9  UNL     1     -32.234   9.904   0.387  1.00 20.00     0.090 N 
HETATM    8  C6  UNL     1     -32.847  10.700   1.452  1.00 20.00     0.310 C 
HETATM    9  C7  UNL     1     -33.268   9.349  -0.490  1.00 20.00     0.310 C 
ENDBRANCH   6   7
ENDBRANCH   5   6
ENDBRANCH   1   4
TORSDOF 3
ENDMDL
MODEL 2
REMARK VINA RESULT:      -4.0      2.583      5.451
REMARK  3 active torsions:
REMARK  status: ('A' for Active; 'I' for Inactive)
REMARK    1  A    between atoms: C1_1  and  C2_2 
REMARK    2  A    between atoms: C4_4  and  C8_8 
REMARK    3  A    between atoms: C8_8  and  N9_9 
ROOT
HETATM    1  C1  UNL     1     -32.681   8.309   1.945  1.00 20.00    -0.015 C 
HETATM    2  C3  UNL     1     -32.453   9.384   1.462  1.00 20.00    -0.097 C 
HETATM    3  C5  UNL     1     -32.177  10.694   0.875  1.00 20.00     0.113 C 
ENDROOT
BRANCH   1   4
HETATM    4  C2  UNL     1     -32.941   7.079   2.497  1.00 20.00    -0.013 C 
HETATM    5  C4  UNL     1     -33.168   6.004   2.979  1.00 20.00    -0.062 C 
BRANCH   5   6
HETATM    6  C8  UNL     1     -33.453   4.692   3.568  1.00 20.00     0.365 C 
BRANCH   6   7
HETATM    7  N9  UNL     1     -34.696   4.720   4.327  1.00 20.00     0.090 N 
HETATM    8  C6  UNL     1     -35.563   5.802   3.856  1.00 20.00     0.310 C 
HETATM    9  C7  UNL     1     -34.425   4.875   5.758  1.00 20.00     0.310 C 
ENDBRANCH   6   7
ENDBRANCH   5   6
ENDBRANCH   1   4
TORSDOF 3
ENDMDL
MODEL 3
REMARK VINA RESULT:      -3.7     10.038     10.262
REMARK  3 active torsions:
REMARK  status: ('A' for Active; 'I' for Inactive)
REMARK    1  A    between atoms: C1_1  and  C2_2 
REMARK    2  A    between atoms: C4_4  and  C8_8 
REMARK    3  A    between atoms: C8_8  and  N9_9 
ROOT
HETATM    1  C1  UNL     1     -34.967  16.551  -1.941  1.00 20.00    -0.015 C 
HETATM    2  C3  UNL     1     -35.300  17.140  -0.949  1.00 20.00    -0.097 C 
HETATM    3  C5  UNL     1     -35.708  17.856   0.259  1.00 20.00     0.113 C 
ENDROOT
BRANCH   1   4
HETATM    4  C2  UNL     1     -34.585  15.879  -3.075  1.00 20.00    -0.013 C 
HETATM    5  C4  UNL     1     -34.253  15.290  -4.066  1.00 20.00    -0.062 C 
BRANCH   5   6
HETATM    6  C8  UNL     1     -33.844  14.577  -5.281  1.00 20.00     0.365 C 
BRANCH   6   7
HETATM    7  N9  UNL     1     -35.001  14.242  -6.101  1.00 20.00     0.090 N 
HETATM    8  C6  UNL     1     -35.939  13.404  -5.353  1.00 20.00     0.310 C 
HETATM    9  C7  UNL     1     -34.583  13.562  -7.330  1.00 20.00     0.310 C 
ENDBRANCH   6   7
ENDBRANCH   5   6
ENDBRANCH   1   4
TORSDOF 3
ENDMDL
MODEL 4
REMARK VINA RESULT:      -3.7     10.024     10.507
REMARK  3 active torsions:
REMARK  status: ('A' for Active; 'I' for Inactive)
REMARK    1  A    between atoms: C1_1  and  C2_2 
REMARK    2  A    between atoms: C4_4  and  C8_8 
REMARK    3  A    between atoms: C8_8  and  N9_9 
ROOT
HETATM    1  C1  UNL     1     -33.542  17.483  -1.451  1.00 20.00    -0.015 C 
HETATM    2  C3  UNL     1     -32.873  18.110  -0.677  1.00 20.00    -0.097 C 
HETATM    3  C5  UNL     1     -32.057  18.873   0.266  1.00 20.00     0.113 C 
ENDROOT
BRANCH   1   4
HETATM    4  C2  UNL     1     -34.307  16.765  -2.337  1.00 20.00    -0.013 C 
HETATM    5  C4  UNL     1     -34.975  16.137  -3.112  1.00 20.00    -0.062 C 
BRANCH   5   6
HETATM    6  C8  UNL     1     -35.797  15.375  -4.056  1.00 20.00     0.365 C 
BRANCH   6   7
HETATM    7  N9  UNL     1     -35.103  14.171  -4.496  1.00 20.00     0.090 N 
HETATM    8  C6  UNL     1     -33.863  14.516  -5.194  1.00 20.00     0.310 C 
HETATM    9  C7  UNL     1     -35.965  13.364  -5.363  1.00 20.00     0.310 C 
ENDBRANCH   6   7
ENDBRANCH   5   6
ENDBRANCH   1   4
TORSDOF 3
ENDMDL
MODEL 5
REMARK VINA RESULT:      -3.7     10.063     10.756
REMARK  3 active torsions:
REMARK  status: ('A' for Active; 'I' for Inactive)
REMARK    1  A    between atoms: C1_1  and  C2_2 
REMARK    2  A    between atoms: C4_4  and  C8_8 
REMARK    3  A    between atoms: C8_8  and  N9_9 
ROOT
HETATM    1  C1  UNL     1     -34.155  16.136  -3.021  1.00 20.00    -0.015 C 
HETATM    2  C3  UNL     1     -33.614  16.957  -2.332  1.00 20.00    -0.097 C 
HETATM    3  C5  UNL     1     -32.956  17.957  -1.493  1.00 20.00     0.113 C 
ENDROOT
BRANCH   1   4
HETATM    4  C2  UNL     1     -34.774  15.199  -3.809  1.00 20.00    -0.013 C 
HETATM    5  C4  UNL     1     -35.314  14.378  -4.499  1.00 20.00    -0.062 C 
BRANCH   5   6
HETATM    6  C8  UNL     1     -35.981  13.377  -5.338  1.00 20.00     0.365 C 
BRANCH   6   7
HETATM    7  N9  UNL     1     -35.846  13.709  -6.750  1.00 20.00     0.090 N 
HETATM    8  C6  UNL     1     -34.441  13.660  -7.160  1.00 20.00     0.310 C 
HETATM    9  C7  UNL     1     -36.408  15.034  -7.026  1.00 20.00     0.310 C 
ENDBRANCH   6   7
ENDBRANCH   5   6
ENDBRANCH   1   4
TORSDOF 3
ENDMDL
MODEL 6
REMARK VINA RESULT:      -3.5      9.863     10.293
REMARK  3 active torsions:
REMARK  status: ('A' for Active; 'I' for Inactive)
REMARK    1  A    between atoms: C1_1  and  C2_2 
REMARK    2  A    between atoms: C4_4  and  C8_8 
REMARK    3  A    between atoms: C8_8  and  N9_9 
ROOT
HETATM    1  C1  UNL     1     -34.999  17.042  -1.165  1.00 20.00    -0.015 C 
HETATM    2  C3  UNL     1     -35.488  17.453  -0.148  1.00 20.00    -0.097 C 
HETATM    3  C5  UNL     1     -36.084  17.954   1.089  1.00 20.00     0.113 C 
ENDROOT
BRANCH   1   4
HETATM    4  C2  UNL     1     -34.440  16.573  -2.327  1.00 20.00    -0.013 C 
HETATM    5  C4  UNL     1     -33.951  16.164  -3.344  1.00 20.00    -0.062 C 
BRANCH   5   6
HETATM    6  C8  UNL     1     -33.353  15.657  -4.583  1.00 20.00     0.365 C 
BRANCH   6   7
HETATM    7  N9  UNL     1     -34.361  15.025  -5.426  1.00 20.00     0.090 N 
HETATM    8  C6  UNL     1     -35.283  16.025  -5.967  1.00 20.00     0.310 C 
HETATM    9  C7  UNL     1     -35.100  14.008  -4.674  1.00 20.00     0.310 C 
ENDBRANCH   6   7
ENDBRANCH   5   6
ENDBRANCH   1   4
TORSDOF 3
ENDMDL
MODEL 7
REMARK VINA RESULT:      -3.4     10.004     10.944
REMARK  3 active torsions:
REMARK  status: ('A' for Active; 'I' for Inactive)
REMARK    1  A    between atoms: C1_1  and  C2_2 
REMARK    2  A    between atoms: C4_4  and  C8_8 
REMARK    3  A    between atoms: C8_8  and  N9_9 
ROOT
HETATM    1  C1  UNL     1     -32.535  18.175  -0.674  1.00 20.00    -0.015 C 
HETATM    2  C3  UNL     1     -32.008  18.666   0.286  1.00 20.00    -0.097 C 
HETATM    3  C5  UNL     1     -31.365  19.263   1.455  1.00 20.00     0.113 C 
ENDROOT
BRANCH   1   4
HETATM    4  C2  UNL     1     -33.138  17.613  -1.771  1.00 20.00    -0.013 C 
HETATM    5  C4  UNL     1     -33.667  17.122  -2.731  1.00 20.00    -0.062 C 
BRANCH   5   6
HETATM    6  C8  UNL     1     -34.306  16.521  -3.906  1.00 20.00     0.365 C 
BRANCH   6   7
HETATM    7  N9  UNL     1     -33.307  16.027  -4.845  1.00 20.00     0.090 N 
HETATM    8  C6  UNL     1     -33.767  16.199  -6.225  1.00 20.00     0.310 C 
HETATM    9  C7  UNL     1     -33.003  14.618  -4.584  1.00 20.00     0.310 C 
ENDBRANCH   6   7
ENDBRANCH   5   6
ENDBRANCH   1   4
TORSDOF 3
ENDMDL
MODEL 8
REMARK VINA RESULT:      -3.4     10.018     10.587
REMARK  3 active torsions:
REMARK  status: ('A' for Active; 'I' for Inactive)
REMARK    1  A    between atoms: C1_1  and  C2_2 
REMARK    2  A    between atoms: C4_4  and  C8_8 
REMARK    3  A    between atoms: C8_8  and  N9_9 
ROOT
HETATM    1  C1  UNL     1     -34.716  15.273  -3.739  1.00 20.00    -0.015 C 
HETATM    2  C3  UNL     1     -35.253  14.451  -4.430  1.00 20.00    -0.097 C 
HETATM    3  C5  UNL     1     -35.907  13.451  -5.272  1.00 20.00     0.113 C 
ENDROOT
BRANCH   1   4
HETATM    4  C2  UNL     1     -34.102  16.213  -2.950  1.00 20.00    -0.013 C 
HETATM    5  C4  UNL     1     -33.566  17.035  -2.259  1.00 20.00    -0.062 C 
BRANCH   5   6
HETATM    6  C8  UNL     1     -32.905  18.037  -1.417  1.00 20.00     0.365 C 
BRANCH   6   7
HETATM    7  N9  UNL     1     -33.615  18.208  -0.156  1.00 20.00     0.090 N 
HETATM    8  C6  UNL     1     -34.851  18.967  -0.358  1.00 20.00     0.310 C 
HETATM    9  C7  UNL     1     -32.764  18.878   0.830  1.00 20.00     0.310 C 
ENDBRANCH   6   7
ENDBRANCH   5   6
ENDBRANCH   1   4
TORSDOF 3
ENDMDL
MODEL 9
REMARK VINA RESULT:      -3.4      9.714     10.334
REMARK  3 active torsions:
REMARK  status: ('A' for Active; 'I' for Inactive)
REMARK    1  A    between atoms: C1_1  and  C2_2 
REMARK    2  A    between atoms: C4_4  and  C8_8 
REMARK    3  A    between atoms: C8_8  and  N9_9 
ROOT
HETATM    1  C1  UNL     1     -34.404  17.940   0.226  1.00 20.00    -0.015 C 
HETATM    2  C3  UNL     1     -34.081  18.500   1.237  1.00 20.00    -0.097 C 
HETATM    3  C5  UNL     1     -33.685  19.181   2.469  1.00 20.00     0.113 C 
ENDROOT
BRANCH   1   4
HETATM    4  C2  UNL     1     -34.773  17.300  -0.930  1.00 20.00    -0.013 C 
HETATM    5  C4  UNL     1     -35.096  16.739  -1.942  1.00 20.00    -0.062 C 
BRANCH   5   6
HETATM    6  C8  UNL     1     -35.496  16.056  -3.175  1.00 20.00     0.365 C 
BRANCH   6   7
HETATM    7  N9  UNL     1     -34.426  15.195  -3.664  1.00 20.00     0.090 N 
HETATM    8  C6  UNL     1     -33.443  15.973  -4.420  1.00 20.00     0.310 C 
HETATM    9  C7  UNL     1     -34.969  14.118  -4.496  1.00 20.00     0.310 C 
ENDBRANCH   6   7
ENDBRANCH   5   6
ENDBRANCH   1   4
TORSDOF 3
ENDMDL
