MODEL 1
REMARK VINA RESULT:      -4.9      0.000      0.000
REMARK  2 active torsions:
REMARK  status: ('A' for Active; 'I' for Inactive)
REMARK    1  A    between atoms: C3_3  and  C4_4 
REMARK    2  A    between atoms: C3_3  and  O10_10 
ROOT
HETATM    1  C1  UNL     1     -33.316   5.791   2.954  1.00 20.00    -0.066 A 
HETATM    2  C2  UNL     1     -32.673   4.663   2.739  1.00 20.00     0.016 C 
HETATM    3  C4  UNL     1     -33.563   7.103   2.496  1.00 20.00     0.126 A 
HETATM    4  C5  UNL     1     -34.225   6.478   3.797  1.00 20.00    -0.008 A 
HETATM    5  C6  UNL     1     -33.752   6.916   5.157  1.00 20.00     0.021 C 
HETATM    6  C7  UNL     1     -35.684   6.121   3.728  1.00 20.00     0.021 C 
ENDROOT
BRANCH   3   7
HETATM    7  C3  UNL     1     -32.444   8.041   2.607  1.00 20.00     0.267 C 
HETATM    8  O9  UNL     1     -31.448   7.839   3.288  1.00 20.00    -0.264 OA
BRANCH   7   9
HETATM    9  O10 UNL     1     -32.696   9.143   1.846  1.00 20.00    -0.326 OA
HETATM   10  C8  UNL     1     -31.977   9.213   0.610  1.00 20.00     0.213 C 
ENDBRANCH   7   9
ENDBRANCH   3   7
TORSDOF 2
ENDMDL
MODEL 2
REMARK VINA RESULT:      -4.4     10.646     12.128
REMARK  2 active torsions:
REMARK  status: ('A' for Active; 'I' for Inactive)
REMARK    1  A    between atoms: C3_3  and  C4_4 
REMARK    2  A    between atoms: C3_3  and  O10_10 
ROOT
HETATM    1  C1  UNL     1     -34.118  14.769  -5.251  1.00 20.00    -0.066 A 
HETATM    2  C2  UNL     1     -33.145  14.511  -4.403  1.00 20.00     0.016 C 
HETATM    3  C4  UNL     1     -35.512  14.902  -5.428  1.00 20.00     0.126 A 
HETATM    4  C5  UNL     1     -34.447  15.105  -6.588  1.00 20.00    -0.008 A 
HETATM    5  C6  UNL     1     -34.293  14.052  -7.652  1.00 20.00     0.021 C 
HETATM    6  C7  UNL     1     -34.198  16.511  -7.061  1.00 20.00     0.021 C 
ENDROOT
BRANCH   3   7
HETATM    7  C3  UNL     1     -36.288  13.664  -5.340  1.00 20.00     0.267 C 
HETATM    8  O9  UNL     1     -35.792  12.552  -5.210  1.00 20.00    -0.264 OA
BRANCH   7   9
HETATM    9  O10 UNL     1     -37.618  13.952  -5.426  1.00 20.00    -0.326 OA
HETATM   10  C8  UNL     1     -38.049  15.092  -4.676  1.00 20.00     0.213 C 
ENDBRANCH   7   9
ENDBRANCH   3   7
TORSDOF 2
ENDMDL
MODEL 3
REMARK VINA RESULT:      -4.4      1.422      4.314
REMARK  2 active torsions:
REMARK  status: ('A' for Active; 'I' for Inactive)
REMARK    1  A    between atoms: C3_3  and  C4_4 
REMARK    2  A    between atoms: C3_3  and  O10_10 
ROOT
HETATM    1  C1  UNL     1     -32.540   9.969   1.590  1.00 20.00    -0.066 A 
HETATM    2  C2  UNL     1     -32.395  11.199   2.036  1.00 20.00     0.016 C 
HETATM    3  C4  UNL     1     -33.012   8.669   1.873  1.00 20.00     0.126 A 
HETATM    4  C5  UNL     1     -32.332   9.087   0.501  1.00 20.00    -0.008 A 
HETATM    5  C6  UNL     1     -30.927   8.640   0.198  1.00 20.00     0.021 C 
HETATM    6  C7  UNL     1     -33.223   9.206  -0.705  1.00 20.00     0.021 C 
ENDROOT
BRANCH   3   7
HETATM    7  C3  UNL     1     -32.257   7.921   2.880  1.00 20.00     0.267 C 
HETATM    8  O9  UNL     1     -31.438   8.426   3.637  1.00 20.00    -0.264 OA
BRANCH   7   9
HETATM    9  O10 UNL     1     -32.610   6.606   2.830  1.00 20.00    -0.326 OA
HETATM   10  C8  UNL     1     -33.908   6.298   3.348  1.00 20.00     0.213 C 
ENDBRANCH   7   9
ENDBRANCH   3   7
TORSDOF 2
ENDMDL
MODEL 4
REMARK VINA RESULT:      -4.4     10.593     11.514
REMARK  2 active torsions:
REMARK  status: ('A' for Active; 'I' for Inactive)
REMARK    1  A    between atoms: C3_3  and  C4_4 
REMARK    2  A    between atoms: C3_3  and  O10_10 
ROOT
HETATM    1  C1  UNL     1     -34.029  15.274  -4.614  1.00 20.00    -0.066 A 
HETATM    2  C2  UNL     1     -32.922  15.529  -5.279  1.00 20.00     0.016 C 
HETATM    3  C4  UNL     1     -34.911  14.276  -4.148  1.00 20.00     0.126 A 
HETATM    4  C5  UNL     1     -35.112  15.830  -3.888  1.00 20.00    -0.008 A 
HETATM    5  C6  UNL     1     -36.174  16.581  -4.645  1.00 20.00     0.021 C 
HETATM    6  C7  UNL     1     -34.863  16.336  -2.494  1.00 20.00     0.021 C 
ENDROOT
BRANCH   3   7
HETATM    7  C3  UNL     1     -35.695  13.586  -5.174  1.00 20.00     0.267 C 
HETATM    8  O9  UNL     1     -36.915  13.482  -5.150  1.00 20.00    -0.264 OA
BRANCH   7   9
HETATM    9  O10 UNL     1     -34.860  13.093  -6.131  1.00 20.00    -0.326 OA
HETATM   10  C8  UNL     1     -35.284  13.297  -7.482  1.00 20.00     0.213 C 
ENDBRANCH   7   9
ENDBRANCH   3   7
TORSDOF 2
ENDMDL
MODEL 5
REMARK VINA RESULT:      -4.3      1.348      2.361
REMARK  2 active torsions:
REMARK  status: ('A' for Active; 'I' for Inactive)
REMARK    1  A    between atoms: C3_3  and  C4_4 
REMARK    2  A    between atoms: C3_3  and  O10_10 
ROOT
HETATM    1  C1  UNL     1     -33.696   6.720   4.982  1.00 20.00    -0.066 A 
HETATM    2  C2  UNL     1     -33.636   7.589   5.969  1.00 20.00     0.016 C 
HETATM    3  C4  UNL     1     -33.051   6.199   3.841  1.00 20.00     0.126 A 
HETATM    4  C5  UNL     1     -34.454   5.686   4.378  1.00 20.00    -0.008 A 
HETATM    5  C6  UNL     1     -35.714   6.056   3.642  1.00 20.00     0.021 C 
HETATM    6  C7  UNL     1     -34.491   4.336   5.040  1.00 20.00     0.021 C 
ENDROOT
BRANCH   3   7
HETATM    7  C3  UNL     1     -32.978   7.093   2.683  1.00 20.00     0.267 C 
HETATM    8  O9  UNL     1     -33.557   6.889   1.624  1.00 20.00    -0.264 OA
BRANCH   7   9
HETATM    9  O10 UNL     1     -32.179   8.157   2.978  1.00 20.00    -0.326 OA
HETATM   10  C8  UNL     1     -32.009   9.108   1.923  1.00 20.00     0.213 C 
ENDBRANCH   7   9
ENDBRANCH   3   7
TORSDOF 2
ENDMDL
MODEL 6
REMARK VINA RESULT:      -4.3     10.263     11.729
REMARK  2 active torsions:
REMARK  status: ('A' for Active; 'I' for Inactive)
REMARK    1  A    between atoms: C3_3  and  C4_4 
REMARK    2  A    between atoms: C3_3  and  O10_10 
ROOT
HETATM    1  C1  UNL     1     -35.053  16.096  -3.582  1.00 20.00    -0.066 A 
HETATM    2  C2  UNL     1     -34.627  16.466  -2.392  1.00 20.00     0.016 C 
HETATM    3  C4  UNL     1     -35.703  15.093  -4.332  1.00 20.00     0.126 A 
HETATM    4  C5  UNL     1     -35.166  16.455  -4.948  1.00 20.00    -0.008 A 
HETATM    5  C6  UNL     1     -33.923  16.451  -5.797  1.00 20.00     0.021 C 
HETATM    6  C7  UNL     1     -36.187  17.486  -5.342  1.00 20.00     0.021 C 
ENDROOT
BRANCH   3   7
HETATM    7  C3  UNL     1     -34.955  13.847  -4.517  1.00 20.00     0.267 C 
HETATM    8  O9  UNL     1     -33.862  13.624  -4.013  1.00 20.00    -0.264 OA
BRANCH   7   9
HETATM    9  O10 UNL     1     -35.662  13.006  -5.322  1.00 20.00    -0.326 OA
HETATM   10  C8  UNL     1     -35.434  13.163  -6.726  1.00 20.00     0.213 C 
ENDBRANCH   7   9
ENDBRANCH   3   7
TORSDOF 2
ENDMDL
MODEL 7
REMARK VINA RESULT:      -4.2     10.914     11.990
REMARK  2 active torsions:
REMARK  status: ('A' for Active; 'I' for Inactive)
REMARK    1  A    between atoms: C3_3  and  C4_4 
REMARK    2  A    between atoms: C3_3  and  O10_10 
ROOT
HETATM    1  C1  UNL     1     -36.770  15.284  -5.005  1.00 20.00    -0.066 A 
HETATM    2  C2  UNL     1     -38.003  15.170  -4.559  1.00 20.00     0.016 C 
HETATM    3  C4  UNL     1     -35.838  14.882  -5.985  1.00 20.00     0.126 A 
HETATM    4  C5  UNL     1     -35.510  15.905  -4.816  1.00 20.00    -0.008 A 
HETATM    5  C6  UNL     1     -34.659  15.464  -3.656  1.00 20.00     0.021 C 
HETATM    6  C7  UNL     1     -35.357  17.355  -5.187  1.00 20.00     0.021 C 
ENDROOT
BRANCH   3   7
HETATM    7  C3  UNL     1     -35.386  13.492  -5.905  1.00 20.00     0.267 C 
HETATM    8  O9  UNL     1     -35.938  12.630  -5.233  1.00 20.00    -0.264 OA
BRANCH   7   9
HETATM    9  O10 UNL     1     -34.280  13.327  -6.683  1.00 20.00    -0.326 OA
HETATM   10  C8  UNL     1     -34.245  14.115  -7.877  1.00 20.00     0.213 C 
ENDBRANCH   7   9
ENDBRANCH   3   7
TORSDOF 2
ENDMDL
MODEL 8
REMARK VINA RESULT:      -4.1     10.468     11.685
REMARK  2 active torsions:
REMARK  status: ('A' for Active; 'I' for Inactive)
REMARK    1  A    between atoms: C3_3  and  C4_4 
REMARK    2  A    between atoms: C3_3  and  O10_10 
ROOT
HETATM    1  C1  UNL     1     -35.261  15.715  -4.000  1.00 20.00    -0.066 A 
HETATM    2  C2  UNL     1     -35.711  16.251  -2.886  1.00 20.00     0.016 C 
HETATM    3  C4  UNL     1     -35.602  15.124  -5.236  1.00 20.00     0.126 A 
HETATM    4  C5  UNL     1     -34.110  15.362  -4.748  1.00 20.00    -0.008 A 
HETATM    5  C6  UNL     1     -33.282  14.194  -4.283  1.00 20.00     0.021 C 
HETATM    6  C7  UNL     1     -33.326  16.453  -5.425  1.00 20.00     0.021 C 
ENDROOT
BRANCH   3   7
HETATM    7  C3  UNL     1     -36.205  13.792  -5.162  1.00 20.00     0.267 C 
HETATM    8  O9  UNL     1     -35.652  12.768  -5.541  1.00 20.00    -0.264 OA
BRANCH   7   9
HETATM    9  O10 UNL     1     -37.452  13.885  -4.618  1.00 20.00    -0.326 OA
HETATM   10  C8  UNL     1     -38.406  14.617  -5.393  1.00 20.00     0.213 C 
ENDBRANCH   7   9
ENDBRANCH   3   7
TORSDOF 2
ENDMDL
MODEL 9
REMARK VINA RESULT:      -4.1      2.133      3.769
REMARK  2 active torsions:
REMARK  status: ('A' for Active; 'I' for Inactive)
REMARK    1  A    between atoms: C3_3  and  C4_4 
REMARK    2  A    between atoms: C3_3  and  O10_10 
ROOT
HETATM    1  C1  UNL     1     -32.736   7.460   3.134  1.00 20.00    -0.066 A 
HETATM    2  C2  UNL     1     -31.637   8.182   3.078  1.00 20.00     0.016 C 
HETATM    3  C4  UNL     1     -33.999   7.296   3.745  1.00 20.00     0.126 A 
HETATM    4  C5  UNL     1     -33.430   6.341   2.610  1.00 20.00    -0.008 A 
HETATM    5  C6  UNL     1     -32.945   4.963   2.969  1.00 20.00     0.021 C 
HETATM    6  C7  UNL     1     -34.046   6.450   1.242  1.00 20.00     0.021 C 
ENDROOT
BRANCH   3   7
HETATM    7  C3  UNL     1     -33.980   6.876   5.147  1.00 20.00     0.267 C 
HETATM    8  O9  UNL     1     -33.183   7.295   5.977  1.00 20.00    -0.264 OA
BRANCH   7   9
HETATM    9  O10 UNL     1     -34.972   5.967   5.364  1.00 20.00    -0.326 OA
HETATM   10  C8  UNL     1     -34.547   4.714   5.910  1.00 20.00     0.213 C 
ENDBRANCH   7   9
ENDBRANCH   3   7
TORSDOF 2
ENDMDL
