MODEL 1
REMARK VINA RESULT:      -4.0      0.000      0.000
REMARK  1 active torsions:
REMARK  status: ('A' for Active; 'I' for Inactive)
REMARK    1  A    between atoms: C3_3  and  C7_7 
ROOT
HETATM    1  C1  UNL     1     -34.180   6.036   5.739  1.00 20.00     0.346 C 
HETATM    2  C2  UNL     1     -33.279   5.887   3.556  1.00 20.00     0.233 C 
HETATM    3  C3  UNL     1     -33.219   7.423   3.715  1.00 20.00     0.081 C 
HETATM    4  C4  UNL     1     -33.498   5.508   2.088  1.00 20.00     0.044 C 
HETATM    5  C6  UNL     1     -34.500   3.983   4.523  1.00 20.00     0.311 C 
HETATM    6  N8  UNL     1     -34.392   5.436   4.418  1.00 20.00     0.098 N 
HETATM    7  S9  UNL     1     -33.525   7.704   5.485  1.00 20.00    -0.132 SA
ENDROOT
BRANCH   3   8
HETATM    8  C7  UNL     1     -31.886   8.027   3.303  1.00 20.00     0.013 C 
HETATM    9  C5  UNL     1     -31.999   8.815   2.037  1.00 20.00     0.006 C 
ENDBRANCH   3   8
TORSDOF 1
ENDMDL
MODEL 2
REMARK VINA RESULT:      -3.9      1.958      4.051
REMARK  1 active torsions:
REMARK  status: ('A' for Active; 'I' for Inactive)
REMARK    1  A    between atoms: C3_3  and  C7_7 
ROOT
HETATM    1  C1  UNL     1     -32.804   7.010   2.390  1.00 20.00     0.346 C 
HETATM    2  C2  UNL     1     -33.239   6.932   4.714  1.00 20.00     0.233 C 
HETATM    3  C3  UNL     1     -34.538   6.255   4.224  1.00 20.00     0.081 C 
HETATM    4  C4  UNL     1     -33.494   7.707   6.010  1.00 20.00     0.044 C 
HETATM    5  C6  UNL     1     -31.497   8.427   3.830  1.00 20.00     0.311 C 
HETATM    6  N8  UNL     1     -32.806   7.819   3.613  1.00 20.00     0.098 N 
HETATM    7  S9  UNL     1     -34.219   5.885   2.472  1.00 20.00    -0.132 SA
ENDROOT
BRANCH   3   8
HETATM    8  C7  UNL     1     -34.886   4.983   4.982  1.00 20.00     0.013 C 
HETATM    9  C5  UNL     1     -34.121   3.804   4.473  1.00 20.00     0.006 C 
ENDBRANCH   3   8
TORSDOF 1
ENDMDL
MODEL 3
REMARK VINA RESULT:      -3.7     11.860     12.180
REMARK  1 active torsions:
REMARK  status: ('A' for Active; 'I' for Inactive)
REMARK    1  A    between atoms: C3_3  and  C7_7 
ROOT
HETATM    1  C1  UNL     1     -37.000  15.360  -4.367  1.00 20.00     0.346 C 
HETATM    2  C2  UNL     1     -34.715  15.010  -3.863  1.00 20.00     0.233 C 
HETATM    3  C3  UNL     1     -34.800  16.504  -3.479  1.00 20.00     0.081 C 
HETATM    4  C4  UNL     1     -33.314  14.667  -4.377  1.00 20.00     0.044 C 
HETATM    5  C6  UNL     1     -35.934  13.401  -5.269  1.00 20.00     0.311 C 
HETATM    6  N8  UNL     1     -35.753  14.800  -4.896  1.00 20.00     0.098 N 
HETATM    7  S9  UNL     1     -36.582  16.860  -3.445  1.00 20.00    -0.132 SA
ENDROOT
BRANCH   3   8
HETATM    8  C7  UNL     1     -34.167  16.825  -2.133  1.00 20.00     0.013 C 
HETATM    9  C5  UNL     1     -35.195  17.029  -1.068  1.00 20.00     0.006 C 
ENDBRANCH   3   8
TORSDOF 1
ENDMDL
MODEL 4
REMARK VINA RESULT:      -3.7      1.707      2.307
REMARK  1 active torsions:
REMARK  status: ('A' for Active; 'I' for Inactive)
REMARK    1  A    between atoms: C3_3  and  C7_7 
ROOT
HETATM    1  C1  UNL     1     -34.031   4.529   3.770  1.00 20.00     0.346 C 
HETATM    2  C2  UNL     1     -33.857   6.751   4.562  1.00 20.00     0.233 C 
HETATM    3  C3  UNL     1     -32.852   6.854   3.394  1.00 20.00     0.081 C 
HETATM    4  C4  UNL     1     -33.453   7.691   5.703  1.00 20.00     0.044 C 
HETATM    5  C6  UNL     1     -34.859   5.007   5.978  1.00 20.00     0.311 C 
HETATM    6  N8  UNL     1     -33.844   5.333   4.981  1.00 20.00     0.098 N 
HETATM    7  S9  UNL     1     -33.130   5.340   2.427  1.00 20.00    -0.132 SA
ENDROOT
BRANCH   3   8
HETATM    8  C7  UNL     1     -33.053   8.086   2.524  1.00 20.00     0.013 C 
HETATM    9  C5  UNL     1     -31.810   8.450   1.778  1.00 20.00     0.006 C 
ENDBRANCH   3   8
TORSDOF 1
ENDMDL
MODEL 5
REMARK VINA RESULT:      -3.5     11.672     12.489
REMARK  1 active torsions:
REMARK  status: ('A' for Active; 'I' for Inactive)
REMARK    1  A    between atoms: C3_3  and  C7_7 
ROOT
HETATM    1  C1  UNL     1     -37.115  14.713  -5.179  1.00 20.00     0.346 C 
HETATM    2  C2  UNL     1     -35.452  15.786  -3.883  1.00 20.00     0.233 C 
HETATM    3  C3  UNL     1     -34.752  14.419  -4.053  1.00 20.00     0.081 C 
HETATM    4  C4  UNL     1     -35.065  16.424  -2.545  1.00 20.00     0.044 C 
HETATM    5  C6  UNL     1     -37.728  16.712  -3.988  1.00 20.00     0.311 C 
HETATM    6  N8  UNL     1     -36.902  15.509  -3.966  1.00 20.00     0.098 N 
HETATM    7  S9  UNL     1     -35.716  13.578  -5.344  1.00 20.00    -0.132 SA
ENDROOT
BRANCH   3   8
HETATM    8  C7  UNL     1     -33.292  14.529  -4.464  1.00 20.00     0.013 C 
HETATM    9  C5  UNL     1     -33.087  15.567  -5.521  1.00 20.00     0.006 C 
ENDBRANCH   3   8
TORSDOF 1
ENDMDL
MODEL 6
REMARK VINA RESULT:      -3.4     12.152     12.915
REMARK  1 active torsions:
REMARK  status: ('A' for Active; 'I' for Inactive)
REMARK    1  A    between atoms: C3_3  and  C7_7 
ROOT
HETATM    1  C1  UNL     1     -33.353  15.802  -6.366  1.00 20.00     0.346 C 
HETATM    2  C2  UNL     1     -35.264  14.722  -5.484  1.00 20.00     0.233 C 
HETATM    3  C3  UNL     1     -34.752  15.367  -4.177  1.00 20.00     0.081 C 
HETATM    4  C4  UNL     1     -35.984  13.403  -5.186  1.00 20.00     0.044 C 
HETATM    5  C6  UNL     1     -34.377  14.067  -7.683  1.00 20.00     0.311 C 
HETATM    6  N8  UNL     1     -34.068  14.523  -6.331  1.00 20.00     0.098 N 
HETATM    7  S9  UNL     1     -33.488  16.553  -4.725  1.00 20.00    -0.132 SA
ENDROOT
BRANCH   3   8
HETATM    8  C7  UNL     1     -35.837  16.075  -3.380  1.00 20.00     0.013 C 
HETATM    9  C5  UNL     1     -35.313  16.629  -2.094  1.00 20.00     0.006 C 
ENDBRANCH   3   8
TORSDOF 1
ENDMDL
MODEL 7
REMARK VINA RESULT:      -3.4     11.840     13.055
REMARK  1 active torsions:
REMARK  status: ('A' for Active; 'I' for Inactive)
REMARK    1  A    between atoms: C3_3  and  C7_7 
ROOT
HETATM    1  C1  UNL     1     -33.736  17.282  -5.878  1.00 20.00     0.346 C 
HETATM    2  C2  UNL     1     -34.504  15.504  -4.518  1.00 20.00     0.233 C 
HETATM    3  C3  UNL     1     -33.949  16.413  -3.400  1.00 20.00     0.081 C 
HETATM    4  C4  UNL     1     -34.378  14.029  -4.123  1.00 20.00     0.044 C 
HETATM    5  C6  UNL     1     -34.205  15.173  -6.938  1.00 20.00     0.311 C 
HETATM    6  N8  UNL     1     -33.713  15.824  -5.727  1.00 20.00     0.098 N 
HETATM    7  S9  UNL     1     -33.650  18.007  -4.222  1.00 20.00    -0.132 SA
ENDROOT
BRANCH   3   8
HETATM    8  C7  UNL     1     -34.902  16.589  -2.228  1.00 20.00     0.013 C 
HETATM    9  C5  UNL     1     -34.269  17.344  -1.103  1.00 20.00     0.006 C 
ENDBRANCH   3   8
TORSDOF 1
ENDMDL
MODEL 8
REMARK VINA RESULT:      -3.3     12.086     12.904
REMARK  1 active torsions:
REMARK  status: ('A' for Active; 'I' for Inactive)
REMARK    1  A    between atoms: C3_3  and  C7_7 
ROOT
HETATM    1  C1  UNL     1     -35.764  15.740  -6.455  1.00 20.00     0.346 C 
HETATM    2  C2  UNL     1     -34.354  14.901  -4.751  1.00 20.00     0.233 C 
HETATM    3  C3  UNL     1     -34.579  16.316  -4.174  1.00 20.00     0.081 C 
HETATM    4  C4  UNL     1     -32.970  14.375  -4.358  1.00 20.00     0.044 C 
HETATM    5  C6  UNL     1     -34.481  13.760  -6.926  1.00 20.00     0.311 C 
HETATM    6  N8  UNL     1     -34.501  15.035  -6.216  1.00 20.00     0.098 N 
HETATM    7  S9  UNL     1     -35.948  16.992  -5.160  1.00 20.00    -0.132 SA
ENDROOT
BRANCH   3   8
HETATM    8  C7  UNL     1     -34.935  16.322  -2.695  1.00 20.00     0.013 C 
HETATM    9  C5  UNL     1     -33.915  17.049  -1.879  1.00 20.00     0.006 C 
ENDBRANCH   3   8
TORSDOF 1
ENDMDL
MODEL 9
REMARK VINA RESULT:      -3.2     11.858     12.740
REMARK  1 active torsions:
REMARK  status: ('A' for Active; 'I' for Inactive)
REMARK    1  A    between atoms: C3_3  and  C7_7 
ROOT
HETATM    1  C1  UNL     1     -36.661  15.394  -4.521  1.00 20.00     0.346 C 
HETATM    2  C2  UNL     1     -34.390  14.901  -4.964  1.00 20.00     0.233 C 
HETATM    3  C3  UNL     1     -35.029  13.801  -5.840  1.00 20.00     0.081 C 
HETATM    4  C4  UNL     1     -33.036  14.435  -4.419  1.00 20.00     0.044 C 
HETATM    5  C6  UNL     1     -35.000  16.305  -3.038  1.00 20.00     0.311 C 
HETATM    6  N8  UNL     1     -35.361  15.170  -3.882  1.00 20.00     0.098 N 
HETATM    7  S9  UNL     1     -36.787  14.257  -5.924  1.00 20.00    -0.132 SA
ENDROOT
BRANCH   3   8
HETATM    8  C7  UNL     1     -34.434  13.712  -7.237  1.00 20.00     0.013 C 
HETATM    9  C5  UNL     1     -34.238  15.063  -7.847  1.00 20.00     0.006 C 
ENDBRANCH   3   8
TORSDOF 1
ENDMDL
