MODEL 1
REMARK VINA RESULT:      -6.4      0.000      0.000
REMARK  1 active torsions:
REMARK  status: ('A' for Active; 'I' for Inactive)
REMARK    1  A    between atoms: C1_1  and  C8_8 
ROOT
HETATM    1  C2  UNL     1     -34.462   6.365   5.941  1.00 20.00     0.001 C 
HETATM    2  C3  UNL     1     -34.713   5.217   4.978  1.00 20.00     0.001 C 
HETATM    3  C4  UNL     1     -33.316   7.124   5.282  1.00 20.00     0.010 C 
HETATM    4  C5  UNL     1     -34.657   5.892   3.612  1.00 20.00     0.010 C 
HETATM    5  C6  UNL     1     -32.327   6.869   2.877  1.00 20.00     0.023 C 
HETATM    6  C7  UNL     1     -33.889   8.313   3.015  1.00 20.00     0.023 C 
HETATM    7  C8  UNL     1     -32.378   8.406   2.686  1.00 20.00     0.073 C 
HETATM    8  C9  UNL     1     -33.594   6.986   3.776  1.00 20.00    -0.039 C 
ENDROOT
BRANCH   7   9
HETATM    9  C1  UNL     1     -31.982   8.965   1.316  1.00 20.00     0.223 C 
HETATM   10  O10 UNL     1     -31.162   8.397   0.601  1.00 20.00    -0.279 OA
HETATM   11 CL11 UNL     1     -32.818  10.442   0.947  1.00 20.00    -0.043 Cl
ENDBRANCH   7   9
TORSDOF 1
ENDMDL
MODEL 2
REMARK VINA RESULT:      -5.9      3.203      4.775
REMARK  1 active torsions:
REMARK  status: ('A' for Active; 'I' for Inactive)
REMARK    1  A    between atoms: C1_1  and  C8_8 
ROOT
HETATM    1  C2  UNL     1     -32.649   9.409   1.369  1.00 20.00     0.001 C 
HETATM    2  C3  UNL     1     -31.258   8.890   1.691  1.00 20.00     0.001 C 
HETATM    3  C4  UNL     1     -33.530   8.181   1.571  1.00 20.00     0.010 C 
HETATM    4  C5  UNL     1     -31.481   8.054   2.946  1.00 20.00     0.010 C 
HETATM    5  C6  UNL     1     -32.943   5.884   2.670  1.00 20.00     0.023 C 
HETATM    6  C7  UNL     1     -33.731   7.315   4.039  1.00 20.00     0.023 C 
HETATM    7  C8  UNL     1     -34.240   5.948   3.514  1.00 20.00     0.073 C 
HETATM    8  C9  UNL     1     -32.871   7.439   2.746  1.00 20.00    -0.039 C 
ENDROOT
BRANCH   7   9
HETATM    9  C1  UNL     1     -34.476   4.836   4.540  1.00 20.00     0.223 C 
HETATM   10  O10 UNL     1     -34.444   3.651   4.224  1.00 20.00    -0.279 OA
HETATM   11 CL11 UNL     1     -34.781   5.467   6.129  1.00 20.00    -0.043 Cl
ENDBRANCH   7   9
TORSDOF 1
ENDMDL
MODEL 3
REMARK VINA RESULT:      -5.0     10.646     11.609
REMARK  1 active torsions:
REMARK  status: ('A' for Active; 'I' for Inactive)
REMARK    1  A    between atoms: C1_1  and  C8_8 
ROOT
HETATM    1  C2  UNL     1     -33.368  18.434  -2.967  1.00 20.00     0.001 C 
HETATM    2  C3  UNL     1     -33.321  17.613  -1.688  1.00 20.00     0.001 C 
HETATM    3  C4  UNL     1     -33.625  17.384  -4.042  1.00 20.00     0.010 C 
HETATM    4  C5  UNL     1     -34.498  16.656  -1.848  1.00 20.00     0.010 C 
HETATM    5  C6  UNL     1     -34.315  14.877  -3.778  1.00 20.00     0.023 C 
HETATM    6  C7  UNL     1     -35.969  16.210  -3.955  1.00 20.00     0.023 C 
HETATM    7  C8  UNL     1     -35.425  15.064  -4.843  1.00 20.00     0.073 C 
HETATM    8  C9  UNL     1     -34.541  16.359  -3.351  1.00 20.00    -0.039 C 
ENDROOT
BRANCH   7   9
HETATM    9  C1  UNL     1     -36.352  13.877  -5.119  1.00 20.00     0.223 C 
HETATM   10  O10 UNL     1     -35.919  12.734  -5.233  1.00 20.00    -0.279 OA
HETATM   11 CL11 UNL     1     -38.015  14.361  -5.242  1.00 20.00    -0.043 Cl
ENDBRANCH   7   9
TORSDOF 1
ENDMDL
MODEL 4
REMARK VINA RESULT:      -5.0     10.566     11.435
REMARK  1 active torsions:
REMARK  status: ('A' for Active; 'I' for Inactive)
REMARK    1  A    between atoms: C1_1  and  C8_8 
ROOT
HETATM    1  C2  UNL     1     -35.210  16.644  -1.823  1.00 20.00     0.001 C 
HETATM    2  C3  UNL     1     -33.915  17.278  -2.304  1.00 20.00     0.001 C 
HETATM    3  C4  UNL     1     -35.812  16.074  -3.102  1.00 20.00     0.010 C 
HETATM    4  C5  UNL     1     -33.351  16.231  -3.258  1.00 20.00     0.010 C 
HETATM    5  C6  UNL     1     -34.721  15.783  -5.459  1.00 20.00     0.023 C 
HETATM    6  C7  UNL     1     -34.497  14.083  -4.193  1.00 20.00     0.023 C 
HETATM    7  C8  UNL     1     -35.244  14.327  -5.529  1.00 20.00     0.073 C 
HETATM    8  C9  UNL     1     -34.590  15.613  -3.916  1.00 20.00    -0.039 C 
ENDROOT
BRANCH   7   9
HETATM    9  C1  UNL     1     -34.832  13.481  -6.738  1.00 20.00     0.223 C 
HETATM   10  O10 UNL     1     -35.111  12.288  -6.815  1.00 20.00    -0.279 OA
HETATM   11 CL11 UNL     1     -33.959  14.409  -7.918  1.00 20.00    -0.043 Cl
ENDBRANCH   7   9
TORSDOF 1
ENDMDL
MODEL 5
REMARK VINA RESULT:      -4.9     10.785     11.704
REMARK  1 active torsions:
REMARK  status: ('A' for Active; 'I' for Inactive)
REMARK    1  A    between atoms: C1_1  and  C8_8 
ROOT
HETATM    1  C2  UNL     1     -33.211  17.890  -1.713  1.00 20.00     0.001 C 
HETATM    2  C3  UNL     1     -33.380  18.810  -2.911  1.00 20.00     0.001 C 
HETATM    3  C4  UNL     1     -34.146  16.729  -2.036  1.00 20.00     0.010 C 
HETATM    4  C5  UNL     1     -33.358  17.848  -4.093  1.00 20.00     0.010 C 
HETATM    5  C6  UNL     1     -35.367  16.160  -4.275  1.00 20.00     0.023 C 
HETATM    6  C7  UNL     1     -33.453  15.242  -4.083  1.00 20.00     0.023 C 
HETATM    7  C8  UNL     1     -34.898  14.687  -4.164  1.00 20.00     0.073 C 
HETATM    8  C9  UNL     1     -34.047  16.585  -3.564  1.00 20.00    -0.039 C 
ENDROOT
BRANCH   7   9
HETATM    9  C1  UNL     1     -35.234  13.746  -5.324  1.00 20.00     0.223 C 
HETATM   10  O10 UNL     1     -35.964  12.771  -5.172  1.00 20.00    -0.279 OA
HETATM   11 CL11 UNL     1     -34.469  14.234  -6.805  1.00 20.00    -0.043 Cl
ENDBRANCH   7   9
TORSDOF 1
ENDMDL
MODEL 6
REMARK VINA RESULT:      -4.8      3.025      4.729
REMARK  1 active torsions:
REMARK  status: ('A' for Active; 'I' for Inactive)
REMARK    1  A    between atoms: C1_1  and  C8_8 
ROOT
HETATM    1  C2  UNL     1     -31.677   9.040   0.686  1.00 20.00     0.001 C 
HETATM    2  C3  UNL     1     -32.583  10.066   1.346  1.00 20.00     0.001 C 
HETATM    3  C4  UNL     1     -31.577   7.941   1.737  1.00 20.00     0.010 C 
HETATM    4  C5  UNL     1     -33.685   9.210   1.961  1.00 20.00     0.010 C 
HETATM    5  C6  UNL     1     -32.974   7.605   3.920  1.00 20.00     0.023 C 
HETATM    6  C7  UNL     1     -33.790   6.617   2.217  1.00 20.00     0.023 C 
HETATM    7  C8  UNL     1     -33.196   6.115   3.557  1.00 20.00     0.073 C 
HETATM    8  C9  UNL     1     -32.967   7.927   2.396  1.00 20.00    -0.039 C 
ENDROOT
BRANCH   7   9
HETATM    9  C1  UNL     1     -34.103   5.288   4.472  1.00 20.00     0.223 C 
HETATM   10  O10 UNL     1     -34.476   4.160   4.162  1.00 20.00    -0.279 OA
HETATM   11 CL11 UNL     1     -34.507   6.137   5.933  1.00 20.00    -0.043 Cl
ENDBRANCH   7   9
TORSDOF 1
ENDMDL
MODEL 7
REMARK VINA RESULT:      -4.6     10.769     11.474
REMARK  1 active torsions:
REMARK  status: ('A' for Active; 'I' for Inactive)
REMARK    1  A    between atoms: C1_1  and  C8_8 
ROOT
HETATM    1  C2  UNL     1     -34.071  17.787  -1.335  1.00 20.00     0.001 C 
HETATM    2  C3  UNL     1     -35.358  17.026  -1.059  1.00 20.00     0.001 C 
HETATM    3  C4  UNL     1     -33.371  16.916  -2.372  1.00 20.00     0.010 C 
HETATM    4  C5  UNL     1     -35.822  16.616  -2.452  1.00 20.00     0.010 C 
HETATM    5  C6  UNL     1     -34.305  14.894  -3.739  1.00 20.00     0.023 C 
HETATM    6  C7  UNL     1     -34.538  16.773  -4.717  1.00 20.00     0.023 C 
HETATM    7  C8  UNL     1     -33.722  15.497  -5.042  1.00 20.00     0.073 C 
HETATM    8  C9  UNL     1     -34.522  16.347  -3.219  1.00 20.00    -0.039 C 
ENDROOT
BRANCH   7   9
HETATM    9  C1  UNL     1     -34.026  14.774  -6.357  1.00 20.00     0.223 C 
HETATM   10  O10 UNL     1     -34.242  13.567  -6.394  1.00 20.00    -0.279 OA
HETATM   11 CL11 UNL     1     -34.019  15.858  -7.715  1.00 20.00    -0.043 Cl
ENDBRANCH   7   9
TORSDOF 1
ENDMDL
MODEL 8
REMARK VINA RESULT:      -4.6     10.637     11.516
REMARK  1 active torsions:
REMARK  status: ('A' for Active; 'I' for Inactive)
REMARK    1  A    between atoms: C1_1  and  C8_8 
ROOT
HETATM    1  C2  UNL     1     -35.648  13.755  -4.964  1.00 20.00     0.001 C 
HETATM    2  C3  UNL     1     -35.972  14.895  -5.916  1.00 20.00     0.001 C 
HETATM    3  C4  UNL     1     -34.507  14.320  -4.125  1.00 20.00     0.010 C 
HETATM    4  C5  UNL     1     -35.949  16.120  -5.010  1.00 20.00     0.010 C 
HETATM    5  C6  UNL     1     -33.623  16.774  -3.971  1.00 20.00     0.023 C 
HETATM    6  C7  UNL     1     -35.134  16.313  -2.540  1.00 20.00     0.023 C 
HETATM    7  C8  UNL     1     -33.635  16.688  -2.424  1.00 20.00     0.073 C 
HETATM    8  C9  UNL     1     -34.849  15.813  -3.987  1.00 20.00    -0.039 C 
ENDROOT
BRANCH   7   9
HETATM    9  C1  UNL     1     -33.277  17.953  -1.639  1.00 20.00     0.223 C 
HETATM   10  O10 UNL     1     -32.470  18.771  -2.068  1.00 20.00    -0.279 OA
HETATM   11 CL11 UNL     1     -34.136  18.052  -0.132  1.00 20.00    -0.043 Cl
ENDBRANCH   7   9
TORSDOF 1
ENDMDL
MODEL 9
REMARK VINA RESULT:      -4.5     10.512     11.546
REMARK  1 active torsions:
REMARK  status: ('A' for Active; 'I' for Inactive)
REMARK    1  A    between atoms: C1_1  and  C8_8 
ROOT
HETATM    1  C2  UNL     1     -34.405  13.683  -7.102  1.00 20.00     0.001 C 
HETATM    2  C3  UNL     1     -35.815  13.427  -6.595  1.00 20.00     0.001 C 
HETATM    3  C4  UNL     1     -34.008  14.968  -6.384  1.00 20.00     0.010 C 
HETATM    4  C5  UNL     1     -35.701  13.707  -5.100  1.00 20.00     0.010 C 
HETATM    5  C6  UNL     1     -35.194  16.193  -4.403  1.00 20.00     0.023 C 
HETATM    6  C7  UNL     1     -33.723  14.780  -3.783  1.00 20.00     0.023 C 
HETATM    7  C8  UNL     1     -33.839  16.321  -3.662  1.00 20.00     0.073 C 
HETATM    8  C9  UNL     1     -34.684  14.850  -5.007  1.00 20.00    -0.039 C 
ENDROOT
BRANCH   7   9
HETATM    9  C1  UNL     1     -33.853  16.925  -2.255  1.00 20.00     0.223 C 
HETATM   10  O10 UNL     1     -32.870  17.493  -1.788  1.00 20.00    -0.279 OA
HETATM   11 CL11 UNL     1     -35.381  16.698  -1.462  1.00 20.00    -0.043 Cl
ENDBRANCH   7   9
TORSDOF 1
ENDMDL
