MODEL 1
REMARK VINA RESULT:      -5.9      0.000      0.000
REMARK  1 active torsions:
REMARK  status: ('A' for Active; 'I' for Inactive)
REMARK    1  A    between atoms: C1_1  and  C5_5 
ROOT
HETATM    1  C2  UNL     1     -31.686   8.005   3.358  1.00 20.00     0.011 A 
HETATM    2  C3  UNL     1     -32.524   8.331   2.118  1.00 20.00     0.011 A 
HETATM    3  C4  UNL     1     -33.179   5.806   2.835  1.00 20.00     0.023 A 
HETATM    4  C5  UNL     1     -34.071   6.739   3.673  1.00 20.00     0.064 A 
HETATM    5  C6  UNL     1     -32.865   7.220   3.003  1.00 20.00    -0.029 A 
ENDROOT
BRANCH   4   6
HETATM    6  C1  UNL     1     -34.092   6.571   5.128  1.00 20.00     0.128 C 
HETATM    7  C7  UNL     1     -34.606   5.257   5.650  1.00 20.00     0.091 C 
HETATM    8  O8  UNL     1     -33.705   7.460   5.886  1.00 20.00    -0.298 OA
ENDBRANCH   4   6
TORSDOF 1
ENDMDL
MODEL 2
REMARK VINA RESULT:      -5.8      1.044      1.240
REMARK  1 active torsions:
REMARK  status: ('A' for Active; 'I' for Inactive)
REMARK    1  A    between atoms: C1_1  and  C5_5 
ROOT
HETATM    1  C2  UNL     1     -31.930   7.778   3.407  1.00 20.00     0.011 A 
HETATM    2  C3  UNL     1     -32.761   8.100   2.161  1.00 20.00     0.011 A 
HETATM    3  C4  UNL     1     -33.291   5.521   2.782  1.00 20.00     0.023 A 
HETATM    4  C5  UNL     1     -34.248   6.377   3.632  1.00 20.00     0.064 A 
HETATM    5  C6  UNL     1     -33.057   6.944   3.002  1.00 20.00    -0.029 A 
ENDROOT
BRANCH   4   6
HETATM    6  C1  UNL     1     -34.286   6.159   5.080  1.00 20.00     0.128 C 
HETATM    7  C7  UNL     1     -33.817   7.295   5.948  1.00 20.00     0.091 C 
HETATM    8  O8  UNL     1     -34.684   5.100   5.564  1.00 20.00    -0.298 OA
ENDBRANCH   4   6
TORSDOF 1
ENDMDL
MODEL 3
REMARK VINA RESULT:      -5.4      1.042      3.377
REMARK  1 active torsions:
REMARK  status: ('A' for Active; 'I' for Inactive)
REMARK    1  A    between atoms: C1_1  and  C5_5 
ROOT
HETATM    1  C2  UNL     1     -34.480   5.638   5.659  1.00 20.00     0.011 A 
HETATM    2  C3  UNL     1     -34.467   4.303   4.907  1.00 20.00     0.011 A 
HETATM    3  C4  UNL     1     -34.998   6.209   3.062  1.00 20.00     0.023 A 
HETATM    4  C5  UNL     1     -33.465   6.143   3.189  1.00 20.00     0.064 A 
HETATM    5  C6  UNL     1     -34.349   5.579   4.206  1.00 20.00    -0.029 A 
ENDROOT
BRANCH   4   6
HETATM    6  C1  UNL     1     -32.728   7.382   3.454  1.00 20.00     0.128 C 
HETATM    7  C7  UNL     1     -32.192   8.120   2.257  1.00 20.00     0.091 C 
HETATM    8  O8  UNL     1     -32.559   7.800   4.598  1.00 20.00    -0.298 OA
ENDBRANCH   4   6
TORSDOF 1
ENDMDL
MODEL 4
REMARK VINA RESULT:      -4.9      2.391      4.263
REMARK  1 active torsions:
REMARK  status: ('A' for Active; 'I' for Inactive)
REMARK    1  A    between atoms: C1_1  and  C5_5 
ROOT
HETATM    1  C2  UNL     1     -33.001   6.173   2.622  1.00 20.00     0.011 A 
HETATM    2  C3  UNL     1     -33.794   6.861   3.737  1.00 20.00     0.011 A 
HETATM    3  C4  UNL     1     -31.514   8.285   3.437  1.00 20.00     0.023 A 
HETATM    4  C5  UNL     1     -32.509   8.837   2.400  1.00 20.00     0.064 A 
HETATM    5  C6  UNL     1     -32.703   7.539   3.042  1.00 20.00    -0.029 A 
ENDROOT
BRANCH   4   6
HETATM    6  C1  UNL     1     -32.092   8.913   0.998  1.00 20.00     0.128 C 
HETATM    7  C7  UNL     1     -33.009   9.648   0.058  1.00 20.00     0.091 C 
HETATM    8  O8  UNL     1     -31.042   8.403   0.608  1.00 20.00    -0.298 OA
ENDBRANCH   4   6
TORSDOF 1
ENDMDL
MODEL 5
REMARK VINA RESULT:      -4.8      1.541      3.398
REMARK  1 active torsions:
REMARK  status: ('A' for Active; 'I' for Inactive)
REMARK    1  A    between atoms: C1_1  and  C5_5 
ROOT
HETATM    1  C2  UNL     1     -33.893   5.160   3.545  1.00 20.00     0.011 A 
HETATM    2  C3  UNL     1     -35.279   5.734   3.855  1.00 20.00     0.011 A 
HETATM    3  C4  UNL     1     -33.515   7.179   5.312  1.00 20.00     0.023 A 
HETATM    4  C5  UNL     1     -33.565   7.833   3.919  1.00 20.00     0.064 A 
HETATM    5  C6  UNL     1     -34.057   6.477   4.154  1.00 20.00    -0.029 A 
ENDROOT
BRANCH   4   6
HETATM    6  C1  UNL     1     -32.307   8.048   3.199  1.00 20.00     0.128 C 
HETATM    7  C7  UNL     1     -32.398   8.182   1.703  1.00 20.00     0.091 C 
HETATM    8  O8  UNL     1     -31.229   8.119   3.789  1.00 20.00    -0.298 OA
ENDBRANCH   4   6
TORSDOF 1
ENDMDL
MODEL 6
REMARK VINA RESULT:      -4.7      1.556      2.385
REMARK  1 active torsions:
REMARK  status: ('A' for Active; 'I' for Inactive)
REMARK    1  A    between atoms: C1_1  and  C5_5 
ROOT
HETATM    1  C2  UNL     1     -32.913   9.344   1.451  1.00 20.00     0.011 A 
HETATM    2  C3  UNL     1     -31.616   8.795   0.848  1.00 20.00     0.011 A 
HETATM    3  C4  UNL     1     -31.467   8.340   3.510  1.00 20.00     0.023 A 
HETATM    4  C5  UNL     1     -32.240   7.151   2.910  1.00 20.00     0.064 A 
HETATM    5  C6  UNL     1     -32.065   8.406   2.182  1.00 20.00    -0.029 A 
ENDROOT
BRANCH   4   6
HETATM    6  C1  UNL     1     -33.544   6.802   3.480  1.00 20.00     0.128 C 
HETATM    7  C7  UNL     1     -33.764   7.145   4.928  1.00 20.00     0.091 C 
HETATM    8  O8  UNL     1     -34.418   6.257   2.806  1.00 20.00    -0.298 OA
ENDBRANCH   4   6
TORSDOF 1
ENDMDL
MODEL 7
REMARK VINA RESULT:      -4.7      1.977      3.178
REMARK  1 active torsions:
REMARK  status: ('A' for Active; 'I' for Inactive)
REMARK    1  A    between atoms: C1_1  and  C5_5 
ROOT
HETATM    1  C2  UNL     1     -32.850  10.563   1.212  1.00 20.00     0.011 A 
HETATM    2  C3  UNL     1     -33.243   9.846  -0.083  1.00 20.00     0.011 A 
HETATM    3  C4  UNL     1     -31.105   8.515   0.903  1.00 20.00     0.023 A 
HETATM    4  C5  UNL     1     -32.343   7.920   1.598  1.00 20.00     0.064 A 
HETATM    5  C6  UNL     1     -32.386   9.211   0.914  1.00 20.00    -0.029 A 
ENDROOT
BRANCH   4   6
HETATM    6  C1  UNL     1     -32.364   7.858   3.062  1.00 20.00     0.128 C 
HETATM    7  C7  UNL     1     -33.559   7.197   3.694  1.00 20.00     0.091 C 
HETATM    8  O8  UNL     1     -31.448   8.321   3.741  1.00 20.00    -0.298 OA
ENDBRANCH   4   6
TORSDOF 1
ENDMDL
MODEL 8
REMARK VINA RESULT:      -4.5      2.067      3.510
REMARK  1 active torsions:
REMARK  status: ('A' for Active; 'I' for Inactive)
REMARK    1  A    between atoms: C1_1  and  C5_5 
ROOT
HETATM    1  C2  UNL     1     -33.760   7.223   5.470  1.00 20.00     0.011 A 
HETATM    2  C3  UNL     1     -34.484   6.155   6.296  1.00 20.00     0.011 A 
HETATM    3  C4  UNL     1     -35.479   5.977   3.787  1.00 20.00     0.023 A 
HETATM    4  C5  UNL     1     -34.202   5.117   3.809  1.00 20.00     0.064 A 
HETATM    5  C6  UNL     1     -34.476   6.120   4.836  1.00 20.00    -0.029 A 
ENDROOT
BRANCH   4   6
HETATM    6  C1  UNL     1     -33.174   5.360   2.794  1.00 20.00     0.128 C 
HETATM    7  C7  UNL     1     -32.727   6.785   2.611  1.00 20.00     0.091 C 
HETATM    8  O8  UNL     1     -32.696   4.444   2.126  1.00 20.00    -0.298 OA
ENDBRANCH   4   6
TORSDOF 1
ENDMDL
MODEL 9
REMARK VINA RESULT:      -4.4      1.570      2.028
REMARK  1 active torsions:
REMARK  status: ('A' for Active; 'I' for Inactive)
REMARK    1  A    between atoms: C1_1  and  C5_5 
ROOT
HETATM    1  C2  UNL     1     -32.971   7.902   2.609  1.00 20.00     0.011 A 
HETATM    2  C3  UNL     1     -31.700   7.948   3.464  1.00 20.00     0.011 A 
HETATM    3  C4  UNL     1     -33.774   7.791   5.194  1.00 20.00     0.023 A 
HETATM    4  C5  UNL     1     -33.438   6.344   4.788  1.00 20.00     0.064 A 
HETATM    5  C6  UNL     1     -32.975   7.492   4.010  1.00 20.00    -0.029 A 
ENDROOT
BRANCH   4   6
HETATM    6  C1  UNL     1     -34.514   5.491   4.277  1.00 20.00     0.128 C 
HETATM    7  C7  UNL     1     -34.342   4.006   4.455  1.00 20.00     0.091 C 
HETATM    8  O8  UNL     1     -35.510   5.964   3.731  1.00 20.00    -0.298 OA
ENDBRANCH   4   6
TORSDOF 1
ENDMDL
