MODEL 1
REMARK VINA RESULT:      -6.0      0.000      0.000
REMARK  3 active torsions:
REMARK  status: ('A' for Active; 'I' for Inactive)
REMARK    1  A    between atoms: C1_1  and  C8_8 
REMARK    2  A    between atoms: C8_8  and  C9_9 
REMARK    3  A    between atoms: C9_9  and  C10_10 
ROOT
HETATM    1  C8  UNL     1     -32.447   7.799   3.002  1.00 20.00     0.055 C 
ENDROOT
BRANCH   1   2
HETATM    2  C1  UNL     1     -33.320   7.130   4.012  1.00 20.00     0.006 C 
HETATM    3  C2  UNL     1     -34.382   6.167   3.582  1.00 20.00     0.056 C 
HETATM    4  C3  UNL     1     -34.630   5.478   4.902  1.00 20.00     0.027 C 
HETATM    5  C4  UNL     1     -34.285   6.558   5.913  1.00 20.00     0.149 C 
HETATM    6  N11 UNL     1     -33.226   7.373   5.284  1.00 20.00    -0.298 NA
ENDBRANCH   1   2
BRANCH   1   7
HETATM    7  C9  UNL     1     -33.260   8.248   1.784  1.00 20.00     0.014 C 
BRANCH   7   8
HETATM    8  C10 UNL     1     -32.553   9.259   0.840  1.00 20.00    -0.051 C 
HETATM    9  C5  UNL     1     -32.551  10.674   1.441  1.00 20.00     0.014 C 
HETATM   10  C6  UNL     1     -33.228   9.296  -0.541  1.00 20.00     0.014 C 
HETATM   11  C7  UNL     1     -31.092   8.803   0.657  1.00 20.00     0.014 C 
ENDBRANCH   7   8
ENDBRANCH   1   7
TORSDOF 3
ENDMDL
MODEL 2
REMARK VINA RESULT:      -6.0      0.073      1.301
REMARK  3 active torsions:
REMARK  status: ('A' for Active; 'I' for Inactive)
REMARK    1  A    between atoms: C1_1  and  C8_8 
REMARK    2  A    between atoms: C8_8  and  C9_9 
REMARK    3  A    between atoms: C9_9  and  C10_10 
ROOT
HETATM    1  C8  UNL     1     -32.462   7.774   3.012  1.00 20.00     0.055 C 
ENDROOT
BRANCH   1   2
HETATM    2  C1  UNL     1     -33.345   7.077   3.994  1.00 20.00     0.006 C 
HETATM    3  C2  UNL     1     -34.377   6.098   3.529  1.00 20.00     0.056 C 
HETATM    4  C3  UNL     1     -34.642   5.390   4.836  1.00 20.00     0.027 C 
HETATM    5  C4  UNL     1     -34.344   6.466   5.866  1.00 20.00     0.149 C 
HETATM    6  N11 UNL     1     -33.287   7.309   5.271  1.00 20.00    -0.298 NA
ENDBRANCH   1   2
BRANCH   1   7
HETATM    7  C9  UNL     1     -33.265   8.266   1.804  1.00 20.00     0.014 C 
BRANCH   7   8
HETATM    8  C10 UNL     1     -32.520   9.245   0.857  1.00 20.00    -0.051 C 
HETATM    9  C5  UNL     1     -31.057   8.817   0.651  1.00 20.00     0.014 C 
HETATM   10  C6  UNL     1     -32.555  10.682   1.403  1.00 20.00     0.014 C 
HETATM   11  C7  UNL     1     -33.231   9.225  -0.511  1.00 20.00     0.014 C 
ENDBRANCH   7   8
ENDBRANCH   1   7
TORSDOF 3
ENDMDL
MODEL 3
REMARK VINA RESULT:      -5.5      1.424      4.971
REMARK  3 active torsions:
REMARK  status: ('A' for Active; 'I' for Inactive)
REMARK    1  A    between atoms: C1_1  and  C8_8 
REMARK    2  A    between atoms: C8_8  and  C9_9 
REMARK    3  A    between atoms: C9_9  and  C10_10 
ROOT
HETATM    1  C8  UNL     1     -32.283   7.398   3.203  1.00 20.00     0.055 C 
ENDROOT
BRANCH   1   2
HETATM    2  C1  UNL     1     -32.369   8.455   2.151  1.00 20.00     0.006 C 
HETATM    3  C2  UNL     1     -31.477   8.409   0.951  1.00 20.00     0.056 C 
HETATM    4  C3  UNL     1     -32.235   9.356   0.052  1.00 20.00     0.027 C 
HETATM    5  C4  UNL     1     -32.917  10.284   1.043  1.00 20.00     0.149 C 
HETATM    6  N11 UNL     1     -33.181   9.465   2.243  1.00 20.00    -0.298 NA
ENDBRANCH   1   2
BRANCH   1   7
HETATM    7  C9  UNL     1     -33.242   6.243   2.900  1.00 20.00     0.014 C 
BRANCH   7   8
HETATM    8  C10 UNL     1     -34.235   5.878   4.037  1.00 20.00    -0.051 C 
HETATM    9  C5  UNL     1     -33.957   6.704   5.305  1.00 20.00     0.014 C 
HETATM   10  C6  UNL     1     -34.160   4.381   4.381  1.00 20.00     0.014 C 
HETATM   11  C7  UNL     1     -35.662   6.196   3.549  1.00 20.00     0.014 C 
ENDBRANCH   7   8
ENDBRANCH   1   7
TORSDOF 3
ENDMDL
MODEL 4
REMARK VINA RESULT:      -5.5      1.431      4.956
REMARK  3 active torsions:
REMARK  status: ('A' for Active; 'I' for Inactive)
REMARK    1  A    between atoms: C1_1  and  C8_8 
REMARK    2  A    between atoms: C8_8  and  C9_9 
REMARK    3  A    between atoms: C9_9  and  C10_10 
ROOT
HETATM    1  C8  UNL     1     -32.276   7.409   3.208  1.00 20.00     0.055 C 
ENDROOT
BRANCH   1   2
HETATM    2  C1  UNL     1     -32.363   8.461   2.152  1.00 20.00     0.006 C 
HETATM    3  C2  UNL     1     -31.482   8.402   0.945  1.00 20.00     0.056 C 
HETATM    4  C3  UNL     1     -32.241   9.350   0.047  1.00 20.00     0.027 C 
HETATM    5  C4  UNL     1     -32.907  10.288   1.039  1.00 20.00     0.149 C 
HETATM    6  N11 UNL     1     -33.167   9.477   2.245  1.00 20.00    -0.298 NA
ENDBRANCH   1   2
BRANCH   1   7
HETATM    7  C9  UNL     1     -33.210   6.235   2.893  1.00 20.00     0.014 C 
BRANCH   7   8
HETATM    8  C10 UNL     1     -34.237   5.878   4.002  1.00 20.00    -0.051 C 
HETATM    9  C5  UNL     1     -34.142   4.393   4.392  1.00 20.00     0.014 C 
HETATM   10  C6  UNL     1     -35.673   6.192   3.552  1.00 20.00     0.014 C 
HETATM   11  C7  UNL     1     -33.917   6.732   5.246  1.00 20.00     0.014 C 
ENDBRANCH   7   8
ENDBRANCH   1   7
TORSDOF 3
ENDMDL
MODEL 5
REMARK VINA RESULT:      -4.6      9.968     11.370
REMARK  3 active torsions:
REMARK  status: ('A' for Active; 'I' for Inactive)
REMARK    1  A    between atoms: C1_1  and  C8_8 
REMARK    2  A    between atoms: C8_8  and  C9_9 
REMARK    3  A    between atoms: C9_9  and  C10_10 
ROOT
HETATM    1  C8  UNL     1     -34.453  14.340  -4.031  1.00 20.00     0.055 C 
ENDROOT
BRANCH   1   2
HETATM    2  C1  UNL     1     -34.652  14.034  -5.479  1.00 20.00     0.006 C 
HETATM    3  C2  UNL     1     -34.124  14.956  -6.532  1.00 20.00     0.056 C 
HETATM    4  C3  UNL     1     -34.173  14.020  -7.717  1.00 20.00     0.027 C 
HETATM    5  C4  UNL     1     -35.318  13.088  -7.360  1.00 20.00     0.149 C 
HETATM    6  N11 UNL     1     -35.312  12.991  -5.886  1.00 20.00    -0.298 NA
ENDBRANCH   1   2
BRANCH   1   7
HETATM    7  C9  UNL     1     -33.562  15.573  -3.848  1.00 20.00     0.014 C 
BRANCH   7   8
HETATM    8  C10 UNL     1     -34.222  16.775  -3.120  1.00 20.00    -0.051 C 
HETATM    9  C5  UNL     1     -33.323  17.304  -1.990  1.00 20.00     0.014 C 
HETATM   10  C6  UNL     1     -35.592  16.389  -2.538  1.00 20.00     0.014 C 
HETATM   11  C7  UNL     1     -34.430  17.905  -4.148  1.00 20.00     0.014 C 
ENDBRANCH   7   8
ENDBRANCH   1   7
TORSDOF 3
ENDMDL
MODEL 6
REMARK VINA RESULT:      -4.5      9.988     11.404
REMARK  3 active torsions:
REMARK  status: ('A' for Active; 'I' for Inactive)
REMARK    1  A    between atoms: C1_1  and  C8_8 
REMARK    2  A    between atoms: C8_8  and  C9_9 
REMARK    3  A    between atoms: C9_9  and  C10_10 
ROOT
HETATM    1  C8  UNL     1     -34.547  14.371  -4.014  1.00 20.00     0.055 C 
ENDROOT
BRANCH   1   2
HETATM    2  C1  UNL     1     -34.707  14.051  -5.464  1.00 20.00     0.006 C 
HETATM    3  C2  UNL     1     -34.175  14.978  -6.512  1.00 20.00     0.056 C 
HETATM    4  C3  UNL     1     -34.177  14.034  -7.690  1.00 20.00     0.027 C 
HETATM    5  C4  UNL     1     -35.309  13.079  -7.353  1.00 20.00     0.149 C 
HETATM    6  N11 UNL     1     -35.334  12.992  -5.879  1.00 20.00    -0.298 NA
ENDBRANCH   1   2
BRANCH   1   7
HETATM    7  C9  UNL     1     -33.602  15.560  -3.815  1.00 20.00     0.014 C 
BRANCH   7   8
HETATM    8  C10 UNL     1     -34.224  16.806  -3.129  1.00 20.00    -0.051 C 
HETATM    9  C5  UNL     1     -34.408  17.959  -4.129  1.00 20.00     0.014 C 
HETATM   10  C6  UNL     1     -33.355  17.286  -1.955  1.00 20.00     0.014 C 
HETATM   11  C7  UNL     1     -35.610  16.409  -2.580  1.00 20.00     0.014 C 
ENDBRANCH   7   8
ENDBRANCH   1   7
TORSDOF 3
ENDMDL
MODEL 7
REMARK VINA RESULT:      -4.3     10.409     11.176
REMARK  3 active torsions:
REMARK  status: ('A' for Active; 'I' for Inactive)
REMARK    1  A    between atoms: C1_1  and  C8_8 
REMARK    2  A    between atoms: C8_8  and  C9_9 
REMARK    3  A    between atoms: C9_9  and  C10_10 
ROOT
HETATM    1  C8  UNL     1     -32.853  18.251  -1.723  1.00 20.00     0.055 C 
ENDROOT
BRANCH   1   2
HETATM    2  C1  UNL     1     -32.347  18.522  -0.345  1.00 20.00     0.006 C 
HETATM    3  C2  UNL     1     -33.277  18.991   0.729  1.00 20.00     0.056 C 
HETATM    4  C3  UNL     1     -32.425  18.680   1.937  1.00 20.00     0.027 C 
HETATM    5  C4  UNL     1     -31.013  18.805   1.392  1.00 20.00     0.149 C 
HETATM    6  N11 UNL     1     -31.094  18.401  -0.027  1.00 20.00    -0.298 NA
ENDBRANCH   1   2
BRANCH   1   7
HETATM    7  C9  UNL     1     -33.849  17.087  -1.724  1.00 20.00     0.014 C 
BRANCH   7   8
HETATM    8  C10 UNL     1     -34.466  16.733  -3.104  1.00 20.00    -0.051 C 
HETATM    9  C5  UNL     1     -35.973  16.447  -2.984  1.00 20.00     0.014 C 
HETATM   10  C6  UNL     1     -33.769  15.513  -3.729  1.00 20.00     0.014 C 
HETATM   11  C7  UNL     1     -34.271  17.941  -4.042  1.00 20.00     0.014 C 
ENDBRANCH   7   8
ENDBRANCH   1   7
TORSDOF 3
ENDMDL
MODEL 8
REMARK VINA RESULT:      -4.2      9.999     11.024
REMARK  3 active torsions:
REMARK  status: ('A' for Active; 'I' for Inactive)
REMARK    1  A    between atoms: C1_1  and  C8_8 
REMARK    2  A    between atoms: C8_8  and  C9_9 
REMARK    3  A    between atoms: C9_9  and  C10_10 
ROOT
HETATM    1  C8  UNL     1     -33.440  16.945  -2.608  1.00 20.00     0.055 C 
ENDROOT
BRANCH   1   2
HETATM    2  C1  UNL     1     -33.287  17.775  -1.376  1.00 20.00     0.006 C 
HETATM    3  C2  UNL     1     -34.449  18.002  -0.462  1.00 20.00     0.056 C 
HETATM    4  C3  UNL     1     -33.701  18.465   0.765  1.00 20.00     0.027 C 
HETATM    5  C4  UNL     1     -32.456  19.106   0.177  1.00 20.00     0.149 C 
HETATM    6  N11 UNL     1     -32.169  18.358  -1.064  1.00 20.00    -0.298 NA
ENDBRANCH   1   2
BRANCH   1   7
HETATM    7  C9  UNL     1     -34.814  16.270  -2.649  1.00 20.00     0.014 C 
BRANCH   7   8
HETATM    8  C10 UNL     1     -35.203  15.619  -4.004  1.00 20.00    -0.051 C 
HETATM    9  C5  UNL     1     -34.568  14.227  -4.156  1.00 20.00     0.014 C 
HETATM   10  C6  UNL     1     -34.775  16.502  -5.188  1.00 20.00     0.014 C 
HETATM   11  C7  UNL     1     -36.737  15.464  -4.040  1.00 20.00     0.014 C 
ENDBRANCH   7   8
ENDBRANCH   1   7
TORSDOF 3
ENDMDL
MODEL 9
REMARK VINA RESULT:      -4.2     10.261     10.999
REMARK  3 active torsions:
REMARK  status: ('A' for Active; 'I' for Inactive)
REMARK    1  A    between atoms: C1_1  and  C8_8 
REMARK    2  A    between atoms: C8_8  and  C9_9 
REMARK    3  A    between atoms: C9_9  and  C10_10 
ROOT
HETATM    1  C8  UNL     1     -34.304  15.925  -3.290  1.00 20.00     0.055 C 
ENDROOT
BRANCH   1   2
HETATM    2  C1  UNL     1     -35.186  15.023  -4.089  1.00 20.00     0.006 C 
HETATM    3  C2  UNL     1     -36.635  15.343  -4.274  1.00 20.00     0.056 C 
HETATM    4  C3  UNL     1     -36.930  14.447  -5.452  1.00 20.00     0.027 C 
HETATM    5  C4  UNL     1     -35.935  13.314  -5.269  1.00 20.00     0.149 C 
HETATM    6  N11 UNL     1     -34.754  13.920  -4.622  1.00 20.00    -0.298 NA
ENDBRANCH   1   2
BRANCH   1   7
HETATM    7  C9  UNL     1     -35.033  16.448  -2.048  1.00 20.00     0.014 C 
BRANCH   7   8
HETATM    8  C10 UNL     1     -34.458  17.751  -1.430  1.00 20.00    -0.051 C 
HETATM    9  C5  UNL     1     -32.931  17.822  -1.602  1.00 20.00     0.014 C 
HETATM   10  C6  UNL     1     -34.805  17.859   0.063  1.00 20.00     0.014 C 
HETATM   11  C7  UNL     1     -35.088  18.951  -2.166  1.00 20.00     0.014 C 
ENDBRANCH   7   8
ENDBRANCH   1   7
TORSDOF 3
ENDMDL
