MODEL 1
REMARK VINA RESULT:      -5.0      0.000      0.000
REMARK  1 active torsions:
REMARK  status: ('A' for Active; 'I' for Inactive)
REMARK    1  A    between atoms: C3_3  and  C8_8 
ROOT
HETATM    1  C1  UNL     1     -33.141  15.150  -4.996  1.00 20.00    -0.024 C 
HETATM    2  C2  UNL     1     -33.492  15.453  -3.736  1.00 20.00    -0.021 C 
HETATM    3  C4  UNL     1     -34.224  17.158  -5.903  1.00 20.00     0.010 C 
HETATM    4  C5  UNL     1     -34.652  17.511  -4.458  1.00 20.00     0.014 C 
HETATM    5  C6  UNL     1     -35.900  15.341  -4.278  1.00 20.00     0.026 C 
HETATM    6  C7  UNL     1     -34.114  15.625  -6.057  1.00 20.00     0.019 C 
HETATM    7  C8  UNL     1     -35.511  15.031  -5.747  1.00 20.00     0.063 C 
HETATM    8  C9  UNL     1     -34.800  16.217  -3.610  1.00 20.00    -0.026 C 
HETATM    9  C11 UNL     1     -35.149  16.538  -2.159  1.00 20.00     0.019 C 
ENDROOT
BRANCH   7  10
HETATM   10  C3  UNL     1     -35.560  13.553  -6.007  1.00 20.00     0.128 C 
HETATM   11  C10 UNL     1     -35.132  13.091  -7.373  1.00 20.00     0.091 C 
HETATM   12  O12 UNL     1     -35.931  12.759  -5.144  1.00 20.00    -0.298 OA
ENDBRANCH   7  10
TORSDOF 1
ENDMDL
MODEL 2
REMARK VINA RESULT:      -4.6      2.164      3.886
REMARK  1 active torsions:
REMARK  status: ('A' for Active; 'I' for Inactive)
REMARK    1  A    between atoms: C3_3  and  C8_8 
ROOT
HETATM    1  C1  UNL     1     -35.017  17.167  -5.420  1.00 20.00    -0.024 C 
HETATM    2  C2  UNL     1     -35.898  16.155  -5.463  1.00 20.00    -0.021 C 
HETATM    3  C4  UNL     1     -33.172  15.744  -6.198  1.00 20.00     0.010 C 
HETATM    4  C5  UNL     1     -34.173  14.564  -6.235  1.00 20.00     0.014 C 
HETATM    5  C6  UNL     1     -34.635  14.856  -3.785  1.00 20.00     0.026 C 
HETATM    6  C7  UNL     1     -33.592  16.753  -5.106  1.00 20.00     0.019 C 
HETATM    7  C8  UNL     1     -33.585  15.997  -3.755  1.00 20.00     0.063 C 
HETATM    8  C9  UNL     1     -35.302  14.784  -5.189  1.00 20.00    -0.026 C 
HETATM    9  C11 UNL     1     -36.346  13.673  -5.254  1.00 20.00     0.019 C 
ENDROOT
BRANCH   7  10
HETATM   10  C3  UNL     1     -33.839  16.918  -2.597  1.00 20.00     0.128 C 
HETATM   11  C10 UNL     1     -35.094  16.678  -1.803  1.00 20.00     0.091 C 
HETATM   12  O12 UNL     1     -33.059  17.825  -2.312  1.00 20.00    -0.298 OA
ENDBRANCH   7  10
TORSDOF 1
ENDMDL
MODEL 3
REMARK VINA RESULT:      -4.6      1.175      2.033
REMARK  1 active torsions:
REMARK  status: ('A' for Active; 'I' for Inactive)
REMARK    1  A    between atoms: C3_3  and  C8_8 
ROOT
HETATM    1  C1  UNL     1     -34.593  15.486  -3.414  1.00 20.00    -0.024 C 
HETATM    2  C2  UNL     1     -35.143  16.706  -3.513  1.00 20.00    -0.021 C 
HETATM    3  C4  UNL     1     -33.049  15.906  -5.277  1.00 20.00     0.010 C 
HETATM    4  C5  UNL     1     -33.687  17.309  -5.415  1.00 20.00     0.014 C 
HETATM    5  C6  UNL     1     -35.936  16.268  -5.811  1.00 20.00     0.026 C 
HETATM    6  C7  UNL     1     -34.091  14.909  -4.723  1.00 20.00     0.019 C 
HETATM    7  C8  UNL     1     -35.268  14.870  -5.728  1.00 20.00     0.063 C 
HETATM    8  C9  UNL     1     -35.160  17.281  -4.920  1.00 20.00    -0.026 C 
HETATM    9  C11 UNL     1     -35.793  18.669  -4.974  1.00 20.00     0.019 C 
ENDROOT
BRANCH   7  10
HETATM   10  C3  UNL     1     -36.280  13.822  -5.364  1.00 20.00     0.128 C 
HETATM   11  C10 UNL     1     -37.700  14.286  -5.182  1.00 20.00     0.091 C 
HETATM   12  O12 UNL     1     -35.964  12.642  -5.223  1.00 20.00    -0.298 OA
ENDBRANCH   7  10
TORSDOF 1
ENDMDL
MODEL 4
REMARK VINA RESULT:      -4.5      1.014      2.480
REMARK  1 active torsions:
REMARK  status: ('A' for Active; 'I' for Inactive)
REMARK    1  A    between atoms: C3_3  and  C8_8 
ROOT
HETATM    1  C1  UNL     1     -36.070  16.042  -4.359  1.00 20.00    -0.024 C 
HETATM    2  C2  UNL     1     -35.790  17.024  -5.230  1.00 20.00    -0.021 C 
HETATM    3  C4  UNL     1     -33.771  15.995  -3.496  1.00 20.00     0.010 C 
HETATM    4  C5  UNL     1     -33.429  17.115  -4.508  1.00 20.00     0.014 C 
HETATM    5  C6  UNL     1     -34.124  15.634  -6.411  1.00 20.00     0.026 C 
HETATM    6  C7  UNL     1     -34.910  15.113  -4.056  1.00 20.00     0.019 C 
HETATM    7  C8  UNL     1     -34.405  14.503  -5.387  1.00 20.00     0.063 C 
HETATM    8  C9  UNL     1     -34.361  17.022  -5.748  1.00 20.00    -0.026 C 
HETATM    9  C11 UNL     1     -34.098  18.160  -6.730  1.00 20.00     0.019 C 
ENDROOT
BRANCH   7  10
HETATM   10  C3  UNL     1     -35.379  13.510  -5.951  1.00 20.00     0.128 C 
HETATM   11  C10 UNL     1     -35.685  13.620  -7.420  1.00 20.00     0.091 C 
HETATM   12  O12 UNL     1     -35.901  12.647  -5.246  1.00 20.00    -0.298 OA
ENDBRANCH   7  10
TORSDOF 1
ENDMDL
MODEL 5
REMARK VINA RESULT:      -4.4      1.509      2.645
REMARK  1 active torsions:
REMARK  status: ('A' for Active; 'I' for Inactive)
REMARK    1  A    between atoms: C3_3  and  C8_8 
ROOT
HETATM    1  C1  UNL     1     -34.744  14.091  -4.199  1.00 20.00    -0.024 C 
HETATM    2  C2  UNL     1     -34.165  15.274  -3.938  1.00 20.00    -0.021 C 
HETATM    3  C4  UNL     1     -34.138  14.190  -6.577  1.00 20.00     0.010 C 
HETATM    4  C5  UNL     1     -33.482  15.563  -6.295  1.00 20.00     0.014 C 
HETATM    5  C6  UNL     1     -35.679  16.466  -5.483  1.00 20.00     0.026 C 
HETATM    6  C7  UNL     1     -35.311  13.959  -5.599  1.00 20.00     0.019 C 
HETATM    7  C8  UNL     1     -36.331  15.101  -5.828  1.00 20.00     0.063 C 
HETATM    8  C9  UNL     1     -34.186  16.258  -5.096  1.00 20.00    -0.026 C 
HETATM    9  C11 UNL     1     -33.513  17.582  -4.745  1.00 20.00     0.019 C 
ENDROOT
BRANCH   7  10
HETATM   10  C3  UNL     1     -37.586  14.898  -5.029  1.00 20.00     0.128 C 
HETATM   11  C10 UNL     1     -38.118  16.095  -4.288  1.00 20.00     0.091 C 
HETATM   12  O12 UNL     1     -38.153  13.808  -4.984  1.00 20.00    -0.298 OA
ENDBRANCH   7  10
TORSDOF 1
ENDMDL
MODEL 6
REMARK VINA RESULT:      -4.4     11.407     12.440
REMARK  1 active torsions:
REMARK  status: ('A' for Active; 'I' for Inactive)
REMARK    1  A    between atoms: C3_3  and  C8_8 
ROOT
HETATM    1  C1  UNL     1     -34.801   6.179   2.229  1.00 20.00    -0.024 C 
HETATM    2  C2  UNL     1     -35.256   6.229   3.491  1.00 20.00    -0.021 C 
HETATM    3  C4  UNL     1     -33.082   4.517   2.792  1.00 20.00     0.010 C 
HETATM    4  C5  UNL     1     -33.584   4.578   4.255  1.00 20.00     0.014 C 
HETATM    5  C6  UNL     1     -33.082   7.035   4.345  1.00 20.00     0.026 C 
HETATM    6  C7  UNL     1     -33.320   5.878   2.101  1.00 20.00     0.019 C 
HETATM    7  C8  UNL     1     -32.529   6.943   2.899  1.00 20.00     0.063 C 
HETATM    8  C9  UNL     1     -34.200   5.973   4.555  1.00 20.00    -0.026 C 
HETATM    9  C11 UNL     1     -34.772   6.038   5.968  1.00 20.00     0.019 C 
ENDROOT
BRANCH   7  10
HETATM   10  C3  UNL     1     -32.570   8.287   2.231  1.00 20.00     0.128 C 
HETATM   11  C10 UNL     1     -31.607   8.508   1.095  1.00 20.00     0.091 C 
HETATM   12  O12 UNL     1     -33.352   9.164   2.593  1.00 20.00    -0.298 OA
ENDBRANCH   7  10
TORSDOF 1
ENDMDL
MODEL 7
REMARK VINA RESULT:      -4.3      1.975      3.980
REMARK  1 active torsions:
REMARK  status: ('A' for Active; 'I' for Inactive)
REMARK    1  A    between atoms: C3_3  and  C8_8 
ROOT
HETATM    1  C1  UNL     1     -33.130  14.810  -4.385  1.00 20.00    -0.024 C 
HETATM    2  C2  UNL     1     -32.987  15.424  -5.569  1.00 20.00    -0.021 C 
HETATM    3  C4  UNL     1     -35.378  13.996  -4.948  1.00 20.00     0.010 C 
HETATM    4  C5  UNL     1     -35.234  14.715  -6.311  1.00 20.00     0.014 C 
HETATM    5  C6  UNL     1     -34.911  16.911  -5.140  1.00 20.00     0.026 C 
HETATM    6  C7  UNL     1     -34.556  14.743  -3.873  1.00 20.00     0.019 C 
HETATM    7  C8  UNL     1     -35.117  16.183  -3.786  1.00 20.00     0.063 C 
HETATM    8  C9  UNL     1     -34.282  15.936  -6.177  1.00 20.00    -0.026 C 
HETATM    9  C11 UNL     1     -34.062  16.621  -7.523  1.00 20.00     0.019 C 
ENDROOT
BRANCH   7  10
HETATM   10  C3  UNL     1     -34.486  16.962  -2.667  1.00 20.00     0.128 C 
HETATM   11  C10 UNL     1     -35.152  16.872  -1.321  1.00 20.00     0.091 C 
HETATM   12  O12 UNL     1     -33.475  17.638  -2.843  1.00 20.00    -0.298 OA
ENDBRANCH   7  10
TORSDOF 1
ENDMDL
MODEL 8
REMARK VINA RESULT:      -4.3      1.457      2.015
REMARK  1 active torsions:
REMARK  status: ('A' for Active; 'I' for Inactive)
REMARK    1  A    between atoms: C3_3  and  C8_8 
ROOT
HETATM    1  C1  UNL     1     -34.167  16.835  -5.603  1.00 20.00    -0.024 C 
HETATM    2  C2  UNL     1     -33.390  17.312  -4.617  1.00 20.00    -0.021 C 
HETATM    3  C4  UNL     1     -36.196  17.829  -4.640  1.00 20.00     0.010 C 
HETATM    4  C5  UNL     1     -35.317  18.369  -3.488  1.00 20.00     0.014 C 
HETATM    5  C6  UNL     1     -34.619  16.031  -2.899  1.00 20.00     0.026 C 
HETATM    6  C7  UNL     1     -35.591  16.518  -5.190  1.00 20.00     0.019 C 
HETATM    7  C8  UNL     1     -35.552  15.504  -4.020  1.00 20.00     0.063 C 
HETATM    8  C9  UNL     1     -34.086  17.445  -3.272  1.00 20.00    -0.026 C 
HETATM    9  C11 UNL     1     -33.159  17.994  -2.191  1.00 20.00     0.019 C 
ENDROOT
BRANCH   7  10
HETATM   10  C3  UNL     1     -35.114  14.142  -4.475  1.00 20.00     0.128 C 
HETATM   11  C10 UNL     1     -36.031  13.418  -5.423  1.00 20.00     0.091 C 
HETATM   12  O12 UNL     1     -34.057  13.643  -4.091  1.00 20.00    -0.298 OA
ENDBRANCH   7  10
TORSDOF 1
ENDMDL
MODEL 9
REMARK VINA RESULT:      -4.3      2.301      4.146
REMARK  1 active torsions:
REMARK  status: ('A' for Active; 'I' for Inactive)
REMARK    1  A    between atoms: C3_3  and  C8_8 
ROOT
HETATM    1  C1  UNL     1     -33.892  16.600  -5.160  1.00 20.00    -0.024 C 
HETATM    2  C2  UNL     1     -35.167  16.361  -5.505  1.00 20.00    -0.021 C 
HETATM    3  C4  UNL     1     -33.628  14.376  -4.151  1.00 20.00     0.010 C 
HETATM    4  C5  UNL     1     -35.103  14.093  -4.527  1.00 20.00     0.014 C 
HETATM    5  C6  UNL     1     -35.849  16.055  -3.151  1.00 20.00     0.026 C 
HETATM    6  C7  UNL     1     -33.432  15.889  -3.902  1.00 20.00     0.019 C 
HETATM    7  C8  UNL     1     -34.372  16.287  -2.738  1.00 20.00     0.063 C 
HETATM    8  C9  UNL     1     -35.911  15.420  -4.571  1.00 20.00    -0.026 C 
HETATM    9  C11 UNL     1     -37.352  15.182  -5.012  1.00 20.00     0.019 C 
ENDROOT
BRANCH   7  10
HETATM   10  C3  UNL     1     -34.161  17.711  -2.311  1.00 20.00     0.128 C 
HETATM   11  C10 UNL     1     -32.875  18.019  -1.593  1.00 20.00     0.091 C 
HETATM   12  O12 UNL     1     -34.997  18.583  -2.538  1.00 20.00    -0.298 OA
ENDBRANCH   7  10
TORSDOF 1
ENDMDL
