MODEL 1
REMARK VINA RESULT:      -6.9      0.000      0.000
REMARK  1 active torsions:
REMARK  status: ('A' for Active; 'I' for Inactive)
REMARK    1  A    between atoms: C8_8  and  C9_9 
ROOT
HETATM    1  C1  UNL     1     -34.411   5.229   3.689  1.00 20.00     0.008 A 
HETATM    2  C2  UNL     1     -33.046   6.701   2.156  1.00 20.00     0.026 A 
HETATM    3  C3  UNL     1     -32.332   8.326   3.628  1.00 20.00     0.026 A 
HETATM    4  C4  UNL     1     -34.803   5.120   4.971  1.00 20.00    -0.022 A 
HETATM    5  C5  UNL     1     -33.533   7.256   5.580  1.00 20.00    -0.011 A 
HETATM    6  C6  UNL     1     -33.580   6.343   3.337  1.00 20.00    -0.026 A 
HETATM    7  C7  UNL     1     -33.151   7.349   4.300  1.00 20.00    -0.029 A 
HETATM    8  C8  UNL     1     -32.279   7.925   2.347  1.00 20.00     0.003 A 
HETATM    9  C10 UNL     1     -34.413   6.113   6.053  1.00 20.00     0.055 A 
ENDROOT
BRANCH   8  10
HETATM   10  C9  UNL     1     -31.552   8.624   1.301  1.00 20.00     0.269 C 
HETATM   11  O11 UNL     1     -32.013   9.591   0.695  1.00 20.00    -0.301 OA
ENDBRANCH   8  10
TORSDOF 1
ENDMDL
MODEL 2
REMARK VINA RESULT:      -5.2     11.133     11.515
REMARK  1 active torsions:
REMARK  status: ('A' for Active; 'I' for Inactive)
REMARK    1  A    between atoms: C8_8  and  C9_9 
ROOT
HETATM    1  C1  UNL     1     -35.544  17.447  -0.421  1.00 20.00     0.008 A 
HETATM    2  C2  UNL     1     -35.601  16.012  -2.500  1.00 20.00     0.026 A 
HETATM    3  C3  UNL     1     -33.467  16.332  -3.313  1.00 20.00     0.026 A 
HETATM    4  C4  UNL     1     -34.728  18.255   0.279  1.00 20.00    -0.022 A 
HETATM    5  C5  UNL     1     -32.844  17.878  -1.411  1.00 20.00    -0.011 A 
HETATM    6  C6  UNL     1     -35.026  16.846  -1.617  1.00 20.00    -0.026 A 
HETATM    7  C7  UNL     1     -33.669  17.076  -2.095  1.00 20.00    -0.029 A 
HETATM    8  C8  UNL     1     -34.631  15.701  -3.541  1.00 20.00     0.003 A 
HETATM    9  C10 UNL     1     -33.297  18.560  -0.133  1.00 20.00     0.055 A 
ENDROOT
BRANCH   8  10
HETATM   10  C9  UNL     1     -34.879  14.829  -4.677  1.00 20.00     0.269 C 
HETATM   11  O11 UNL     1     -34.978  13.606  -4.575  1.00 20.00    -0.301 OA
ENDBRANCH   8  10
TORSDOF 1
ENDMDL
MODEL 3
REMARK VINA RESULT:      -5.2     11.135     11.585
REMARK  1 active torsions:
REMARK  status: ('A' for Active; 'I' for Inactive)
REMARK    1  A    between atoms: C8_8  and  C9_9 
ROOT
HETATM    1  C1  UNL     1     -32.595  18.109  -1.161  1.00 20.00     0.008 A 
HETATM    2  C2  UNL     1     -33.402  16.572  -2.996  1.00 20.00     0.026 A 
HETATM    3  C3  UNL     1     -35.560  16.155  -2.302  1.00 20.00     0.026 A 
HETATM    4  C4  UNL     1     -33.004  18.696  -0.022  1.00 20.00    -0.022 A 
HETATM    5  C5  UNL     1     -35.311  17.611  -0.249  1.00 20.00    -0.011 A 
HETATM    6  C6  UNL     1     -33.530  17.273  -1.856  1.00 20.00    -0.026 A 
HETATM    7  C7  UNL     1     -34.886  17.036  -1.382  1.00 20.00    -0.029 A 
HETATM    8  C8  UNL     1     -34.659  15.887  -3.262  1.00 20.00     0.003 A 
HETATM    9  C10 UNL     1     -34.397  18.515   0.559  1.00 20.00     0.055 A 
ENDROOT
BRANCH   8  10
HETATM   10  C9  UNL     1     -34.914  15.028  -4.406  1.00 20.00     0.269 C 
HETATM   11  O11 UNL     1     -34.643  13.828  -4.418  1.00 20.00    -0.301 OA
ENDBRANCH   8  10
TORSDOF 1
ENDMDL
MODEL 4
REMARK VINA RESULT:      -5.1     11.248     11.728
REMARK  1 active torsions:
REMARK  status: ('A' for Active; 'I' for Inactive)
REMARK    1  A    between atoms: C8_8  and  C9_9 
ROOT
HETATM    1  C1  UNL     1     -32.212  18.507  -0.526  1.00 20.00     0.008 A 
HETATM    2  C2  UNL     1     -33.398  17.154  -2.299  1.00 20.00     0.026 A 
HETATM    3  C3  UNL     1     -35.467  16.867  -1.323  1.00 20.00     0.026 A 
HETATM    4  C4  UNL     1     -32.406  19.052   0.688  1.00 20.00    -0.022 A 
HETATM    5  C5  UNL     1     -34.807  18.169   0.742  1.00 20.00    -0.011 A 
HETATM    6  C6  UNL     1     -33.304  17.791  -1.119  1.00 20.00    -0.026 A 
HETATM    7  C7  UNL     1     -34.597  17.633  -0.467  1.00 20.00    -0.029 A 
HETATM    8  C8  UNL     1     -34.735  16.588  -2.415  1.00 20.00     0.003 A 
HETATM    9  C10 UNL     1     -33.714  18.946   1.454  1.00 20.00     0.055 A 
ENDROOT
BRANCH   8  10
HETATM   10  C9  UNL     1     -35.221  15.824  -3.552  1.00 20.00     0.269 C 
HETATM   11  O11 UNL     1     -34.766  14.725  -3.866  1.00 20.00    -0.301 OA
ENDBRANCH   8  10
TORSDOF 1
ENDMDL
MODEL 5
REMARK VINA RESULT:      -5.0     11.281     11.625
REMARK  1 active torsions:
REMARK  status: ('A' for Active; 'I' for Inactive)
REMARK    1  A    between atoms: C8_8  and  C9_9 
ROOT
HETATM    1  C1  UNL     1     -36.121  17.349  -1.733  1.00 20.00     0.008 A 
HETATM    2  C2  UNL     1     -36.134  15.597  -3.553  1.00 20.00     0.026 A 
HETATM    3  C3  UNL     1     -33.874  15.337  -3.928  1.00 20.00     0.026 A 
HETATM    4  C4  UNL     1     -35.280  18.096  -0.995  1.00 20.00    -0.022 A 
HETATM    5  C5  UNL     1     -33.263  17.053  -2.173  1.00 20.00    -0.011 A 
HETATM    6  C6  UNL     1     -35.550  16.450  -2.693  1.00 20.00    -0.026 A 
HETATM    7  C7  UNL     1     -34.114  16.317  -2.899  1.00 20.00    -0.029 A 
HETATM    8  C8  UNL     1     -35.092  14.916  -4.309  1.00 20.00     0.003 A 
HETATM    9  C10 UNL     1     -33.768  18.034  -1.130  1.00 20.00     0.055 A 
ENDROOT
BRANCH   8  10
HETATM   10  C9  UNL     1     -35.326  13.917  -5.338  1.00 20.00     0.269 C 
HETATM   11  O11 UNL     1     -35.925  12.863  -5.125  1.00 20.00    -0.301 OA
ENDBRANCH   8  10
TORSDOF 1
ENDMDL
MODEL 6
REMARK VINA RESULT:      -4.9     11.608     11.983
REMARK  1 active torsions:
REMARK  status: ('A' for Active; 'I' for Inactive)
REMARK    1  A    between atoms: C8_8  and  C9_9 
ROOT
HETATM    1  C1  UNL     1     -33.340  17.069  -2.844  1.00 20.00     0.008 A 
HETATM    2  C2  UNL     1     -32.200  18.187  -0.886  1.00 20.00     0.026 A 
HETATM    3  C3  UNL     1     -33.953  18.360   0.602  1.00 20.00     0.026 A 
HETATM    4  C4  UNL     1     -34.536  16.595  -3.237  1.00 20.00    -0.022 A 
HETATM    5  C5  UNL     1     -35.578  17.267  -0.999  1.00 20.00    -0.011 A 
HETATM    6  C6  UNL     1     -33.246  17.645  -1.534  1.00 20.00    -0.026 A 
HETATM    7  C7  UNL     1     -34.380  17.734  -0.624  1.00 20.00    -0.029 A 
HETATM    8  C8  UNL     1     -32.647  18.625   0.429  1.00 20.00     0.003 A 
HETATM    9  C10 UNL     1     -35.780  16.639  -2.366  1.00 20.00     0.055 A 
ENDROOT
BRANCH   8  10
HETATM   10  C9  UNL     1     -31.803  19.263   1.426  1.00 20.00     0.269 C 
HETATM   11  O11 UNL     1     -30.578  19.154   1.437  1.00 20.00    -0.301 OA
ENDBRANCH   8  10
TORSDOF 1
ENDMDL
MODEL 7
REMARK VINA RESULT:      -4.8     11.314     11.950
REMARK  1 active torsions:
REMARK  status: ('A' for Active; 'I' for Inactive)
REMARK    1  A    between atoms: C8_8  and  C9_9 
ROOT
HETATM    1  C1  UNL     1     -35.578  16.716  -1.656  1.00 20.00     0.008 A 
HETATM    2  C2  UNL     1     -35.475  17.645   0.691  1.00 20.00     0.026 A 
HETATM    3  C3  UNL     1     -33.391  18.631   0.683  1.00 20.00     0.026 A 
HETATM    4  C4  UNL     1     -34.858  16.635  -2.788  1.00 20.00    -0.022 A 
HETATM    5  C5  UNL     1     -32.944  17.947  -1.711  1.00 20.00    -0.011 A 
HETATM    6  C6  UNL     1     -34.997  17.410  -0.542  1.00 20.00    -0.026 A 
HETATM    7  C7  UNL     1     -33.675  18.019  -0.591  1.00 20.00    -0.029 A 
HETATM    8  C8  UNL     1     -34.478  18.398   1.439  1.00 20.00     0.003 A 
HETATM    9  C10 UNL     1     -33.471  17.236  -2.944  1.00 20.00     0.055 A 
ENDROOT
BRANCH   8  10
HETATM   10  C9  UNL     1     -34.627  18.842   2.815  1.00 20.00     0.269 C 
HETATM   11  O11 UNL     1     -34.009  18.339   3.753  1.00 20.00    -0.301 OA
ENDBRANCH   8  10
TORSDOF 1
ENDMDL
MODEL 8
REMARK VINA RESULT:      -4.6     11.475     12.092
REMARK  1 active torsions:
REMARK  status: ('A' for Active; 'I' for Inactive)
REMARK    1  A    between atoms: C8_8  and  C9_9 
ROOT
HETATM    1  C1  UNL     1     -35.482  16.876  -1.328  1.00 20.00     0.008 A 
HETATM    2  C2  UNL     1     -35.997  17.841   0.949  1.00 20.00     0.026 A 
HETATM    3  C3  UNL     1     -34.003  18.886   1.446  1.00 20.00     0.026 A 
HETATM    4  C4  UNL     1     -34.497  16.798  -2.240  1.00 20.00    -0.022 A 
HETATM    5  C5  UNL     1     -32.950  18.180  -0.743  1.00 20.00    -0.011 A 
HETATM    6  C6  UNL     1     -35.218  17.602  -0.119  1.00 20.00    -0.026 A 
HETATM    7  C7  UNL     1     -33.941  18.248   0.155  1.00 20.00    -0.029 A 
HETATM    8  C8  UNL     1     -35.239  18.633   1.908  1.00 20.00     0.003 A 
HETATM    9  C10 UNL     1     -33.130  17.436  -2.053  1.00 20.00     0.055 A 
ENDROOT
BRANCH   8  10
HETATM   10  C9  UNL     1     -35.741  19.093   3.192  1.00 20.00     0.269 C 
HETATM   11  O11 UNL     1     -36.864  18.815   3.612  1.00 20.00    -0.301 OA
ENDBRANCH   8  10
TORSDOF 1
ENDMDL
MODEL 9
REMARK VINA RESULT:      -4.5     11.643     12.011
REMARK  1 active torsions:
REMARK  status: ('A' for Active; 'I' for Inactive)
REMARK    1  A    between atoms: C8_8  and  C9_9 
ROOT
HETATM    1  C1  UNL     1     -31.385  19.072   2.694  1.00 20.00     0.008 A 
HETATM    2  C2  UNL     1     -31.827  18.757   0.227  1.00 20.00     0.026 A 
HETATM    3  C3  UNL     1     -34.077  18.255   0.243  1.00 20.00     0.026 A 
HETATM    4  C4  UNL     1     -32.004  19.039   3.887  1.00 20.00    -0.022 A 
HETATM    5  C5  UNL     1     -34.223  18.444   2.762  1.00 20.00    -0.011 A 
HETATM    6  C6  UNL     1     -32.170  18.795   1.526  1.00 20.00    -0.026 A 
HETATM    7  C7  UNL     1     -33.591  18.482   1.581  1.00 20.00    -0.029 A 
HETATM    8  C8  UNL     1     -33.010  18.424  -0.555  1.00 20.00     0.003 A 
HETATM    9  C10 UNL     1     -33.481  18.724   4.056  1.00 20.00     0.055 A 
ENDROOT
BRANCH   8  10
HETATM   10  C9  UNL     1     -33.042  18.289  -2.002  1.00 20.00     0.269 C 
HETATM   11  O11 UNL     1     -32.604  19.148  -2.766  1.00 20.00    -0.301 OA
ENDBRANCH   8  10
TORSDOF 1
ENDMDL
