MODEL 1
REMARK VINA RESULT:      -4.9      0.000      0.000
REMARK  0 active torsions:
REMARK  status: ('A' for Active; 'I' for Inactive)
ROOT
HETATM    1  C1  UNL     1     -32.302   7.595   2.293  1.00 20.00     0.020 A 
HETATM    2  C2  UNL     1     -32.229   8.030   3.647  1.00 20.00     0.038 A 
HETATM    3  C3  UNL     1     -33.241   6.579   2.213  1.00 20.00     0.093 A 
HETATM    4  C4  UNL     1     -33.125   7.256   4.325  1.00 20.00     0.073 A 
HETATM    5  C5  UNL     1     -34.646   5.497   4.015  1.00 20.00     0.085 A 
HETATM    6  C6  UNL     1     -34.836   5.812   5.326  1.00 20.00     0.065 A 
HETATM    7  C7  UNL     1     -34.453   4.476   5.026  1.00 20.00     0.061 A 
HETATM    8  N8  UNL     1     -33.702   6.353   3.482  1.00 20.00    -0.337 N 
HETATM    9  S9  UNL     1     -33.796   7.099   5.912  1.00 20.00    -0.097 SA
ENDROOT
TORSDOF 0
ENDMDL
MODEL 2
REMARK VINA RESULT:      -4.9      1.520      3.642
REMARK  0 active torsions:
REMARK  status: ('A' for Active; 'I' for Inactive)
ROOT
HETATM    1  C1  UNL     1     -34.717   5.023   5.831  1.00 20.00     0.020 A 
HETATM    2  C2  UNL     1     -34.462   4.448   4.552  1.00 20.00     0.038 A 
HETATM    3  C3  UNL     1     -34.308   6.347   5.801  1.00 20.00     0.093 A 
HETATM    4  C4  UNL     1     -33.908   5.450   3.809  1.00 20.00     0.073 A 
HETATM    5  C5  UNL     1     -33.231   7.691   3.950  1.00 20.00     0.085 A 
HETATM    6  C6  UNL     1     -33.005   7.406   2.639  1.00 20.00     0.065 A 
HETATM    7  C7  UNL     1     -31.896   7.852   3.409  1.00 20.00     0.061 A 
HETATM    8  N8  UNL     1     -33.770   6.577   4.564  1.00 20.00    -0.337 N 
HETATM    9  S9  UNL     1     -33.376   5.750   2.190  1.00 20.00    -0.097 SA
ENDROOT
TORSDOF 0
ENDMDL
MODEL 3
REMARK VINA RESULT:      -4.3      1.127      3.251
REMARK  0 active torsions:
REMARK  status: ('A' for Active; 'I' for Inactive)
ROOT
HETATM    1  C1  UNL     1     -34.714   5.707   5.184  1.00 20.00     0.020 A 
HETATM    2  C2  UNL     1     -34.040   6.804   5.793  1.00 20.00     0.038 A 
HETATM    3  C3  UNL     1     -34.293   5.615   3.867  1.00 20.00     0.093 A 
HETATM    4  C4  UNL     1     -33.242   7.326   4.817  1.00 20.00     0.073 A 
HETATM    5  C5  UNL     1     -32.675   7.051   2.557  1.00 20.00     0.085 A 
HETATM    6  C6  UNL     1     -31.838   8.053   2.943  1.00 20.00     0.065 A 
HETATM    7  C7  UNL     1     -32.724   8.323   1.864  1.00 20.00     0.061 A 
HETATM    8  N8  UNL     1     -33.423   6.649   3.648  1.00 20.00    -0.337 N 
HETATM    9  S9  UNL     1     -32.034   8.548   4.616  1.00 20.00    -0.097 SA
ENDROOT
TORSDOF 0
ENDMDL
MODEL 4
REMARK VINA RESULT:      -3.9      1.479      2.139
REMARK  0 active torsions:
REMARK  status: ('A' for Active; 'I' for Inactive)
ROOT
HETATM    1  C1  UNL     1     -31.835   8.353   2.213  1.00 20.00     0.020 A 
HETATM    2  C2  UNL     1     -32.979   7.571   1.879  1.00 20.00     0.038 A 
HETATM    3  C3  UNL     1     -31.650   8.288   3.585  1.00 20.00     0.093 A 
HETATM    4  C4  UNL     1     -33.434   7.071   3.065  1.00 20.00     0.073 A 
HETATM    5  C5  UNL     1     -32.999   7.108   5.369  1.00 20.00     0.085 A 
HETATM    6  C6  UNL     1     -34.032   6.226   5.287  1.00 20.00     0.065 A 
HETATM    7  C7  UNL     1     -34.216   7.370   6.111  1.00 20.00     0.061 A 
HETATM    8  N8  UNL     1     -32.672   7.533   4.096  1.00 20.00    -0.337 N 
HETATM    9  S9  UNL     1     -34.647   5.990   3.659  1.00 20.00    -0.097 SA
ENDROOT
TORSDOF 0
ENDMDL
MODEL 5
REMARK VINA RESULT:      -3.8     11.992     12.406
REMARK  0 active torsions:
REMARK  status: ('A' for Active; 'I' for Inactive)
ROOT
HETATM    1  C1  UNL     1     -34.287  17.529  -0.934  1.00 20.00     0.020 A 
HETATM    2  C2  UNL     1     -35.517  16.971  -1.387  1.00 20.00     0.038 A 
HETATM    3  C3  UNL     1     -33.317  17.278  -1.891  1.00 20.00     0.093 A 
HETATM    4  C4  UNL     1     -35.235  16.407  -2.597  1.00 20.00     0.073 A 
HETATM    5  C5  UNL     1     -33.462  16.034  -4.088  1.00 20.00     0.085 A 
HETATM    6  C6  UNL     1     -34.525  15.531  -4.774  1.00 20.00     0.065 A 
HETATM    7  C7  UNL     1     -33.441  14.648  -4.513  1.00 20.00     0.061 A 
HETATM    8  N8  UNL     1     -33.910  16.546  -2.885  1.00 20.00    -0.337 N 
HETATM    9  S9  UNL     1     -36.047  15.616  -3.903  1.00 20.00    -0.097 SA
ENDROOT
TORSDOF 0
ENDMDL
MODEL 6
REMARK VINA RESULT:      -3.7      1.663      2.930
REMARK  0 active torsions:
REMARK  status: ('A' for Active; 'I' for Inactive)
ROOT
HETATM    1  C1  UNL     1     -33.808   3.644   3.385  1.00 20.00     0.020 A 
HETATM    2  C2  UNL     1     -33.080   4.620   2.646  1.00 20.00     0.038 A 
HETATM    3  C3  UNL     1     -34.408   4.274   4.464  1.00 20.00     0.093 A 
HETATM    4  C4  UNL     1     -33.270   5.795   3.312  1.00 20.00     0.073 A 
HETATM    5  C5  UNL     1     -34.320   6.689   5.211  1.00 20.00     0.085 A 
HETATM    6  C6  UNL     1     -33.804   7.800   4.618  1.00 20.00     0.065 A 
HETATM    7  C7  UNL     1     -33.397   7.525   5.953  1.00 20.00     0.061 A 
HETATM    8  N8  UNL     1     -34.026   5.588   4.428  1.00 20.00    -0.337 N 
HETATM    9  S9  UNL     1     -32.894   7.476   3.152  1.00 20.00    -0.097 SA
ENDROOT
TORSDOF 0
ENDMDL
MODEL 7
REMARK VINA RESULT:      -3.6     12.104     12.967
REMARK  0 active torsions:
REMARK  status: ('A' for Active; 'I' for Inactive)
ROOT
HETATM    1  C1  UNL     1     -33.586  16.300  -3.730  1.00 20.00     0.020 A 
HETATM    2  C2  UNL     1     -34.730  15.508  -3.422  1.00 20.00     0.038 A 
HETATM    3  C3  UNL     1     -33.334  16.187  -5.088  1.00 20.00     0.093 A 
HETATM    4  C4  UNL     1     -35.115  14.951  -4.607  1.00 20.00     0.073 A 
HETATM    5  C5  UNL     1     -34.516  14.841  -6.872  1.00 20.00     0.085 A 
HETATM    6  C6  UNL     1     -35.672  14.124  -6.846  1.00 20.00     0.065 A 
HETATM    7  C7  UNL     1     -34.508  13.465  -7.328  1.00 20.00     0.061 A 
HETATM    8  N8  UNL     1     -34.256  15.316  -5.601  1.00 20.00    -0.337 N 
HETATM    9  S9  UNL     1     -36.386  13.969  -5.250  1.00 20.00    -0.097 SA
ENDROOT
TORSDOF 0
ENDMDL
MODEL 8
REMARK VINA RESULT:      -3.6     11.949     12.505
REMARK  0 active torsions:
REMARK  status: ('A' for Active; 'I' for Inactive)
ROOT
HETATM    1  C1  UNL     1     -37.227  14.166  -5.112  1.00 20.00     0.020 A 
HETATM    2  C2  UNL     1     -35.941  13.556  -5.186  1.00 20.00     0.038 A 
HETATM    3  C3  UNL     1     -37.082  15.417  -4.535  1.00 20.00     0.093 A 
HETATM    4  C4  UNL     1     -35.078  14.467  -4.648  1.00 20.00     0.073 A 
HETATM    5  C5  UNL     1     -35.023  16.589  -3.650  1.00 20.00     0.085 A 
HETATM    6  C6  UNL     1     -33.702  16.270  -3.717  1.00 20.00     0.065 A 
HETATM    7  C7  UNL     1     -34.238  16.556  -2.432  1.00 20.00     0.061 A 
HETATM    8  N8  UNL     1     -35.760  15.564  -4.214  1.00 20.00    -0.337 N 
HETATM    9  S9  UNL     1     -33.380  14.682  -4.395  1.00 20.00    -0.097 SA
ENDROOT
TORSDOF 0
ENDMDL
MODEL 9
REMARK VINA RESULT:      -3.5     12.329     13.235
REMARK  0 active torsions:
REMARK  status: ('A' for Active; 'I' for Inactive)
ROOT
HETATM    1  C1  UNL     1     -35.296  13.113  -7.154  1.00 20.00     0.020 A 
HETATM    2  C2  UNL     1     -35.730  13.324  -5.814  1.00 20.00     0.038 A 
HETATM    3  C3  UNL     1     -34.278  14.013  -7.428  1.00 20.00     0.093 A 
HETATM    4  C4  UNL     1     -34.957  14.343  -5.339  1.00 20.00     0.073 A 
HETATM    5  C5  UNL     1     -33.255  15.822  -5.987  1.00 20.00     0.085 A 
HETATM    6  C6  UNL     1     -33.414  16.127  -4.670  1.00 20.00     0.065 A 
HETATM    7  C7  UNL     1     -33.593  17.180  -5.609  1.00 20.00     0.061 A 
HETATM    8  N8  UNL     1     -34.117  14.792  -6.314  1.00 20.00    -0.337 N 
HETATM    9  S9  UNL     1     -34.674  15.207  -3.867  1.00 20.00    -0.097 SA
ENDROOT
TORSDOF 0
ENDMDL
