MODEL 1
REMARK VINA RESULT:      -5.0      0.000      0.000
REMARK  0 active torsions:
REMARK  status: ('A' for Active; 'I' for Inactive)
ROOT
HETATM    1  C1  UNL     1     -34.772   6.121   3.304  1.00 20.00     0.251 C 
HETATM    2  C2  UNL     1     -33.811   7.100   3.950  1.00 20.00     0.251 C 
HETATM    3  C3  UNL     1     -34.581   4.798   4.024  1.00 20.00     0.271 C 
HETATM    4  C4  UNL     1     -34.109   7.026   5.436  1.00 20.00     0.271 C 
HETATM    5  F5  UNL     1     -34.489   5.982   1.988  1.00 20.00    -0.242 F 
HETATM    6  F6  UNL     1     -32.535   6.679   3.730  1.00 20.00    -0.242 F 
HETATM    7  F7  UNL     1     -33.422   4.223   3.605  1.00 20.00    -0.235 F 
HETATM    8  F8  UNL     1     -33.064   7.508   6.149  1.00 20.00    -0.235 F 
HETATM    9  S9  UNL     1     -34.399   5.268   5.772  1.00 20.00    -0.089 SA
ENDROOT
TORSDOF 0
ENDMDL
MODEL 2
REMARK VINA RESULT:      -4.9      1.640      2.165
REMARK  0 active torsions:
REMARK  status: ('A' for Active; 'I' for Inactive)
ROOT
HETATM    1  C1  UNL     1     -35.115   5.746   4.204  1.00 20.00     0.251 C 
HETATM    2  C2  UNL     1     -33.928   5.946   3.280  1.00 20.00     0.251 C 
HETATM    3  C3  UNL     1     -34.588   5.919   5.618  1.00 20.00     0.271 C 
HETATM    4  C4  UNL     1     -33.335   7.284   3.682  1.00 20.00     0.271 C 
HETATM    5  F5  UNL     1     -35.631   4.505   4.046  1.00 20.00    -0.242 F 
HETATM    6  F6  UNL     1     -33.015   4.964   3.515  1.00 20.00    -0.242 F 
HETATM    7  F7  UNL     1     -33.888   4.809   5.974  1.00 20.00    -0.235 F 
HETATM    8  F8  UNL     1     -32.056   7.378   3.248  1.00 20.00    -0.235 F 
HETATM    9  S9  UNL     1     -33.435   7.320   5.492  1.00 20.00    -0.089 SA
ENDROOT
TORSDOF 0
ENDMDL
MODEL 3
REMARK VINA RESULT:      -4.8      1.820      2.520
REMARK  0 active torsions:
REMARK  status: ('A' for Active; 'I' for Inactive)
ROOT
HETATM    1  C1  UNL     1     -33.515   5.834   3.362  1.00 20.00     0.251 C 
HETATM    2  C2  UNL     1     -34.642   5.234   4.180  1.00 20.00     0.251 C 
HETATM    3  C3  UNL     1     -33.362   7.269   3.835  1.00 20.00     0.271 C 
HETATM    4  C4  UNL     1     -34.263   5.491   5.626  1.00 20.00     0.271 C 
HETATM    5  F5  UNL     1     -33.822   5.807   2.044  1.00 20.00    -0.242 F 
HETATM    6  F6  UNL     1     -35.797   5.898   3.896  1.00 20.00    -0.242 F 
HETATM    7  F7  UNL     1     -34.377   8.019   3.329  1.00 20.00    -0.235 F 
HETATM    8  F8  UNL     1     -35.355   5.397   6.421  1.00 20.00    -0.235 F 
HETATM    9  S9  UNL     1     -33.562   7.163   5.640  1.00 20.00    -0.089 SA
ENDROOT
TORSDOF 0
ENDMDL
MODEL 4
REMARK VINA RESULT:      -4.8      1.920      2.810
REMARK  0 active torsions:
REMARK  status: ('A' for Active; 'I' for Inactive)
ROOT
HETATM    1  C1  UNL     1     -33.768   6.281   5.221  1.00 20.00     0.251 C 
HETATM    2  C2  UNL     1     -33.343   7.413   4.305  1.00 20.00     0.251 C 
HETATM    3  C3  UNL     1     -34.508   5.282   4.349  1.00 20.00     0.271 C 
HETATM    4  C4  UNL     1     -32.598   6.743   3.166  1.00 20.00     0.271 C 
HETATM    5  F5  UNL     1     -34.584   6.745   6.195  1.00 20.00    -0.242 F 
HETATM    6  F6  UNL     1     -34.455   8.024   3.811  1.00 20.00    -0.242 F 
HETATM    7  F7  UNL     1     -35.747   5.765   4.066  1.00 20.00    -0.235 F 
HETATM    8  F8  UNL     1     -32.544   7.565   2.092  1.00 20.00    -0.235 F 
HETATM    9  S9  UNL     1     -33.536   5.233   2.812  1.00 20.00    -0.089 SA
ENDROOT
TORSDOF 0
ENDMDL
MODEL 5
REMARK VINA RESULT:      -4.7      1.689      2.914
REMARK  0 active torsions:
REMARK  status: ('A' for Active; 'I' for Inactive)
ROOT
HETATM    1  C1  UNL     1     -33.756   6.739   4.073  1.00 20.00     0.251 C 
HETATM    2  C2  UNL     1     -33.282   6.178   2.746  1.00 20.00     0.251 C 
HETATM    3  C3  UNL     1     -34.804   5.772   4.595  1.00 20.00     0.271 C 
HETATM    4  C4  UNL     1     -32.873   4.748   3.044  1.00 20.00     0.271 C 
HETATM    5  F5  UNL     1     -34.299   7.966   3.899  1.00 20.00    -0.242 F 
HETATM    6  F6  UNL     1     -34.325   6.171   1.871  1.00 20.00    -0.242 F 
HETATM    7  F7  UNL     1     -35.959   5.943   3.899  1.00 20.00    -0.235 F 
HETATM    8  F8  UNL     1     -32.843   4.021   1.903  1.00 20.00    -0.235 F 
HETATM    9  S9  UNL     1     -34.125   4.131   4.202  1.00 20.00    -0.089 SA
ENDROOT
TORSDOF 0
ENDMDL
MODEL 6
REMARK VINA RESULT:      -4.7      1.736      2.324
REMARK  0 active torsions:
REMARK  status: ('A' for Active; 'I' for Inactive)
ROOT
HETATM    1  C1  UNL     1     -33.628   4.755   4.092  1.00 20.00     0.251 C 
HETATM    2  C2  UNL     1     -34.370   5.582   5.126  1.00 20.00     0.251 C 
HETATM    3  C3  UNL     1     -33.404   5.667   2.899  1.00 20.00     0.271 C 
HETATM    4  C4  UNL     1     -33.531   6.834   5.308  1.00 20.00     0.271 C 
HETATM    5  F5  UNL     1     -34.368   3.682   3.729  1.00 20.00    -0.242 F 
HETATM    6  F6  UNL     1     -35.587   5.929   4.625  1.00 20.00    -0.242 F 
HETATM    7  F7  UNL     1     -34.573   5.809   2.218  1.00 20.00    -0.235 F 
HETATM    8  F8  UNL     1     -34.276   7.821   5.858  1.00 20.00    -0.235 F 
HETATM    9  S9  UNL     1     -32.965   7.268   3.641  1.00 20.00    -0.089 SA
ENDROOT
TORSDOF 0
ENDMDL
MODEL 7
REMARK VINA RESULT:      -4.4      1.423      1.423
REMARK  0 active torsions:
REMARK  status: ('A' for Active; 'I' for Inactive)
ROOT
HETATM    1  C1  UNL     1     -34.078   6.452   2.789  1.00 20.00     0.251 C 
HETATM    2  C2  UNL     1     -34.033   6.998   4.204  1.00 20.00     0.251 C 
HETATM    3  C3  UNL     1     -33.544   5.032   2.864  1.00 20.00     0.271 C 
HETATM    4  C4  UNL     1     -34.777   5.978   5.046  1.00 20.00     0.271 C 
HETATM    5  F5  UNL     1     -33.305   7.201   1.970  1.00 20.00    -0.242 F 
HETATM    6  F6  UNL     1     -32.736   7.055   4.615  1.00 20.00    -0.242 F 
HETATM    7  F7  UNL     1     -32.192   5.069   3.004  1.00 20.00    -0.235 F 
HETATM    8  F8  UNL     1     -34.446   6.118   6.351  1.00 20.00    -0.235 F 
HETATM    9  S9  UNL     1     -34.270   4.365   4.392  1.00 20.00    -0.089 SA
ENDROOT
TORSDOF 0
ENDMDL
MODEL 8
REMARK VINA RESULT:      -4.4      1.802      3.248
REMARK  0 active torsions:
REMARK  status: ('A' for Active; 'I' for Inactive)
ROOT
HETATM    1  C1  UNL     1     -34.949   5.826   4.787  1.00 20.00     0.251 C 
HETATM    2  C2  UNL     1     -34.238   4.683   4.087  1.00 20.00     0.251 C 
HETATM    3  C3  UNL     1     -33.942   6.959   4.882  1.00 20.00     0.271 C 
HETATM    4  C4  UNL     1     -33.688   5.283   2.807  1.00 20.00     0.271 C 
HETATM    5  F5  UNL     1     -35.345   5.446   6.024  1.00 20.00    -0.242 F 
HETATM    6  F6  UNL     1     -33.201   4.264   4.864  1.00 20.00    -0.242 F 
HETATM    7  F7  UNL     1     -33.040   6.676   5.860  1.00 20.00    -0.235 F 
HETATM    8  F8  UNL     1     -32.693   4.508   2.315  1.00 20.00    -0.235 F 
HETATM    9  S9  UNL     1     -33.089   6.929   3.276  1.00 20.00    -0.089 SA
ENDROOT
TORSDOF 0
ENDMDL
MODEL 9
REMARK VINA RESULT:      -4.1      1.735      3.138
REMARK  0 active torsions:
REMARK  status: ('A' for Active; 'I' for Inactive)
ROOT
HETATM    1  C1  UNL     1     -34.417   7.203   4.963  1.00 20.00     0.251 C 
HETATM    2  C2  UNL     1     -34.418   5.768   5.455  1.00 20.00     0.251 C 
HETATM    3  C3  UNL     1     -33.416   7.263   3.823  1.00 20.00     0.271 C 
HETATM    4  C4  UNL     1     -34.665   4.925   4.218  1.00 20.00     0.271 C 
HETATM    5  F5  UNL     1     -34.045   8.042   5.957  1.00 20.00    -0.242 F 
HETATM    6  F6  UNL     1     -33.187   5.473   5.957  1.00 20.00    -0.242 F 
HETATM    7  F7  UNL     1     -32.155   7.243   4.332  1.00 20.00    -0.235 F 
HETATM    8  F8  UNL     1     -34.268   3.649   4.433  1.00 20.00    -0.235 F 
HETATM    9  S9  UNL     1     -33.698   5.718   2.905  1.00 20.00    -0.089 SA
ENDROOT
TORSDOF 0
ENDMDL
