MODEL 1
REMARK VINA RESULT:      -4.8      0.000      0.000
REMARK  1 active torsions:
REMARK  status: ('A' for Active; 'I' for Inactive)
REMARK    1  A    between atoms: C1_1  and  C9_9 
ROOT
HETATM    1  C2  UNL     1     -33.301  14.462  -4.501  1.00 20.00     0.031 C 
HETATM    2  C3  UNL     1     -34.445  13.550  -7.274  1.00 20.00     0.031 C 
HETATM    3  C4  UNL     1     -34.784  14.313  -4.158  1.00 20.00     0.022 C 
HETATM    4  C5  UNL     1     -35.724  13.565  -6.438  1.00 20.00     0.022 C 
HETATM    5  C6  UNL     1     -33.005  15.669  -5.396  1.00 20.00     0.272 C 
HETATM    6  C7  UNL     1     -33.903  14.951  -7.579  1.00 20.00     0.272 C 
HETATM    7  C8  UNL     1     -35.330  15.989  -5.940  1.00 20.00     0.290 C 
HETATM    8  C9  UNL     1     -35.730  14.639  -5.332  1.00 20.00     0.062 C 
HETATM    9  N10 UNL     1     -33.968  15.918  -6.476  1.00 20.00     0.089 N 
ENDROOT
BRANCH   8  10
HETATM   10  C1  UNL     1     -37.135  14.734  -4.796  1.00 20.00     0.229 C 
HETATM   11  O11 UNL     1     -37.941  13.819  -4.935  1.00 20.00    -0.279 OA
HETATM   12 CL12 UNL     1     -37.427  16.247  -3.993  1.00 20.00    -0.043 Cl
ENDBRANCH   8  10
TORSDOF 1
ENDMDL
MODEL 2
REMARK VINA RESULT:      -4.7      1.530      2.050
REMARK  1 active torsions:
REMARK  status: ('A' for Active; 'I' for Inactive)
REMARK    1  A    between atoms: C1_1  and  C9_9 
ROOT
HETATM    1  C2  UNL     1     -34.161  16.741  -2.544  1.00 20.00     0.031 C 
HETATM    2  C3  UNL     1     -33.353  14.372  -4.434  1.00 20.00     0.031 C 
HETATM    3  C4  UNL     1     -35.527  16.100  -2.791  1.00 20.00     0.022 C 
HETATM    4  C5  UNL     1     -34.864  14.155  -4.346  1.00 20.00     0.022 C 
HETATM    5  C6  UNL     1     -33.602  17.469  -3.770  1.00 20.00     0.272 C 
HETATM    6  C7  UNL     1     -32.965  15.606  -5.256  1.00 20.00     0.272 C 
HETATM    7  C8  UNL     1     -35.215  16.465  -5.251  1.00 20.00     0.290 C 
HETATM    8  C9  UNL     1     -35.670  15.459  -4.187  1.00 20.00     0.062 C 
HETATM    9  N10 UNL     1     -33.801  16.797  -5.060  1.00 20.00     0.089 N 
ENDROOT
BRANCH   8  10
HETATM   10  C1  UNL     1     -37.123  15.127  -4.408  1.00 20.00     0.229 C 
HETATM   11  O11 UNL     1     -37.485  13.999  -4.730  1.00 20.00    -0.279 OA
HETATM   12 CL12 UNL     1     -38.154  16.502  -4.153  1.00 20.00    -0.043 Cl
ENDBRANCH   8  10
TORSDOF 1
ENDMDL
MODEL 3
REMARK VINA RESULT:      -4.7      1.742      2.016
REMARK  1 active torsions:
REMARK  status: ('A' for Active; 'I' for Inactive)
REMARK    1  A    between atoms: C1_1  and  C9_9 
ROOT
HETATM    1  C2  UNL     1     -33.679  16.084  -3.466  1.00 20.00     0.031 C 
HETATM    2  C3  UNL     1     -33.412  15.998  -6.589  1.00 20.00     0.031 C 
HETATM    3  C4  UNL     1     -34.513  14.843  -3.785  1.00 20.00     0.022 C 
HETATM    4  C5  UNL     1     -34.296  14.774  -6.352  1.00 20.00     0.022 C 
HETATM    5  C6  UNL     1     -34.351  17.392  -3.893  1.00 20.00     0.272 C 
HETATM    6  C7  UNL     1     -34.140  17.326  -6.350  1.00 20.00     0.272 C 
HETATM    7  C8  UNL     1     -35.989  16.251  -5.242  1.00 20.00     0.290 C 
HETATM    8  C9  UNL     1     -35.242  14.915  -5.142  1.00 20.00     0.062 C 
HETATM    9  N10 UNL     1     -35.039  17.366  -5.190  1.00 20.00     0.089 N 
ENDROOT
BRANCH   8  10
HETATM   10  C1  UNL     1     -36.236  13.785  -5.207  1.00 20.00     0.229 C 
HETATM   11  O11 UNL     1     -35.878  12.613  -5.262  1.00 20.00    -0.279 OA
HETATM   12 CL12 UNL     1     -37.877  14.357  -5.190  1.00 20.00    -0.043 Cl
ENDBRANCH   8  10
TORSDOF 1
ENDMDL
MODEL 4
REMARK VINA RESULT:      -4.6      2.416      3.222
REMARK  1 active torsions:
REMARK  status: ('A' for Active; 'I' for Inactive)
REMARK    1  A    between atoms: C1_1  and  C9_9 
ROOT
HETATM    1  C2  UNL     1     -33.981  16.122  -3.123  1.00 20.00     0.031 C 
HETATM    2  C3  UNL     1     -35.292  17.448  -5.644  1.00 20.00     0.031 C 
HETATM    3  C4  UNL     1     -34.034  14.926  -4.074  1.00 20.00     0.022 C 
HETATM    4  C5  UNL     1     -35.114  16.015  -6.145  1.00 20.00     0.022 C 
HETATM    5  C6  UNL     1     -35.358  16.542  -2.600  1.00 20.00     0.272 C 
HETATM    6  C7  UNL     1     -36.389  17.586  -4.583  1.00 20.00     0.272 C 
HETATM    7  C8  UNL     1     -36.519  15.206  -4.235  1.00 20.00     0.290 C 
HETATM    8  C9  UNL     1     -35.238  14.950  -5.037  1.00 20.00     0.062 C 
HETATM    9  N10 UNL     1     -36.451  16.516  -3.580  1.00 20.00     0.089 N 
ENDROOT
BRANCH   8  10
HETATM   10  C1  UNL     1     -35.335  13.604  -5.708  1.00 20.00     0.229 C 
HETATM   11  O11 UNL     1     -35.989  12.686  -5.221  1.00 20.00    -0.279 OA
HETATM   12 CL12 UNL     1     -34.434  13.548  -7.193  1.00 20.00    -0.043 Cl
ENDBRANCH   8  10
TORSDOF 1
ENDMDL
MODEL 5
REMARK VINA RESULT:      -4.6      2.284      3.367
REMARK  1 active torsions:
REMARK  status: ('A' for Active; 'I' for Inactive)
REMARK    1  A    between atoms: C1_1  and  C9_9 
ROOT
HETATM    1  C2  UNL     1     -34.315  17.289  -5.660  1.00 20.00     0.031 C 
HETATM    2  C3  UNL     1     -36.259  16.394  -3.368  1.00 20.00     0.031 C 
HETATM    3  C4  UNL     1     -34.812  15.955  -6.218  1.00 20.00     0.022 C 
HETATM    4  C5  UNL     1     -36.408  15.218  -4.333  1.00 20.00     0.022 C 
HETATM    5  C6  UNL     1     -33.371  17.132  -4.465  1.00 20.00     0.272 C 
HETATM    6  C7  UNL     1     -34.900  16.430  -2.661  1.00 20.00     0.272 C 
HETATM    7  C8  UNL     1     -33.941  14.811  -4.165  1.00 20.00     0.290 C 
HETATM    8  C9  UNL     1     -35.127  14.905  -5.133  1.00 20.00     0.062 C 
HETATM    9  N10 UNL     1     -33.735  16.095  -3.491  1.00 20.00     0.089 N 
ENDROOT
BRANCH   8  10
HETATM   10  C1  UNL     1     -35.324  13.572  -5.806  1.00 20.00     0.229 C 
HETATM   11  O11 UNL     1     -35.931  12.656  -5.259  1.00 20.00    -0.279 OA
HETATM   12 CL12 UNL     1     -34.606  13.527  -7.388  1.00 20.00    -0.043 Cl
ENDBRANCH   8  10
TORSDOF 1
ENDMDL
MODEL 6
REMARK VINA RESULT:      -4.5      2.195      3.270
REMARK  1 active torsions:
REMARK  status: ('A' for Active; 'I' for Inactive)
REMARK    1  A    between atoms: C1_1  and  C9_9 
ROOT
HETATM    1  C2  UNL     1     -36.790  16.678  -3.777  1.00 20.00     0.031 C 
HETATM    2  C3  UNL     1     -33.721  16.232  -3.315  1.00 20.00     0.031 C 
HETATM    3  C4  UNL     1     -36.631  15.253  -4.305  1.00 20.00     0.022 C 
HETATM    4  C5  UNL     1     -34.108  14.887  -3.928  1.00 20.00     0.022 C 
HETATM    5  C6  UNL     1     -36.159  17.736  -4.688  1.00 20.00     0.272 C 
HETATM    6  C7  UNL     1     -33.744  17.386  -4.323  1.00 20.00     0.272 C 
HETATM    7  C8  UNL     1     -34.945  16.089  -5.960  1.00 20.00     0.290 C 
HETATM    8  C9  UNL     1     -35.257  14.978  -4.951  1.00 20.00     0.062 C 
HETATM    9  N10 UNL     1     -34.861  17.383  -5.277  1.00 20.00     0.089 N 
ENDROOT
BRANCH   8  10
HETATM   10  C1  UNL     1     -35.329  13.658  -5.674  1.00 20.00     0.229 C 
HETATM   11  O11 UNL     1     -35.969  12.711  -5.227  1.00 20.00    -0.279 OA
HETATM   12 CL12 UNL     1     -34.423  13.675  -7.157  1.00 20.00    -0.043 Cl
ENDBRANCH   8  10
TORSDOF 1
ENDMDL
MODEL 7
REMARK VINA RESULT:      -4.3      1.175      2.502
REMARK  1 active torsions:
REMARK  status: ('A' for Active; 'I' for Inactive)
REMARK    1  A    between atoms: C1_1  and  C9_9 
ROOT
HETATM    1  C2  UNL     1     -34.498  16.677  -6.474  1.00 20.00     0.031 C 
HETATM    2  C3  UNL     1     -33.941  15.863  -3.497  1.00 20.00     0.031 C 
HETATM    3  C4  UNL     1     -35.924  16.439  -5.976  1.00 20.00     0.022 C 
HETATM    4  C5  UNL     1     -35.466  15.769  -3.530  1.00 20.00     0.022 C 
HETATM    5  C6  UNL     1     -33.688  15.386  -6.628  1.00 20.00     0.272 C 
HETATM    6  C7  UNL     1     -33.248  14.747  -4.286  1.00 20.00     0.272 C 
HETATM    7  C8  UNL     1     -35.290  14.089  -5.381  1.00 20.00     0.290 C 
HETATM    8  C9  UNL     1     -36.033  15.341  -4.899  1.00 20.00     0.062 C 
HETATM    9  N10 UNL     1     -33.867  14.386  -5.568  1.00 20.00     0.089 N 
ENDROOT
BRANCH   8  10
HETATM   10  C1  UNL     1     -37.489  15.009  -4.706  1.00 20.00     0.229 C 
HETATM   11  O11 UNL     1     -37.925  13.878  -4.901  1.00 20.00    -0.279 OA
HETATM   12 CL12 UNL     1     -38.411  16.389  -4.192  1.00 20.00    -0.043 Cl
ENDBRANCH   8  10
TORSDOF 1
ENDMDL
MODEL 8
REMARK VINA RESULT:      -4.2      1.950      2.165
REMARK  1 active torsions:
REMARK  status: ('A' for Active; 'I' for Inactive)
REMARK    1  A    between atoms: C1_1  and  C9_9 
ROOT
HETATM    1  C2  UNL     1     -33.147  14.887  -4.555  1.00 20.00     0.031 C 
HETATM    2  C3  UNL     1     -35.931  14.049  -5.730  1.00 20.00     0.031 C 
HETATM    3  C4  UNL     1     -34.085  15.477  -3.502  1.00 20.00     0.022 C 
HETATM    4  C5  UNL     1     -36.373  14.790  -4.468  1.00 20.00     0.022 C 
HETATM    5  C6  UNL     1     -33.185  15.639  -5.889  1.00 20.00     0.272 C 
HETATM    6  C7  UNL     1     -35.375  14.978  -6.814  1.00 20.00     0.272 C 
HETATM    7  C8  UNL     1     -35.189  16.837  -5.294  1.00 20.00     0.290 C 
HETATM    8  C9  UNL     1     -35.439  15.950  -4.069  1.00 20.00     0.062 C 
HETATM    9  N10 UNL     1     -34.513  16.070  -6.345  1.00 20.00     0.089 N 
ENDROOT
BRANCH   8  10
HETATM   10  C1  UNL     1     -36.142  16.756  -3.008  1.00 20.00     0.229 C 
HETATM   11  O11 UNL     1     -37.191  17.350  -3.238  1.00 20.00    -0.279 OA
HETATM   12 CL12 UNL     1     -35.293  16.722  -1.493  1.00 20.00    -0.043 Cl
ENDBRANCH   8  10
TORSDOF 1
ENDMDL
MODEL 9
REMARK VINA RESULT:      -4.1      2.437      3.329
REMARK  1 active torsions:
REMARK  status: ('A' for Active; 'I' for Inactive)
REMARK    1  A    between atoms: C1_1  and  C9_9 
ROOT
HETATM    1  C2  UNL     1     -34.008  14.906  -7.332  1.00 20.00     0.031 C 
HETATM    2  C3  UNL     1     -35.544  13.633  -4.913  1.00 20.00     0.031 C 
HETATM    3  C4  UNL     1     -33.426  15.715  -6.173  1.00 20.00     0.022 C 
HETATM    4  C5  UNL     1     -34.690  14.671  -4.185  1.00 20.00     0.022 C 
HETATM    5  C6  UNL     1     -35.466  15.255  -7.644  1.00 20.00     0.272 C 
HETATM    6  C7  UNL     1     -36.675  14.252  -5.741  1.00 20.00     0.272 C 
HETATM    7  C8  UNL     1     -35.743  16.467  -5.580  1.00 20.00     0.290 C 
HETATM    8  C9  UNL     1     -34.418  15.942  -5.013  1.00 20.00     0.062 C 
HETATM    9  N10 UNL     1     -36.335  15.474  -6.481  1.00 20.00     0.089 N 
ENDROOT
BRANCH   8  10
HETATM   10  C1  UNL     1     -33.833  16.975  -4.085  1.00 20.00     0.229 C 
HETATM   11  O11 UNL     1     -33.257  17.972  -4.510  1.00 20.00    -0.279 OA
HETATM   12 CL12 UNL     1     -34.082  16.567  -2.415  1.00 20.00    -0.043 Cl
ENDBRANCH   8  10
TORSDOF 1
ENDMDL
