MODEL 1
REMARK VINA RESULT:      -4.1      0.000      0.000
REMARK  0 active torsions:
REMARK  status: ('A' for Active; 'I' for Inactive)
ROOT
HETATM    1  C1  UNL     1     -33.630   6.763   3.527  1.00 20.00     0.036 C 
HETATM    2  C2  UNL     1     -31.258   8.106   3.366  1.00 20.00     0.297 C 
HETATM    3  C3  UNL     1     -32.924   7.171   4.816  1.00 20.00     0.263 C 
HETATM    4  C4  UNL     1     -32.201   8.103   2.168  1.00 20.00     0.132 C 
HETATM    5  C5  UNL     1     -34.763   5.765   3.628  1.00 20.00     0.067 C 
HETATM    6  C6  UNL     1     -33.909   7.564   5.912  1.00 20.00     0.049 C 
HETATM    7  C7  UNL     1     -32.790   9.481   1.869  1.00 20.00     0.036 C 
HETATM    8  N8  UNL     1     -33.308   7.161   2.344  1.00 20.00    -0.290 NA
HETATM    9  N9  UNL     1     -32.037   8.308   4.576  1.00 20.00     0.095 N 
HETATM   10  H23 UNL     1     -31.414   8.428   5.375  1.00 20.00     0.316 HD
ENDROOT
TORSDOF 0
ENDMDL
MODEL 2
REMARK VINA RESULT:      -3.8      1.483      3.164
REMARK  0 active torsions:
REMARK  status: ('A' for Active; 'I' for Inactive)
ROOT
HETATM    1  C1  UNL     1     -32.786   7.362   3.659  1.00 20.00     0.036 C 
HETATM    2  C2  UNL     1     -35.056   5.867   3.393  1.00 20.00     0.297 C 
HETATM    3  C3  UNL     1     -33.846   7.428   4.754  1.00 20.00     0.263 C 
HETATM    4  C4  UNL     1     -33.809   5.485   2.604  1.00 20.00     0.132 C 
HETATM    5  C5  UNL     1     -31.697   8.412   3.666  1.00 20.00     0.067 C 
HETATM    6  C6  UNL     1     -33.231   7.576   6.142  1.00 20.00     0.049 C 
HETATM    7  C7  UNL     1     -33.207   4.153   3.050  1.00 20.00     0.036 C 
HETATM    8  N8  UNL     1     -32.769   6.511   2.691  1.00 20.00    -0.290 NA
HETATM    9  N9  UNL     1     -34.665   6.217   4.749  1.00 20.00     0.095 N 
HETATM   10  H23 UNL     1     -35.494   6.364   5.323  1.00 20.00     0.316 HD
ENDROOT
TORSDOF 0
ENDMDL
MODEL 3
REMARK VINA RESULT:      -3.8     10.782     11.592
REMARK  0 active torsions:
REMARK  status: ('A' for Active; 'I' for Inactive)
ROOT
HETATM    1  C1  UNL     1     -35.229  15.398  -3.731  1.00 20.00     0.036 C 
HETATM    2  C2  UNL     1     -36.080  13.319  -5.283  1.00 20.00     0.297 C 
HETATM    3  C3  UNL     1     -34.198  14.415  -4.279  1.00 20.00     0.263 C 
HETATM    4  C4  UNL     1     -36.969  14.546  -5.120  1.00 20.00     0.132 C 
HETATM    5  C5  UNL     1     -34.788  16.345  -2.637  1.00 20.00     0.067 C 
HETATM    6  C6  UNL     1     -32.884  15.101  -4.639  1.00 20.00     0.049 C 
HETATM    7  C7  UNL     1     -37.134  15.339  -6.416  1.00 20.00     0.036 C 
HETATM    8  N8  UNL     1     -36.466  15.454  -4.088  1.00 20.00    -0.290 NA
HETATM    9  N9  UNL     1     -34.708  13.755  -5.480  1.00 20.00     0.095 N 
HETATM   10  H23 UNL     1     -34.117  12.956  -5.706  1.00 20.00     0.316 HD
ENDROOT
TORSDOF 0
ENDMDL
MODEL 4
REMARK VINA RESULT:      -3.6     10.795     12.111
REMARK  0 active torsions:
REMARK  status: ('A' for Active; 'I' for Inactive)
ROOT
HETATM    1  C1  UNL     1     -35.437  16.010  -5.390  1.00 20.00     0.036 C 
HETATM    2  C2  UNL     1     -35.898  13.320  -5.292  1.00 20.00     0.297 C 
HETATM    3  C3  UNL     1     -35.090  15.247  -4.115  1.00 20.00     0.263 C 
HETATM    4  C4  UNL     1     -35.779  14.013  -6.645  1.00 20.00     0.132 C 
HETATM    5  C5  UNL     1     -35.469  17.520  -5.321  1.00 20.00     0.067 C 
HETATM    6  C6  UNL     1     -33.837  15.795  -3.440  1.00 20.00     0.049 C 
HETATM    7  C7  UNL     1     -34.538  13.584  -7.427  1.00 20.00     0.036 C 
HETATM    8  N8  UNL     1     -35.759  15.470  -6.515  1.00 20.00    -0.290 NA
HETATM    9  N9  UNL     1     -34.863  13.833  -4.410  1.00 20.00     0.095 N 
HETATM   10  H23 UNL     1     -34.852  13.301  -3.540  1.00 20.00     0.316 HD
ENDROOT
TORSDOF 0
ENDMDL
MODEL 5
REMARK VINA RESULT:      -3.6     11.034     12.450
REMARK  0 active torsions:
REMARK  status: ('A' for Active; 'I' for Inactive)
ROOT
HETATM    1  C1  UNL     1     -35.017  15.655  -6.549  1.00 20.00     0.036 C 
HETATM    2  C2  UNL     1     -32.891  15.153  -4.910  1.00 20.00     0.297 C 
HETATM    3  C3  UNL     1     -34.271  14.332  -6.692  1.00 20.00     0.263 C 
HETATM    4  C4  UNL     1     -33.923  16.199  -4.503  1.00 20.00     0.132 C 
HETATM    5  C5  UNL     1     -35.976  16.046  -7.651  1.00 20.00     0.067 C 
HETATM    6  C6  UNL     1     -35.206  13.180  -7.044  1.00 20.00     0.049 C 
HETATM    7  C7  UNL     1     -34.731  15.791  -3.272  1.00 20.00     0.036 C 
HETATM    8  N8  UNL     1     -34.859  16.498  -5.588  1.00 20.00    -0.290 NA
HETATM    9  N9  UNL     1     -33.585  13.994  -5.446  1.00 20.00     0.095 N 
HETATM   10  H23 UNL     1     -32.921  13.239  -5.616  1.00 20.00     0.316 HD
ENDROOT
TORSDOF 0
ENDMDL
MODEL 6
REMARK VINA RESULT:      -3.6      1.483      2.739
REMARK  0 active torsions:
REMARK  status: ('A' for Active; 'I' for Inactive)
ROOT
HETATM    1  C1  UNL     1     -34.156   6.360   4.797  1.00 20.00     0.036 C 
HETATM    2  C2  UNL     1     -33.626   6.923   2.177  1.00 20.00     0.297 C 
HETATM    3  C3  UNL     1     -34.291   5.248   3.761  1.00 20.00     0.263 C 
HETATM    4  C4  UNL     1     -33.064   7.827   3.268  1.00 20.00     0.132 C 
HETATM    5  C5  UNL     1     -34.743   6.120   6.170  1.00 20.00     0.067 C 
HETATM    6  C6  UNL     1     -33.865   3.892   4.313  1.00 20.00     0.049 C 
HETATM    7  C7  UNL     1     -31.540   7.762   3.370  1.00 20.00     0.036 C 
HETATM    8  N8  UNL     1     -33.624   7.514   4.584  1.00 20.00    -0.290 NA
HETATM    9  N9  UNL     1     -33.467   5.538   2.588  1.00 20.00     0.095 N 
HETATM   10  H23 UNL     1     -33.731   4.916   1.824  1.00 20.00     0.316 HD
ENDROOT
TORSDOF 0
ENDMDL
MODEL 7
REMARK VINA RESULT:      -3.5     11.025     11.962
REMARK  0 active torsions:
REMARK  status: ('A' for Active; 'I' for Inactive)
ROOT
HETATM    1  C1  UNL     1     -34.284  14.490  -6.217  1.00 20.00     0.036 C 
HETATM    2  C2  UNL     1     -33.624  15.652  -3.835  1.00 20.00     0.297 C 
HETATM    3  C3  UNL     1     -35.054  14.090  -4.962  1.00 20.00     0.263 C 
HETATM    4  C4  UNL     1     -33.233  16.338  -5.139  1.00 20.00     0.132 C 
HETATM    5  C5  UNL     1     -34.445  13.626  -7.448  1.00 20.00     0.067 C 
HETATM    6  C6  UNL     1     -36.525  13.814  -5.253  1.00 20.00     0.049 C 
HETATM    7  C7  UNL     1     -33.974  17.655  -5.365  1.00 20.00     0.036 C 
HETATM    8  N8  UNL     1     -33.461  15.478  -6.302  1.00 20.00    -0.290 NA
HETATM    9  N9  UNL     1     -34.983  15.151  -3.958  1.00 20.00     0.095 N 
HETATM   10  H23 UNL     1     -35.304  14.791  -3.060  1.00 20.00     0.316 HD
ENDROOT
TORSDOF 0
ENDMDL
MODEL 8
REMARK VINA RESULT:      -3.5     10.354     11.929
REMARK  0 active torsions:
REMARK  status: ('A' for Active; 'I' for Inactive)
ROOT
HETATM    1  C1  UNL     1     -35.453  14.450  -5.360  1.00 20.00     0.036 C 
HETATM    2  C2  UNL     1     -33.107  15.785  -5.774  1.00 20.00     0.297 C 
HETATM    3  C3  UNL     1     -34.958  14.647  -6.789  1.00 20.00     0.263 C 
HETATM    4  C4  UNL     1     -33.388  15.166  -4.409  1.00 20.00     0.132 C 
HETATM    5  C5  UNL     1     -36.881  13.994  -5.165  1.00 20.00     0.067 C 
HETATM    6  C6  UNL     1     -35.281  13.452  -7.680  1.00 20.00     0.049 C 
HETATM    7  C7  UNL     1     -32.453  14.003  -4.078  1.00 20.00     0.036 C 
HETATM    8  N8  UNL     1     -34.768  14.692  -4.295  1.00 20.00    -0.290 NA
HETATM    9  N9  UNL     1     -33.509  14.845  -6.807  1.00 20.00     0.095 N 
HETATM   10  H23 UNL     1     -33.224  15.192  -7.722  1.00 20.00     0.316 HD
ENDROOT
TORSDOF 0
ENDMDL
MODEL 9
REMARK VINA RESULT:      -3.5     10.668     11.510
REMARK  0 active torsions:
REMARK  status: ('A' for Active; 'I' for Inactive)
ROOT
HETATM    1  C1  UNL     1     -33.937  17.215  -2.386  1.00 20.00     0.036 C 
HETATM    2  C2  UNL     1     -35.969  16.531  -4.077  1.00 20.00     0.297 C 
HETATM    3  C3  UNL     1     -35.378  17.426  -1.932  1.00 20.00     0.263 C 
HETATM    4  C4  UNL     1     -34.587  15.919  -4.278  1.00 20.00     0.132 C 
HETATM    5  C5  UNL     1     -32.840  17.876  -1.581  1.00 20.00     0.067 C 
HETATM    6  C6  UNL     1     -35.555  17.165  -0.439  1.00 20.00     0.049 C 
HETATM    7  C7  UNL     1     -34.555  14.416  -4.005  1.00 20.00     0.036 C 
HETATM    8  N8  UNL     1     -33.576  16.559  -3.434  1.00 20.00    -0.290 NA
HETATM    9  N9  UNL     1     -36.279  16.532  -2.657  1.00 20.00     0.095 N 
HETATM   10  H23 UNL     1     -37.243  16.830  -2.512  1.00 20.00     0.316 HD
ENDROOT
TORSDOF 0
ENDMDL
