MODEL 1
REMARK VINA RESULT:      -6.6      0.000      0.000
REMARK  0 active torsions:
REMARK  status: ('A' for Active; 'I' for Inactive)
ROOT
HETATM    1  C1  UNL     1     -32.065   8.209   2.089  1.00 20.00     0.015 C 
HETATM    2  C2  UNL     1     -32.758   7.525   2.791  1.00 20.00    -0.076 C 
HETATM    3  C3  UNL     1     -34.105   6.267   6.062  1.00 20.00     0.004 C 
HETATM    4  C4  UNL     1     -34.894   5.040   5.622  1.00 20.00     0.003 C 
HETATM    5  C5  UNL     1     -34.024   7.303   4.943  1.00 20.00     0.055 C 
HETATM    6  C6  UNL     1     -34.170   4.304   4.497  1.00 20.00     0.042 C 
HETATM    7  C7  UNL     1     -33.585   6.707   3.630  1.00 20.00     0.154 A 
HETATM    8  C8  UNL     1     -33.702   5.203   3.383  1.00 20.00     0.102 A 
HETATM    9  C9  UNL     1     -32.925   4.531   2.289  1.00 20.00     0.050 C 
HETATM   10  O10 UNL     1     -34.686   6.119   2.902  1.00 20.00    -0.350 OA
ENDROOT
TORSDOF 0
ENDMDL
MODEL 2
REMARK VINA RESULT:      -4.6      0.959      2.715
REMARK  0 active torsions:
REMARK  status: ('A' for Active; 'I' for Inactive)
ROOT
HETATM    1  C1  UNL     1     -32.918   3.959   1.831  1.00 20.00     0.015 C 
HETATM    2  C2  UNL     1     -33.158   4.880   2.562  1.00 20.00    -0.076 C 
HETATM    3  C3  UNL     1     -32.358   8.007   4.480  1.00 20.00     0.004 C 
HETATM    4  C4  UNL     1     -33.589   8.150   5.368  1.00 20.00     0.003 C 
HETATM    5  C5  UNL     1     -32.692   7.261   3.190  1.00 20.00     0.055 C 
HETATM    6  C6  UNL     1     -34.071   6.784   5.851  1.00 20.00     0.042 C 
HETATM    7  C7  UNL     1     -33.445   5.979   3.437  1.00 20.00     0.154 A 
HETATM    8  C8  UNL     1     -34.182   5.755   4.757  1.00 20.00     0.102 A 
HETATM    9  C9  UNL     1     -34.587   4.379   5.199  1.00 20.00     0.050 C 
HETATM   10  O10 UNL     1     -34.866   6.200   3.585  1.00 20.00    -0.350 OA
ENDROOT
TORSDOF 0
ENDMDL
MODEL 3
REMARK VINA RESULT:      -4.5      1.480      2.520
REMARK  0 active torsions:
REMARK  status: ('A' for Active; 'I' for Inactive)
ROOT
HETATM    1  C1  UNL     1     -32.379   8.942   1.273  1.00 20.00     0.015 C 
HETATM    2  C2  UNL     1     -32.782   8.155   2.084  1.00 20.00    -0.076 C 
HETATM    3  C3  UNL     1     -35.341   5.927   3.692  1.00 20.00     0.004 C 
HETATM    4  C4  UNL     1     -34.646   5.546   4.994  1.00 20.00     0.003 C 
HETATM    5  C5  UNL     1     -34.326   6.248   2.598  1.00 20.00     0.055 C 
HETATM    6  C6  UNL     1     -33.864   6.729   5.559  1.00 20.00     0.042 C 
HETATM    7  C7  UNL     1     -33.264   7.215   3.055  1.00 20.00     0.154 A 
HETATM    8  C8  UNL     1     -32.995   7.424   4.545  1.00 20.00     0.102 A 
HETATM    9  C9  UNL     1     -32.261   8.636   5.041  1.00 20.00     0.050 C 
HETATM   10  O10 UNL     1     -32.186   6.553   3.754  1.00 20.00    -0.350 OA
ENDROOT
TORSDOF 0
ENDMDL
MODEL 4
REMARK VINA RESULT:      -4.3     12.171     13.024
REMARK  0 active torsions:
REMARK  status: ('A' for Active; 'I' for Inactive)
ROOT
HETATM    1  C1  UNL     1     -35.019  16.324  -2.578  1.00 20.00     0.015 C 
HETATM    2  C2  UNL     1     -34.872  15.707  -3.597  1.00 20.00    -0.076 C 
HETATM    3  C3  UNL     1     -33.648  15.165  -7.105  1.00 20.00     0.004 C 
HETATM    4  C4  UNL     1     -34.390  13.894  -7.499  1.00 20.00     0.003 C 
HETATM    5  C5  UNL     1     -33.433  15.233  -5.594  1.00 20.00     0.055 C 
HETATM    6  C6  UNL     1     -35.807  13.894  -6.931  1.00 20.00     0.042 C 
HETATM    7  C7  UNL     1     -34.698  14.971  -4.816  1.00 20.00     0.154 A 
HETATM    8  C8  UNL     1     -35.877  14.254  -5.471  1.00 20.00     0.102 A 
HETATM    9  C9  UNL     1     -37.258  14.333  -4.887  1.00 20.00     0.050 C 
HETATM   10  O10 UNL     1     -34.948  13.559  -4.639  1.00 20.00    -0.350 OA
ENDROOT
TORSDOF 0
ENDMDL
MODEL 5
REMARK VINA RESULT:      -4.2      1.011      2.853
REMARK  0 active torsions:
REMARK  status: ('A' for Active; 'I' for Inactive)
ROOT
HETATM    1  C1  UNL     1     -33.697   8.069   6.704  1.00 20.00     0.015 C 
HETATM    2  C2  UNL     1     -33.810   7.287   5.800  1.00 20.00    -0.076 C 
HETATM    3  C3  UNL     1     -33.958   3.873   4.245  1.00 20.00     0.004 C 
HETATM    4  C4  UNL     1     -33.895   4.206   2.759  1.00 20.00     0.003 C 
HETATM    5  C5  UNL     1     -34.570   5.022   5.043  1.00 20.00     0.055 C 
HETATM    6  C6  UNL     1     -32.945   5.374   2.504  1.00 20.00     0.042 C 
HETATM    7  C7  UNL     1     -33.943   6.354   4.719  1.00 20.00     0.154 A 
HETATM    8  C8  UNL     1     -33.165   6.549   3.418  1.00 20.00     0.102 A 
HETATM    9  C9  UNL     1     -32.208   7.693   3.247  1.00 20.00     0.050 C 
HETATM   10  O10 UNL     1     -34.527   6.961   3.545  1.00 20.00    -0.350 OA
ENDROOT
TORSDOF 0
ENDMDL
MODEL 6
REMARK VINA RESULT:      -4.2     12.045     12.489
REMARK  0 active torsions:
REMARK  status: ('A' for Active; 'I' for Inactive)
ROOT
HETATM    1  C1  UNL     1     -35.159  13.294  -7.327  1.00 20.00     0.015 C 
HETATM    2  C2  UNL     1     -35.214  13.833  -6.256  1.00 20.00    -0.076 C 
HETATM    3  C3  UNL     1     -36.630  16.185  -3.694  1.00 20.00     0.004 C 
HETATM    4  C4  UNL     1     -35.545  16.167  -2.624  1.00 20.00     0.003 C 
HETATM    5  C5  UNL     1     -36.647  14.878  -4.484  1.00 20.00     0.055 C 
HETATM    6  C6  UNL     1     -34.157  16.107  -3.258  1.00 20.00     0.042 C 
HETATM    7  C7  UNL     1     -35.279  14.478  -4.976  1.00 20.00     0.154 A 
HETATM    8  C8  UNL     1     -34.022  15.058  -4.329  1.00 20.00     0.102 A 
HETATM    9  C9  UNL     1     -32.694  15.010  -5.027  1.00 20.00     0.050 C 
HETATM   10  O10 UNL     1     -34.522  13.769  -3.970  1.00 20.00    -0.350 OA
ENDROOT
TORSDOF 0
ENDMDL
MODEL 7
REMARK VINA RESULT:      -4.2     11.900     12.670
REMARK  0 active torsions:
REMARK  status: ('A' for Active; 'I' for Inactive)
ROOT
HETATM    1  C1  UNL     1     -38.665  14.625  -5.211  1.00 20.00     0.015 C 
HETATM    2  C2  UNL     1     -37.479  14.539  -5.046  1.00 20.00    -0.076 C 
HETATM    3  C3  UNL     1     -34.105  15.714  -3.893  1.00 20.00     0.004 C 
HETATM    4  C4  UNL     1     -33.181  14.690  -4.542  1.00 20.00     0.003 C 
HETATM    5  C5  UNL     1     -35.490  15.125  -3.637  1.00 20.00     0.055 C 
HETATM    6  C6  UNL     1     -33.680  14.316  -5.936  1.00 20.00     0.042 C 
HETATM    7  C7  UNL     1     -36.062  14.436  -4.851  1.00 20.00     0.154 A 
HETATM    8  C8  UNL     1     -35.148  13.984  -5.989  1.00 20.00     0.102 A 
HETATM    9  C9  UNL     1     -35.695  13.677  -7.353  1.00 20.00     0.050 C 
HETATM   10  O10 UNL     1     -35.592  13.076  -4.980  1.00 20.00    -0.350 OA
ENDROOT
TORSDOF 0
ENDMDL
MODEL 8
REMARK VINA RESULT:      -4.2     12.199     12.971
REMARK  0 active torsions:
REMARK  status: ('A' for Active; 'I' for Inactive)
ROOT
HETATM    1  C1  UNL     1     -35.086  16.266  -2.744  1.00 20.00     0.015 C 
HETATM    2  C2  UNL     1     -34.570  16.996  -1.944  1.00 20.00    -0.076 C 
HETATM    3  C3  UNL     1     -31.714  18.371   0.069  1.00 20.00     0.004 C 
HETATM    4  C4  UNL     1     -32.441  19.263   1.069  1.00 20.00     0.003 C 
HETATM    5  C5  UNL     1     -32.510  18.232  -1.227  1.00 20.00     0.055 C 
HETATM    6  C6  UNL     1     -33.753  18.622   1.515  1.00 20.00     0.042 C 
HETATM    7  C7  UNL     1     -33.953  17.868  -0.986  1.00 20.00     0.154 A 
HETATM    8  C8  UNL     1     -34.596  18.108   0.379  1.00 20.00     0.102 A 
HETATM    9  C9  UNL     1     -35.864  17.409   0.776  1.00 20.00     0.050 C 
HETATM   10  O10 UNL     1     -34.768  19.026  -0.701  1.00 20.00    -0.350 OA
ENDROOT
TORSDOF 0
ENDMDL
MODEL 9
REMARK VINA RESULT:      -4.2     11.940     13.484
REMARK  0 active torsions:
REMARK  status: ('A' for Active; 'I' for Inactive)
ROOT
HETATM    1  C1  UNL     1     -34.832  13.329  -7.250  1.00 20.00     0.015 C 
HETATM    2  C2  UNL     1     -34.483  14.109  -6.408  1.00 20.00    -0.076 C 
HETATM    3  C3  UNL     1     -34.699  15.879  -3.103  1.00 20.00     0.004 C 
HETATM    4  C4  UNL     1     -33.682  17.000  -3.285  1.00 20.00     0.003 C 
HETATM    5  C5  UNL     1     -34.348  14.670  -3.968  1.00 20.00     0.055 C 
HETATM    6  C6  UNL     1     -33.725  17.547  -4.709  1.00 20.00     0.042 C 
HETATM    7  C7  UNL     1     -34.067  15.043  -5.401  1.00 20.00     0.154 A 
HETATM    8  C8  UNL     1     -33.705  16.481  -5.772  1.00 20.00     0.102 A 
HETATM    9  C9  UNL     1     -33.816  16.972  -7.186  1.00 20.00     0.050 C 
HETATM   10  O10 UNL     1     -32.703  15.479  -5.595  1.00 20.00    -0.350 OA
ENDROOT
TORSDOF 0
ENDMDL
