MODEL 1
REMARK VINA RESULT:      -5.1      0.000      0.000
REMARK  3 active torsions:
REMARK  status: ('A' for Active; 'I' for Inactive)
REMARK    1  A    between atoms: C8_8  and  C9_9 
REMARK    2  A    between atoms: C9_9  and  C10_10 
REMARK    3  A    between atoms: C10_10  and  O11_11 
ROOT
HETATM    1  C1  UNL     1     -34.878   5.815   5.950  1.00 20.00     0.017 C 
HETATM    2  C2  UNL     1     -34.188   6.301   5.096  1.00 20.00    -0.083 C 
HETATM    3  C3  UNL     1     -33.426   6.380   2.834  1.00 20.00    -0.010 C 
HETATM    4  C4  UNL     1     -33.370   6.878   4.080  1.00 20.00    -0.009 C 
HETATM    5  C5  UNL     1     -32.618   6.913   1.685  1.00 20.00     0.033 C 
HETATM    6  C6  UNL     1     -32.456   8.022   4.443  1.00 20.00     0.048 C 
HETATM    7  C7  UNL     1     -31.401   8.326   3.374  1.00 20.00     0.010 C 
HETATM    8  C8  UNL     1     -31.975   8.284   1.951  1.00 20.00    -0.009 C 
ENDROOT
BRANCH   8   9
HETATM    9  C9  UNL     1     -32.963   9.428   1.704  1.00 20.00     0.031 C 
BRANCH   9  10
HETATM   10  C10 UNL     1     -32.749  10.065   0.344  1.00 20.00     0.164 C 
BRANCH  10  11
HETATM   11  O11 UNL     1     -33.489   9.330  -0.622  1.00 20.00    -0.401 OA
HETATM   12  H25 UNL     1     -34.404   9.290  -0.303  1.00 20.00     0.209 HD
ENDBRANCH  10  11
ENDBRANCH   9  10
ENDBRANCH   8   9
TORSDOF 3
ENDMDL
MODEL 2
REMARK VINA RESULT:      -5.0      2.372      4.696
REMARK  3 active torsions:
REMARK  status: ('A' for Active; 'I' for Inactive)
REMARK    1  A    between atoms: C8_8  and  C9_9 
REMARK    2  A    between atoms: C9_9  and  C10_10 
REMARK    3  A    between atoms: C10_10  and  O11_11 
ROOT
HETATM    1  C1  UNL     1     -31.816   8.629   1.610  1.00 20.00     0.017 C 
HETATM    2  C2  UNL     1     -32.501   8.084   2.432  1.00 20.00    -0.083 C 
HETATM    3  C3  UNL     1     -34.433   6.803   3.010  1.00 20.00    -0.010 C 
HETATM    4  C4  UNL     1     -33.315   7.435   3.407  1.00 20.00    -0.009 C 
HETATM    5  C5  UNL     1     -35.359   6.080   3.946  1.00 20.00     0.033 C 
HETATM    6  C6  UNL     1     -32.902   7.494   4.856  1.00 20.00     0.048 C 
HETATM    7  C7  UNL     1     -34.008   7.064   5.826  1.00 20.00     0.010 C 
HETATM    8  C8  UNL     1     -34.768   5.822   5.342  1.00 20.00    -0.009 C 
ENDROOT
BRANCH   8   9
HETATM    9  C9  UNL     1     -33.881   4.573   5.356  1.00 20.00     0.031 C 
BRANCH   9  10
HETATM   10  C10 UNL     1     -34.088   3.729   4.113  1.00 20.00     0.164 C 
BRANCH  10  11
HETATM   11  O11 UNL     1     -33.012   3.971   3.217  1.00 20.00    -0.401 OA
HETATM   12  H25 UNL     1     -32.976   4.930   3.075  1.00 20.00     0.209 HD
ENDBRANCH  10  11
ENDBRANCH   9  10
ENDBRANCH   8   9
TORSDOF 3
ENDMDL
MODEL 3
REMARK VINA RESULT:      -4.9     10.058     10.751
REMARK  3 active torsions:
REMARK  status: ('A' for Active; 'I' for Inactive)
REMARK    1  A    between atoms: C8_8  and  C9_9 
REMARK    2  A    between atoms: C9_9  and  C10_10 
REMARK    3  A    between atoms: C10_10  and  O11_11 
ROOT
HETATM    1  C1  UNL     1     -35.595  17.581   0.756  1.00 20.00     0.017 C 
HETATM    2  C2  UNL     1     -35.380  17.314  -0.395  1.00 20.00    -0.083 C 
HETATM    3  C3  UNL     1     -33.851  16.864  -2.173  1.00 20.00    -0.010 C 
HETATM    4  C4  UNL     1     -35.123  16.996  -1.760  1.00 20.00    -0.009 C 
HETATM    5  C5  UNL     1     -33.463  16.523  -3.584  1.00 20.00     0.033 C 
HETATM    6  C6  UNL     1     -36.290  16.834  -2.702  1.00 20.00     0.048 C 
HETATM    7  C7  UNL     1     -35.888  16.832  -4.181  1.00 20.00     0.010 C 
HETATM    8  C8  UNL     1     -34.625  16.003  -4.448  1.00 20.00    -0.009 C 
ENDROOT
BRANCH   8   9
HETATM    9  C9  UNL     1     -34.869  14.507  -4.221  1.00 20.00     0.031 C 
BRANCH   9  10
HETATM   10  C10 UNL     1     -35.945  13.972  -5.147  1.00 20.00     0.164 C 
BRANCH  10  11
HETATM   11  O11 UNL     1     -35.907  12.552  -5.110  1.00 20.00    -0.401 OA
HETATM   12  H25 UNL     1     -36.770  12.240  -5.427  1.00 20.00     0.209 HD
ENDBRANCH  10  11
ENDBRANCH   9  10
ENDBRANCH   8   9
TORSDOF 3
ENDMDL
MODEL 4
REMARK VINA RESULT:      -4.9      2.528      4.777
REMARK  3 active torsions:
REMARK  status: ('A' for Active; 'I' for Inactive)
REMARK    1  A    between atoms: C8_8  and  C9_9 
REMARK    2  A    between atoms: C9_9  and  C10_10 
REMARK    3  A    between atoms: C10_10  and  O11_11 
ROOT
HETATM    1  C1  UNL     1     -31.791   8.652   1.575  1.00 20.00     0.017 C 
HETATM    2  C2  UNL     1     -32.454   7.806   2.112  1.00 20.00    -0.083 C 
HETATM    3  C3  UNL     1     -32.817   5.527   2.724  1.00 20.00    -0.010 C 
HETATM    4  C4  UNL     1     -33.240   6.802   2.749  1.00 20.00    -0.009 C 
HETATM    5  C5  UNL     1     -33.557   4.389   3.368  1.00 20.00     0.033 C 
HETATM    6  C6  UNL     1     -34.531   7.202   3.418  1.00 20.00     0.048 C 
HETATM    7  C7  UNL     1     -35.437   6.015   3.762  1.00 20.00     0.010 C 
HETATM    8  C8  UNL     1     -34.658   4.830   4.348  1.00 20.00    -0.009 C 
ENDROOT
BRANCH   8   9
HETATM    9  C9  UNL     1     -34.084   5.156   5.730  1.00 20.00     0.031 C 
BRANCH   9  10
HETATM   10  C10 UNL     1     -34.370   6.592   6.127  1.00 20.00     0.164 C 
BRANCH  10  11
HETATM   11  O11 UNL     1     -33.139   7.299   6.182  1.00 20.00    -0.401 OA
HETATM   12  H25 UNL     1     -33.097   7.852   5.385  1.00 20.00     0.209 HD
ENDBRANCH  10  11
ENDBRANCH   9  10
ENDBRANCH   8   9
TORSDOF 3
ENDMDL
MODEL 5
REMARK VINA RESULT:      -4.8     10.194     11.139
REMARK  3 active torsions:
REMARK  status: ('A' for Active; 'I' for Inactive)
REMARK    1  A    between atoms: C8_8  and  C9_9 
REMARK    2  A    between atoms: C9_9  and  C10_10 
REMARK    3  A    between atoms: C10_10  and  O11_11 
ROOT
HETATM    1  C1  UNL     1     -32.159  18.426  -0.438  1.00 20.00     0.017 C 
HETATM    2  C2  UNL     1     -32.915  17.980  -1.258  1.00 20.00    -0.083 C 
HETATM    3  C3  UNL     1     -33.546  17.642  -3.536  1.00 20.00    -0.010 C 
HETATM    4  C4  UNL     1     -33.810  17.450  -2.233  1.00 20.00    -0.009 C 
HETATM    5  C5  UNL     1     -34.412  17.122  -4.649  1.00 20.00     0.033 C 
HETATM    6  C6  UNL     1     -35.035  16.703  -1.767  1.00 20.00     0.048 C 
HETATM    7  C7  UNL     1     -36.075  16.483  -2.871  1.00 20.00     0.010 C 
HETATM    8  C8  UNL     1     -35.440  16.067  -4.205  1.00 20.00    -0.009 C 
ENDROOT
BRANCH   8   9
HETATM    9  C9  UNL     1     -34.814  14.671  -4.125  1.00 20.00     0.031 C 
BRANCH   9  10
HETATM   10  C10 UNL     1     -35.137  13.845  -5.356  1.00 20.00     0.164 C 
BRANCH  10  11
HETATM   11  O11 UNL     1     -35.960  12.754  -4.966  1.00 20.00    -0.401 OA
HETATM   12  H25 UNL     1     -35.931  12.108  -5.689  1.00 20.00     0.209 HD
ENDBRANCH  10  11
ENDBRANCH   9  10
ENDBRANCH   8   9
TORSDOF 3
ENDMDL
MODEL 6
REMARK VINA RESULT:      -4.5     10.174     11.205
REMARK  3 active torsions:
REMARK  status: ('A' for Active; 'I' for Inactive)
REMARK    1  A    between atoms: C8_8  and  C9_9 
REMARK    2  A    between atoms: C9_9  and  C10_10 
REMARK    3  A    between atoms: C10_10  and  O11_11 
ROOT
HETATM    1  C1  UNL     1     -35.217  17.069  -0.845  1.00 20.00     0.017 C 
HETATM    2  C2  UNL     1     -34.994  16.784  -1.990  1.00 20.00    -0.083 C 
HETATM    3  C3  UNL     1     -33.902  15.420  -3.618  1.00 20.00    -0.010 C 
HETATM    4  C4  UNL     1     -34.729  16.444  -3.349  1.00 20.00    -0.009 C 
HETATM    5  C5  UNL     1     -33.558  14.967  -5.009  1.00 20.00     0.033 C 
HETATM    6  C6  UNL     1     -35.376  17.257  -4.443  1.00 20.00     0.048 C 
HETATM    7  C7  UNL     1     -34.761  17.020  -5.827  1.00 20.00     0.010 C 
HETATM    8  C8  UNL     1     -34.478  15.537  -6.101  1.00 20.00    -0.009 C 
ENDROOT
BRANCH   8   9
HETATM    9  C9  UNL     1     -35.773  14.726  -6.226  1.00 20.00     0.031 C 
BRANCH   9  10
HETATM   10  C10 UNL     1     -35.496  13.235  -6.247  1.00 20.00     0.164 C 
BRANCH  10  11
HETATM   11  O11 UNL     1     -35.974  12.669  -5.034  1.00 20.00    -0.401 OA
HETATM   12  H25 UNL     1     -35.816  13.325  -4.337  1.00 20.00     0.209 HD
ENDBRANCH  10  11
ENDBRANCH   9  10
ENDBRANCH   8   9
TORSDOF 3
ENDMDL
MODEL 7
REMARK VINA RESULT:      -4.4      2.375      4.839
REMARK  3 active torsions:
REMARK  status: ('A' for Active; 'I' for Inactive)
REMARK    1  A    between atoms: C8_8  and  C9_9 
REMARK    2  A    between atoms: C9_9  and  C10_10 
REMARK    3  A    between atoms: C10_10  and  O11_11 
ROOT
HETATM    1  C1  UNL     1     -32.953   9.925  -0.463  1.00 20.00     0.017 C 
HETATM    2  C2  UNL     1     -32.820   9.216   0.497  1.00 20.00    -0.083 C 
HETATM    3  C3  UNL     1     -31.868   8.779   2.643  1.00 20.00    -0.010 C 
HETATM    4  C4  UNL     1     -32.663   8.375   1.637  1.00 20.00    -0.009 C 
HETATM    5  C5  UNL     1     -31.635   7.981   3.895  1.00 20.00     0.033 C 
HETATM    6  C6  UNL     1     -33.383   7.050   1.671  1.00 20.00     0.048 C 
HETATM    7  C7  UNL     1     -32.878   6.106   2.767  1.00 20.00     0.010 C 
HETATM    8  C8  UNL     1     -32.631   6.827   4.099  1.00 20.00    -0.009 C 
ENDROOT
BRANCH   8   9
HETATM    9  C9  UNL     1     -33.938   7.316   4.730  1.00 20.00     0.031 C 
BRANCH   9  10
HETATM   10  C10 UNL     1     -34.341   6.456   5.913  1.00 20.00     0.164 C 
BRANCH  10  11
HETATM   11  O11 UNL     1     -34.947   5.268   5.423  1.00 20.00    -0.401 OA
HETATM   12  H25 UNL     1     -35.560   5.535   4.720  1.00 20.00     0.209 HD
ENDBRANCH  10  11
ENDBRANCH   9  10
ENDBRANCH   8   9
TORSDOF 3
ENDMDL
MODEL 8
REMARK VINA RESULT:      -4.4     10.367     11.468
REMARK  3 active torsions:
REMARK  status: ('A' for Active; 'I' for Inactive)
REMARK    1  A    between atoms: C8_8  and  C9_9 
REMARK    2  A    between atoms: C9_9  and  C10_10 
REMARK    3  A    between atoms: C10_10  and  O11_11 
ROOT
HETATM    1  C1  UNL     1     -34.491  14.526  -4.152  1.00 20.00     0.017 C 
HETATM    2  C2  UNL     1     -34.349  15.516  -3.489  1.00 20.00    -0.083 C 
HETATM    3  C3  UNL     1     -34.766  16.759  -1.492  1.00 20.00    -0.010 C 
HETATM    4  C4  UNL     1     -34.180  16.691  -2.700  1.00 20.00    -0.009 C 
HETATM    5  C5  UNL     1     -34.650  17.941  -0.573  1.00 20.00     0.033 C 
HETATM    6  C6  UNL     1     -33.359  17.830  -3.254  1.00 20.00     0.048 C 
HETATM    7  C7  UNL     1     -33.529  19.141  -2.480  1.00 20.00     0.010 C 
HETATM    8  C8  UNL     1     -33.539  18.932  -0.959  1.00 20.00    -0.009 C 
ENDROOT
BRANCH   8   9
HETATM    9  C9  UNL     1     -32.171  18.474  -0.441  1.00 20.00     0.031 C 
BRANCH   9  10
HETATM   10  C10 UNL     1     -31.928  18.946   0.980  1.00 20.00     0.164 C 
BRANCH  10  11
HETATM   11  O11 UNL     1     -30.527  18.948   1.222  1.00 20.00    -0.401 OA
HETATM   12  H25 UNL     1     -30.265  19.874   1.347  1.00 20.00     0.209 HD
ENDBRANCH  10  11
ENDBRANCH   9  10
ENDBRANCH   8   9
TORSDOF 3
ENDMDL
MODEL 9
REMARK VINA RESULT:      -4.4     10.000     11.085
REMARK  3 active torsions:
REMARK  status: ('A' for Active; 'I' for Inactive)
REMARK    1  A    between atoms: C8_8  and  C9_9 
REMARK    2  A    between atoms: C9_9  and  C10_10 
REMARK    3  A    between atoms: C10_10  and  O11_11 
ROOT
HETATM    1  C1  UNL     1     -33.067  17.768  -1.570  1.00 20.00     0.017 C 
HETATM    2  C2  UNL     1     -33.680  17.007  -2.268  1.00 20.00    -0.083 C 
HETATM    3  C3  UNL     1     -35.728  16.294  -3.268  1.00 20.00    -0.010 C 
HETATM    4  C4  UNL     1     -34.408  16.105  -3.097  1.00 20.00    -0.009 C 
HETATM    5  C5  UNL     1     -36.593  15.413  -4.125  1.00 20.00     0.033 C 
HETATM    6  C6  UNL     1     -33.675  14.956  -3.744  1.00 20.00     0.048 C 
HETATM    7  C7  UNL     1     -34.605  13.883  -4.321  1.00 20.00     0.010 C 
HETATM    8  C8  UNL     1     -35.808  14.481  -5.063  1.00 20.00    -0.009 C 
ENDROOT
BRANCH   8   9
HETATM    9  C9  UNL     1     -35.381  15.202  -6.346  1.00 20.00     0.031 C 
BRANCH   9  10
HETATM   10  C10 UNL     1     -35.092  14.221  -7.466  1.00 20.00     0.164 C 
BRANCH  10  11
HETATM   11  O11 UNL     1     -33.685  14.142  -7.647  1.00 20.00    -0.401 OA
HETATM   12  H25 UNL     1     -33.284  14.729  -6.987  1.00 20.00     0.209 HD
ENDBRANCH  10  11
ENDBRANCH   9  10
ENDBRANCH   8   9
TORSDOF 3
ENDMDL
