MODEL 1
REMARK VINA RESULT:      -5.5      0.000      0.000
REMARK  1 active torsions:
REMARK  status: ('A' for Active; 'I' for Inactive)
REMARK    1  A    between atoms: C3_3  and  C4_4 
ROOT
HETATM    1  C1  UNL     1     -33.742   7.290   5.524  1.00 20.00     0.061 C 
HETATM    2  C2  UNL     1     -34.330   6.132   5.835  1.00 20.00     0.087 C 
HETATM    3  C4  UNL     1     -33.421   7.327   4.069  1.00 20.00     0.376 C 
HETATM    4  C5  UNL     1     -34.464   5.287   4.617  1.00 20.00     0.463 C 
HETATM    5  C6  UNL     1     -34.220   5.877   2.246  1.00 20.00     0.324 C 
HETATM    6  N7  UNL     1     -33.656   5.955   3.583  1.00 20.00     0.211 N 
HETATM    7  F9  UNL     1     -34.207   8.232   3.428  1.00 20.00    -0.195 F 
HETATM    8  F10 UNL     1     -33.999   4.028   4.821  1.00 20.00    -0.169 F 
HETATM    9  F11 UNL     1     -35.768   5.175   4.251  1.00 20.00    -0.169 F 
ENDROOT
BRANCH   3  10
HETATM   10  C3  UNL     1     -31.971   7.636   3.898  1.00 20.00     0.312 C 
HETATM   11  O8  UNL     1     -31.535   8.363   3.011  1.00 20.00    -0.301 OA
ENDBRANCH   3  10
TORSDOF 1
ENDMDL
MODEL 2
REMARK VINA RESULT:      -5.1      1.455      2.423
REMARK  1 active torsions:
REMARK  status: ('A' for Active; 'I' for Inactive)
REMARK    1  A    between atoms: C3_3  and  C4_4 
ROOT
HETATM    1  C1  UNL     1     -32.827   5.952   2.447  1.00 20.00     0.061 C 
HETATM    2  C2  UNL     1     -33.753   5.133   2.952  1.00 20.00     0.087 C 
HETATM    3  C4  UNL     1     -32.755   7.203   3.255  1.00 20.00     0.376 C 
HETATM    4  C5  UNL     1     -34.383   5.754   4.148  1.00 20.00     0.463 C 
HETATM    5  C6  UNL     1     -33.676   7.688   5.486  1.00 20.00     0.324 C 
HETATM    6  N7  UNL     1     -33.919   7.152   4.158  1.00 20.00     0.211 N 
HETATM    7  F9  UNL     1     -31.583   7.261   3.942  1.00 20.00    -0.195 F 
HETATM    8  F10 UNL     1     -35.738   5.721   4.080  1.00 20.00    -0.169 F 
HETATM    9  F11 UNL     1     -34.026   5.091   5.278  1.00 20.00    -0.169 F 
ENDROOT
BRANCH   3  10
HETATM   10  C3  UNL     1     -32.923   8.378   2.350  1.00 20.00     0.312 C 
HETATM   11  O8  UNL     1     -32.133   8.659   1.454  1.00 20.00    -0.301 OA
ENDBRANCH   3  10
TORSDOF 1
ENDMDL
MODEL 3
REMARK VINA RESULT:      -4.8      2.103      3.674
REMARK  1 active torsions:
REMARK  status: ('A' for Active; 'I' for Inactive)
REMARK    1  A    between atoms: C3_3  and  C4_4 
ROOT
HETATM    1  C1  UNL     1     -34.077   5.564   2.614  1.00 20.00     0.061 C 
HETATM    2  C2  UNL     1     -33.214   6.523   2.269  1.00 20.00     0.087 C 
HETATM    3  C4  UNL     1     -34.399   5.663   4.066  1.00 20.00     0.376 C 
HETATM    4  C5  UNL     1     -32.882   7.358   3.455  1.00 20.00     0.463 C 
HETATM    5  C6  UNL     1     -33.981   7.504   5.647  1.00 20.00     0.324 C 
HETATM    6  N7  UNL     1     -33.438   6.639   4.613  1.00 20.00     0.211 N 
HETATM    7  F9  UNL     1     -35.685   6.065   4.243  1.00 20.00    -0.195 F 
HETATM    8  F10 UNL     1     -31.541   7.508   3.609  1.00 20.00    -0.169 F 
HETATM    9  F11 UNL     1     -33.409   8.604   3.329  1.00 20.00    -0.169 F 
ENDROOT
BRANCH   3  10
HETATM   10  C3  UNL     1     -34.139   4.344   4.713  1.00 20.00     0.312 C 
HETATM   11  O8  UNL     1     -34.100   3.284   4.097  1.00 20.00    -0.301 OA
ENDBRANCH   3  10
TORSDOF 1
ENDMDL
MODEL 4
REMARK VINA RESULT:      -4.6      2.001      2.384
REMARK  1 active torsions:
REMARK  status: ('A' for Active; 'I' for Inactive)
REMARK    1  A    between atoms: C3_3  and  C4_4 
ROOT
HETATM    1  C1  UNL     1     -34.738   5.762   4.699  1.00 20.00     0.061 C 
HETATM    2  C2  UNL     1     -34.441   4.809   3.811  1.00 20.00     0.087 C 
HETATM    3  C4  UNL     1     -33.955   6.996   4.406  1.00 20.00     0.376 C 
HETATM    4  C5  UNL     1     -33.438   5.317   2.837  1.00 20.00     0.463 C 
HETATM    5  C6  UNL     1     -32.690   7.612   2.385  1.00 20.00     0.324 C 
HETATM    6  N7  UNL     1     -32.964   6.598   3.388  1.00 20.00     0.211 N 
HETATM    7  F9  UNL     1     -34.772   7.985   3.957  1.00 20.00    -0.195 F 
HETATM    8  F10 UNL     1     -32.392   4.463   2.697  1.00 20.00    -0.169 F 
HETATM    9  F11 UNL     1     -33.996   5.468   1.607  1.00 20.00    -0.169 F 
ENDROOT
BRANCH   3  10
HETATM   10  C3  UNL     1     -33.215   7.407   5.635  1.00 20.00     0.312 C 
HETATM   11  O8  UNL     1     -33.769   7.729   6.681  1.00 20.00    -0.301 OA
ENDBRANCH   3  10
TORSDOF 1
ENDMDL
MODEL 5
REMARK VINA RESULT:      -4.4     11.911     13.029
REMARK  1 active torsions:
REMARK  status: ('A' for Active; 'I' for Inactive)
REMARK    1  A    between atoms: C3_3  and  C4_4 
ROOT
HETATM    1  C1  UNL     1     -34.839  15.611  -3.331  1.00 20.00     0.061 C 
HETATM    2  C2  UNL     1     -33.835  16.367  -3.782  1.00 20.00     0.087 C 
HETATM    3  C4  UNL     1     -35.332  14.716  -4.416  1.00 20.00     0.376 C 
HETATM    4  C5  UNL     1     -33.557  16.046  -5.208  1.00 20.00     0.463 C 
HETATM    5  C6  UNL     1     -34.297  14.145  -6.576  1.00 20.00     0.324 C 
HETATM    6  N7  UNL     1     -34.676  15.195  -5.647  1.00 20.00     0.211 N 
HETATM    7  F9  UNL     1     -35.018  13.421  -4.147  1.00 20.00    -0.195 F 
HETATM    8  F10 UNL     1     -33.502  17.163  -5.977  1.00 20.00    -0.169 F 
HETATM    9  F11 UNL     1     -32.360  15.416  -5.334  1.00 20.00    -0.169 F 
ENDROOT
BRANCH   3  10
HETATM   10  C3  UNL     1     -36.804  14.906  -4.572  1.00 20.00     0.312 C 
HETATM   11  O8  UNL     1     -37.584  13.986  -4.800  1.00 20.00    -0.301 OA
ENDBRANCH   3  10
TORSDOF 1
ENDMDL
MODEL 6
REMARK VINA RESULT:      -4.4     12.156     12.799
REMARK  1 active torsions:
REMARK  status: ('A' for Active; 'I' for Inactive)
REMARK    1  A    between atoms: C3_3  and  C4_4 
ROOT
HETATM    1  C1  UNL     1     -35.316  14.220  -4.512  1.00 20.00     0.061 C 
HETATM    2  C2  UNL     1     -35.986  13.377  -5.302  1.00 20.00     0.087 C 
HETATM    3  C4  UNL     1     -34.249  14.911  -5.290  1.00 20.00     0.376 C 
HETATM    4  C5  UNL     1     -35.435  13.428  -6.683  1.00 20.00     0.463 C 
HETATM    5  C6  UNL     1     -33.925  15.060  -7.726  1.00 20.00     0.324 C 
HETATM    6  N7  UNL     1     -34.187  14.204  -6.582  1.00 20.00     0.211 N 
HETATM    7  F9  UNL     1     -34.548  16.228  -5.447  1.00 20.00    -0.195 F 
HETATM    8  F10 UNL     1     -35.166  12.188  -7.167  1.00 20.00    -0.169 F 
HETATM    9  F11 UNL     1     -36.324  14.003  -7.534  1.00 20.00    -0.169 F 
ENDROOT
BRANCH   3  10
HETATM   10  C3  UNL     1     -32.941  14.722  -4.597  1.00 20.00     0.312 C 
HETATM   11  O8  UNL     1     -32.553  13.639  -4.169  1.00 20.00    -0.301 OA
ENDBRANCH   3  10
TORSDOF 1
ENDMDL
MODEL 7
REMARK VINA RESULT:      -4.3     12.216     13.179
REMARK  1 active torsions:
REMARK  status: ('A' for Active; 'I' for Inactive)
REMARK    1  A    between atoms: C3_3  and  C4_4 
ROOT
HETATM    1  C1  UNL     1     -34.906  15.092  -6.730  1.00 20.00     0.061 C 
HETATM    2  C2  UNL     1     -33.608  15.331  -6.523  1.00 20.00     0.087 C 
HETATM    3  C4  UNL     1     -35.640  15.096  -5.433  1.00 20.00     0.376 C 
HETATM    4  C5  UNL     1     -33.352  15.523  -5.069  1.00 20.00     0.463 C 
HETATM    5  C6  UNL     1     -34.925  15.913  -3.223  1.00 20.00     0.324 C 
HETATM    6  N7  UNL     1     -34.595  15.116  -4.393  1.00 20.00     0.211 N 
HETATM    7  F9  UNL     1     -36.458  16.179  -5.350  1.00 20.00    -0.195 F 
HETATM    8  F10 UNL     1     -32.320  14.757  -4.632  1.00 20.00    -0.169 F 
HETATM    9  F11 UNL     1     -33.029  16.815  -4.805  1.00 20.00    -0.169 F 
ENDROOT
BRANCH   3  10
HETATM   10  C3  UNL     1     -36.401  13.819  -5.301  1.00 20.00     0.312 C 
HETATM   11  O8  UNL     1     -35.864  12.719  -5.213  1.00 20.00    -0.301 OA
ENDBRANCH   3  10
TORSDOF 1
ENDMDL
MODEL 8
REMARK VINA RESULT:      -4.3     12.116     12.948
REMARK  1 active torsions:
REMARK  status: ('A' for Active; 'I' for Inactive)
REMARK    1  A    between atoms: C3_3  and  C4_4 
ROOT
HETATM    1  C1  UNL     1     -33.861  14.435  -5.123  1.00 20.00     0.061 C 
HETATM    2  C2  UNL     1     -33.243  15.131  -4.166  1.00 20.00     0.087 C 
HETATM    3  C4  UNL     1     -35.239  14.966  -5.333  1.00 20.00     0.376 C 
HETATM    4  C5  UNL     1     -34.143  16.197  -3.650  1.00 20.00     0.463 C 
HETATM    5  C6  UNL     1     -36.240  17.083  -4.572  1.00 20.00     0.324 C 
HETATM    6  N7  UNL     1     -35.470  15.903  -4.218  1.00 20.00     0.211 N 
HETATM    7  F9  UNL     1     -35.334  15.583  -6.541  1.00 20.00    -0.195 F 
HETATM    8  F10 UNL     1     -34.213  16.188  -2.294  1.00 20.00    -0.169 F 
HETATM    9  F11 UNL     1     -33.694  17.426  -4.016  1.00 20.00    -0.169 F 
ENDROOT
BRANCH   3  10
HETATM   10  C3  UNL     1     -36.217  13.846  -5.206  1.00 20.00     0.312 C 
HETATM   11  O8  UNL     1     -35.895  12.662  -5.228  1.00 20.00    -0.301 OA
ENDBRANCH   3  10
TORSDOF 1
ENDMDL
MODEL 9
REMARK VINA RESULT:      -4.2     11.692     12.573
REMARK  1 active torsions:
REMARK  status: ('A' for Active; 'I' for Inactive)
REMARK    1  A    between atoms: C3_3  and  C4_4 
ROOT
HETATM    1  C1  UNL     1     -33.653  15.448  -4.142  1.00 20.00     0.061 C 
HETATM    2  C2  UNL     1     -33.762  16.304  -3.123  1.00 20.00     0.087 C 
HETATM    3  C4  UNL     1     -35.007  15.031  -4.608  1.00 20.00     0.376 C 
HETATM    4  C5  UNL     1     -35.198  16.546  -2.814  1.00 20.00     0.463 C 
HETATM    5  C6  UNL     1     -37.209  16.017  -4.120  1.00 20.00     0.324 C 
HETATM    6  N7  UNL     1     -35.944  15.541  -3.589  1.00 20.00     0.211 N 
HETATM    7  F9  UNL     1     -35.268  15.546  -5.838  1.00 20.00    -0.195 F 
HETATM    8  F10 UNL     1     -35.463  16.395  -1.491  1.00 20.00    -0.169 F 
HETATM    9  F11 UNL     1     -35.554  17.813  -3.148  1.00 20.00    -0.169 F 
ENDROOT
BRANCH   3  10
HETATM   10  C3  UNL     1     -35.086  13.541  -4.604  1.00 20.00     0.312 C 
HETATM   11  O8  UNL     1     -35.945  12.908  -5.210  1.00 20.00    -0.301 OA
ENDBRANCH   3  10
TORSDOF 1
ENDMDL
