MODEL 1
REMARK VINA RESULT:      -4.8      0.000      0.000
REMARK  1 active torsions:
REMARK  status: ('A' for Active; 'I' for Inactive)
REMARK    1  A    between atoms: C2_2  and  C3_3 
ROOT
HETATM    1  C1  UNL     1     -33.574  17.262  -4.315  1.00 20.00    -0.015 C 
HETATM    2  C2  UNL     1     -33.981  16.489  -3.293  1.00 20.00    -0.012 C 
HETATM    3  C4  UNL     1     -33.523  16.697  -5.721  1.00 20.00     0.033 C 
HETATM    4  C5  UNL     1     -33.229  14.452  -4.556  1.00 20.00     0.016 C 
HETATM    5  C6  UNL     1     -34.333  15.070  -3.620  1.00 20.00     0.030 C 
HETATM    6  C7  UNL     1     -33.977  15.221  -5.697  1.00 20.00    -0.002 C 
HETATM    7  C8  UNL     1     -35.308  14.924  -4.875  1.00 20.00    -0.036 C 
HETATM    8  C10 UNL     1     -35.902  13.515  -5.074  1.00 20.00     0.016 C 
HETATM    9  C11 UNL     1     -36.460  15.929  -5.016  1.00 20.00     0.016 C 
ENDROOT
BRANCH   2  10
HETATM   10  C3  UNL     1     -34.052  17.030  -1.940  1.00 20.00     0.151 C 
HETATM   11  C9  UNL     1     -35.368  16.941  -1.202  1.00 20.00     0.096 C 
HETATM   12  O12 UNL     1     -33.064  17.555  -1.414  1.00 20.00    -0.293 OA
ENDBRANCH   2  10
TORSDOF 1
ENDMDL
MODEL 2
REMARK VINA RESULT:      -4.7      2.253      3.810
REMARK  1 active torsions:
REMARK  status: ('A' for Active; 'I' for Inactive)
REMARK    1  A    between atoms: C2_2  and  C3_3 
ROOT
HETATM    1  C1  UNL     1     -34.953  14.064  -4.418  1.00 20.00    -0.015 C 
HETATM    2  C2  UNL     1     -35.776  15.088  -4.700  1.00 20.00    -0.012 C 
HETATM    3  C4  UNL     1     -33.451  14.272  -4.420  1.00 20.00     0.033 C 
HETATM    4  C5  UNL     1     -33.952  16.159  -6.055  1.00 20.00     0.016 C 
HETATM    5  C6  UNL     1     -35.131  16.398  -5.039  1.00 20.00     0.030 C 
HETATM    6  C7  UNL     1     -33.139  15.741  -4.784  1.00 20.00    -0.002 C 
HETATM    7  C8  UNL     1     -33.994  16.839  -4.009  1.00 20.00    -0.036 C 
HETATM    8  C10 UNL     1     -33.500  18.290  -4.172  1.00 20.00     0.016 C 
HETATM    9  C11 UNL     1     -34.245  16.607  -2.513  1.00 20.00     0.016 C 
ENDROOT
BRANCH   2  10
HETATM   10  C3  UNL     1     -37.223  14.902  -4.681  1.00 20.00     0.151 C 
HETATM   11  C9  UNL     1     -38.094  16.089  -4.340  1.00 20.00     0.096 C 
HETATM   12  O12 UNL     1     -37.723  13.798  -4.929  1.00 20.00    -0.293 OA
ENDBRANCH   2  10
TORSDOF 1
ENDMDL
MODEL 3
REMARK VINA RESULT:      -4.6      2.391      3.795
REMARK  1 active torsions:
REMARK  status: ('A' for Active; 'I' for Inactive)
REMARK    1  A    between atoms: C2_2  and  C3_3 
ROOT
HETATM    1  C1  UNL     1     -34.721  15.067  -3.742  1.00 20.00    -0.015 C 
HETATM    2  C2  UNL     1     -35.240  14.856  -4.964  1.00 20.00    -0.012 C 
HETATM    3  C4  UNL     1     -33.680  16.149  -3.535  1.00 20.00     0.033 C 
HETATM    4  C5  UNL     1     -33.141  15.773  -5.995  1.00 20.00     0.016 C 
HETATM    5  C6  UNL     1     -34.711  15.709  -6.077  1.00 20.00     0.030 C 
HETATM    6  C7  UNL     1     -33.390  16.846  -4.883  1.00 20.00    -0.002 C 
HETATM    7  C8  UNL     1     -34.673  17.266  -5.729  1.00 20.00    -0.036 C 
HETATM    8  C10 UNL     1     -34.392  18.192  -6.930  1.00 20.00     0.016 C 
HETATM    9  C11 UNL     1     -35.859  17.864  -4.959  1.00 20.00     0.016 C 
ENDROOT
BRANCH   2  10
HETATM   10  C3  UNL     1     -36.257  13.830  -5.169  1.00 20.00     0.151 C 
HETATM   11  C9  UNL     1     -37.705  14.258  -5.220  1.00 20.00     0.096 C 
HETATM   12  O12 UNL     1     -35.942  12.641  -5.290  1.00 20.00    -0.293 OA
ENDBRANCH   2  10
TORSDOF 1
ENDMDL
MODEL 4
REMARK VINA RESULT:      -4.6      2.354      4.230
REMARK  1 active torsions:
REMARK  status: ('A' for Active; 'I' for Inactive)
REMARK    1  A    between atoms: C2_2  and  C3_3 
ROOT
HETATM    1  C1  UNL     1     -35.162  15.988  -6.269  1.00 20.00    -0.015 C 
HETATM    2  C2  UNL     1     -35.562  14.999  -5.450  1.00 20.00    -0.012 C 
HETATM    3  C4  UNL     1     -35.201  17.428  -5.798  1.00 20.00     0.033 C 
HETATM    4  C5  UNL     1     -37.053  16.624  -4.246  1.00 20.00     0.016 C 
HETATM    5  C6  UNL     1     -36.066  15.407  -4.098  1.00 20.00     0.030 C 
HETATM    6  C7  UNL     1     -35.747  17.480  -4.353  1.00 20.00    -0.002 C 
HETATM    7  C8  UNL     1     -35.107  16.432  -3.339  1.00 20.00    -0.036 C 
HETATM    8  C10 UNL     1     -35.452  16.662  -1.854  1.00 20.00     0.016 C 
HETATM    9  C11 UNL     1     -33.591  16.204  -3.426  1.00 20.00     0.016 C 
ENDROOT
BRANCH   2  10
HETATM   10  C3  UNL     1     -35.509  13.609  -5.888  1.00 20.00     0.151 C 
HETATM   11  C9  UNL     1     -34.945  13.311  -7.258  1.00 20.00     0.096 C 
HETATM   12  O12 UNL     1     -35.922  12.699  -5.160  1.00 20.00    -0.293 OA
ENDBRANCH   2  10
TORSDOF 1
ENDMDL
MODEL 5
REMARK VINA RESULT:      -4.6      1.800      4.056
REMARK  1 active torsions:
REMARK  status: ('A' for Active; 'I' for Inactive)
REMARK    1  A    between atoms: C2_2  and  C3_3 
ROOT
HETATM    1  C1  UNL     1     -36.217  16.280  -4.255  1.00 20.00    -0.015 C 
HETATM    2  C2  UNL     1     -35.170  15.571  -3.798  1.00 20.00    -0.012 C 
HETATM    3  C4  UNL     1     -36.523  17.645  -3.672  1.00 20.00     0.033 C 
HETATM    4  C5  UNL     1     -35.349  16.761  -1.592  1.00 20.00     0.016 C 
HETATM    5  C6  UNL     1     -34.374  16.185  -2.686  1.00 20.00     0.030 C 
HETATM    6  C7  UNL     1     -35.491  17.975  -2.570  1.00 20.00    -0.002 C 
HETATM    7  C8  UNL     1     -33.968  17.706  -2.952  1.00 20.00    -0.036 C 
HETATM    8  C10 UNL     1     -32.933  18.282  -1.965  1.00 20.00     0.016 C 
HETATM    9  C11 UNL     1     -33.518  18.097  -4.366  1.00 20.00     0.016 C 
ENDROOT
BRANCH   2  10
HETATM   10  C3  UNL     1     -34.856  14.265  -4.367  1.00 20.00     0.151 C 
HETATM   11  C9  UNL     1     -35.930  13.550  -5.153  1.00 20.00     0.096 C 
HETATM   12  O12 UNL     1     -33.742  13.753  -4.202  1.00 20.00    -0.293 OA
ENDBRANCH   2  10
TORSDOF 1
ENDMDL
MODEL 6
REMARK VINA RESULT:      -4.5      2.032      4.008
REMARK  1 active torsions:
REMARK  status: ('A' for Active; 'I' for Inactive)
REMARK    1  A    between atoms: C2_2  and  C3_3 
ROOT
HETATM    1  C1  UNL     1     -34.240  16.838  -4.667  1.00 20.00    -0.015 C 
HETATM    2  C2  UNL     1     -34.508  15.804  -3.850  1.00 20.00    -0.012 C 
HETATM    3  C4  UNL     1     -34.690  18.237  -4.294  1.00 20.00     0.033 C 
HETATM    4  C5  UNL     1     -36.503  17.046  -2.960  1.00 20.00     0.016 C 
HETATM    5  C6  UNL     1     -35.286  16.112  -2.607  1.00 20.00     0.030 C 
HETATM    6  C7  UNL     1     -35.437  18.192  -2.942  1.00 20.00    -0.002 C 
HETATM    7  C8  UNL     1     -34.720  17.360  -1.789  1.00 20.00    -0.036 C 
HETATM    8  C10 UNL     1     -35.323  17.538  -0.381  1.00 20.00     0.016 C 
HETATM    9  C11 UNL     1     -33.198  17.508  -1.656  1.00 20.00     0.016 C 
ENDROOT
BRANCH   2  10
HETATM   10  C3  UNL     1     -34.062  14.458  -4.191  1.00 20.00     0.151 C 
HETATM   11  C9  UNL     1     -32.578  14.209  -4.331  1.00 20.00     0.096 C 
HETATM   12  O12 UNL     1     -34.878  13.546  -4.369  1.00 20.00    -0.293 OA
ENDBRANCH   2  10
TORSDOF 1
ENDMDL
MODEL 7
REMARK VINA RESULT:      -4.3      2.314      3.437
REMARK  1 active torsions:
REMARK  status: ('A' for Active; 'I' for Inactive)
REMARK    1  A    between atoms: C2_2  and  C3_3 
ROOT
HETATM    1  C1  UNL     1     -35.857  16.405  -2.831  1.00 20.00    -0.015 C 
HETATM    2  C2  UNL     1     -36.345  15.814  -3.935  1.00 20.00    -0.012 C 
HETATM    3  C4  UNL     1     -34.359  16.474  -2.605  1.00 20.00     0.033 C 
HETATM    4  C5  UNL     1     -34.279  14.390  -4.066  1.00 20.00     0.016 C 
HETATM    5  C6  UNL     1     -35.345  15.216  -4.878  1.00 20.00     0.030 C 
HETATM    6  C7  UNL     1     -33.632  15.787  -3.782  1.00 20.00    -0.002 C 
HETATM    7  C8  UNL     1     -34.137  16.195  -5.236  1.00 20.00    -0.036 C 
HETATM    8  C10 UNL     1     -33.242  15.721  -6.399  1.00 20.00     0.016 C 
HETATM    9  C11 UNL     1     -34.455  17.677  -5.479  1.00 20.00     0.016 C 
ENDROOT
BRANCH   2  10
HETATM   10  C3  UNL     1     -37.784  15.760  -4.170  1.00 20.00     0.151 C 
HETATM   11  C9  UNL     1     -38.552  17.060  -4.211  1.00 20.00     0.096 C 
HETATM   12  O12 UNL     1     -38.361  14.677  -4.324  1.00 20.00    -0.293 OA
ENDBRANCH   2  10
TORSDOF 1
ENDMDL
MODEL 8
REMARK VINA RESULT:      -4.3      1.241      1.493
REMARK  1 active torsions:
REMARK  status: ('A' for Active; 'I' for Inactive)
REMARK    1  A    between atoms: C2_2  and  C3_3 
ROOT
HETATM    1  C1  UNL     1     -33.258  16.266  -5.323  1.00 20.00    -0.015 C 
HETATM    2  C2  UNL     1     -33.945  16.431  -4.179  1.00 20.00    -0.012 C 
HETATM    3  C4  UNL     1     -33.664  15.184  -6.305  1.00 20.00     0.033 C 
HETATM    4  C5  UNL     1     -34.620  14.012  -4.256  1.00 20.00     0.016 C 
HETATM    5  C6  UNL     1     -35.079  15.482  -3.932  1.00 20.00     0.030 C 
HETATM    6  C7  UNL     1     -34.883  14.416  -5.746  1.00 20.00    -0.002 C 
HETATM    7  C8  UNL     1     -36.064  15.321  -5.178  1.00 20.00    -0.036 C 
HETATM    8  C10 UNL     1     -37.376  14.572  -4.873  1.00 20.00     0.016 C 
HETATM    9  C11 UNL     1     -36.431  16.580  -5.976  1.00 20.00     0.016 C 
ENDROOT
BRANCH   2  10
HETATM   10  C3  UNL     1     -33.573  17.481  -3.238  1.00 20.00     0.151 C 
HETATM   11  C9  UNL     1     -33.731  17.208  -1.761  1.00 20.00     0.096 C 
HETATM   12  O12 UNL     1     -33.149  18.571  -3.640  1.00 20.00    -0.293 OA
ENDBRANCH   2  10
TORSDOF 1
ENDMDL
MODEL 9
REMARK VINA RESULT:      -4.2      1.462      1.874
REMARK  1 active torsions:
REMARK  status: ('A' for Active; 'I' for Inactive)
REMARK    1  A    between atoms: C2_2  and  C3_3 
ROOT
HETATM    1  C1  UNL     1     -33.691  15.898  -3.496  1.00 20.00    -0.015 C 
HETATM    2  C2  UNL     1     -35.031  15.991  -3.419  1.00 20.00    -0.012 C 
HETATM    3  C4  UNL     1     -33.049  15.071  -4.592  1.00 20.00     0.033 C 
HETATM    4  C5  UNL     1     -35.234  13.763  -4.563  1.00 20.00     0.016 C 
HETATM    5  C6  UNL     1     -35.819  15.219  -4.433  1.00 20.00     0.030 C 
HETATM    6  C7  UNL     1     -34.152  14.439  -5.470  1.00 20.00    -0.002 C 
HETATM    7  C8  UNL     1     -35.313  15.427  -5.932  1.00 20.00    -0.036 C 
HETATM    8  C10 UNL     1     -36.257  14.869  -7.016  1.00 20.00     0.016 C 
HETATM    9  C11 UNL     1     -34.903  16.840  -6.367  1.00 20.00     0.016 C 
ENDROOT
BRANCH   2  10
HETATM   10  C3  UNL     1     -35.657  16.801  -2.379  1.00 20.00     0.151 C 
HETATM   11  C9  UNL     1     -36.708  17.805  -2.790  1.00 20.00     0.096 C 
HETATM   12  O12 UNL     1     -35.329  16.674  -1.193  1.00 20.00    -0.293 OA
ENDBRANCH   2  10
TORSDOF 1
ENDMDL
