MODEL 1
REMARK VINA RESULT:      -5.9      0.000      0.000
REMARK  0 active torsions:
REMARK  status: ('A' for Active; 'I' for Inactive)
ROOT
HETATM    1  C1  UNL     1     -32.419   7.425   2.900  1.00 20.00    -0.039 C 
HETATM    2  C2  UNL     1     -33.084   6.123   2.894  1.00 20.00     0.034 C 
HETATM    3  C3  UNL     1     -34.456   5.015   4.711  1.00 20.00     0.224 C 
HETATM    4  C4  UNL     1     -31.812   8.043   1.880  1.00 20.00     0.021 C 
HETATM    5  C5  UNL     1     -32.933   5.140   2.000  1.00 20.00     0.044 C 
HETATM    6  C6  UNL     1     -32.603   8.025   4.285  1.00 20.00     0.065 C 
HETATM    7  C7  UNL     1     -34.832   5.578   6.072  1.00 20.00     0.105 C 
HETATM    8  C8  UNL     1     -33.946   6.829   6.205  1.00 20.00     0.035 C 
HETATM    9  C9  UNL     1     -33.845   7.299   4.772  1.00 20.00     0.098 C 
HETATM   10  N10 UNL     1     -33.834   6.056   4.038  1.00 20.00    -0.313 N 
HETATM   11  O11 UNL     1     -34.668   3.869   4.348  1.00 20.00    -0.273 OA
ENDROOT
TORSDOF 0
ENDMDL
MODEL 2
REMARK VINA RESULT:      -4.9     11.606     12.390
REMARK  0 active torsions:
REMARK  status: ('A' for Active; 'I' for Inactive)
ROOT
HETATM    1  C1  UNL     1     -34.509  16.188  -3.057  1.00 20.00    -0.039 C 
HETATM    2  C2  UNL     1     -34.361  15.032  -3.940  1.00 20.00     0.034 C 
HETATM    3  C3  UNL     1     -36.120  13.806  -5.288  1.00 20.00     0.224 C 
HETATM    4  C4  UNL     1     -33.543  16.897  -2.462  1.00 20.00     0.021 C 
HETATM    5  C5  UNL     1     -33.291  14.238  -4.062  1.00 20.00     0.044 C 
HETATM    6  C6  UNL     1     -35.992  16.518  -2.984  1.00 20.00     0.065 C 
HETATM    7  C7  UNL     1     -37.598  14.136  -5.412  1.00 20.00     0.105 C 
HETATM    8  C8  UNL     1     -37.831  15.182  -4.308  1.00 20.00     0.035 C 
HETATM    9  C9  UNL     1     -36.506  15.909  -4.277  1.00 20.00     0.098 C 
HETATM   10  N10 UNL     1     -35.566  14.853  -4.565  1.00 20.00    -0.313 N 
HETATM   11  O11 UNL     1     -35.588  12.803  -5.737  1.00 20.00    -0.273 OA
ENDROOT
TORSDOF 0
ENDMDL
MODEL 3
REMARK VINA RESULT:      -4.7     12.396     13.016
REMARK  0 active torsions:
REMARK  status: ('A' for Active; 'I' for Inactive)
ROOT
HETATM    1  C1  UNL     1     -34.258  18.623   2.536  1.00 20.00    -0.039 C 
HETATM    2  C2  UNL     1     -32.936  18.720   1.921  1.00 20.00     0.034 C 
HETATM    3  C3  UNL     1     -32.232  18.216  -0.459  1.00 20.00     0.224 C 
HETATM    4  C4  UNL     1     -34.627  19.021   3.759  1.00 20.00     0.021 C 
HETATM    5  C5  UNL     1     -31.764  18.895   2.542  1.00 20.00     0.044 C 
HETATM    6  C6  UNL     1     -35.205  18.047   1.495  1.00 20.00     0.065 C 
HETATM    7  C7  UNL     1     -33.112  17.782  -1.620  1.00 20.00     0.105 C 
HETATM    8  C8  UNL     1     -34.452  17.432  -0.950  1.00 20.00     0.035 C 
HETATM    9  C9  UNL     1     -34.496  18.411   0.201  1.00 20.00     0.098 C 
HETATM   10  N10 UNL     1     -33.106  18.506   0.579  1.00 20.00    -0.313 N 
HETATM   11  O11 UNL     1     -31.013  18.263  -0.488  1.00 20.00    -0.273 OA
ENDROOT
TORSDOF 0
ENDMDL
MODEL 4
REMARK VINA RESULT:      -4.7      1.625      2.571
REMARK  0 active torsions:
REMARK  status: ('A' for Active; 'I' for Inactive)
ROOT
HETATM    1  C1  UNL     1     -32.412   7.853   2.104  1.00 20.00    -0.039 C 
HETATM    2  C2  UNL     1     -32.316   7.981   3.557  1.00 20.00     0.034 C 
HETATM    3  C3  UNL     1     -33.670   6.830   5.362  1.00 20.00     0.224 C 
HETATM    4  C4  UNL     1     -31.597   8.371   1.177  1.00 20.00     0.021 C 
HETATM    5  C5  UNL     1     -31.629   8.899   4.246  1.00 20.00     0.044 C 
HETATM    6  C6  UNL     1     -33.585   6.934   1.803  1.00 20.00     0.065 C 
HETATM    7  C7  UNL     1     -34.760   5.785   5.188  1.00 20.00     0.105 C 
HETATM    8  C8  UNL     1     -35.054   5.815   3.678  1.00 20.00     0.035 C 
HETATM    9  C9  UNL     1     -33.698   6.146   3.097  1.00 20.00     0.098 C 
HETATM   10  N10 UNL     1     -33.142   7.030   4.094  1.00 20.00    -0.313 N 
HETATM   11  O11 UNL     1     -33.375   7.362   6.420  1.00 20.00    -0.273 OA
ENDROOT
TORSDOF 0
ENDMDL
MODEL 5
REMARK VINA RESULT:      -4.5     12.293     12.706
REMARK  0 active torsions:
REMARK  status: ('A' for Active; 'I' for Inactive)
ROOT
HETATM    1  C1  UNL     1     -33.956  16.321  -3.659  1.00 20.00    -0.039 C 
HETATM    2  C2  UNL     1     -35.316  15.785  -3.650  1.00 20.00     0.034 C 
HETATM    3  C3  UNL     1     -36.359  14.030  -5.148  1.00 20.00     0.224 C 
HETATM    4  C4  UNL     1     -33.394  17.151  -2.773  1.00 20.00     0.021 C 
HETATM    5  C5  UNL     1     -36.371  16.261  -2.978  1.00 20.00     0.044 C 
HETATM    6  C6  UNL     1     -33.229  15.699  -4.841  1.00 20.00     0.065 C 
HETATM    7  C7  UNL     1     -35.692  13.234  -6.258  1.00 20.00     0.105 C 
HETATM    8  C8  UNL     1     -34.344  13.948  -6.457  1.00 20.00     0.035 C 
HETATM    9  C9  UNL     1     -34.029  14.426  -5.058  1.00 20.00     0.098 C 
HETATM   10  N10 UNL     1     -35.337  14.742  -4.537  1.00 20.00    -0.313 N 
HETATM   11  O11 UNL     1     -37.555  14.018  -4.903  1.00 20.00    -0.273 OA
ENDROOT
TORSDOF 0
ENDMDL
MODEL 6
REMARK VINA RESULT:      -4.3     11.712     12.851
REMARK  0 active torsions:
REMARK  status: ('A' for Active; 'I' for Inactive)
ROOT
HETATM    1  C1  UNL     1     -37.317  16.801  -3.956  1.00 20.00    -0.039 C 
HETATM    2  C2  UNL     1     -37.252  15.405  -4.385  1.00 20.00     0.034 C 
HETATM    3  C3  UNL     1     -35.232  13.898  -4.640  1.00 20.00     0.224 C 
HETATM    4  C4  UNL     1     -38.409  17.533  -3.704  1.00 20.00     0.021 C 
HETATM    5  C5  UNL     1     -38.229  14.681  -4.942  1.00 20.00     0.044 C 
HETATM    6  C6  UNL     1     -35.889  17.285  -3.758  1.00 20.00     0.065 C 
HETATM    7  C7  UNL     1     -33.780  14.223  -4.328  1.00 20.00     0.105 C 
HETATM    8  C8  UNL     1     -33.786  15.747  -4.117  1.00 20.00     0.035 C 
HETATM    9  C9  UNL     1     -35.153  15.979  -3.516  1.00 20.00     0.098 C 
HETATM   10  N10 UNL     1     -35.960  14.992  -4.193  1.00 20.00    -0.313 N 
HETATM   11  O11 UNL     1     -35.617  12.877  -5.187  1.00 20.00    -0.273 OA
ENDROOT
TORSDOF 0
ENDMDL
MODEL 7
REMARK VINA RESULT:      -4.1     12.601     13.692
REMARK  0 active torsions:
REMARK  status: ('A' for Active; 'I' for Inactive)
ROOT
HETATM    1  C1  UNL     1     -34.376  14.636  -5.985  1.00 20.00    -0.039 C 
HETATM    2  C2  UNL     1     -33.927  16.017  -6.154  1.00 20.00     0.034 C 
HETATM    3  C3  UNL     1     -33.483  17.785  -4.396  1.00 20.00     0.224 C 
HETATM    4  C4  UNL     1     -34.475  13.685  -6.921  1.00 20.00     0.021 C 
HETATM    5  C5  UNL     1     -33.855  16.713  -7.294  1.00 20.00     0.044 C 
HETATM    6  C6  UNL     1     -34.649  14.422  -4.505  1.00 20.00     0.065 C 
HETATM    7  C7  UNL     1     -33.574  17.643  -2.885  1.00 20.00     0.105 C 
HETATM    8  C8  UNL     1     -34.281  16.290  -2.689  1.00 20.00     0.035 C 
HETATM    9  C9  UNL     1     -33.780  15.497  -3.874  1.00 20.00     0.098 C 
HETATM   10  N10 UNL     1     -33.673  16.507  -4.900  1.00 20.00    -0.313 N 
HETATM   11  O11 UNL     1     -33.297  18.837  -4.987  1.00 20.00    -0.273 OA
ENDROOT
TORSDOF 0
ENDMDL
MODEL 8
REMARK VINA RESULT:      -4.1     12.237     13.733
REMARK  0 active torsions:
REMARK  status: ('A' for Active; 'I' for Inactive)
ROOT
HETATM    1  C1  UNL     1     -33.569  17.960  -4.865  1.00 20.00    -0.039 C 
HETATM    2  C2  UNL     1     -33.690  16.690  -4.152  1.00 20.00     0.034 C 
HETATM    3  C3  UNL     1     -34.183  14.379  -5.063  1.00 20.00     0.224 C 
HETATM    4  C4  UNL     1     -33.178  19.143  -4.377  1.00 20.00     0.021 C 
HETATM    5  C5  UNL     1     -33.775  16.508  -2.830  1.00 20.00     0.044 C 
HETATM    6  C6  UNL     1     -33.896  17.696  -6.327  1.00 20.00     0.065 C 
HETATM    7  C7  UNL     1     -34.376  13.970  -6.515  1.00 20.00     0.105 C 
HETATM    8  C8  UNL     1     -34.504  15.311  -7.257  1.00 20.00     0.035 C 
HETATM    9  C9  UNL     1     -33.601  16.210  -6.443  1.00 20.00     0.098 C 
HETATM   10  N10 UNL     1     -33.792  15.709  -5.103  1.00 20.00    -0.313 N 
HETATM   11  O11 UNL     1     -34.366  13.649  -4.103  1.00 20.00    -0.273 OA
ENDROOT
TORSDOF 0
ENDMDL
MODEL 9
REMARK VINA RESULT:      -4.1     11.846     12.916
REMARK  0 active torsions:
REMARK  status: ('A' for Active; 'I' for Inactive)
ROOT
HETATM    1  C1  UNL     1     -36.634  17.233  -3.329  1.00 20.00    -0.039 C 
HETATM    2  C2  UNL     1     -35.465  16.356  -3.300  1.00 20.00     0.034 C 
HETATM    3  C3  UNL     1     -35.092  14.141  -4.469  1.00 20.00     0.224 C 
HETATM    4  C4  UNL     1     -36.755  18.460  -2.809  1.00 20.00     0.021 C 
HETATM    5  C5  UNL     1     -34.414  16.434  -2.477  1.00 20.00     0.044 C 
HETATM    6  C6  UNL     1     -37.710  16.533  -4.145  1.00 20.00     0.065 C 
HETATM    7  C7  UNL     1     -36.029  13.420  -5.424  1.00 20.00     0.105 C 
HETATM    8  C8  UNL     1     -37.356  14.185  -5.278  1.00 20.00     0.035 C 
HETATM    9  C9  UNL     1     -36.880  15.593  -5.004  1.00 20.00     0.098 C 
HETATM   10  N10 UNL     1     -35.685  15.371  -4.226  1.00 20.00    -0.313 N 
HETATM   11  O11 UNL     1     -34.053  13.676  -4.027  1.00 20.00    -0.273 OA
ENDROOT
TORSDOF 0
ENDMDL
