MODEL 1
REMARK VINA RESULT:      -4.4      0.000      0.000
REMARK  1 active torsions:
REMARK  status: ('A' for Active; 'I' for Inactive)
REMARK    1  A    between atoms: C3_3  and  C6_6 
ROOT
HETATM    1  C1  UNL     1     -33.939  17.007  -6.420  1.00 20.00    -0.029 C 
HETATM    2  C2  UNL     1     -33.674  16.845  -5.121  1.00 20.00    -0.021 C 
HETATM    3  C4  UNL     1     -34.713  15.856  -6.975  1.00 20.00     0.046 C 
HETATM    4  C5  UNL     1     -34.213  15.536  -4.589  1.00 20.00    -0.015 C 
HETATM    5  C6  UNL     1     -35.265  15.174  -5.699  1.00 20.00     0.046 C 
HETATM    6  C7  UNL     1     -34.806  15.714  -3.187  1.00 20.00     0.020 C 
HETATM    7  C8  UNL     1     -33.038  14.538  -4.506  1.00 20.00     0.020 C 
HETATM    8  C9  UNL     1     -36.686  15.705  -5.419  1.00 20.00     0.026 C 
ENDROOT
BRANCH   5   9
HETATM    9  C3  UNL     1     -35.392  13.687  -5.903  1.00 20.00     0.228 C 
HETATM   10  O10 UNL     1     -35.974  12.972  -5.093  1.00 20.00    -0.279 OA
HETATM   11 CL11 UNL     1     -34.633  13.160  -7.375  1.00 20.00    -0.043 Cl
ENDBRANCH   5   9
TORSDOF 1
ENDMDL
MODEL 2
REMARK VINA RESULT:      -4.3      1.814      2.307
REMARK  1 active torsions:
REMARK  status: ('A' for Active; 'I' for Inactive)
REMARK    1  A    between atoms: C3_3  and  C6_6 
ROOT
HETATM    1  C1  UNL     1     -33.787  14.662  -7.864  1.00 20.00    -0.029 C 
HETATM    2  C2  UNL     1     -33.840  15.773  -7.122  1.00 20.00    -0.021 C 
HETATM    3  C4  UNL     1     -34.814  13.663  -7.439  1.00 20.00     0.046 C 
HETATM    4  C5  UNL     1     -34.907  15.693  -6.054  1.00 20.00    -0.015 C 
HETATM    5  C6  UNL     1     -35.798  14.523  -6.610  1.00 20.00     0.046 C 
HETATM    6  C7  UNL     1     -35.639  17.032  -5.906  1.00 20.00     0.020 C 
HETATM    7  C8  UNL     1     -34.215  15.358  -4.716  1.00 20.00     0.020 C 
HETATM    8  C9  UNL     1     -36.953  14.988  -7.522  1.00 20.00     0.026 C 
ENDROOT
BRANCH   5   9
HETATM    9  C3  UNL     1     -36.421  13.706  -5.508  1.00 20.00     0.228 C 
HETATM   10  O10 UNL     1     -35.920  12.653  -5.124  1.00 20.00    -0.279 OA
HETATM   11 CL11 UNL     1     -37.873  14.434  -4.892  1.00 20.00    -0.043 Cl
ENDBRANCH   5   9
TORSDOF 1
ENDMDL
MODEL 3
REMARK VINA RESULT:      -4.3      1.226      2.494
REMARK  1 active torsions:
REMARK  status: ('A' for Active; 'I' for Inactive)
REMARK    1  A    between atoms: C3_3  and  C6_6 
ROOT
HETATM    1  C1  UNL     1     -33.900  15.686  -3.450  1.00 20.00    -0.029 C 
HETATM    2  C2  UNL     1     -34.836  16.571  -3.809  1.00 20.00    -0.021 C 
HETATM    3  C4  UNL     1     -34.009  14.418  -4.233  1.00 20.00     0.046 C 
HETATM    4  C5  UNL     1     -35.748  16.029  -4.887  1.00 20.00    -0.015 C 
HETATM    5  C6  UNL     1     -34.881  14.840  -5.440  1.00 20.00     0.046 C 
HETATM    6  C7  UNL     1     -36.077  17.110  -5.922  1.00 20.00     0.020 C 
HETATM    7  C8  UNL     1     -37.059  15.573  -4.214  1.00 20.00     0.020 C 
HETATM    8  C9  UNL     1     -33.960  15.225  -6.617  1.00 20.00     0.026 C 
ENDROOT
BRANCH   5   9
HETATM    9  C3  UNL     1     -35.728  13.688  -5.914  1.00 20.00     0.228 C 
HETATM   10  O10 UNL     1     -35.876  12.675  -5.236  1.00 20.00    -0.279 OA
HETATM   11 CL11 UNL     1     -36.427  13.986  -7.476  1.00 20.00    -0.043 Cl
ENDBRANCH   5   9
TORSDOF 1
ENDMDL
MODEL 4
REMARK VINA RESULT:      -4.0      2.141      3.299
REMARK  1 active torsions:
REMARK  status: ('A' for Active; 'I' for Inactive)
REMARK    1  A    between atoms: C3_3  and  C6_6 
ROOT
HETATM    1  C1  UNL     1     -36.407  16.449  -6.566  1.00 20.00    -0.029 C 
HETATM    2  C2  UNL     1     -36.450  15.195  -7.025  1.00 20.00    -0.021 C 
HETATM    3  C4  UNL     1     -35.369  16.614  -5.503  1.00 20.00     0.046 C 
HETATM    4  C5  UNL     1     -35.454  14.298  -6.325  1.00 20.00    -0.015 C 
HETATM    5  C6  UNL     1     -34.479  15.363  -5.704  1.00 20.00     0.046 C 
HETATM    6  C7  UNL     1     -34.792  13.334  -7.315  1.00 20.00     0.020 C 
HETATM    7  C8  UNL     1     -36.219  13.473  -5.269  1.00 20.00     0.020 C 
HETATM    8  C9  UNL     1     -33.287  15.734  -6.611  1.00 20.00     0.026 C 
ENDROOT
BRANCH   5   9
HETATM    9  C3  UNL     1     -33.898  14.908  -4.391  1.00 20.00     0.228 C 
HETATM   10  O10 UNL     1     -33.067  14.006  -4.331  1.00 20.00    -0.279 OA
HETATM   11 CL11 UNL     1     -34.542  15.798  -3.044  1.00 20.00    -0.043 Cl
ENDBRANCH   5   9
TORSDOF 1
ENDMDL
MODEL 5
REMARK VINA RESULT:      -4.0      2.201      3.415
REMARK  1 active torsions:
REMARK  status: ('A' for Active; 'I' for Inactive)
REMARK    1  A    between atoms: C3_3  and  C6_6 
ROOT
HETATM    1  C1  UNL     1     -35.014  16.631  -2.162  1.00 20.00    -0.029 C 
HETATM    2  C2  UNL     1     -36.038  16.573  -3.019  1.00 20.00    -0.021 C 
HETATM    3  C4  UNL     1     -33.717  16.304  -2.828  1.00 20.00     0.046 C 
HETATM    4  C5  UNL     1     -35.596  16.173  -4.408  1.00 20.00    -0.015 C 
HETATM    5  C6  UNL     1     -34.056  16.474  -4.329  1.00 20.00     0.046 C 
HETATM    6  C7  UNL     1     -36.346  16.978  -5.476  1.00 20.00     0.020 C 
HETATM    7  C8  UNL     1     -35.923  14.677  -4.597  1.00 20.00     0.020 C 
HETATM    8  C9  UNL     1     -33.667  17.899  -4.774  1.00 20.00     0.026 C 
ENDROOT
BRANCH   5   9
HETATM    9  C3  UNL     1     -33.244  15.523  -5.169  1.00 20.00     0.228 C 
HETATM   10  O10 UNL     1     -33.098  15.691  -6.376  1.00 20.00    -0.279 OA
HETATM   11 CL11 UNL     1     -32.579  14.221  -4.229  1.00 20.00    -0.043 Cl
ENDBRANCH   5   9
TORSDOF 1
ENDMDL
MODEL 6
REMARK VINA RESULT:      -4.0      1.644      2.830
REMARK  1 active torsions:
REMARK  status: ('A' for Active; 'I' for Inactive)
REMARK    1  A    between atoms: C3_3  and  C6_6 
ROOT
HETATM    1  C1  UNL     1     -34.645  17.302  -5.201  1.00 20.00    -0.029 C 
HETATM    2  C2  UNL     1     -34.356  16.873  -6.433  1.00 20.00    -0.021 C 
HETATM    3  C4  UNL     1     -35.320  16.244  -4.390  1.00 20.00     0.046 C 
HETATM    4  C5  UNL     1     -34.813  15.450  -6.661  1.00 20.00    -0.015 C 
HETATM    5  C6  UNL     1     -34.994  14.954  -5.180  1.00 20.00     0.046 C 
HETATM    6  C7  UNL     1     -33.777  14.662  -7.472  1.00 20.00     0.020 C 
HETATM    7  C8  UNL     1     -36.133  15.497  -7.459  1.00 20.00     0.020 C 
HETATM    8  C9  UNL     1     -33.734  14.298  -4.576  1.00 20.00     0.026 C 
ENDROOT
BRANCH   5   9
HETATM    9  C3  UNL     1     -36.110  13.951  -5.045  1.00 20.00     0.228 C 
HETATM   10  O10 UNL     1     -35.932  12.755  -5.258  1.00 20.00    -0.279 OA
HETATM   11 CL11 UNL     1     -37.606  14.696  -4.571  1.00 20.00    -0.043 Cl
ENDBRANCH   5   9
TORSDOF 1
ENDMDL
MODEL 7
REMARK VINA RESULT:      -3.9      1.386      2.457
REMARK  1 active torsions:
REMARK  status: ('A' for Active; 'I' for Inactive)
REMARK    1  A    between atoms: C3_3  and  C6_6 
ROOT
HETATM    1  C1  UNL     1     -35.914  16.175  -3.173  1.00 20.00    -0.029 C 
HETATM    2  C2  UNL     1     -34.598  15.945  -3.131  1.00 20.00    -0.021 C 
HETATM    3  C4  UNL     1     -36.481  15.900  -4.527  1.00 20.00     0.046 C 
HETATM    4  C5  UNL     1     -34.057  15.494  -4.470  1.00 20.00    -0.015 C 
HETATM    5  C6  UNL     1     -35.379  15.036  -5.186  1.00 20.00     0.046 C 
HETATM    6  C7  UNL     1     -33.013  14.385  -4.295  1.00 20.00     0.020 C 
HETATM    7  C8  UNL     1     -33.381  16.707  -5.141  1.00 20.00     0.020 C 
HETATM    8  C9  UNL     1     -35.722  13.545  -4.986  1.00 20.00     0.026 C 
ENDROOT
BRANCH   5   9
HETATM    9  C3  UNL     1     -35.334  15.274  -6.673  1.00 20.00     0.228 C 
HETATM   10  O10 UNL     1     -35.953  16.195  -7.198  1.00 20.00    -0.279 OA
HETATM   11 CL11 UNL     1     -34.332  14.115  -7.493  1.00 20.00    -0.043 Cl
ENDBRANCH   5   9
TORSDOF 1
ENDMDL
MODEL 8
REMARK VINA RESULT:      -3.9      2.033      2.965
REMARK  1 active torsions:
REMARK  status: ('A' for Active; 'I' for Inactive)
REMARK    1  A    between atoms: C3_3  and  C6_6 
ROOT
HETATM    1  C1  UNL     1     -35.923  13.781  -7.485  1.00 20.00    -0.029 C 
HETATM    2  C2  UNL     1     -35.636  15.076  -7.648  1.00 20.00    -0.021 C 
HETATM    3  C4  UNL     1     -35.636  13.322  -6.093  1.00 20.00     0.046 C 
HETATM    4  C5  UNL     1     -35.083  15.699  -6.386  1.00 20.00    -0.015 C 
HETATM    5  C6  UNL     1     -35.549  14.654  -5.309  1.00 20.00     0.046 C 
HETATM    6  C7  UNL     1     -35.641  17.112  -6.181  1.00 20.00     0.020 C 
HETATM    7  C8  UNL     1     -33.550  15.790  -6.534  1.00 20.00     0.020 C 
HETATM    8  C9  UNL     1     -36.926  14.961  -4.684  1.00 20.00     0.026 C 
ENDROOT
BRANCH   5   9
HETATM    9  C3  UNL     1     -34.573  14.536  -4.167  1.00 20.00     0.228 C 
HETATM   10  O10 UNL     1     -33.797  13.590  -4.077  1.00 20.00    -0.279 OA
HETATM   11 CL11 UNL     1     -34.700  15.866  -3.056  1.00 20.00    -0.043 Cl
ENDBRANCH   5   9
TORSDOF 1
ENDMDL
MODEL 9
REMARK VINA RESULT:      -3.9      1.602      2.814
REMARK  1 active torsions:
REMARK  status: ('A' for Active; 'I' for Inactive)
REMARK    1  A    between atoms: C3_3  and  C6_6 
ROOT
HETATM    1  C1  UNL     1     -37.179  16.831  -4.599  1.00 20.00    -0.029 C 
HETATM    2  C2  UNL     1     -36.223  17.428  -5.317  1.00 20.00    -0.021 C 
HETATM    3  C4  UNL     1     -36.716  15.526  -4.038  1.00 20.00     0.046 C 
HETATM    4  C5  UNL     1     -34.956  16.604  -5.373  1.00 20.00    -0.015 C 
HETATM    5  C6  UNL     1     -35.177  15.634  -4.156  1.00 20.00     0.046 C 
HETATM    6  C7  UNL     1     -33.714  17.496  -5.257  1.00 20.00     0.020 C 
HETATM    7  C8  UNL     1     -34.920  15.883  -6.737  1.00 20.00     0.020 C 
HETATM    8  C9  UNL     1     -34.605  16.156  -2.821  1.00 20.00     0.026 C 
ENDROOT
BRANCH   5   9
HETATM    9  C3  UNL     1     -34.565  14.278  -4.389  1.00 20.00     0.228 C 
HETATM   10  O10 UNL     1     -35.253  13.294  -4.644  1.00 20.00    -0.279 OA
HETATM   11 CL11 UNL     1     -32.833  14.307  -4.248  1.00 20.00    -0.043 Cl
ENDBRANCH   5   9
TORSDOF 1
ENDMDL
