MODEL 1
REMARK VINA RESULT:      -4.5      0.000      0.000
REMARK  0 active torsions:
REMARK  status: ('A' for Active; 'I' for Inactive)
ROOT
HETATM    1  C1  UNL     1     -32.905   7.224   3.654  1.00 20.00     0.080 A 
HETATM    2  C2  UNL     1     -33.120   4.827   2.687  1.00 20.00     0.019 A 
HETATM    3  C3  UNL     1     -34.612   5.866   4.581  1.00 20.00     0.128 A 
HETATM    4  C4  UNL     1     -33.332   6.312   2.568  1.00 20.00     0.053 A 
HETATM    5  C5  UNL     1     -34.410   5.439   3.158  1.00 20.00     0.015 A 
HETATM    6  C6  UNL     1     -33.579   7.605   6.079  1.00 20.00     0.150 C 
HETATM    7  N7  UNL     1     -33.660   6.955   4.783  1.00 20.00    -0.379 N 
HETATM    8  S8  UNL     1     -31.692   8.309   3.361  1.00 20.00    -0.065 SA
ENDROOT
TORSDOF 0
ENDMDL
MODEL 2
REMARK VINA RESULT:      -4.3      1.622      2.574
REMARK  0 active torsions:
REMARK  status: ('A' for Active; 'I' for Inactive)
ROOT
HETATM    1  C1  UNL     1     -33.820   6.294   3.642  1.00 20.00     0.080 A 
HETATM    2  C2  UNL     1     -34.390   4.872   5.735  1.00 20.00     0.019 A 
HETATM    3  C3  UNL     1     -33.478   7.334   5.745  1.00 20.00     0.128 A 
HETATM    4  C4  UNL     1     -34.823   5.700   4.556  1.00 20.00     0.053 A 
HETATM    5  C5  UNL     1     -34.600   6.352   5.897  1.00 20.00     0.015 A 
HETATM    6  C6  UNL     1     -31.987   8.049   3.847  1.00 20.00     0.150 C 
HETATM    7  N7  UNL     1     -33.078   7.228   4.344  1.00 20.00    -0.379 N 
HETATM    8  S8  UNL     1     -33.755   5.773   2.075  1.00 20.00    -0.065 SA
ENDROOT
TORSDOF 0
ENDMDL
MODEL 3
REMARK VINA RESULT:      -3.9      1.750      2.644
REMARK  0 active torsions:
REMARK  status: ('A' for Active; 'I' for Inactive)
ROOT
HETATM    1  C1  UNL     1     -33.732   6.768   4.555  1.00 20.00     0.080 A 
HETATM    2  C2  UNL     1     -31.904   7.630   2.930  1.00 20.00     0.019 A 
HETATM    3  C3  UNL     1     -33.566   5.649   2.472  1.00 20.00     0.128 A 
HETATM    4  C4  UNL     1     -33.248   7.781   3.589  1.00 20.00     0.053 A 
HETATM    5  C5  UNL     1     -33.130   7.069   2.265  1.00 20.00     0.015 A 
HETATM    6  C6  UNL     1     -34.376   4.307   4.442  1.00 20.00     0.150 C 
HETATM    7  N7  UNL     1     -33.915   5.569   3.888  1.00 20.00    -0.379 N 
HETATM    8  S8  UNL     1     -33.941   7.203   6.137  1.00 20.00    -0.065 SA
ENDROOT
TORSDOF 0
ENDMDL
MODEL 4
REMARK VINA RESULT:      -3.8      1.910      2.759
REMARK  0 active torsions:
REMARK  status: ('A' for Active; 'I' for Inactive)
ROOT
HETATM    1  C1  UNL     1     -33.544   6.780   3.626  1.00 20.00     0.080 A 
HETATM    2  C2  UNL     1     -32.674   8.499   1.890  1.00 20.00     0.019 A 
HETATM    3  C3  UNL     1     -31.929   8.332   4.402  1.00 20.00     0.128 A 
HETATM    4  C4  UNL     1     -32.698   7.105   2.454  1.00 20.00     0.053 A 
HETATM    5  C5  UNL     1     -31.677   8.101   2.942  1.00 20.00     0.015 A 
HETATM    6  C6  UNL     1     -33.601   7.472   6.075  1.00 20.00     0.150 C 
HETATM    7  N7  UNL     1     -33.075   7.484   4.722  1.00 20.00    -0.379 N 
HETATM    8  S8  UNL     1     -34.806   5.729   3.437  1.00 20.00    -0.065 SA
ENDROOT
TORSDOF 0
ENDMDL
MODEL 5
REMARK VINA RESULT:      -3.6      1.556      2.404
REMARK  0 active torsions:
REMARK  status: ('A' for Active; 'I' for Inactive)
ROOT
HETATM    1  C1  UNL     1     -33.446   7.015   4.798  1.00 20.00     0.080 A 
HETATM    2  C2  UNL     1     -35.460   5.805   3.699  1.00 20.00     0.019 A 
HETATM    3  C3  UNL     1     -33.084   6.129   2.630  1.00 20.00     0.128 A 
HETATM    4  C4  UNL     1     -34.329   5.831   4.692  1.00 20.00     0.053 A 
HETATM    5  C5  UNL     1     -34.110   5.272   3.309  1.00 20.00     0.015 A 
HETATM    6  C6  UNL     1     -31.766   8.173   3.277  1.00 20.00     0.150 C 
HETATM    7  N7  UNL     1     -32.741   7.152   3.614  1.00 20.00    -0.379 N 
HETATM    8  S8  UNL     1     -33.461   7.904   6.192  1.00 20.00    -0.065 SA
ENDROOT
TORSDOF 0
ENDMDL
MODEL 6
REMARK VINA RESULT:      -3.3     12.122     12.904
REMARK  0 active torsions:
REMARK  status: ('A' for Active; 'I' for Inactive)
ROOT
HETATM    1  C1  UNL     1     -34.111  14.756  -6.269  1.00 20.00     0.080 A 
HETATM    2  C2  UNL     1     -33.514  16.971  -5.059  1.00 20.00     0.019 A 
HETATM    3  C3  UNL     1     -34.580  14.844  -3.947  1.00 20.00     0.128 A 
HETATM    4  C4  UNL     1     -33.100  15.667  -5.686  1.00 20.00     0.053 A 
HETATM    5  C5  UNL     1     -33.403  15.735  -4.210  1.00 20.00     0.015 A 
HETATM    6  C6  UNL     1     -36.056  13.382  -5.369  1.00 20.00     0.150 C 
HETATM    7  N7  UNL     1     -34.931  14.294  -5.254  1.00 20.00    -0.379 N 
HETATM    8  S8  UNL     1     -34.096  14.480  -7.899  1.00 20.00    -0.065 SA
ENDROOT
TORSDOF 0
ENDMDL
MODEL 7
REMARK VINA RESULT:      -3.2     11.786     12.405
REMARK  0 active torsions:
REMARK  status: ('A' for Active; 'I' for Inactive)
ROOT
HETATM    1  C1  UNL     1     -35.761  14.735  -4.456  1.00 20.00     0.080 A 
HETATM    2  C2  UNL     1     -33.672  16.218  -4.049  1.00 20.00     0.019 A 
HETATM    3  C3  UNL     1     -36.057  16.594  -3.015  1.00 20.00     0.128 A 
HETATM    4  C4  UNL     1     -34.450  14.953  -3.802  1.00 20.00     0.053 A 
HETATM    5  C5  UNL     1     -34.632  16.143  -2.894  1.00 20.00     0.015 A 
HETATM    6  C6  UNL     1     -38.054  15.835  -4.346  1.00 20.00     0.150 C 
HETATM    7  N7  UNL     1     -36.658  15.675  -3.979  1.00 20.00    -0.379 N 
HETATM    8  S8  UNL     1     -35.912  13.514  -5.561  1.00 20.00    -0.065 SA
ENDROOT
TORSDOF 0
ENDMDL
MODEL 8
REMARK VINA RESULT:      -3.2      1.193      2.706
REMARK  0 active torsions:
REMARK  status: ('A' for Active; 'I' for Inactive)
ROOT
HETATM    1  C1  UNL     1     -33.114   7.132   3.736  1.00 20.00     0.080 A 
HETATM    2  C2  UNL     1     -34.147   7.613   6.066  1.00 20.00     0.019 A 
HETATM    3  C3  UNL     1     -34.806   5.640   4.463  1.00 20.00     0.128 A 
HETATM    4  C4  UNL     1     -33.018   7.100   5.214  1.00 20.00     0.053 A 
HETATM    5  C5  UNL     1     -34.101   6.160   5.680  1.00 20.00     0.015 A 
HETATM    6  C6  UNL     1     -34.576   6.006   1.983  1.00 20.00     0.150 C 
HETATM    7  N7  UNL     1     -34.131   6.283   3.338  1.00 20.00    -0.379 N 
HETATM    8  S8  UNL     1     -32.082   8.106   2.887  1.00 20.00    -0.065 SA
ENDROOT
TORSDOF 0
ENDMDL
MODEL 9
REMARK VINA RESULT:      -3.1     11.858     12.480
REMARK  0 active torsions:
REMARK  status: ('A' for Active; 'I' for Inactive)
ROOT
HETATM    1  C1  UNL     1     -36.428  15.732  -4.172  1.00 20.00     0.080 A 
HETATM    2  C2  UNL     1     -35.079  16.474  -2.084  1.00 20.00     0.019 A 
HETATM    3  C3  UNL     1     -34.235  14.855  -3.971  1.00 20.00     0.128 A 
HETATM    4  C4  UNL     1     -35.645  16.760  -3.449  1.00 20.00     0.053 A 
HETATM    5  C5  UNL     1     -34.252  16.200  -3.309  1.00 20.00     0.015 A 
HETATM    6  C6  UNL     1     -35.941  13.438  -5.163  1.00 20.00     0.150 C 
HETATM    7  N7  UNL     1     -35.596  14.665  -4.466  1.00 20.00    -0.379 N 
HETATM    8  S8  UNL     1     -38.031  16.006  -4.467  1.00 20.00    -0.065 SA
ENDROOT
TORSDOF 0
ENDMDL
