MODEL 1
REMARK VINA RESULT:      -6.8      0.000      0.000
REMARK  1 active torsions:
REMARK  status: ('A' for Active; 'I' for Inactive)
REMARK    1  A    between atoms: C4_4  and  C6_6 
ROOT
HETATM    1  C1  UNL     1     -34.325   6.420   5.876  1.00 20.00     0.009 A 
HETATM    2  C2  UNL     1     -34.443   5.101   5.695  1.00 20.00     0.082 A 
HETATM    3  C3  UNL     1     -33.965   7.282   4.789  1.00 20.00     0.037 A 
HETATM    4  C4  UNL     1     -33.750   6.737   3.588  1.00 20.00     0.079 A 
HETATM    5  C5  UNL     1     -34.203   4.503   4.365  1.00 20.00     0.288 A 
HETATM    6  O10 UNL     1     -34.311   3.294   4.195  1.00 20.00    -0.260 OA
HETATM    7  O11 UNL     1     -33.861   5.355   3.346  1.00 20.00    -0.276 OA
ENDROOT
BRANCH   4   8
HETATM    8  C6  UNL     1     -33.379   7.516   2.405  1.00 20.00     0.039 C 
HETATM    9  C7  UNL     1     -32.249   8.234   2.281  1.00 20.00    -0.085 C 
HETATM   10  C8  UNL     1     -31.834   9.045   1.085  1.00 20.00     0.043 C 
HETATM   11  C9  UNL     1     -31.259   8.270   3.417  1.00 20.00     0.043 C 
ENDBRANCH   4   8
TORSDOF 1
ENDMDL
MODEL 2
REMARK VINA RESULT:      -6.4      1.408      2.026
REMARK  1 active torsions:
REMARK  status: ('A' for Active; 'I' for Inactive)
REMARK    1  A    between atoms: C4_4  and  C6_6 
ROOT
HETATM    1  C1  UNL     1     -34.347   4.432   4.418  1.00 20.00     0.009 A 
HETATM    2  C2  UNL     1     -34.485   5.089   5.574  1.00 20.00     0.082 A 
HETATM    3  C3  UNL     1     -33.934   5.118   3.229  1.00 20.00     0.037 A 
HETATM    4  C4  UNL     1     -33.689   6.430   3.302  1.00 20.00     0.079 A 
HETATM    5  C5  UNL     1     -34.212   6.539   5.650  1.00 20.00     0.288 A 
HETATM    6  O10 UNL     1     -34.336   7.144   6.709  1.00 20.00    -0.260 OA
HETATM    7  O11 UNL     1     -33.818   7.165   4.495  1.00 20.00    -0.276 OA
ENDROOT
BRANCH   4   8
HETATM    8  C6  UNL     1     -33.260   7.234   2.155  1.00 20.00     0.039 C 
HETATM    9  C7  UNL     1     -32.224   8.090   2.162  1.00 20.00    -0.085 C 
HETATM   10  C8  UNL     1     -31.754   8.930   1.008  1.00 20.00     0.043 C 
HETATM   11  C9  UNL     1     -31.411   8.269   3.419  1.00 20.00     0.043 C 
ENDBRANCH   4   8
TORSDOF 1
ENDMDL
MODEL 3
REMARK VINA RESULT:      -6.0      0.967      1.264
REMARK  1 active torsions:
REMARK  status: ('A' for Active; 'I' for Inactive)
REMARK    1  A    between atoms: C4_4  and  C6_6 
ROOT
HETATM    1  C1  UNL     1     -33.786   7.257   5.865  1.00 20.00     0.009 A 
HETATM    2  C2  UNL     1     -34.443   6.102   5.725  1.00 20.00     0.082 A 
HETATM    3  C3  UNL     1     -32.976   7.776   4.802  1.00 20.00     0.037 A 
HETATM    4  C4  UNL     1     -32.893   7.079   3.665  1.00 20.00     0.079 A 
HETATM    5  C5  UNL     1     -34.348   5.334   4.466  1.00 20.00     0.288 A 
HETATM    6  O10 UNL     1     -34.950   4.274   4.333  1.00 20.00    -0.260 OA
HETATM    7  O11 UNL     1     -33.566   5.858   3.468  1.00 20.00    -0.276 OA
ENDROOT
BRANCH   4   8
HETATM    8  C6  UNL     1     -32.100   7.510   2.512  1.00 20.00     0.039 C 
HETATM    9  C7  UNL     1     -32.380   8.576   1.742  1.00 20.00    -0.085 C 
HETATM   10  C8  UNL     1     -31.591   9.049   0.553  1.00 20.00     0.043 C 
HETATM   11  C9  UNL     1     -33.589   9.422   2.051  1.00 20.00     0.043 C 
ENDBRANCH   4   8
TORSDOF 1
ENDMDL
MODEL 4
REMARK VINA RESULT:      -5.6      1.810      2.407
REMARK  1 active torsions:
REMARK  status: ('A' for Active; 'I' for Inactive)
REMARK    1  A    between atoms: C4_4  and  C6_6 
ROOT
HETATM    1  C1  UNL     1     -34.689   5.389   3.978  1.00 20.00     0.009 A 
HETATM    2  C2  UNL     1     -34.651   5.964   5.184  1.00 20.00     0.082 A 
HETATM    3  C3  UNL     1     -33.849   5.857   2.914  1.00 20.00     0.037 A 
HETATM    4  C4  UNL     1     -33.025   6.882   3.156  1.00 20.00     0.079 A 
HETATM    5  C5  UNL     1     -33.738   7.096   5.446  1.00 20.00     0.288 A 
HETATM    6  O10 UNL     1     -33.700   7.625   6.552  1.00 20.00    -0.260 OA
HETATM    7  O11 UNL     1     -32.947   7.519   4.409  1.00 20.00    -0.276 OA
ENDROOT
BRANCH   4   8
HETATM    8  C6  UNL     1     -32.121   7.443   2.150  1.00 20.00     0.039 C 
HETATM    9  C7  UNL     1     -32.317   8.606   1.505  1.00 20.00    -0.085 C 
HETATM   10  C8  UNL     1     -31.414   9.214   0.468  1.00 20.00     0.043 C 
HETATM   11  C9  UNL     1     -33.543   9.430   1.807  1.00 20.00     0.043 C 
ENDBRANCH   4   8
TORSDOF 1
ENDMDL
MODEL 5
REMARK VINA RESULT:      -5.2     11.646     12.439
REMARK  1 active torsions:
REMARK  status: ('A' for Active; 'I' for Inactive)
REMARK    1  A    between atoms: C4_4  and  C6_6 
ROOT
HETATM    1  C1  UNL     1     -33.871  15.234  -6.641  1.00 20.00     0.009 A 
HETATM    2  C2  UNL     1     -34.666  14.161  -6.582  1.00 20.00     0.082 A 
HETATM    3  C3  UNL     1     -33.510  15.947  -5.450  1.00 20.00     0.037 A 
HETATM    4  C4  UNL     1     -33.985  15.515  -4.279  1.00 20.00     0.079 A 
HETATM    5  C5  UNL     1     -35.189  13.687  -5.284  1.00 20.00     0.288 A 
HETATM    6  O10 UNL     1     -35.917  12.702  -5.226  1.00 20.00    -0.260 OA
HETATM    7  O11 UNL     1     -34.825  14.390  -4.164  1.00 20.00    -0.276 OA
ENDROOT
BRANCH   4   8
HETATM    8  C6  UNL     1     -33.684  16.160  -3.000  1.00 20.00     0.039 C 
HETATM    9  C7  UNL     1     -34.583  16.800  -2.231  1.00 20.00    -0.085 C 
HETATM   10  C8  UNL     1     -34.312  17.473  -0.915  1.00 20.00     0.043 C 
HETATM   11  C9  UNL     1     -36.020  16.884  -2.678  1.00 20.00     0.043 C 
ENDBRANCH   4   8
TORSDOF 1
ENDMDL
MODEL 6
REMARK VINA RESULT:      -5.1     11.860     13.026
REMARK  1 active torsions:
REMARK  status: ('A' for Active; 'I' for Inactive)
REMARK    1  A    between atoms: C4_4  and  C6_6 
ROOT
HETATM    1  C1  UNL     1     -33.841  15.361  -7.819  1.00 20.00     0.009 A 
HETATM    2  C2  UNL     1     -34.345  14.127  -7.914  1.00 20.00     0.082 A 
HETATM    3  C3  UNL     1     -33.559  15.943  -6.539  1.00 20.00     0.037 A 
HETATM    4  C4  UNL     1     -33.809  15.223  -5.442  1.00 20.00     0.079 A 
HETATM    5  C5  UNL     1     -34.621  13.335  -6.697  1.00 20.00     0.288 A 
HETATM    6  O10 UNL     1     -35.082  12.202  -6.780  1.00 20.00    -0.260 OA
HETATM    7  O11 UNL     1     -34.339  13.919  -5.489  1.00 20.00    -0.276 OA
ENDROOT
BRANCH   4   8
HETATM    8  C6  UNL     1     -33.560  15.711  -4.084  1.00 20.00     0.039 C 
HETATM    9  C7  UNL     1     -34.492  16.245  -3.276  1.00 20.00    -0.085 C 
HETATM   10  C8  UNL     1     -34.275  16.756  -1.879  1.00 20.00     0.043 C 
HETATM   11  C9  UNL     1     -35.915  16.371  -3.759  1.00 20.00     0.043 C 
ENDBRANCH   4   8
TORSDOF 1
ENDMDL
MODEL 7
REMARK VINA RESULT:      -5.0      1.971      4.703
REMARK  1 active torsions:
REMARK  status: ('A' for Active; 'I' for Inactive)
REMARK    1  A    between atoms: C4_4  and  C6_6 
ROOT
HETATM    1  C1  UNL     1     -31.375   8.927   2.744  1.00 20.00     0.009 A 
HETATM    2  C2  UNL     1     -31.810   9.364   1.558  1.00 20.00     0.082 A 
HETATM    3  C3  UNL     1     -31.976   7.788   3.373  1.00 20.00     0.037 A 
HETATM    4  C4  UNL     1     -32.983   7.171   2.747  1.00 20.00     0.079 A 
HETATM    5  C5  UNL     1     -32.924   8.678   0.870  1.00 20.00     0.288 A 
HETATM    6  O10 UNL     1     -33.325   9.075  -0.219  1.00 20.00    -0.260 OA
HETATM    7  O11 UNL     1     -33.477   7.592   1.497  1.00 20.00    -0.276 OA
ENDROOT
BRANCH   4   8
HETATM    8  C6  UNL     1     -33.672   5.999   3.291  1.00 20.00     0.039 C 
HETATM    9  C7  UNL     1     -34.146   5.900   4.544  1.00 20.00    -0.085 C 
HETATM   10  C8  UNL     1     -34.857   4.716   5.138  1.00 20.00     0.043 C 
HETATM   11  C9  UNL     1     -33.981   7.055   5.498  1.00 20.00     0.043 C 
ENDBRANCH   4   8
TORSDOF 1
ENDMDL
MODEL 8
REMARK VINA RESULT:      -5.0     11.564     12.131
REMARK  1 active torsions:
REMARK  status: ('A' for Active; 'I' for Inactive)
REMARK    1  A    between atoms: C4_4  and  C6_6 
ROOT
HETATM    1  C1  UNL     1     -37.577  15.589  -4.529  1.00 20.00     0.009 A 
HETATM    2  C2  UNL     1     -37.354  14.350  -4.977  1.00 20.00     0.082 A 
HETATM    3  C3  UNL     1     -36.524  16.353  -3.927  1.00 20.00     0.037 A 
HETATM    4  C4  UNL     1     -35.312  15.800  -3.824  1.00 20.00     0.079 A 
HETATM    5  C5  UNL     1     -36.012  13.741  -4.861  1.00 20.00     0.288 A 
HETATM    6  O10 UNL     1     -35.803  12.605  -5.272  1.00 20.00    -0.260 OA
HETATM    7  O11 UNL     1     -35.027  14.499  -4.281  1.00 20.00    -0.276 OA
ENDROOT
BRANCH   4   8
HETATM    8  C6  UNL     1     -34.162  16.484  -3.231  1.00 20.00     0.039 C 
HETATM    9  C7  UNL     1     -34.144  17.033  -2.004  1.00 20.00    -0.085 C 
HETATM   10  C8  UNL     1     -32.985  17.741  -1.361  1.00 20.00     0.043 C 
HETATM   11  C9  UNL     1     -35.375  16.962  -1.136  1.00 20.00     0.043 C 
ENDBRANCH   4   8
TORSDOF 1
ENDMDL
MODEL 9
REMARK VINA RESULT:      -4.8     11.838     12.708
REMARK  1 active torsions:
REMARK  status: ('A' for Active; 'I' for Inactive)
REMARK    1  A    between atoms: C4_4  and  C6_6 
ROOT
HETATM    1  C1  UNL     1     -35.610  13.588  -4.901  1.00 20.00     0.009 A 
HETATM    2  C2  UNL     1     -36.503  14.264  -5.628  1.00 20.00     0.082 A 
HETATM    3  C3  UNL     1     -34.627  14.277  -4.117  1.00 20.00     0.037 A 
HETATM    4  C4  UNL     1     -34.625  15.613  -4.128  1.00 20.00     0.079 A 
HETATM    5  C5  UNL     1     -36.498  15.742  -5.637  1.00 20.00     0.288 A 
HETATM    6  O10 UNL     1     -37.317  16.367  -6.302  1.00 20.00    -0.260 OA
HETATM    7  O11 UNL     1     -35.546  16.371  -4.876  1.00 20.00    -0.276 OA
ENDROOT
BRANCH   4   8
HETATM    8  C6  UNL     1     -33.673  16.423  -3.366  1.00 20.00     0.039 C 
HETATM    9  C7  UNL     1     -33.925  16.986  -2.172  1.00 20.00    -0.085 C 
HETATM   10  C8  UNL     1     -32.975  17.822  -1.361  1.00 20.00     0.043 C 
HETATM   11  C9  UNL     1     -35.274  16.795  -1.527  1.00 20.00     0.043 C 
ENDBRANCH   4   8
TORSDOF 1
ENDMDL
