MODEL 1
REMARK VINA RESULT:      -4.5      0.000      0.000
REMARK  1 active torsions:
REMARK  status: ('A' for Active; 'I' for Inactive)
REMARK    1  A    between atoms: C3_3  and  C8_8 
ROOT
HETATM    1  C1  UNL     1     -35.362  16.288  -2.588  1.00 20.00    -0.025 C 
HETATM    2  C2  UNL     1     -36.254  16.483  -3.570  1.00 20.00    -0.024 C 
HETATM    3  C4  UNL     1     -34.190  17.047  -4.415  1.00 20.00     0.018 C 
HETATM    4  C5  UNL     1     -34.013  16.084  -3.239  1.00 20.00     0.013 C 
HETATM    5  C6  UNL     1     -35.504  16.395  -4.880  1.00 20.00     0.024 C 
HETATM    6  C7  UNL     1     -34.029  14.692  -3.940  1.00 20.00     0.005 C 
HETATM    7  C8  UNL     1     -35.043  14.923  -5.129  1.00 20.00     0.027 C 
HETATM    8  C10 UNL     1     -32.625  14.249  -4.343  1.00 20.00     0.012 C 
HETATM    9  C11 UNL     1     -36.192  13.909  -5.112  1.00 20.00     0.024 C 
ENDROOT
BRANCH   7  10
HETATM   10  C3  UNL     1     -34.404  14.823  -6.495  1.00 20.00     0.132 C 
HETATM   11  C9  UNL     1     -34.541  13.507  -7.211  1.00 20.00     0.091 C 
HETATM   12  O12 UNL     1     -33.804  15.772  -6.998  1.00 20.00    -0.298 OA
ENDBRANCH   7  10
TORSDOF 1
ENDMDL
MODEL 2
REMARK VINA RESULT:      -4.4      1.622      2.762
REMARK  1 active torsions:
REMARK  status: ('A' for Active; 'I' for Inactive)
REMARK    1  A    between atoms: C3_3  and  C8_8 
ROOT
HETATM    1  C1  UNL     1     -33.768  16.451  -3.825  1.00 20.00    -0.025 C 
HETATM    2  C2  UNL     1     -33.000  15.907  -4.780  1.00 20.00    -0.024 C 
HETATM    3  C4  UNL     1     -34.262  14.205  -3.883  1.00 20.00     0.018 C 
HETATM    4  C5  UNL     1     -34.963  15.543  -3.638  1.00 20.00     0.013 C 
HETATM    5  C6  UNL     1     -33.688  14.642  -5.241  1.00 20.00     0.024 C 
HETATM    6  C7  UNL     1     -35.869  15.683  -4.899  1.00 20.00     0.005 C 
HETATM    7  C8  UNL     1     -34.992  15.002  -6.022  1.00 20.00     0.027 C 
HETATM    8  C10 UNL     1     -37.248  15.069  -4.671  1.00 20.00     0.012 C 
HETATM    9  C11 UNL     1     -34.755  15.937  -7.214  1.00 20.00     0.024 C 
ENDROOT
BRANCH   7  10
HETATM   10  C3  UNL     1     -35.604  13.740  -6.584  1.00 20.00     0.132 C 
HETATM   11  C9  UNL     1     -36.290  13.857  -7.918  1.00 20.00     0.091 C 
HETATM   12  O12 UNL     1     -35.542  12.669  -5.982  1.00 20.00    -0.298 OA
ENDBRANCH   7  10
TORSDOF 1
ENDMDL
MODEL 3
REMARK VINA RESULT:      -4.4      1.683      3.047
REMARK  1 active torsions:
REMARK  status: ('A' for Active; 'I' for Inactive)
REMARK    1  A    between atoms: C3_3  and  C8_8 
ROOT
HETATM    1  C1  UNL     1     -33.735  17.254  -6.300  1.00 20.00    -0.025 C 
HETATM    2  C2  UNL     1     -34.432  17.300  -5.156  1.00 20.00    -0.024 C 
HETATM    3  C4  UNL     1     -35.847  16.474  -6.770  1.00 20.00     0.018 C 
HETATM    4  C5  UNL     1     -34.396  16.225  -7.189  1.00 20.00     0.013 C 
HETATM    5  C6  UNL     1     -35.552  16.290  -5.272  1.00 20.00     0.024 C 
HETATM    6  C7  UNL     1     -34.109  14.818  -6.581  1.00 20.00     0.005 C 
HETATM    7  C8  UNL     1     -34.964  14.842  -5.253  1.00 20.00     0.027 C 
HETATM    8  C10 UNL     1     -34.446  13.701  -7.565  1.00 20.00     0.012 C 
HETATM    9  C11 UNL     1     -34.112  14.543  -4.014  1.00 20.00     0.024 C 
ENDROOT
BRANCH   7  10
HETATM   10  C3  UNL     1     -36.097  13.842  -5.245  1.00 20.00     0.132 C 
HETATM   11  C9  UNL     1     -37.493  14.402  -5.255  1.00 20.00     0.091 C 
HETATM   12  O12 UNL     1     -35.887  12.630  -5.235  1.00 20.00    -0.298 OA
ENDBRANCH   7  10
TORSDOF 1
ENDMDL
MODEL 4
REMARK VINA RESULT:      -4.4      1.183      2.373
REMARK  1 active torsions:
REMARK  status: ('A' for Active; 'I' for Inactive)
REMARK    1  A    between atoms: C3_3  and  C8_8 
ROOT
HETATM    1  C1  UNL     1     -33.596  17.580  -3.392  1.00 20.00    -0.025 C 
HETATM    2  C2  UNL     1     -33.960  16.504  -2.680  1.00 20.00    -0.024 C 
HETATM    3  C4  UNL     1     -35.526  16.770  -4.344  1.00 20.00     0.018 C 
HETATM    4  C5  UNL     1     -34.218  17.445  -4.763  1.00 20.00     0.013 C 
HETATM    5  C6  UNL     1     -34.816  15.641  -3.579  1.00 20.00     0.024 C 
HETATM    6  C7  UNL     1     -33.475  16.297  -5.511  1.00 20.00     0.005 C 
HETATM    7  C8  UNL     1     -33.935  15.016  -4.709  1.00 20.00     0.027 C 
HETATM    8  C10 UNL     1     -33.799  16.295  -7.003  1.00 20.00     0.012 C 
HETATM    9  C11 UNL     1     -32.743  14.208  -4.181  1.00 20.00     0.024 C 
ENDROOT
BRANCH   7  10
HETATM   10  C3  UNL     1     -34.772  14.060  -5.526  1.00 20.00     0.132 C 
HETATM   11  C9  UNL     1     -36.225  13.944  -5.153  1.00 20.00     0.091 C 
HETATM   12  O12 UNL     1     -34.291  13.411  -6.453  1.00 20.00    -0.298 OA
ENDBRANCH   7  10
TORSDOF 1
ENDMDL
MODEL 5
REMARK VINA RESULT:      -4.4      1.699      2.153
REMARK  1 active torsions:
REMARK  status: ('A' for Active; 'I' for Inactive)
REMARK    1  A    between atoms: C3_3  and  C8_8 
ROOT
HETATM    1  C1  UNL     1     -34.076  17.657  -5.197  1.00 20.00    -0.025 C 
HETATM    2  C2  UNL     1     -35.217  17.486  -5.879  1.00 20.00    -0.024 C 
HETATM    3  C4  UNL     1     -33.695  15.986  -6.731  1.00 20.00     0.018 C 
HETATM    4  C5  UNL     1     -33.289  16.370  -5.307  1.00 20.00     0.013 C 
HETATM    5  C6  UNL     1     -35.201  16.079  -6.434  1.00 20.00     0.024 C 
HETATM    6  C7  UNL     1     -34.019  15.293  -4.448  1.00 20.00     0.005 C 
HETATM    7  C8  UNL     1     -35.346  15.048  -5.269  1.00 20.00     0.027 C 
HETATM    8  C10 UNL     1     -33.142  14.063  -4.226  1.00 20.00     0.012 C 
HETATM    9  C11 UNL     1     -36.600  15.262  -4.412  1.00 20.00     0.024 C 
ENDROOT
BRANCH   7  10
HETATM   10  C3  UNL     1     -35.453  13.655  -5.843  1.00 20.00     0.132 C 
HETATM   11  C9  UNL     1     -35.018  13.477  -7.272  1.00 20.00     0.091 C 
HETATM   12  O12 UNL     1     -35.873  12.711  -5.174  1.00 20.00    -0.298 OA
ENDBRANCH   7  10
TORSDOF 1
ENDMDL
MODEL 6
REMARK VINA RESULT:      -4.2      1.403      3.471
REMARK  1 active torsions:
REMARK  status: ('A' for Active; 'I' for Inactive)
REMARK    1  A    between atoms: C3_3  and  C8_8 
ROOT
HETATM    1  C1  UNL     1     -37.002  14.580  -6.537  1.00 20.00    -0.025 C 
HETATM    2  C2  UNL     1     -36.969  13.964  -5.347  1.00 20.00    -0.024 C 
HETATM    3  C4  UNL     1     -34.826  13.925  -6.184  1.00 20.00     0.018 C 
HETATM    4  C5  UNL     1     -35.603  15.076  -6.827  1.00 20.00     0.013 C 
HETATM    5  C6  UNL     1     -35.550  14.059  -4.833  1.00 20.00     0.024 C 
HETATM    6  C7  UNL     1     -35.309  16.261  -5.859  1.00 20.00     0.005 C 
HETATM    7  C8  UNL     1     -35.220  15.540  -4.457  1.00 20.00     0.027 C 
HETATM    8  C10 UNL     1     -34.065  17.039  -6.284  1.00 20.00     0.012 C 
HETATM    9  C11 UNL     1     -36.192  16.144  -3.436  1.00 20.00     0.024 C 
ENDROOT
BRANCH   7  10
HETATM   10  C3  UNL     1     -33.847  15.604  -3.831  1.00 20.00     0.132 C 
HETATM   11  C9  UNL     1     -33.631  16.659  -2.780  1.00 20.00     0.091 C 
HETATM   12  O12 UNL     1     -32.950  14.829  -4.161  1.00 20.00    -0.298 OA
ENDBRANCH   7  10
TORSDOF 1
ENDMDL
MODEL 7
REMARK VINA RESULT:      -4.2      1.866      3.208
REMARK  1 active torsions:
REMARK  status: ('A' for Active; 'I' for Inactive)
REMARK    1  A    between atoms: C3_3  and  C8_8 
ROOT
HETATM    1  C1  UNL     1     -32.855  15.325  -5.253  1.00 20.00    -0.025 C 
HETATM    2  C2  UNL     1     -33.304  14.555  -4.251  1.00 20.00    -0.024 C 
HETATM    3  C4  UNL     1     -34.282  16.622  -4.000  1.00 20.00     0.018 C 
HETATM    4  C5  UNL     1     -33.867  16.429  -5.460  1.00 20.00     0.013 C 
HETATM    5  C6  UNL     1     -34.624  15.136  -3.797  1.00 20.00     0.024 C 
HETATM    6  C7  UNL     1     -35.142  15.793  -6.090  1.00 20.00     0.005 C 
HETATM    7  C8  UNL     1     -35.708  14.919  -4.902  1.00 20.00     0.027 C 
HETATM    8  C10 UNL     1     -36.090  16.858  -6.638  1.00 20.00     0.012 C 
HETATM    9  C11 UNL     1     -35.889  13.450  -5.303  1.00 20.00     0.024 C 
ENDROOT
BRANCH   7  10
HETATM   10  C3  UNL     1     -37.048  15.392  -4.389  1.00 20.00     0.132 C 
HETATM   11  C9  UNL     1     -38.263  14.678  -4.916  1.00 20.00     0.091 C 
HETATM   12  O12 UNL     1     -37.141  16.312  -3.578  1.00 20.00    -0.298 OA
ENDBRANCH   7  10
TORSDOF 1
ENDMDL
MODEL 8
REMARK VINA RESULT:      -4.2      1.720      3.758
REMARK  1 active torsions:
REMARK  status: ('A' for Active; 'I' for Inactive)
REMARK    1  A    between atoms: C3_3  and  C8_8 
ROOT
HETATM    1  C1  UNL     1     -34.404  14.882  -6.308  1.00 20.00    -0.025 C 
HETATM    2  C2  UNL     1     -34.858  14.141  -5.287  1.00 20.00    -0.024 C 
HETATM    3  C4  UNL     1     -32.917  15.150  -4.574  1.00 20.00     0.018 C 
HETATM    4  C5  UNL     1     -33.520  15.961  -5.723  1.00 20.00     0.013 C 
HETATM    5  C6  UNL     1     -34.288  14.732  -4.017  1.00 20.00     0.024 C 
HETATM    6  C7  UNL     1     -34.439  16.973  -4.973  1.00 20.00     0.005 C 
HETATM    7  C8  UNL     1     -34.942  16.123  -3.740  1.00 20.00     0.027 C 
HETATM    8  C10 UNL     1     -33.693  18.260  -4.630  1.00 20.00     0.012 C 
HETATM    9  C11 UNL     1     -36.473  16.077  -3.659  1.00 20.00     0.024 C 
ENDROOT
BRANCH   7  10
HETATM   10  C3  UNL     1     -34.459  16.648  -2.408  1.00 20.00     0.132 C 
HETATM   11  C9  UNL     1     -35.516  17.000  -1.396  1.00 20.00     0.091 C 
HETATM   12  O12 UNL     1     -33.261  16.777  -2.161  1.00 20.00    -0.298 OA
ENDBRANCH   7  10
TORSDOF 1
ENDMDL
MODEL 9
REMARK VINA RESULT:      -4.2      1.783      3.513
REMARK  1 active torsions:
REMARK  status: ('A' for Active; 'I' for Inactive)
REMARK    1  A    between atoms: C3_3  and  C8_8 
ROOT
HETATM    1  C1  UNL     1     -32.984  15.505  -5.099  1.00 20.00    -0.025 C 
HETATM    2  C2  UNL     1     -33.852  15.352  -6.110  1.00 20.00    -0.024 C 
HETATM    3  C4  UNL     1     -34.702  14.193  -4.313  1.00 20.00     0.018 C 
HETATM    4  C5  UNL     1     -33.746  15.278  -3.813  1.00 20.00     0.013 C 
HETATM    5  C6  UNL     1     -35.199  15.037  -5.499  1.00 20.00     0.024 C 
HETATM    6  C7  UNL     1     -34.699  16.494  -3.605  1.00 20.00     0.005 C 
HETATM    7  C8  UNL     1     -35.755  16.298  -4.763  1.00 20.00     0.027 C 
HETATM    8  C10 UNL     1     -35.267  16.527  -2.189  1.00 20.00     0.012 C 
HETATM    9  C11 UNL     1     -35.861  17.536  -5.662  1.00 20.00     0.024 C 
ENDROOT
BRANCH   7  10
HETATM   10  C3  UNL     1     -37.152  16.012  -4.264  1.00 20.00     0.132 C 
HETATM   11  C9  UNL     1     -38.016  17.203  -3.949  1.00 20.00     0.091 C 
HETATM   12  O12 UNL     1     -37.565  14.861  -4.125  1.00 20.00    -0.298 OA
ENDBRANCH   7  10
TORSDOF 1
ENDMDL
