MODEL 1
REMARK VINA RESULT:      -6.5      0.000      0.000
REMARK  1 active torsions:
REMARK  status: ('A' for Active; 'I' for Inactive)
REMARK    1  A    between atoms: C3_3  and  C7_7 
ROOT
HETATM    1  C1  UNL     1     -34.860   5.553   5.525  1.00 20.00    -0.030 C 
HETATM    2  C2  UNL     1     -34.839   5.157   4.245  1.00 20.00    -0.026 C 
HETATM    3  C4  UNL     1     -34.113   6.751   6.034  1.00 20.00     0.027 C 
HETATM    4  C5  UNL     1     -33.116   7.325   5.024  1.00 20.00     0.018 C 
HETATM    5  C6  UNL     1     -34.077   5.878   3.159  1.00 20.00     0.016 C 
HETATM    6  C7  UNL     1     -33.697   7.308   3.608  1.00 20.00     0.080 C 
HETATM    7  C8  UNL     1     -32.881   5.015   2.741  1.00 20.00     0.015 C 
ENDROOT
BRANCH   6   8
HETATM    8  C3  UNL     1     -32.759   7.971   2.645  1.00 20.00     0.223 C 
HETATM    9  O9  UNL     1     -33.100   8.243   1.497  1.00 20.00    -0.279 OA
HETATM   10 CL10 UNL     1     -31.204   8.281   3.353  1.00 20.00    -0.043 Cl
ENDBRANCH   6   8
TORSDOF 1
ENDMDL
MODEL 2
REMARK VINA RESULT:      -4.4     11.730     12.251
REMARK  1 active torsions:
REMARK  status: ('A' for Active; 'I' for Inactive)
REMARK    1  A    between atoms: C3_3  and  C7_7 
ROOT
HETATM    1  C1  UNL     1     -34.052  16.560  -2.810  1.00 20.00    -0.030 C 
HETATM    2  C2  UNL     1     -33.316  15.916  -3.726  1.00 20.00    -0.026 C 
HETATM    3  C4  UNL     1     -35.538  16.401  -2.681  1.00 20.00     0.027 C 
HETATM    4  C5  UNL     1     -36.176  15.647  -3.850  1.00 20.00     0.018 C 
HETATM    5  C6  UNL     1     -33.890  14.939  -4.724  1.00 20.00     0.016 C 
HETATM    6  C7  UNL     1     -35.299  14.473  -4.292  1.00 20.00     0.080 C 
HETATM    7  C8  UNL     1     -33.841  15.576  -6.119  1.00 20.00     0.015 C 
ENDROOT
BRANCH   6   8
HETATM    8  C3  UNL     1     -35.983  13.676  -5.362  1.00 20.00     0.223 C 
HETATM    9  O9  UNL     1     -35.559  12.581  -5.721  1.00 20.00    -0.279 OA
HETATM   10 CL10 UNL     1     -37.386  14.487  -5.986  1.00 20.00    -0.043 Cl
ENDBRANCH   6   8
TORSDOF 1
ENDMDL
MODEL 3
REMARK VINA RESULT:      -4.2     11.663     12.284
REMARK  1 active torsions:
REMARK  status: ('A' for Active; 'I' for Inactive)
REMARK    1  A    between atoms: C3_3  and  C7_7 
ROOT
HETATM    1  C1  UNL     1     -34.180  18.146   0.002  1.00 20.00    -0.030 C 
HETATM    2  C2  UNL     1     -33.183  18.207  -0.891  1.00 20.00    -0.026 C 
HETATM    3  C4  UNL     1     -35.467  17.414  -0.243  1.00 20.00     0.027 C 
HETATM    4  C5  UNL     1     -35.650  16.966  -1.695  1.00 20.00     0.018 C 
HETATM    5  C6  UNL     1     -33.225  17.530  -2.240  1.00 20.00     0.016 C 
HETATM    6  C7  UNL     1     -34.333  16.452  -2.282  1.00 20.00     0.080 C 
HETATM    7  C8  UNL     1     -33.357  18.605  -3.326  1.00 20.00     0.015 C 
ENDROOT
BRANCH   6   8
HETATM    8  C3  UNL     1     -34.545  15.914  -3.665  1.00 20.00     0.223 C 
HETATM    9  O9  UNL     1     -35.596  16.099  -4.274  1.00 20.00    -0.279 OA
HETATM   10 CL10 UNL     1     -33.162  15.041  -4.248  1.00 20.00    -0.043 Cl
ENDBRANCH   6   8
TORSDOF 1
ENDMDL
MODEL 4
REMARK VINA RESULT:      -4.2     11.342     12.688
REMARK  1 active torsions:
REMARK  status: ('A' for Active; 'I' for Inactive)
REMARK    1  A    between atoms: C3_3  and  C7_7 
ROOT
HETATM    1  C1  UNL     1     -33.795  17.376  -4.217  1.00 20.00    -0.030 C 
HETATM    2  C2  UNL     1     -33.675  16.265  -3.476  1.00 20.00    -0.026 C 
HETATM    3  C4  UNL     1     -34.330  17.382  -5.618  1.00 20.00     0.027 C 
HETATM    4  C5  UNL     1     -34.478  15.984  -6.224  1.00 20.00     0.018 C 
HETATM    5  C6  UNL     1     -34.080  14.892  -3.957  1.00 20.00     0.016 C 
HETATM    6  C7  UNL     1     -35.009  14.990  -5.189  1.00 20.00     0.080 C 
HETATM    7  C8  UNL     1     -32.814  14.059  -4.192  1.00 20.00     0.015 C 
ENDROOT
BRANCH   6   8
HETATM    8  C3  UNL     1     -35.254  13.652  -5.819  1.00 20.00     0.223 C 
HETATM    9  O9  UNL     1     -35.925  12.789  -5.259  1.00 20.00    -0.279 OA
HETATM   10 CL10 UNL     1     -34.490  13.511  -7.372  1.00 20.00    -0.043 Cl
ENDBRANCH   6   8
TORSDOF 1
ENDMDL
MODEL 5
REMARK VINA RESULT:      -4.1      0.783      2.172
REMARK  1 active torsions:
REMARK  status: ('A' for Active; 'I' for Inactive)
REMARK    1  A    between atoms: C3_3  and  C7_7 
ROOT
HETATM    1  C1  UNL     1     -34.730   4.961   5.445  1.00 20.00    -0.030 C 
HETATM    2  C2  UNL     1     -34.045   5.970   6.001  1.00 20.00    -0.026 C 
HETATM    3  C4  UNL     1     -34.850   4.760   3.964  1.00 20.00     0.027 C 
HETATM    4  C5  UNL     1     -34.348   5.948   3.141  1.00 20.00     0.018 C 
HETATM    5  C6  UNL     1     -33.297   7.012   5.205  1.00 20.00     0.016 C 
HETATM    6  C7  UNL     1     -33.074   6.538   3.750  1.00 20.00     0.080 C 
HETATM    7  C8  UNL     1     -34.041   8.348   5.322  1.00 20.00     0.015 C 
ENDROOT
BRANCH   6   8
HETATM    8  C3  UNL     1     -32.529   7.631   2.879  1.00 20.00     0.223 C 
HETATM    9  O9  UNL     1     -33.072   7.944   1.823  1.00 20.00    -0.279 OA
HETATM   10 CL10 UNL     1     -31.096   8.348   3.548  1.00 20.00    -0.043 Cl
ENDBRANCH   6   8
TORSDOF 1
ENDMDL
MODEL 6
REMARK VINA RESULT:      -4.1      1.811      2.321
REMARK  1 active torsions:
REMARK  status: ('A' for Active; 'I' for Inactive)
REMARK    1  A    between atoms: C3_3  and  C7_7 
ROOT
HETATM    1  C1  UNL     1     -33.994   7.144   6.278  1.00 20.00    -0.030 C 
HETATM    2  C2  UNL     1     -34.784   6.106   5.971  1.00 20.00    -0.026 C 
HETATM    3  C4  UNL     1     -33.065   7.795   5.298  1.00 20.00     0.027 C 
HETATM    4  C5  UNL     1     -32.899   7.009   3.995  1.00 20.00     0.018 C 
HETATM    5  C6  UNL     1     -34.846   5.480   4.598  1.00 20.00     0.016 C 
HETATM    6  C7  UNL     1     -34.236   6.421   3.535  1.00 20.00     0.080 C 
HETATM    7  C8  UNL     1     -34.191   4.094   4.659  1.00 20.00     0.015 C 
ENDROOT
BRANCH   6   8
HETATM    8  C3  UNL     1     -34.085   5.747   2.204  1.00 20.00     0.223 C 
HETATM    9  O9  UNL     1     -34.858   5.972   1.276  1.00 20.00    -0.279 OA
HETATM   10 CL10 UNL     1     -32.731   4.660   2.171  1.00 20.00    -0.043 Cl
ENDBRANCH   6   8
TORSDOF 1
ENDMDL
MODEL 7
REMARK VINA RESULT:      -4.0     11.661     12.963
REMARK  1 active torsions:
REMARK  status: ('A' for Active; 'I' for Inactive)
REMARK    1  A    between atoms: C3_3  and  C7_7 
ROOT
HETATM    1  C1  UNL     1     -33.659  17.124  -4.351  1.00 20.00    -0.030 C 
HETATM    2  C2  UNL     1     -34.156  17.134  -5.596  1.00 20.00    -0.026 C 
HETATM    3  C4  UNL     1     -33.725  15.931  -3.443  1.00 20.00     0.027 C 
HETATM    4  C5  UNL     1     -34.638  14.817  -3.961  1.00 20.00     0.018 C 
HETATM    5  C6  UNL     1     -34.823  15.942  -6.240  1.00 20.00     0.016 C 
HETATM    6  C7  UNL     1     -34.488  14.642  -5.474  1.00 20.00     0.080 C 
HETATM    7  C8  UNL     1     -36.325  16.227  -6.364  1.00 20.00     0.015 C 
ENDROOT
BRANCH   6   8
HETATM    8  C3  UNL     1     -35.302  13.479  -5.954  1.00 20.00     0.223 C 
HETATM    9  O9  UNL     1     -35.993  12.814  -5.186  1.00 20.00    -0.279 OA
HETATM   10 CL10 UNL     1     -35.135  13.224  -7.664  1.00 20.00    -0.043 Cl
ENDBRANCH   6   8
TORSDOF 1
ENDMDL
MODEL 8
REMARK VINA RESULT:      -3.9      2.374      3.765
REMARK  1 active torsions:
REMARK  status: ('A' for Active; 'I' for Inactive)
REMARK    1  A    between atoms: C3_3  and  C7_7 
ROOT
HETATM    1  C1  UNL     1     -31.625   8.299   3.575  1.00 20.00    -0.030 C 
HETATM    2  C2  UNL     1     -32.494   8.472   4.582  1.00 20.00    -0.026 C 
HETATM    3  C4  UNL     1     -31.741   7.199   2.562  1.00 20.00     0.027 C 
HETATM    4  C5  UNL     1     -32.780   6.136   2.928  1.00 20.00     0.018 C 
HETATM    5  C6  UNL     1     -33.701   7.593   4.804  1.00 20.00     0.016 C 
HETATM    6  C7  UNL     1     -34.031   6.777   3.533  1.00 20.00     0.080 C 
HETATM    7  C8  UNL     1     -33.463   6.738   6.055  1.00 20.00     0.015 C 
ENDROOT
BRANCH   6   8
HETATM    8  C3  UNL     1     -35.085   5.741   3.787  1.00 20.00     0.223 C 
HETATM    9  O9  UNL     1     -36.279   5.985   3.634  1.00 20.00    -0.279 OA
HETATM   10 CL10 UNL     1     -34.405   4.227   4.299  1.00 20.00    -0.043 Cl
ENDBRANCH   6   8
TORSDOF 1
ENDMDL
MODEL 9
REMARK VINA RESULT:      -3.9     12.004     13.306
REMARK  1 active torsions:
REMARK  status: ('A' for Active; 'I' for Inactive)
REMARK    1  A    between atoms: C3_3  and  C7_7 
ROOT
HETATM    1  C1  UNL     1     -33.808  17.110  -6.167  1.00 20.00    -0.030 C 
HETATM    2  C2  UNL     1     -34.811  17.299  -5.299  1.00 20.00    -0.026 C 
HETATM    3  C4  UNL     1     -33.514  15.791  -6.819  1.00 20.00     0.027 C 
HETATM    4  C5  UNL     1     -34.288  14.621  -6.209  1.00 20.00     0.018 C 
HETATM    5  C6  UNL     1     -35.776  16.212  -4.887  1.00 20.00     0.016 C 
HETATM    6  C7  UNL     1     -35.727  15.026  -5.878  1.00 20.00     0.080 C 
HETATM    7  C8  UNL     1     -35.489  15.825  -3.431  1.00 20.00     0.015 C 
ENDROOT
BRANCH   6   8
HETATM    8  C3  UNL     1     -36.508  13.846  -5.384  1.00 20.00     0.223 C 
HETATM    9  O9  UNL     1     -35.973  12.761  -5.175  1.00 20.00    -0.279 OA
HETATM   10 CL10 UNL     1     -38.189  14.220  -5.163  1.00 20.00    -0.043 Cl
ENDBRANCH   6   8
TORSDOF 1
ENDMDL
