MODEL 1
REMARK VINA RESULT:      -4.6      0.000      0.000
REMARK  1 active torsions:
REMARK  status: ('A' for Active; 'I' for Inactive)
REMARK    1  A    between atoms: C3_3  and  C9_9 
ROOT
HETATM    1  C1  UNL     1     -33.148  15.342  -4.744  1.00 20.00    -0.030 C 
HETATM    2  C2  UNL     1     -33.315  15.674  -6.042  1.00 20.00    -0.029 C 
HETATM    3  C4  UNL     1     -34.290  15.133  -3.770  1.00 20.00     0.032 C 
HETATM    4  C5  UNL     1     -34.668  15.838  -6.712  1.00 20.00     0.044 C 
HETATM    5  C6  UNL     1     -37.023  15.345  -4.186  1.00 20.00     0.007 C 
HETATM    6  C7  UNL     1     -37.199  15.600  -5.720  1.00 20.00     0.018 C 
HETATM    7  C8  UNL     1     -35.536  15.699  -4.422  1.00 20.00     0.005 C 
HETATM    8  C9  UNL     1     -35.715  15.108  -5.863  1.00 20.00     0.027 C 
ENDROOT
BRANCH   8   9
HETATM    9  C3  UNL     1     -35.620  13.551  -6.076  1.00 20.00     0.132 C 
HETATM   10  C10 UNL     1     -35.159  13.081  -7.429  1.00 20.00     0.091 C 
HETATM   11  O11 UNL     1     -35.905  12.759  -5.180  1.00 20.00    -0.298 OA
ENDBRANCH   8   9
TORSDOF 1
ENDMDL
MODEL 2
REMARK VINA RESULT:      -4.4      1.174      2.730
REMARK  1 active torsions:
REMARK  status: ('A' for Active; 'I' for Inactive)
REMARK    1  A    between atoms: C3_3  and  C9_9 
ROOT
HETATM    1  C1  UNL     1     -35.006  15.369  -7.892  1.00 20.00    -0.030 C 
HETATM    2  C2  UNL     1     -35.839  16.237  -7.279  1.00 20.00    -0.029 C 
HETATM    3  C4  UNL     1     -34.004  14.498  -7.160  1.00 20.00     0.032 C 
HETATM    4  C5  UNL     1     -35.917  16.426  -5.774  1.00 20.00     0.044 C 
HETATM    5  C6  UNL     1     -33.465  14.331  -4.445  1.00 20.00     0.007 C 
HETATM    6  C7  UNL     1     -34.526  15.243  -3.746  1.00 20.00     0.018 C 
HETATM    7  C8  UNL     1     -33.891  15.043  -5.750  1.00 20.00     0.005 C 
HETATM    8  C9  UNL     1     -35.312  15.187  -5.104  1.00 20.00     0.027 C 
ENDROOT
BRANCH   8   9
HETATM    9  C3  UNL     1     -36.314  13.974  -5.164  1.00 20.00     0.132 C 
HETATM   10  C10 UNL     1     -37.781  14.307  -5.149  1.00 20.00     0.091 C 
HETATM   11  O11 UNL     1     -35.916  12.811  -5.223  1.00 20.00    -0.298 OA
ENDBRANCH   8   9
TORSDOF 1
ENDMDL
MODEL 3
REMARK VINA RESULT:      -4.2      1.474      2.314
REMARK  1 active torsions:
REMARK  status: ('A' for Active; 'I' for Inactive)
REMARK    1  A    between atoms: C3_3  and  C9_9 
ROOT
HETATM    1  C1  UNL     1     -33.672  15.940  -6.860  1.00 20.00    -0.030 C 
HETATM    2  C2  UNL     1     -34.981  16.250  -6.976  1.00 20.00    -0.029 C 
HETATM    3  C4  UNL     1     -32.946  15.815  -5.534  1.00 20.00     0.032 C 
HETATM    4  C5  UNL     1     -35.912  16.470  -5.797  1.00 20.00     0.044 C 
HETATM    5  C6  UNL     1     -33.909  16.163  -2.958  1.00 20.00     0.007 C 
HETATM    6  C7  UNL     1     -35.449  16.391  -3.109  1.00 20.00     0.018 C 
HETATM    7  C8  UNL     1     -33.843  16.431  -4.479  1.00 20.00     0.005 C 
HETATM    8  C9  UNL     1     -35.284  15.817  -4.560  1.00 20.00     0.027 C 
ENDROOT
BRANCH   8   9
HETATM    9  C3  UNL     1     -35.454  14.252  -4.608  1.00 20.00     0.132 C 
HETATM   10  C10 UNL     1     -36.698  13.727  -5.273  1.00 20.00     0.091 C 
HETATM   11  O11 UNL     1     -34.611  13.498  -4.127  1.00 20.00    -0.298 OA
ENDBRANCH   8   9
TORSDOF 1
ENDMDL
MODEL 4
REMARK VINA RESULT:      -4.2      3.999      5.525
REMARK  1 active torsions:
REMARK  status: ('A' for Active; 'I' for Inactive)
REMARK    1  A    between atoms: C3_3  and  C9_9 
ROOT
HETATM    1  C1  UNL     1     -33.412  18.605  -0.246  1.00 20.00    -0.030 C 
HETATM    2  C2  UNL     1     -34.601  18.146   0.198  1.00 20.00    -0.029 C 
HETATM    3  C4  UNL     1     -32.790  18.203  -1.569  1.00 20.00     0.032 C 
HETATM    4  C5  UNL     1     -35.497  17.203  -0.586  1.00 20.00     0.044 C 
HETATM    5  C6  UNL     1     -33.739  16.460  -3.506  1.00 20.00     0.007 C 
HETATM    6  C7  UNL     1     -35.171  16.044  -3.035  1.00 20.00     0.018 C 
HETATM    7  C8  UNL     1     -33.551  16.990  -2.065  1.00 20.00     0.005 C 
HETATM    8  C9  UNL     1     -35.093  17.274  -2.063  1.00 20.00     0.027 C 
ENDROOT
BRANCH   8   9
HETATM    9  C3  UNL     1     -35.635  18.596  -2.727  1.00 20.00     0.132 C 
HETATM   10  C10 UNL     1     -37.040  19.002  -2.374  1.00 20.00     0.091 C 
HETATM   11  O11 UNL     1     -34.942  19.263  -3.493  1.00 20.00    -0.298 OA
ENDBRANCH   8   9
TORSDOF 1
ENDMDL
MODEL 5
REMARK VINA RESULT:      -4.2      1.655      3.125
REMARK  1 active torsions:
REMARK  status: ('A' for Active; 'I' for Inactive)
REMARK    1  A    between atoms: C3_3  and  C9_9 
ROOT
HETATM    1  C1  UNL     1     -37.321  15.326  -4.830  1.00 20.00    -0.030 C 
HETATM    2  C2  UNL     1     -37.059  14.056  -5.207  1.00 20.00    -0.029 C 
HETATM    3  C4  UNL     1     -36.282  16.269  -4.255  1.00 20.00     0.032 C 
HETATM    4  C5  UNL     1     -35.683  13.417  -5.149  1.00 20.00     0.044 C 
HETATM    5  C6  UNL     1     -33.593  15.830  -3.742  1.00 20.00     0.007 C 
HETATM    6  C7  UNL     1     -33.283  14.403  -4.306  1.00 20.00     0.018 C 
HETATM    7  C8  UNL     1     -35.080  15.427  -3.879  1.00 20.00     0.005 C 
HETATM    8  C9  UNL     1     -34.636  14.535  -5.090  1.00 20.00     0.027 C 
ENDROOT
BRANCH   8   9
HETATM    9  C3  UNL     1     -34.445  15.197  -6.506  1.00 20.00     0.132 C 
HETATM   10  C10 UNL     1     -34.265  14.261  -7.670  1.00 20.00     0.091 C 
HETATM   11  O11 UNL     1     -34.445  16.418  -6.652  1.00 20.00    -0.298 OA
ENDBRANCH   8   9
TORSDOF 1
ENDMDL
MODEL 6
REMARK VINA RESULT:      -4.1      2.003      3.395
REMARK  1 active torsions:
REMARK  status: ('A' for Active; 'I' for Inactive)
REMARK    1  A    between atoms: C3_3  and  C9_9 
ROOT
HETATM    1  C1  UNL     1     -36.845  14.391  -4.919  1.00 20.00    -0.030 C 
HETATM    2  C2  UNL     1     -35.678  13.714  -4.892  1.00 20.00    -0.029 C 
HETATM    3  C4  UNL     1     -37.080  15.704  -4.199  1.00 20.00     0.032 C 
HETATM    4  C5  UNL     1     -34.429  14.198  -4.176  1.00 20.00     0.044 C 
HETATM    5  C6  UNL     1     -35.350  17.175  -2.608  1.00 20.00     0.007 C 
HETATM    6  C7  UNL     1     -33.969  16.445  -2.697  1.00 20.00     0.018 C 
HETATM    7  C8  UNL     1     -35.936  15.882  -3.220  1.00 20.00     0.005 C 
HETATM    8  C9  UNL     1     -34.559  15.709  -3.951  1.00 20.00     0.027 C 
ENDROOT
BRANCH   8   9
HETATM    9  C3  UNL     1     -34.291  16.497  -5.288  1.00 20.00     0.132 C 
HETATM   10  C10 UNL     1     -33.292  15.896  -6.238  1.00 20.00     0.091 C 
HETATM   11  O11 UNL     1     -34.873  17.551  -5.542  1.00 20.00    -0.298 OA
ENDBRANCH   8   9
TORSDOF 1
ENDMDL
MODEL 7
REMARK VINA RESULT:      -4.1      1.708      2.846
REMARK  1 active torsions:
REMARK  status: ('A' for Active; 'I' for Inactive)
REMARK    1  A    between atoms: C3_3  and  C9_9 
ROOT
HETATM    1  C1  UNL     1     -33.575  15.743  -3.433  1.00 20.00    -0.030 C 
HETATM    2  C2  UNL     1     -34.650  16.396  -2.943  1.00 20.00    -0.029 C 
HETATM    3  C4  UNL     1     -33.660  14.591  -4.415  1.00 20.00     0.032 C 
HETATM    4  C5  UNL     1     -36.084  16.098  -3.344  1.00 20.00     0.044 C 
HETATM    5  C6  UNL     1     -35.894  13.394  -5.540  1.00 20.00     0.007 C 
HETATM    6  C7  UNL     1     -37.116  14.248  -5.064  1.00 20.00     0.018 C 
HETATM    7  C8  UNL     1     -35.104  14.131  -4.433  1.00 20.00     0.005 C 
HETATM    8  C9  UNL     1     -36.063  15.347  -4.680  1.00 20.00     0.027 C 
ENDROOT
BRANCH   8   9
HETATM    9  C3  UNL     1     -35.767  16.333  -5.871  1.00 20.00     0.132 C 
HETATM   10  C10 UNL     1     -36.455  17.671  -5.829  1.00 20.00     0.091 C 
HETATM   11  O11 UNL     1     -35.008  16.026  -6.789  1.00 20.00    -0.298 OA
ENDBRANCH   8   9
TORSDOF 1
ENDMDL
MODEL 8
REMARK VINA RESULT:      -4.1      1.525      2.972
REMARK  1 active torsions:
REMARK  status: ('A' for Active; 'I' for Inactive)
REMARK    1  A    between atoms: C3_3  and  C9_9 
ROOT
HETATM    1  C1  UNL     1     -33.885  16.287  -4.435  1.00 20.00    -0.030 C 
HETATM    2  C2  UNL     1     -34.361  15.191  -3.808  1.00 20.00    -0.029 C 
HETATM    3  C4  UNL     1     -33.675  16.379  -5.934  1.00 20.00     0.032 C 
HETATM    4  C5  UNL     1     -34.792  13.921  -4.519  1.00 20.00     0.044 C 
HETATM    5  C6  UNL     1     -34.121  14.473  -7.898  1.00 20.00     0.007 C 
HETATM    6  C7  UNL     1     -34.792  13.263  -7.168  1.00 20.00     0.018 C 
HETATM    7  C8  UNL     1     -33.752  14.967  -6.479  1.00 20.00     0.005 C 
HETATM    8  C9  UNL     1     -35.065  14.263  -5.989  1.00 20.00     0.027 C 
ENDROOT
BRANCH   8   9
HETATM    9  C3  UNL     1     -36.444  15.007  -6.142  1.00 20.00     0.132 C 
HETATM   10  C10 UNL     1     -37.597  14.467  -5.341  1.00 20.00     0.091 C 
HETATM   11  O11 UNL     1     -36.570  15.984  -6.879  1.00 20.00    -0.298 OA
ENDBRANCH   8   9
TORSDOF 1
ENDMDL
MODEL 9
REMARK VINA RESULT:      -4.0      1.316      3.351
REMARK  1 active torsions:
REMARK  status: ('A' for Active; 'I' for Inactive)
REMARK    1  A    between atoms: C3_3  and  C9_9 
ROOT
HETATM    1  C1  UNL     1     -37.125  14.820  -4.643  1.00 20.00    -0.030 C 
HETATM    2  C2  UNL     1     -36.711  16.101  -4.742  1.00 20.00    -0.029 C 
HETATM    3  C4  UNL     1     -36.494  13.665  -5.396  1.00 20.00     0.032 C 
HETATM    4  C5  UNL     1     -35.529  16.551  -5.583  1.00 20.00     0.044 C 
HETATM    5  C6  UNL     1     -34.379  13.676  -7.189  1.00 20.00     0.007 C 
HETATM    6  C7  UNL     1     -33.831  15.141  -7.188  1.00 20.00     0.018 C 
HETATM    7  C8  UNL     1     -35.617  14.268  -6.475  1.00 20.00     0.005 C 
HETATM    8  C9  UNL     1     -34.643  15.331  -5.858  1.00 20.00     0.027 C 
ENDROOT
BRANCH   8   9
HETATM    9  C3  UNL     1     -33.798  14.955  -4.583  1.00 20.00     0.132 C 
HETATM   10  C10 UNL     1     -33.530  16.061  -3.599  1.00 20.00     0.091 C 
HETATM   11  O11 UNL     1     -33.379  13.813  -4.401  1.00 20.00    -0.298 OA
ENDBRANCH   8   9
TORSDOF 1
ENDMDL
