MODEL 1
REMARK VINA RESULT:      -6.8      0.000      0.000
REMARK  1 active torsions:
REMARK  status: ('A' for Active; 'I' for Inactive)
REMARK    1  A    between atoms: C5_5  and  C8_8 
ROOT
HETATM    1  C1  UNL     1     -34.395   4.455   5.124  1.00 20.00    -0.004 C 
HETATM    2  C2  UNL     1     -34.667   5.672   5.891  1.00 20.00    -0.004 C 
HETATM    3  C3  UNL     1     -33.929   4.308   3.865  1.00 20.00    -0.026 C 
HETATM    4  C4  UNL     1     -34.132   6.887   5.656  1.00 20.00    -0.021 C 
HETATM    5  C6  UNL     1     -33.541   5.376   2.851  1.00 20.00     0.033 C 
HETATM    6  C7  UNL     1     -33.210   7.129   4.550  1.00 20.00     0.028 A 
HETATM    7  C8  UNL     1     -33.246   8.075   3.396  1.00 20.00     0.100 A 
HETATM    8  C9  UNL     1     -33.947   6.749   3.264  1.00 20.00     0.012 A 
ENDROOT
BRANCH   7   9
HETATM    9  C5  UNL     1     -32.036   8.264   2.621  1.00 20.00     0.178 C 
HETATM   10  O10 UNL     1     -32.213   8.496   1.393  1.00 20.00    -0.648 OA
HETATM   11  O11 UNL     1     -30.963   8.170   3.282  1.00 20.00    -0.648 OA
ENDBRANCH   7   9
TORSDOF 1
ENDMDL
MODEL 2
REMARK VINA RESULT:      -6.1      0.909      2.075
REMARK  1 active torsions:
REMARK  status: ('A' for Active; 'I' for Inactive)
REMARK    1  A    between atoms: C5_5  and  C8_8 
ROOT
HETATM    1  C1  UNL     1     -34.623   5.710   5.572  1.00 20.00    -0.004 C 
HETATM    2  C2  UNL     1     -34.411   4.835   4.418  1.00 20.00    -0.004 C 
HETATM    3  C3  UNL     1     -34.093   6.920   5.853  1.00 20.00    -0.026 C 
HETATM    4  C4  UNL     1     -33.963   5.222   3.207  1.00 20.00    -0.021 C 
HETATM    5  C6  UNL     1     -33.103   7.749   5.044  1.00 20.00     0.033 C 
HETATM    6  C7  UNL     1     -33.602   6.607   2.919  1.00 20.00     0.028 A 
HETATM    7  C8  UNL     1     -32.342   7.240   2.431  1.00 20.00     0.100 A 
HETATM    8  C9  UNL     1     -32.502   6.996   3.908  1.00 20.00     0.012 A 
ENDROOT
BRANCH   7   9
HETATM    9  C5  UNL     1     -32.391   8.616   1.978  1.00 20.00     0.178 C 
HETATM   10  O10 UNL     1     -33.104   8.823   0.957  1.00 20.00    -0.648 OA
HETATM   11  O11 UNL     1     -31.711   9.426   2.669  1.00 20.00    -0.648 OA
ENDBRANCH   7   9
TORSDOF 1
ENDMDL
MODEL 3
REMARK VINA RESULT:      -5.8      2.678      4.362
REMARK  1 active torsions:
REMARK  status: ('A' for Active; 'I' for Inactive)
REMARK    1  A    between atoms: C5_5  and  C8_8 
ROOT
HETATM    1  C1  UNL     1     -31.633   8.556   3.039  1.00 20.00    -0.004 C 
HETATM    2  C2  UNL     1     -32.356   8.053   1.870  1.00 20.00    -0.004 C 
HETATM    3  C3  UNL     1     -31.870   8.363   4.355  1.00 20.00    -0.026 C 
HETATM    4  C4  UNL     1     -33.160   6.971   1.846  1.00 20.00    -0.021 C 
HETATM    5  C6  UNL     1     -32.973   7.556   5.027  1.00 20.00     0.033 C 
HETATM    6  C7  UNL     1     -33.425   6.173   3.039  1.00 20.00     0.028 A 
HETATM    7  C8  UNL     1     -34.685   5.799   3.744  1.00 20.00     0.100 A 
HETATM    8  C9  UNL     1     -34.034   7.115   4.079  1.00 20.00     0.012 A 
ENDROOT
BRANCH   7   9
HETATM    9  C5  UNL     1     -34.631   4.758   4.751  1.00 20.00     0.178 C 
HETATM   10  O10 UNL     1     -34.912   5.127   5.924  1.00 20.00    -0.648 OA
HETATM   11  O11 UNL     1     -34.309   3.616   4.315  1.00 20.00    -0.648 OA
ENDBRANCH   7   9
TORSDOF 1
ENDMDL
MODEL 4
REMARK VINA RESULT:      -4.9     11.369     12.783
REMARK  1 active torsions:
REMARK  status: ('A' for Active; 'I' for Inactive)
REMARK    1  A    between atoms: C5_5  and  C8_8 
ROOT
HETATM    1  C1  UNL     1     -33.559  17.889  -4.519  1.00 20.00    -0.004 C 
HETATM    2  C2  UNL     1     -33.739  17.325  -3.180  1.00 20.00    -0.004 C 
HETATM    3  C3  UNL     1     -33.651  17.297  -5.729  1.00 20.00    -0.026 C 
HETATM    4  C4  UNL     1     -34.428  16.205  -2.883  1.00 20.00    -0.021 C 
HETATM    5  C6  UNL     1     -33.973  15.847  -6.071  1.00 20.00     0.033 C 
HETATM    6  C7  UNL     1     -35.067  15.390  -3.912  1.00 20.00     0.028 A 
HETATM    7  C8  UNL     1     -34.928  13.953  -4.291  1.00 20.00     0.100 A 
HETATM    8  C9  UNL     1     -33.967  14.952  -4.880  1.00 20.00     0.012 A 
ENDROOT
BRANCH   7   9
HETATM    9  C5  UNL     1     -35.914  13.377  -5.184  1.00 20.00     0.178 C 
HETATM   10  O10 UNL     1     -37.112  13.694  -4.942  1.00 20.00    -0.648 OA
HETATM   11  O11 UNL     1     -35.439  12.632  -6.087  1.00 20.00    -0.648 OA
ENDBRANCH   7   9
TORSDOF 1
ENDMDL
MODEL 5
REMARK VINA RESULT:      -4.8     11.485     12.336
REMARK  1 active torsions:
REMARK  status: ('A' for Active; 'I' for Inactive)
REMARK    1  A    between atoms: C5_5  and  C8_8 
ROOT
HETATM    1  C1  UNL     1     -34.293  16.645  -2.866  1.00 20.00    -0.004 C 
HETATM    2  C2  UNL     1     -35.739  16.435  -2.780  1.00 20.00    -0.004 C 
HETATM    3  C3  UNL     1     -33.351  15.936  -3.524  1.00 20.00    -0.026 C 
HETATM    4  C4  UNL     1     -36.488  15.739  -3.658  1.00 20.00    -0.021 C 
HETATM    5  C6  UNL     1     -33.510  14.690  -4.387  1.00 20.00     0.033 C 
HETATM    6  C7  UNL     1     -35.905  15.071  -4.818  1.00 20.00     0.028 A 
HETATM    7  C8  UNL     1     -35.917  13.652  -5.277  1.00 20.00     0.100 A 
HETATM    8  C9  UNL     1     -34.866  14.082  -4.288  1.00 20.00     0.012 A 
ENDROOT
BRANCH   7   9
HETATM    9  C5  UNL     1     -35.476  13.358  -6.626  1.00 20.00     0.178 C 
HETATM   10  O10 UNL     1     -35.089  12.173  -6.821  1.00 20.00    -0.648 OA
HETATM   11  O11 UNL     1     -35.540  14.333  -7.428  1.00 20.00    -0.648 OA
ENDBRANCH   7   9
TORSDOF 1
ENDMDL
MODEL 6
REMARK VINA RESULT:      -4.7     11.759     12.372
REMARK  1 active torsions:
REMARK  status: ('A' for Active; 'I' for Inactive)
REMARK    1  A    between atoms: C5_5  and  C8_8 
ROOT
HETATM    1  C1  UNL     1     -34.329  17.004  -1.964  1.00 20.00    -0.004 C 
HETATM    2  C2  UNL     1     -33.294  16.714  -2.957  1.00 20.00    -0.004 C 
HETATM    3  C3  UNL     1     -35.661  16.782  -2.007  1.00 20.00    -0.026 C 
HETATM    4  C4  UNL     1     -33.385  15.803  -3.947  1.00 20.00    -0.021 C 
HETATM    5  C6  UNL     1     -36.497  16.154  -3.115  1.00 20.00     0.033 C 
HETATM    6  C7  UNL     1     -34.586  14.999  -4.155  1.00 20.00     0.028 A 
HETATM    7  C8  UNL     1     -35.493  14.825  -5.326  1.00 20.00     0.100 A 
HETATM    8  C9  UNL     1     -35.741  15.974  -4.386  1.00 20.00     0.012 A 
ENDROOT
BRANCH   7   9
HETATM    9  C5  UNL     1     -36.447  13.734  -5.305  1.00 20.00     0.178 C 
HETATM   10  O10 UNL     1     -37.655  14.071  -5.451  1.00 20.00    -0.648 OA
HETATM   11  O11 UNL     1     -35.939  12.589  -5.142  1.00 20.00    -0.648 OA
ENDBRANCH   7   9
TORSDOF 1
ENDMDL
MODEL 7
REMARK VINA RESULT:      -4.6     11.817     12.540
REMARK  1 active torsions:
REMARK  status: ('A' for Active; 'I' for Inactive)
REMARK    1  A    between atoms: C5_5  and  C8_8 
ROOT
HETATM    1  C1  UNL     1     -34.925  16.905  -2.050  1.00 20.00    -0.004 C 
HETATM    2  C2  UNL     1     -33.648  16.602  -2.697  1.00 20.00    -0.004 C 
HETATM    3  C3  UNL     1     -36.187  16.726  -2.495  1.00 20.00    -0.026 C 
HETATM    4  C4  UNL     1     -33.460  15.714  -3.693  1.00 20.00    -0.021 C 
HETATM    5  C6  UNL     1     -36.669  16.147  -3.820  1.00 20.00     0.033 C 
HETATM    6  C7  UNL     1     -34.563  14.952  -4.273  1.00 20.00     0.028 A 
HETATM    7  C8  UNL     1     -35.082  14.830  -5.667  1.00 20.00     0.100 A 
HETATM    8  C9  UNL     1     -35.571  15.968  -4.811  1.00 20.00     0.012 A 
ENDROOT
BRANCH   7   9
HETATM    9  C5  UNL     1     -36.025  13.770  -5.962  1.00 20.00     0.178 C 
HETATM   10  O10 UNL     1     -35.920  12.739  -5.241  1.00 20.00    -0.648 OA
HETATM   11  O11 UNL     1     -36.827  14.022  -6.904  1.00 20.00    -0.648 OA
ENDBRANCH   7   9
TORSDOF 1
ENDMDL
MODEL 8
REMARK VINA RESULT:      -4.4     11.814     12.484
REMARK  1 active torsions:
REMARK  status: ('A' for Active; 'I' for Inactive)
REMARK    1  A    between atoms: C5_5  and  C8_8 
ROOT
HETATM    1  C1  UNL     1     -35.983  14.899  -4.406  1.00 20.00    -0.004 C 
HETATM    2  C2  UNL     1     -34.611  14.411  -4.262  1.00 20.00    -0.004 C 
HETATM    3  C3  UNL     1     -36.606  15.930  -3.796  1.00 20.00    -0.026 C 
HETATM    4  C4  UNL     1     -33.565  15.126  -3.801  1.00 20.00    -0.021 C 
HETATM    5  C6  UNL     1     -36.063  16.909  -2.763  1.00 20.00     0.033 C 
HETATM    6  C7  UNL     1     -33.705  16.509  -3.354  1.00 20.00     0.028 A 
HETATM    7  C8  UNL     1     -33.399  17.187  -2.061  1.00 20.00     0.100 A 
HETATM    8  C9  UNL     1     -34.734  16.509  -2.222  1.00 20.00     0.012 A 
ENDROOT
BRANCH   7   9
HETATM    9  C5  UNL     1     -33.392  18.636  -2.026  1.00 20.00     0.178 C 
HETATM   10  O10 UNL     1     -32.734  19.195  -2.946  1.00 20.00    -0.648 OA
HETATM   11  O11 UNL     1     -34.049  19.146  -1.074  1.00 20.00    -0.648 OA
ENDBRANCH   7   9
TORSDOF 1
ENDMDL
MODEL 9
REMARK VINA RESULT:      -4.3     11.740     12.426
REMARK  1 active torsions:
REMARK  status: ('A' for Active; 'I' for Inactive)
REMARK    1  A    between atoms: C5_5  and  C8_8 
ROOT
HETATM    1  C1  UNL     1     -34.717  17.895   0.130  1.00 20.00    -0.004 C 
HETATM    2  C2  UNL     1     -33.440  18.439  -0.334  1.00 20.00    -0.004 C 
HETATM    3  C3  UNL     1     -35.684  17.247  -0.555  1.00 20.00    -0.026 C 
HETATM    4  C4  UNL     1     -32.777  18.057  -1.444  1.00 20.00    -0.021 C 
HETATM    5  C6  UNL     1     -35.739  16.882  -2.033  1.00 20.00     0.033 C 
HETATM    6  C7  UNL     1     -33.301  17.039  -2.350  1.00 20.00     0.028 A 
HETATM    7  C8  UNL     1     -33.620  17.053  -3.808  1.00 20.00     0.100 A 
HETATM    8  C9  UNL     1     -34.665  17.533  -2.835  1.00 20.00     0.012 A 
ENDROOT
BRANCH   7   9
HETATM    9  C5  UNL     1     -33.866  15.789  -4.473  1.00 20.00     0.178 C 
HETATM   10  O10 UNL     1     -33.119  14.837  -4.114  1.00 20.00    -0.648 OA
HETATM   11  O11 UNL     1     -34.797  15.812  -5.326  1.00 20.00    -0.648 OA
ENDBRANCH   7   9
TORSDOF 1
ENDMDL
