MODEL 1
REMARK VINA RESULT:      -4.7      0.000      0.000
REMARK  1 active torsions:
REMARK  status: ('A' for Active; 'I' for Inactive)
REMARK    1  A    between atoms: C1_1  and  C3_3 
ROOT
HETATM    1  C1  UNL     1     -33.141   7.538   3.018  1.00 20.00    -0.054 C 
HETATM    2  C2  UNL     1     -32.462   8.054   2.172  1.00 20.00     0.007 C 
HETATM    3 CL8  UNL     1     -31.472   8.808   0.938  1.00 20.00    -0.023 Cl
ENDROOT
BRANCH   1   4
HETATM    4  C3  UNL     1     -33.949   6.924   4.024  1.00 20.00     0.236 A 
HETATM    5  C4  UNL     1     -34.129   5.419   4.089  1.00 20.00     0.092 A 
HETATM    6  C5  UNL     1     -34.570   4.804   5.381  1.00 20.00     0.049 C 
HETATM    7  C6  UNL     1     -33.453   4.503   3.114  1.00 20.00     0.049 C 
HETATM    8  O7  UNL     1     -35.113   6.272   3.492  1.00 20.00    -0.357 OA
ENDBRANCH   1   4
TORSDOF 1
ENDMDL
MODEL 2
REMARK VINA RESULT:      -4.5      1.308      1.327
REMARK  1 active torsions:
REMARK  status: ('A' for Active; 'I' for Inactive)
REMARK    1  A    between atoms: C1_1  and  C3_3 
ROOT
HETATM    1  C1  UNL     1     -32.738   7.577   3.319  1.00 20.00    -0.054 C 
HETATM    2  C2  UNL     1     -32.457   8.164   2.310  1.00 20.00     0.007 C 
HETATM    3 CL8  UNL     1     -32.046   9.021   0.837  1.00 20.00    -0.023 Cl
ENDROOT
BRANCH   1   4
HETATM    4  C3  UNL     1     -33.073   6.878   4.520  1.00 20.00     0.236 A 
HETATM    5  C4  UNL     1     -34.379   6.120   4.660  1.00 20.00     0.092 A 
HETATM    6  C5  UNL     1     -34.480   5.051   5.704  1.00 20.00     0.049 C 
HETATM    7  C6  UNL     1     -35.372   6.050   3.540  1.00 20.00     0.049 C 
HETATM    8  O7  UNL     1     -34.210   7.437   5.199  1.00 20.00    -0.357 OA
ENDBRANCH   1   4
TORSDOF 1
ENDMDL
MODEL 3
REMARK VINA RESULT:      -3.8      3.051      4.788
REMARK  1 active torsions:
REMARK  status: ('A' for Active; 'I' for Inactive)
REMARK    1  A    between atoms: C1_1  and  C3_3 
ROOT
HETATM    1  C1  UNL     1     -32.613   7.308   2.607  1.00 20.00    -0.054 C 
HETATM    2  C2  UNL     1     -33.054   6.218   2.852  1.00 20.00     0.007 C 
HETATM    3 CL8  UNL     1     -33.699   4.628   3.209  1.00 20.00    -0.023 Cl
ENDROOT
BRANCH   1   4
HETATM    4  C3  UNL     1     -32.087   8.605   2.316  1.00 20.00     0.236 A 
HETATM    5  C4  UNL     1     -32.449   9.340   1.040  1.00 20.00     0.092 A 
HETATM    6  C5  UNL     1     -32.271  10.826   0.993  1.00 20.00     0.049 C 
HETATM    7  C6  UNL     1     -33.390   8.752   0.033  1.00 20.00     0.049 C 
HETATM    8  O7  UNL     1     -31.219   8.617   1.172  1.00 20.00    -0.357 OA
ENDBRANCH   1   4
TORSDOF 1
ENDMDL
MODEL 4
REMARK VINA RESULT:      -3.7      2.851      4.357
REMARK  1 active torsions:
REMARK  status: ('A' for Active; 'I' for Inactive)
REMARK    1  A    between atoms: C1_1  and  C3_3 
ROOT
HETATM    1  C1  UNL     1     -33.736   6.439   3.310  1.00 20.00    -0.054 C 
HETATM    2  C2  UNL     1     -34.103   5.779   4.243  1.00 20.00     0.007 C 
HETATM    3 CL8  UNL     1     -34.639   4.817   5.607  1.00 20.00    -0.023 Cl
ENDROOT
BRANCH   1   4
HETATM    4  C3  UNL     1     -33.300   7.223   2.198  1.00 20.00     0.236 A 
HETATM    5  C4  UNL     1     -32.121   8.172   2.308  1.00 20.00     0.092 A 
HETATM    6  C5  UNL     1     -31.424   8.599   1.054  1.00 20.00     0.049 C 
HETATM    7  C6  UNL     1     -31.345   8.316   3.582  1.00 20.00     0.049 C 
HETATM    8  O7  UNL     1     -33.474   8.635   2.401  1.00 20.00    -0.357 OA
ENDBRANCH   1   4
TORSDOF 1
ENDMDL
MODEL 5
REMARK VINA RESULT:      -3.6     11.487     11.929
REMARK  1 active torsions:
REMARK  status: ('A' for Active; 'I' for Inactive)
REMARK    1  A    between atoms: C1_1  and  C3_3 
ROOT
HETATM    1  C1  UNL     1     -34.310  15.761  -3.685  1.00 20.00    -0.054 C 
HETATM    2  C2  UNL     1     -34.710  16.237  -2.658  1.00 20.00     0.007 C 
HETATM    3 CL8  UNL     1     -35.294  16.932  -1.158  1.00 20.00    -0.023 Cl
ENDROOT
BRANCH   1   4
HETATM    4  C3  UNL     1     -33.834  15.194  -4.908  1.00 20.00     0.236 A 
HETATM    5  C4  UNL     1     -34.623  14.132  -5.651  1.00 20.00     0.092 A 
HETATM    6  C5  UNL     1     -34.342  13.918  -7.107  1.00 20.00     0.049 C 
HETATM    7  C6  UNL     1     -35.946  13.641  -5.151  1.00 20.00     0.049 C 
HETATM    8  O7  UNL     1     -33.522  13.796  -4.798  1.00 20.00    -0.357 OA
ENDBRANCH   1   4
TORSDOF 1
ENDMDL
MODEL 6
REMARK VINA RESULT:      -3.5     11.531     11.811
REMARK  1 active torsions:
REMARK  status: ('A' for Active; 'I' for Inactive)
REMARK    1  A    between atoms: C1_1  and  C3_3 
ROOT
HETATM    1  C1  UNL     1     -34.166  16.685  -2.488  1.00 20.00    -0.054 C 
HETATM    2  C2  UNL     1     -33.424  17.337  -1.806  1.00 20.00     0.007 C 
HETATM    3 CL8  UNL     1     -32.340  18.289  -0.810  1.00 20.00    -0.023 Cl
ENDROOT
BRANCH   1   4
HETATM    4  C3  UNL     1     -35.049  15.908  -3.301  1.00 20.00     0.236 A 
HETATM    5  C4  UNL     1     -34.526  14.878  -4.283  1.00 20.00     0.092 A 
HETATM    6  C5  UNL     1     -35.450  13.795  -4.747  1.00 20.00     0.049 C 
HETATM    7  C6  UNL     1     -33.060  14.609  -4.434  1.00 20.00     0.049 C 
HETATM    8  O7  UNL     1     -34.919  16.190  -4.704  1.00 20.00    -0.357 OA
ENDBRANCH   1   4
TORSDOF 1
ENDMDL
MODEL 7
REMARK VINA RESULT:      -3.4     11.672     12.128
REMARK  1 active torsions:
REMARK  status: ('A' for Active; 'I' for Inactive)
REMARK    1  A    between atoms: C1_1  and  C3_3 
ROOT
HETATM    1  C1  UNL     1     -34.242  15.593  -3.718  1.00 20.00    -0.054 C 
HETATM    2  C2  UNL     1     -34.872  14.711  -4.233  1.00 20.00     0.007 C 
HETATM    3 CL8  UNL     1     -35.792  13.422  -4.987  1.00 20.00    -0.023 Cl
ENDROOT
BRANCH   1   4
HETATM    4  C3  UNL     1     -33.492  16.643  -3.104  1.00 20.00     0.236 A 
HETATM    5  C4  UNL     1     -33.980  17.338  -1.847  1.00 20.00     0.092 A 
HETATM    6  C5  UNL     1     -32.985  18.069  -0.999  1.00 20.00     0.049 C 
HETATM    7  C6  UNL     1     -35.261  16.945  -1.178  1.00 20.00     0.049 C 
HETATM    8  O7  UNL     1     -34.161  17.914  -3.147  1.00 20.00    -0.357 OA
ENDBRANCH   1   4
TORSDOF 1
ENDMDL
MODEL 8
REMARK VINA RESULT:      -3.2     11.772     12.455
REMARK  1 active torsions:
REMARK  status: ('A' for Active; 'I' for Inactive)
REMARK    1  A    between atoms: C1_1  and  C3_3 
ROOT
HETATM    1  C1  UNL     1     -34.457  15.412  -3.789  1.00 20.00    -0.054 C 
HETATM    2  C2  UNL     1     -34.113  16.170  -2.925  1.00 20.00     0.007 C 
HETATM    3 CL8  UNL     1     -33.610  17.278  -1.662  1.00 20.00    -0.023 Cl
ENDROOT
BRANCH   1   4
HETATM    4  C3  UNL     1     -34.867  14.509  -4.819  1.00 20.00     0.236 A 
HETATM    5  C4  UNL     1     -34.442  14.704  -6.262  1.00 20.00     0.092 A 
HETATM    6  C5  UNL     1     -34.489  13.529  -7.189  1.00 20.00     0.049 C 
HETATM    7  C6  UNL     1     -33.557  15.840  -6.674  1.00 20.00     0.049 C 
HETATM    8  O7  UNL     1     -35.731  15.118  -5.792  1.00 20.00    -0.357 OA
ENDBRANCH   1   4
TORSDOF 1
ENDMDL
MODEL 9
REMARK VINA RESULT:      -3.1     12.182     12.997
REMARK  1 active torsions:
REMARK  status: ('A' for Active; 'I' for Inactive)
REMARK    1  A    between atoms: C1_1  and  C3_3 
ROOT
HETATM    1  C1  UNL     1     -32.831  18.883   1.200  1.00 20.00    -0.054 C 
HETATM    2  C2  UNL     1     -33.079  18.565   2.331  1.00 20.00     0.007 C 
HETATM    3 CL8  UNL     1     -33.442  18.099   3.982  1.00 20.00    -0.023 Cl
ENDROOT
BRANCH   1   4
HETATM    4  C3  UNL     1     -32.535  19.263  -0.145  1.00 20.00     0.236 A 
HETATM    5  C4  UNL     1     -33.171  18.558  -1.328  1.00 20.00     0.092 A 
HETATM    6  C5  UNL     1     -33.207  19.262  -2.649  1.00 20.00     0.049 C 
HETATM    7  C6  UNL     1     -34.155  17.444  -1.143  1.00 20.00     0.049 C 
HETATM    8  O7  UNL     1     -31.848  18.239  -0.882  1.00 20.00    -0.357 OA
ENDBRANCH   1   4
TORSDOF 1
ENDMDL
