MODEL 1
REMARK VINA RESULT:      -4.7      0.000      0.000
REMARK  1 active torsions:
REMARK  status: ('A' for Active; 'I' for Inactive)
REMARK    1  A    between atoms: C1_1  and  C4_4 
ROOT
HETATM    1  C2  UNL     1     -34.616   4.722   4.640  1.00 20.00     0.031 A 
HETATM    2  C3  UNL     1     -35.481   5.750   3.972  1.00 20.00     0.031 A 
HETATM    3  C4  UNL     1     -34.031   6.059   4.253  1.00 20.00     0.078 A 
HETATM    4 BR7  UNL     1     -33.670   7.293   5.687  1.00 20.00    -0.077 Br
ENDROOT
BRANCH   3   5
HETATM    5  C1  UNL     1     -33.085   6.122   3.127  1.00 20.00     0.142 C 
HETATM    6  C5  UNL     1     -32.504   7.473   2.807  1.00 20.00     0.092 C 
HETATM    7  O6  UNL     1     -32.783   5.121   2.480  1.00 20.00    -0.297 OA
ENDBRANCH   3   5
TORSDOF 1
ENDMDL
MODEL 2
REMARK VINA RESULT:      -4.5      2.223      2.951
REMARK  1 active torsions:
REMARK  status: ('A' for Active; 'I' for Inactive)
REMARK    1  A    between atoms: C1_1  and  C4_4 
ROOT
HETATM    1  C2  UNL     1     -34.418   6.158   2.544  1.00 20.00     0.031 A 
HETATM    2  C3  UNL     1     -33.337   5.196   2.939  1.00 20.00     0.031 A 
HETATM    3  C4  UNL     1     -33.471   6.513   3.664  1.00 20.00     0.078 A 
HETATM    4 BR7  UNL     1     -32.140   7.852   3.281  1.00 20.00    -0.077 Br
ENDROOT
BRANCH   3   5
HETATM    5  C1  UNL     1     -33.974   6.516   5.047  1.00 20.00     0.142 C 
HETATM    6  C5  UNL     1     -34.598   5.240   5.543  1.00 20.00     0.092 C 
HETATM    7  O6  UNL     1     -33.886   7.512   5.763  1.00 20.00    -0.297 OA
ENDBRANCH   3   5
TORSDOF 1
ENDMDL
MODEL 3
REMARK VINA RESULT:      -4.5      2.107      2.451
REMARK  1 active torsions:
REMARK  status: ('A' for Active; 'I' for Inactive)
REMARK    1  A    between atoms: C1_1  and  C4_4 
ROOT
HETATM    1  C2  UNL     1     -35.488   5.845   3.853  1.00 20.00     0.031 A 
HETATM    2  C3  UNL     1     -34.789   5.042   4.909  1.00 20.00     0.031 A 
HETATM    3  C4  UNL     1     -33.982   5.869   3.940  1.00 20.00     0.078 A 
HETATM    4 BR7  UNL     1     -33.021   4.910   2.573  1.00 20.00    -0.077 Br
ENDROOT
BRANCH   3   5
HETATM    5  C1  UNL     1     -33.316   7.089   4.425  1.00 20.00     0.142 C 
HETATM    6  C5  UNL     1     -33.553   7.462   5.864  1.00 20.00     0.092 C 
HETATM    7  O6  UNL     1     -32.600   7.769   3.692  1.00 20.00    -0.297 OA
ENDBRANCH   3   5
TORSDOF 1
ENDMDL
MODEL 4
REMARK VINA RESULT:      -4.5      2.188      2.332
REMARK  1 active torsions:
REMARK  status: ('A' for Active; 'I' for Inactive)
REMARK    1  A    between atoms: C1_1  and  C4_4 
ROOT
HETATM    1  C2  UNL     1     -35.422   5.885   3.867  1.00 20.00     0.031 A 
HETATM    2  C3  UNL     1     -34.685   5.175   4.963  1.00 20.00     0.031 A 
HETATM    3  C4  UNL     1     -33.913   5.884   3.877  1.00 20.00     0.078 A 
HETATM    4 BR7  UNL     1     -33.040   4.772   2.568  1.00 20.00    -0.077 Br
ENDROOT
BRANCH   3   5
HETATM    5  C1  UNL     1     -33.202   7.130   4.206  1.00 20.00     0.142 C 
HETATM    6  C5  UNL     1     -32.487   7.820   3.075  1.00 20.00     0.092 C 
HETATM    7  O6  UNL     1     -33.193   7.586   5.347  1.00 20.00    -0.297 OA
ENDBRANCH   3   5
TORSDOF 1
ENDMDL
MODEL 5
REMARK VINA RESULT:      -4.4      1.110      1.170
REMARK  1 active torsions:
REMARK  status: ('A' for Active; 'I' for Inactive)
REMARK    1  A    between atoms: C1_1  and  C4_4 
ROOT
HETATM    1  C2  UNL     1     -34.027   5.068   3.928  1.00 20.00     0.031 A 
HETATM    2  C3  UNL     1     -35.158   6.005   3.624  1.00 20.00     0.031 A 
HETATM    3  C4  UNL     1     -33.830   6.557   4.082  1.00 20.00     0.078 A 
HETATM    4 BR7  UNL     1     -33.748   7.237   5.882  1.00 20.00    -0.077 Br
ENDROOT
BRANCH   3   5
HETATM    5  C1  UNL     1     -32.981   7.266   3.111  1.00 20.00     0.142 C 
HETATM    6  C5  UNL     1     -31.785   7.994   3.664  1.00 20.00     0.092 C 
HETATM    7  O6  UNL     1     -33.234   7.262   1.908  1.00 20.00    -0.297 OA
ENDBRANCH   3   5
TORSDOF 1
ENDMDL
MODEL 6
REMARK VINA RESULT:      -4.4      0.836      2.552
REMARK  1 active torsions:
REMARK  status: ('A' for Active; 'I' for Inactive)
REMARK    1  A    between atoms: C1_1  and  C4_4 
ROOT
HETATM    1  C2  UNL     1     -33.623   7.762   2.804  1.00 20.00     0.031 A 
HETATM    2  C3  UNL     1     -32.215   7.407   3.179  1.00 20.00     0.031 A 
HETATM    3  C4  UNL     1     -33.369   6.726   3.872  1.00 20.00     0.078 A 
HETATM    4 BR7  UNL     1     -33.721   7.254   5.691  1.00 20.00    -0.077 Br
ENDROOT
BRANCH   3   5
HETATM    5  C1  UNL     1     -33.646   5.312   3.572  1.00 20.00     0.142 C 
HETATM    6  C5  UNL     1     -34.615   4.605   4.481  1.00 20.00     0.092 C 
HETATM    7  O6  UNL     1     -33.113   4.737   2.625  1.00 20.00    -0.297 OA
ENDBRANCH   3   5
TORSDOF 1
ENDMDL
MODEL 7
REMARK VINA RESULT:      -4.3      1.951      2.378
REMARK  1 active torsions:
REMARK  status: ('A' for Active; 'I' for Inactive)
REMARK    1  A    between atoms: C1_1  and  C4_4 
ROOT
HETATM    1  C2  UNL     1     -33.063   5.153   2.774  1.00 20.00     0.031 A 
HETATM    2  C3  UNL     1     -34.324   5.899   2.454  1.00 20.00     0.031 A 
HETATM    3  C4  UNL     1     -33.796   5.892   3.867  1.00 20.00     0.078 A 
HETATM    4 BR7  UNL     1     -34.755   4.818   5.146  1.00 20.00    -0.077 Br
ENDROOT
BRANCH   3   5
HETATM    5  C1  UNL     1     -33.205   7.125   4.412  1.00 20.00     0.142 C 
HETATM    6  C5  UNL     1     -33.559   7.475   5.833  1.00 20.00     0.092 C 
HETATM    7  O6  UNL     1     -32.457   7.834   3.741  1.00 20.00    -0.297 OA
ENDBRANCH   3   5
TORSDOF 1
ENDMDL
MODEL 8
REMARK VINA RESULT:      -4.1      2.315      3.383
REMARK  1 active torsions:
REMARK  status: ('A' for Active; 'I' for Inactive)
REMARK    1  A    between atoms: C1_1  and  C4_4 
ROOT
HETATM    1  C2  UNL     1     -32.074   7.685   3.399  1.00 20.00     0.031 A 
HETATM    2  C3  UNL     1     -33.397   7.966   2.750  1.00 20.00     0.031 A 
HETATM    3  C4  UNL     1     -33.229   6.737   3.609  1.00 20.00     0.078 A 
HETATM    4 BR7  UNL     1     -33.137   5.045   2.692  1.00 20.00    -0.077 Br
ENDROOT
BRANCH   3   5
HETATM    5  C1  UNL     1     -33.884   6.693   4.927  1.00 20.00     0.142 C 
HETATM    6  C5  UNL     1     -34.664   5.449   5.254  1.00 20.00     0.092 C 
HETATM    7  O6  UNL     1     -33.796   7.627   5.722  1.00 20.00    -0.297 OA
ENDBRANCH   3   5
TORSDOF 1
ENDMDL
MODEL 9
REMARK VINA RESULT:      -3.7      1.661      2.394
REMARK  1 active torsions:
REMARK  status: ('A' for Active; 'I' for Inactive)
REMARK    1  A    between atoms: C1_1  and  C4_4 
ROOT
HETATM    1  C2  UNL     1     -33.445   7.079   5.257  1.00 20.00     0.031 A 
HETATM    2  C3  UNL     1     -34.675   7.321   4.434  1.00 20.00     0.031 A 
HETATM    3  C4  UNL     1     -33.478   6.644   3.812  1.00 20.00     0.078 A 
HETATM    4 BR7  UNL     1     -32.441   7.688   2.570  1.00 20.00    -0.077 Br
ENDROOT
BRANCH   3   5
HETATM    5  C1  UNL     1     -33.554   5.207   3.503  1.00 20.00     0.142 C 
HETATM    6  C5  UNL     1     -34.448   4.372   4.380  1.00 20.00     0.092 C 
HETATM    7  O6  UNL     1     -32.919   4.713   2.573  1.00 20.00    -0.297 OA
ENDBRANCH   3   5
TORSDOF 1
ENDMDL
