MODEL 1
REMARK VINA RESULT:      -5.4      0.000      0.000
REMARK  0 active torsions:
REMARK  status: ('A' for Active; 'I' for Inactive)
ROOT
HETATM    1  C1  UNL     1     -32.684   7.823   3.490  1.00 20.00     0.148 A 
HETATM    2  C2  UNL     1     -33.290   5.945   2.607  1.00 20.00     0.218 A 
HETATM    3  C3  UNL     1     -33.380   7.149   4.451  1.00 20.00     0.061 A 
HETATM    4  C4  UNL     1     -33.878   7.132   5.759  1.00 20.00     0.037 A 
HETATM    5  C5  UNL     1     -34.536   5.976   5.981  1.00 20.00     0.077 A 
HETATM    6  C6  UNL     1     -34.468   5.176   4.732  1.00 20.00     0.253 A 
HETATM    7  N7  UNL     1     -32.633   7.059   2.333  1.00 20.00    -0.253 NA
HETATM    8  N8  UNL     1     -33.750   5.978   3.881  1.00 20.00    -0.272 N 
HETATM    9  O9  UNL     1     -34.900   4.086   4.435  1.00 20.00    -0.268 OA
ENDROOT
TORSDOF 0
ENDMDL
MODEL 2
REMARK VINA RESULT:      -5.2      1.518      2.166
REMARK  0 active torsions:
REMARK  status: ('A' for Active; 'I' for Inactive)
ROOT
HETATM    1  C1  UNL     1     -33.545   5.861   2.346  1.00 20.00     0.148 A 
HETATM    2  C2  UNL     1     -33.059   7.612   3.518  1.00 20.00     0.218 A 
HETATM    3  C3  UNL     1     -33.982   5.613   3.615  1.00 20.00     0.061 A 
HETATM    4  C4  UNL     1     -34.610   4.727   4.499  1.00 20.00     0.037 A 
HETATM    5  C5  UNL     1     -34.679   5.280   5.727  1.00 20.00     0.077 A 
HETATM    6  C6  UNL     1     -34.053   6.624   5.646  1.00 20.00     0.253 A 
HETATM    7  N7  UNL     1     -32.964   7.119   2.294  1.00 20.00    -0.253 NA
HETATM    8  N8  UNL     1     -33.671   6.718   4.332  1.00 20.00    -0.272 N 
HETATM    9  O9  UNL     1     -33.874   7.493   6.469  1.00 20.00    -0.268 OA
ENDROOT
TORSDOF 0
ENDMDL
MODEL 3
REMARK VINA RESULT:      -5.1      1.832      2.860
REMARK  0 active torsions:
REMARK  status: ('A' for Active; 'I' for Inactive)
ROOT
HETATM    1  C1  UNL     1     -34.688   4.811   5.561  1.00 20.00     0.148 A 
HETATM    2  C2  UNL     1     -33.997   4.878   3.513  1.00 20.00     0.218 A 
HETATM    3  C3  UNL     1     -34.112   6.035   5.385  1.00 20.00     0.061 A 
HETATM    4  C4  UNL     1     -33.768   7.273   5.942  1.00 20.00     0.037 A 
HETATM    5  C5  UNL     1     -33.148   8.033   5.017  1.00 20.00     0.077 A 
HETATM    6  C6  UNL     1     -33.077   7.241   3.763  1.00 20.00     0.253 A 
HETATM    7  N7  UNL     1     -34.611   4.089   4.380  1.00 20.00    -0.253 NA
HETATM    8  N8  UNL     1     -33.687   6.060   4.100  1.00 20.00    -0.272 N 
HETATM    9  O9  UNL     1     -32.622   7.482   2.669  1.00 20.00    -0.268 OA
ENDROOT
TORSDOF 0
ENDMDL
MODEL 4
REMARK VINA RESULT:      -4.9      2.173      3.599
REMARK  0 active torsions:
REMARK  status: ('A' for Active; 'I' for Inactive)
ROOT
HETATM    1  C1  UNL     1     -34.821   5.730   5.017  1.00 20.00     0.148 A 
HETATM    2  C2  UNL     1     -33.515   7.286   5.760  1.00 20.00     0.218 A 
HETATM    3  C3  UNL     1     -34.058   6.134   3.961  1.00 20.00     0.061 A 
HETATM    4  C4  UNL     1     -33.742   5.989   2.604  1.00 20.00     0.037 A 
HETATM    5  C5  UNL     1     -32.762   6.853   2.269  1.00 20.00     0.077 A 
HETATM    6  C6  UNL     1     -32.408   7.621   3.489  1.00 20.00     0.253 A 
HETATM    7  N7  UNL     1     -34.474   6.460   6.145  1.00 20.00    -0.253 NA
HETATM    8  N8  UNL     1     -33.248   7.106   4.443  1.00 20.00    -0.272 N 
HETATM    9  O9  UNL     1     -31.601   8.498   3.698  1.00 20.00    -0.268 OA
ENDROOT
TORSDOF 0
ENDMDL
MODEL 5
REMARK VINA RESULT:      -4.8      1.681      2.272
REMARK  0 active torsions:
REMARK  status: ('A' for Active; 'I' for Inactive)
ROOT
HETATM    1  C1  UNL     1     -32.400   7.358   2.217  1.00 20.00     0.148 A 
HETATM    2  C2  UNL     1     -32.117   8.218   4.181  1.00 20.00     0.218 A 
HETATM    3  C3  UNL     1     -33.318   6.767   3.036  1.00 20.00     0.061 A 
HETATM    4  C4  UNL     1     -34.367   5.849   3.171  1.00 20.00     0.037 A 
HETATM    5  C5  UNL     1     -34.804   5.841   4.447  1.00 20.00     0.077 A 
HETATM    6  C6  UNL     1     -33.986   6.821   5.205  1.00 20.00     0.253 A 
HETATM    7  N7  UNL     1     -31.648   8.268   2.945  1.00 20.00    -0.253 NA
HETATM    8  N8  UNL     1     -33.127   7.317   4.258  1.00 20.00    -0.272 N 
HETATM    9  O9  UNL     1     -33.993   7.169   6.364  1.00 20.00    -0.268 OA
ENDROOT
TORSDOF 0
ENDMDL
MODEL 6
REMARK VINA RESULT:      -4.7      1.272      2.529
REMARK  0 active torsions:
REMARK  status: ('A' for Active; 'I' for Inactive)
ROOT
HETATM    1  C1  UNL     1     -33.378   7.886   5.015  1.00 20.00     0.148 A 
HETATM    2  C2  UNL     1     -34.334   6.174   5.927  1.00 20.00     0.218 A 
HETATM    3  C3  UNL     1     -33.351   6.887   4.087  1.00 20.00     0.061 A 
HETATM    4  C4  UNL     1     -32.980   6.474   2.801  1.00 20.00     0.037 A 
HETATM    5  C5  UNL     1     -33.348   5.191   2.610  1.00 20.00     0.077 A 
HETATM    6  C6  UNL     1     -34.007   4.725   3.857  1.00 20.00     0.253 A 
HETATM    7  N7  UNL     1     -33.996   7.430   6.170  1.00 20.00    -0.253 NA
HETATM    8  N8  UNL     1     -33.953   5.825   4.674  1.00 20.00    -0.272 N 
HETATM    9  O9  UNL     1     -34.500   3.667   4.174  1.00 20.00    -0.268 OA
ENDROOT
TORSDOF 0
ENDMDL
MODEL 7
REMARK VINA RESULT:      -4.6      1.453      2.179
REMARK  0 active torsions:
REMARK  status: ('A' for Active; 'I' for Inactive)
ROOT
HETATM    1  C1  UNL     1     -33.719   7.422   5.935  1.00 20.00     0.148 A 
HETATM    2  C2  UNL     1     -32.826   7.382   3.966  1.00 20.00     0.218 A 
HETATM    3  C3  UNL     1     -34.036   6.213   5.389  1.00 20.00     0.061 A 
HETATM    4  C4  UNL     1     -34.684   4.980   5.537  1.00 20.00     0.037 A 
HETATM    5  C5  UNL     1     -34.515   4.240   4.423  1.00 20.00     0.077 A 
HETATM    6  C6  UNL     1     -33.700   5.040   3.474  1.00 20.00     0.253 A 
HETATM    7  N7  UNL     1     -32.959   8.153   5.034  1.00 20.00    -0.253 NA
HETATM    8  N8  UNL     1     -33.469   6.205   4.160  1.00 20.00    -0.272 N 
HETATM    9  O9  UNL     1     -33.289   4.816   2.359  1.00 20.00    -0.268 OA
ENDROOT
TORSDOF 0
ENDMDL
MODEL 8
REMARK VINA RESULT:      -4.5      1.847      3.067
REMARK  0 active torsions:
REMARK  status: ('A' for Active; 'I' for Inactive)
ROOT
HETATM    1  C1  UNL     1     -33.813   4.419   3.215  1.00 20.00     0.148 A 
HETATM    2  C2  UNL     1     -34.519   4.866   5.210  1.00 20.00     0.218 A 
HETATM    3  C3  UNL     1     -33.453   5.709   3.474  1.00 20.00     0.061 A 
HETATM    4  C4  UNL     1     -32.827   6.877   3.023  1.00 20.00     0.037 A 
HETATM    5  C5  UNL     1     -32.893   7.828   3.977  1.00 20.00     0.077 A 
HETATM    6  C6  UNL     1     -33.614   7.246   5.138  1.00 20.00     0.253 A 
HETATM    7  N7  UNL     1     -34.484   3.896   4.311  1.00 20.00    -0.253 NA
HETATM    8  N8  UNL     1     -33.902   5.971   4.725  1.00 20.00    -0.272 N 
HETATM    9  O9  UNL     1     -33.920   7.696   6.218  1.00 20.00    -0.268 OA
ENDROOT
TORSDOF 0
ENDMDL
MODEL 9
REMARK VINA RESULT:      -4.2     11.943     12.401
REMARK  0 active torsions:
REMARK  status: ('A' for Active; 'I' for Inactive)
ROOT
HETATM    1  C1  UNL     1     -37.570  15.036  -4.530  1.00 20.00     0.148 A 
HETATM    2  C2  UNL     1     -36.217  13.522  -5.276  1.00 20.00     0.218 A 
HETATM    3  C3  UNL     1     -36.331  15.353  -4.054  1.00 20.00     0.061 A 
HETATM    4  C4  UNL     1     -35.541  16.226  -3.295  1.00 20.00     0.037 A 
HETATM    5  C5  UNL     1     -34.258  15.810  -3.310  1.00 20.00     0.077 A 
HETATM    6  C6  UNL     1     -34.198  14.577  -4.135  1.00 20.00     0.253 A 
HETATM    7  N7  UNL     1     -37.490  13.883  -5.296  1.00 20.00    -0.253 NA
HETATM    8  N8  UNL     1     -35.499  14.397  -4.530  1.00 20.00    -0.272 N 
HETATM    9  O9  UNL     1     -33.287  13.844  -4.443  1.00 20.00    -0.268 OA
ENDROOT
TORSDOF 0
ENDMDL
