MODEL 1
REMARK VINA RESULT:      -6.0      0.000      0.000
REMARK  1 active torsions:
REMARK  status: ('A' for Active; 'I' for Inactive)
REMARK    1  A    between atoms: C2_2  and  C3_3 
ROOT
HETATM    1  C1  UNL     1     -32.669   5.875   2.510  1.00 20.00    -0.015 C 
HETATM    2  C2  UNL     1     -32.933   7.089   3.001  1.00 20.00    -0.012 C 
HETATM    3  C4  UNL     1     -33.469   4.829   3.216  1.00 20.00     0.032 C 
HETATM    4  C5  UNL     1     -33.938   7.069   4.113  1.00 20.00     0.022 C 
HETATM    5  C6  UNL     1     -34.560   5.665   3.909  1.00 20.00    -0.007 C 
HETATM    6  C8  UNL     1     -33.273   7.298   5.468  1.00 20.00     0.015 C 
HETATM    7  C9  UNL     1     -35.123   4.986   5.149  1.00 20.00     0.011 C 
ENDROOT
BRANCH   2   8
HETATM    8  C3  UNL     1     -32.306   8.296   2.492  1.00 20.00     0.151 C 
HETATM    9  C7  UNL     1     -32.794   8.862   1.175  1.00 20.00     0.096 C 
HETATM   10  O10 UNL     1     -31.387   8.851   3.111  1.00 20.00    -0.293 OA
ENDBRANCH   2   8
TORSDOF 1
ENDMDL
MODEL 2
REMARK VINA RESULT:      -5.1      0.975      1.975
REMARK  1 active torsions:
REMARK  status: ('A' for Active; 'I' for Inactive)
REMARK    1  A    between atoms: C2_2  and  C3_3 
ROOT
HETATM    1  C1  UNL     1     -33.237   7.790   5.070  1.00 20.00    -0.015 C 
HETATM    2  C2  UNL     1     -32.838   7.365   3.868  1.00 20.00    -0.012 C 
HETATM    3  C4  UNL     1     -34.121   6.780   5.726  1.00 20.00     0.032 C 
HETATM    4  C5  UNL     1     -33.382   6.015   3.510  1.00 20.00     0.022 C 
HETATM    5  C6  UNL     1     -33.833   5.511   4.903  1.00 20.00    -0.007 C 
HETATM    6  C8  UNL     1     -34.490   6.122   2.464  1.00 20.00     0.015 C 
HETATM    7  C9  UNL     1     -34.987   4.520   4.925  1.00 20.00     0.011 C 
ENDROOT
BRANCH   2   8
HETATM    8  C3  UNL     1     -31.958   8.142   3.012  1.00 20.00     0.151 C 
HETATM    9  C7  UNL     1     -32.538   8.771   1.764  1.00 20.00     0.096 C 
HETATM   10  O10 UNL     1     -30.758   8.286   3.288  1.00 20.00    -0.293 OA
ENDBRANCH   2   8
TORSDOF 1
ENDMDL
MODEL 3
REMARK VINA RESULT:      -4.9      1.963      4.214
REMARK  1 active torsions:
REMARK  status: ('A' for Active; 'I' for Inactive)
REMARK    1  A    between atoms: C2_2  and  C3_3 
ROOT
HETATM    1  C1  UNL     1     -33.024   7.458   4.868  1.00 20.00    -0.015 C 
HETATM    2  C2  UNL     1     -33.783   6.690   4.081  1.00 20.00    -0.012 C 
HETATM    3  C4  UNL     1     -32.056   8.257   4.058  1.00 20.00     0.032 C 
HETATM    4  C5  UNL     1     -33.455   6.833   2.625  1.00 20.00     0.022 C 
HETATM    5  C6  UNL     1     -32.652   8.157   2.643  1.00 20.00    -0.007 C 
HETATM    6  C8  UNL     1     -32.695   5.616   2.104  1.00 20.00     0.015 C 
HETATM    7  C9  UNL     1     -31.609   8.333   1.550  1.00 20.00     0.011 C 
ENDROOT
BRANCH   2   8
HETATM    8  C3  UNL     1     -34.821   5.816   4.600  1.00 20.00     0.151 C 
HETATM    9  C7  UNL     1     -34.599   5.150   5.941  1.00 20.00     0.096 C 
HETATM   10  O10 UNL     1     -35.864   5.611   3.963  1.00 20.00    -0.293 OA
ENDBRANCH   2   8
TORSDOF 1
ENDMDL
MODEL 4
REMARK VINA RESULT:      -4.6     11.320     12.163
REMARK  1 active torsions:
REMARK  status: ('A' for Active; 'I' for Inactive)
REMARK    1  A    between atoms: C2_2  and  C3_3 
ROOT
HETATM    1  C1  UNL     1     -33.816  15.415  -5.948  1.00 20.00    -0.015 C 
HETATM    2  C2  UNL     1     -34.724  14.674  -5.306  1.00 20.00    -0.012 C 
HETATM    3  C4  UNL     1     -33.226  16.440  -5.036  1.00 20.00     0.032 C 
HETATM    4  C5  UNL     1     -34.904  15.073  -3.872  1.00 20.00     0.022 C 
HETATM    5  C6  UNL     1     -33.619  15.907  -3.647  1.00 20.00    -0.007 C 
HETATM    6  C8  UNL     1     -36.216  15.824  -3.664  1.00 20.00     0.015 C 
HETATM    7  C9  UNL     1     -33.700  17.005  -2.596  1.00 20.00     0.011 C 
ENDROOT
BRANCH   2   8
HETATM    8  C3  UNL     1     -35.450  13.590  -5.948  1.00 20.00     0.151 C 
HETATM    9  C7  UNL     1     -35.599  13.615  -7.454  1.00 20.00     0.096 C 
HETATM   10  O10 UNL     1     -35.943  12.668  -5.283  1.00 20.00    -0.293 OA
ENDBRANCH   2   8
TORSDOF 1
ENDMDL
MODEL 5
REMARK VINA RESULT:      -4.4     11.040     11.883
REMARK  1 active torsions:
REMARK  status: ('A' for Active; 'I' for Inactive)
REMARK    1  A    between atoms: C2_2  and  C3_3 
ROOT
HETATM    1  C1  UNL     1     -33.247  17.294  -2.044  1.00 20.00    -0.015 C 
HETATM    2  C2  UNL     1     -34.172  16.588  -2.701  1.00 20.00    -0.012 C 
HETATM    3  C4  UNL     1     -33.833  17.941  -0.831  1.00 20.00     0.032 C 
HETATM    4  C5  UNL     1     -35.524  16.643  -2.055  1.00 20.00     0.022 C 
HETATM    5  C6  UNL     1     -35.145  17.157  -0.645  1.00 20.00    -0.007 C 
HETATM    6  C8  UNL     1     -36.480  17.537  -2.842  1.00 20.00     0.015 C 
HETATM    7  C9  UNL     1     -36.208  17.956   0.094  1.00 20.00     0.011 C 
ENDROOT
BRANCH   2   8
HETATM    8  C3  UNL     1     -33.877  15.842  -3.912  1.00 20.00     0.151 C 
HETATM    9  C7  UNL     1     -34.472  14.459  -4.071  1.00 20.00     0.096 C 
HETATM   10  O10 UNL     1     -33.150  16.317  -4.796  1.00 20.00    -0.293 OA
ENDBRANCH   2   8
TORSDOF 1
ENDMDL
MODEL 6
REMARK VINA RESULT:      -4.4     10.939     12.051
REMARK  1 active torsions:
REMARK  status: ('A' for Active; 'I' for Inactive)
REMARK    1  A    between atoms: C2_2  and  C3_3 
ROOT
HETATM    1  C1  UNL     1     -35.957  14.626  -4.830  1.00 20.00    -0.015 C 
HETATM    2  C2  UNL     1     -34.805  14.441  -5.480  1.00 20.00    -0.012 C 
HETATM    3  C4  UNL     1     -35.768  15.540  -3.663  1.00 20.00     0.032 C 
HETATM    4  C5  UNL     1     -33.656  15.184  -4.867  1.00 20.00     0.022 C 
HETATM    5  C6  UNL     1     -34.416  16.201  -3.981  1.00 20.00    -0.007 C 
HETATM    6  C8  UNL     1     -32.718  14.239  -4.120  1.00 20.00     0.015 C 
HETATM    7  C9  UNL     1     -33.691  16.690  -2.736  1.00 20.00     0.011 C 
ENDROOT
BRANCH   2   8
HETATM    8  C3  UNL     1     -34.697  13.606  -6.665  1.00 20.00     0.151 C 
HETATM    9  C7  UNL     1     -34.092  14.206  -7.916  1.00 20.00     0.096 C 
HETATM   10  O10 UNL     1     -35.095  12.433  -6.660  1.00 20.00    -0.293 OA
ENDBRANCH   2   8
TORSDOF 1
ENDMDL
MODEL 7
REMARK VINA RESULT:      -4.3      2.239      3.939
REMARK  1 active torsions:
REMARK  status: ('A' for Active; 'I' for Inactive)
REMARK    1  A    between atoms: C2_2  and  C3_3 
ROOT
HETATM    1  C1  UNL     1     -34.080   6.030   2.546  1.00 20.00    -0.015 C 
HETATM    2  C2  UNL     1     -33.785   5.849   3.837  1.00 20.00    -0.012 C 
HETATM    3  C4  UNL     1     -33.339   7.202   1.990  1.00 20.00     0.032 C 
HETATM    4  C5  UNL     1     -32.812   6.860   4.366  1.00 20.00     0.022 C 
HETATM    5  C6  UNL     1     -32.238   7.421   3.042  1.00 20.00    -0.007 C 
HETATM    6  C8  UNL     1     -33.505   7.883   5.263  1.00 20.00     0.015 C 
HETATM    7  C9  UNL     1     -31.734   8.856   3.076  1.00 20.00     0.011 C 
ENDROOT
BRANCH   2   8
HETATM    8  C3  UNL     1     -34.353   4.773   4.630  1.00 20.00     0.151 C 
HETATM    9  C7  UNL     1     -34.780   5.072   6.051  1.00 20.00     0.096 C 
HETATM   10  O10 UNL     1     -34.482   3.632   4.162  1.00 20.00    -0.293 OA
ENDBRANCH   2   8
TORSDOF 1
ENDMDL
MODEL 8
REMARK VINA RESULT:      -4.3     11.539     12.303
REMARK  1 active torsions:
REMARK  status: ('A' for Active; 'I' for Inactive)
REMARK    1  A    between atoms: C2_2  and  C3_3 
ROOT
HETATM    1  C1  UNL     1     -35.246  17.147  -0.904  1.00 20.00    -0.015 C 
HETATM    2  C2  UNL     1     -34.113  17.829  -0.714  1.00 20.00    -0.012 C 
HETATM    3  C4  UNL     1     -35.260  16.504  -2.253  1.00 20.00     0.032 C 
HETATM    4  C5  UNL     1     -33.185  17.770  -1.889  1.00 20.00     0.022 C 
HETATM    5  C6  UNL     1     -33.776  16.563  -2.657  1.00 20.00    -0.007 C 
HETATM    6  C8  UNL     1     -33.173  19.090  -2.656  1.00 20.00     0.015 C 
HETATM    7  C9  UNL     1     -33.576  16.555  -4.165  1.00 20.00     0.011 C 
ENDROOT
BRANCH   2   8
HETATM    8  C3  UNL     1     -33.825  18.545   0.518  1.00 20.00     0.151 C 
HETATM    9  C7  UNL     1     -32.378  18.802   0.881  1.00 20.00     0.096 C 
HETATM   10  O10 UNL     1     -34.737  18.934   1.261  1.00 20.00    -0.293 OA
ENDBRANCH   2   8
TORSDOF 1
ENDMDL
MODEL 9
REMARK VINA RESULT:      -4.3     11.456     12.133
REMARK  1 active torsions:
REMARK  status: ('A' for Active; 'I' for Inactive)
REMARK    1  A    between atoms: C2_2  and  C3_3 
ROOT
HETATM    1  C1  UNL     1     -35.094  17.140  -1.134  1.00 20.00    -0.015 C 
HETATM    2  C2  UNL     1     -33.839  17.456  -1.467  1.00 20.00    -0.012 C 
HETATM    3  C4  UNL     1     -35.773  16.412  -2.249  1.00 20.00     0.032 C 
HETATM    4  C5  UNL     1     -33.464  17.006  -2.847  1.00 20.00     0.022 C 
HETATM    5  C6  UNL     1     -34.585  15.974  -3.123  1.00 20.00    -0.007 C 
HETATM    6  C8  UNL     1     -33.404  18.182  -3.818  1.00 20.00     0.015 C 
HETATM    7  C9  UNL     1     -34.971  15.767  -4.580  1.00 20.00     0.011 C 
ENDROOT
BRANCH   2   8
HETATM    8  C3  UNL     1     -32.941  18.158  -0.566  1.00 20.00     0.151 C 
HETATM    9  C7  UNL     1     -33.467  18.590   0.786  1.00 20.00     0.096 C 
HETATM   10  O10 UNL     1     -31.772  18.407  -0.893  1.00 20.00    -0.293 OA
ENDBRANCH   2   8
TORSDOF 1
ENDMDL
