MODEL 1
REMARK VINA RESULT:      -5.5      0.000      0.000
REMARK  3 active torsions:
REMARK  status: ('A' for Active; 'I' for Inactive)
REMARK    1  A    between atoms: C3_3  and  C7_7 
REMARK    2  A    between atoms: C5_5  and  C8_8 
REMARK    3  A    between atoms: C6_6  and  C9_9 
ROOT
HETATM    1  C7  UNL     1     -32.532   7.046   2.820  1.00 20.00     0.097 A 
HETATM    2  C8  UNL     1     -32.636   8.407   2.161  1.00 20.00     0.013 A 
HETATM    3  C9  UNL     1     -31.697   8.205   3.329  1.00 20.00     0.013 A 
ENDROOT
BRANCH   1   4
HETATM    4  C3  UNL     1     -33.650   6.632   3.648  1.00 20.00     0.177 C 
HETATM    5  O10 UNL     1     -33.622   7.049   4.839  1.00 20.00    -0.648 OA
HETATM    6  O11 UNL     1     -34.503   5.908   3.063  1.00 20.00    -0.648 OA
ENDBRANCH   1   4
BRANCH   2   7
HETATM    7  C5  UNL     1     -31.715   8.924   1.045  1.00 20.00     0.014 C 
HETATM    8  C1  UNL     1     -32.405   8.704  -0.294  1.00 20.00    -0.025 C 
HETATM    9  C2  UNL     1     -33.453   9.547  -0.337  1.00 20.00    -0.025 C 
HETATM   10  C6  UNL     1     -33.453  10.321   0.975  1.00 20.00     0.014 C 
HETATM   11  C4  UNL     1     -31.922  10.450   1.103  1.00 20.00     0.017 C 
ENDBRANCH   2   7
TORSDOF 3
ENDMDL
MODEL 2
REMARK VINA RESULT:      -5.0      2.503      4.380
REMARK  3 active torsions:
REMARK  status: ('A' for Active; 'I' for Inactive)
REMARK    1  A    between atoms: C3_3  and  C7_7 
REMARK    2  A    between atoms: C5_5  and  C8_8 
REMARK    3  A    between atoms: C6_6  and  C9_9 
ROOT
HETATM    1  C7  UNL     1     -32.064   9.212   1.979  1.00 20.00     0.097 A 
HETATM    2  C8  UNL     1     -32.875   7.989   2.362  1.00 20.00     0.013 A 
HETATM    3  C9  UNL     1     -31.743   7.863   1.367  1.00 20.00     0.013 A 
ENDROOT
BRANCH   1   4
HETATM    4  C3  UNL     1     -32.712  10.184   1.119  1.00 20.00     0.177 C 
HETATM    5  O10 UNL     1     -32.989   9.775  -0.043  1.00 20.00    -0.648 OA
HETATM    6  O11 UNL     1     -32.912  11.312   1.649  1.00 20.00    -0.648 OA
ENDBRANCH   1   4
BRANCH   2   7
HETATM    7  C5  UNL     1     -32.498   6.985   3.462  1.00 20.00     0.014 C 
HETATM    8  C1  UNL     1     -33.562   7.036   4.550  1.00 20.00    -0.025 C 
HETATM    9  C2  UNL     1     -34.686   6.517   4.022  1.00 20.00    -0.025 C 
HETATM   10  C6  UNL     1     -34.362   6.125   2.587  1.00 20.00     0.014 C 
HETATM   11  C4  UNL     1     -32.926   5.633   2.859  1.00 20.00     0.017 C 
ENDBRANCH   2   7
TORSDOF 3
ENDMDL
MODEL 3
REMARK VINA RESULT:      -4.7      9.270     10.075
REMARK  3 active torsions:
REMARK  status: ('A' for Active; 'I' for Inactive)
REMARK    1  A    between atoms: C3_3  and  C7_7 
REMARK    2  A    between atoms: C5_5  and  C8_8 
REMARK    3  A    between atoms: C6_6  and  C9_9 
ROOT
HETATM    1  C7  UNL     1     -35.348  14.842  -5.069  1.00 20.00     0.097 A 
HETATM    2  C8  UNL     1     -35.008  15.523  -3.757  1.00 20.00     0.013 A 
HETATM    3  C9  UNL     1     -34.004  14.601  -4.410  1.00 20.00     0.013 A 
ENDROOT
BRANCH   1   4
HETATM    4  C3  UNL     1     -36.309  13.756  -5.012  1.00 20.00     0.177 C 
HETATM    5  O10 UNL     1     -37.498  14.101  -4.764  1.00 20.00    -0.648 OA
HETATM    6  O11 UNL     1     -35.825  12.609  -5.217  1.00 20.00    -0.648 OA
ENDBRANCH   1   4
BRANCH   2   7
HETATM    7  C5  UNL     1     -34.241  16.848  -3.619  1.00 20.00     0.014 C 
HETATM    8  C1  UNL     1     -35.248  17.990  -3.591  1.00 20.00    -0.025 C 
HETATM    9  C2  UNL     1     -35.918  17.892  -2.429  1.00 20.00    -0.025 C 
HETATM   10  C6  UNL     1     -35.352  16.686  -1.691  1.00 20.00     0.014 C 
HETATM   11  C4  UNL     1     -33.886  16.888  -2.121  1.00 20.00     0.017 C 
ENDBRANCH   2   7
TORSDOF 3
ENDMDL
MODEL 4
REMARK VINA RESULT:      -4.3      9.264     10.268
REMARK  3 active torsions:
REMARK  status: ('A' for Active; 'I' for Inactive)
REMARK    1  A    between atoms: C3_3  and  C7_7 
REMARK    2  A    between atoms: C5_5  and  C8_8 
REMARK    3  A    between atoms: C6_6  and  C9_9 
ROOT
HETATM    1  C7  UNL     1     -34.271  17.762  -2.217  1.00 20.00     0.097 A 
HETATM    2  C8  UNL     1     -34.115  16.403  -2.872  1.00 20.00     0.013 A 
HETATM    3  C9  UNL     1     -35.231  16.638  -1.880  1.00 20.00     0.013 A 
ENDROOT
BRANCH   1   4
HETATM    4  C3  UNL     1     -33.294  18.115  -1.203  1.00 20.00     0.177 C 
HETATM    5  O10 UNL     1     -32.173  18.494  -1.643  1.00 20.00    -0.648 OA
HETATM    6  O11 UNL     1     -33.698  17.993  -0.013  1.00 20.00    -0.648 OA
ENDBRANCH   1   4
BRANCH   2   7
HETATM    7  C5  UNL     1     -34.853  15.940  -4.138  1.00 20.00     0.014 C 
HETATM    8  C1  UNL     1     -34.008  16.303  -5.352  1.00 20.00    -0.025 C 
HETATM    9  C2  UNL     1     -32.918  15.514  -5.318  1.00 20.00    -0.025 C 
HETATM   10  C6  UNL     1     -33.045  14.634  -4.082  1.00 20.00     0.014 C 
HETATM   11  C4  UNL     1     -34.570  14.426  -4.170  1.00 20.00     0.017 C 
ENDBRANCH   2   7
TORSDOF 3
ENDMDL
MODEL 5
REMARK VINA RESULT:      -4.3      9.541     10.537
REMARK  3 active torsions:
REMARK  status: ('A' for Active; 'I' for Inactive)
REMARK    1  A    between atoms: C3_3  and  C7_7 
REMARK    2  A    between atoms: C5_5  and  C8_8 
REMARK    3  A    between atoms: C6_6  and  C9_9 
ROOT
HETATM    1  C7  UNL     1     -35.679  14.979  -5.661  1.00 20.00     0.097 A 
HETATM    2  C8  UNL     1     -34.950  15.786  -4.603  1.00 20.00     0.013 A 
HETATM    3  C9  UNL     1     -34.668  16.033  -6.068  1.00 20.00     0.013 A 
ENDROOT
BRANCH   1   4
HETATM    4  C3  UNL     1     -35.278  13.593  -5.817  1.00 20.00     0.177 C 
HETATM    5  O10 UNL     1     -34.300  13.399  -6.591  1.00 20.00    -0.648 OA
HETATM    6  O11 UNL     1     -35.966  12.764  -5.158  1.00 20.00    -0.648 OA
ENDBRANCH   1   4
BRANCH   2   7
HETATM    7  C5  UNL     1     -35.386  17.165  -4.084  1.00 20.00     0.014 C 
HETATM    8  C1  UNL     1     -36.008  16.990  -2.705  1.00 20.00    -0.025 C 
HETATM    9  C2  UNL     1     -35.012  16.640  -1.870  1.00 20.00    -0.025 C 
HETATM   10  C6  UNL     1     -33.736  16.584  -2.699  1.00 20.00     0.014 C 
HETATM   11  C4  UNL     1     -34.062  17.789  -3.604  1.00 20.00     0.017 C 
ENDBRANCH   2   7
TORSDOF 3
ENDMDL
MODEL 6
REMARK VINA RESULT:      -4.1      9.404     10.680
REMARK  3 active torsions:
REMARK  status: ('A' for Active; 'I' for Inactive)
REMARK    1  A    between atoms: C3_3  and  C7_7 
REMARK    2  A    between atoms: C5_5  and  C8_8 
REMARK    3  A    between atoms: C6_6  and  C9_9 
ROOT
HETATM    1  C7  UNL     1     -36.579  14.396  -6.170  1.00 20.00     0.097 A 
HETATM    2  C8  UNL     1     -35.395  14.732  -5.285  1.00 20.00     0.013 A 
HETATM    3  C9  UNL     1     -35.892  13.306  -5.371  1.00 20.00     0.013 A 
ENDROOT
BRANCH   1   4
HETATM    4  C3  UNL     1     -37.885  14.824  -5.705  1.00 20.00     0.177 C 
HETATM    5  O10 UNL     1     -38.266  15.950  -6.129  1.00 20.00    -0.648 OA
HETATM    6  O11 UNL     1     -38.467  14.010  -4.935  1.00 20.00    -0.648 OA
ENDBRANCH   1   4
BRANCH   2   7
HETATM    7  C5  UNL     1     -33.919  14.623  -5.699  1.00 20.00     0.014 C 
HETATM    8  C1  UNL     1     -33.405  16.017  -6.035  1.00 20.00    -0.025 C 
HETATM    9  C2  UNL     1     -33.357  16.704  -4.879  1.00 20.00    -0.025 C 
HETATM   10  C6  UNL     1     -33.839  15.762  -3.783  1.00 20.00     0.014 C 
HETATM   11  C4  UNL     1     -33.189  14.485  -4.350  1.00 20.00     0.017 C 
ENDBRANCH   2   7
TORSDOF 3
ENDMDL
MODEL 7
REMARK VINA RESULT:      -4.1      2.587      4.858
REMARK  3 active torsions:
REMARK  status: ('A' for Active; 'I' for Inactive)
REMARK    1  A    between atoms: C3_3  and  C7_7 
REMARK    2  A    between atoms: C5_5  and  C8_8 
REMARK    3  A    between atoms: C6_6  and  C9_9 
ROOT
HETATM    1  C7  UNL     1     -32.558   7.289   2.445  1.00 20.00     0.097 A 
HETATM    2  C8  UNL     1     -33.387   6.613   3.520  1.00 20.00     0.013 A 
HETATM    3  C9  UNL     1     -34.044   7.566   2.547  1.00 20.00     0.013 A 
ENDROOT
BRANCH   1   4
HETATM    4  C3  UNL     1     -31.663   8.347   2.878  1.00 20.00     0.177 C 
HETATM    5  O10 UNL     1     -30.868   8.034   3.808  1.00 20.00    -0.648 OA
HETATM    6  O11 UNL     1     -31.802   9.443   2.265  1.00 20.00    -0.648 OA
ENDBRANCH   1   4
BRANCH   2   7
HETATM    7  C5  UNL     1     -34.181   5.310   3.337  1.00 20.00     0.014 C 
HETATM    8  C1  UNL     1     -33.686   4.294   4.358  1.00 20.00    -0.025 C 
HETATM    9  C2  UNL     1     -34.078   4.734   5.568  1.00 20.00    -0.025 C 
HETATM   10  C6  UNL     1     -34.829   6.040   5.344  1.00 20.00     0.014 C 
HETATM   11  C4  UNL     1     -35.521   5.621   4.031  1.00 20.00     0.017 C 
ENDBRANCH   2   7
TORSDOF 3
ENDMDL
MODEL 8
REMARK VINA RESULT:      -4.0      9.021     10.117
REMARK  3 active torsions:
REMARK  status: ('A' for Active; 'I' for Inactive)
REMARK    1  A    between atoms: C3_3  and  C7_7 
REMARK    2  A    between atoms: C5_5  and  C8_8 
REMARK    3  A    between atoms: C6_6  and  C9_9 
ROOT
HETATM    1  C7  UNL     1     -34.704  15.498  -4.487  1.00 20.00     0.097 A 
HETATM    2  C8  UNL     1     -34.501  16.318  -3.228  1.00 20.00     0.013 A 
HETATM    3  C9  UNL     1     -33.630  16.567  -4.440  1.00 20.00     0.013 A 
ENDROOT
BRANCH   1   4
HETATM    4  C3  UNL     1     -34.255  14.118  -4.448  1.00 20.00     0.177 C 
HETATM    5  O10 UNL     1     -35.171  13.251  -4.520  1.00 20.00    -0.648 OA
HETATM    6  O11 UNL     1     -33.006  13.969  -4.345  1.00 20.00    -0.648 OA
ENDBRANCH   1   4
BRANCH   2   7
HETATM    7  C5  UNL     1     -35.134  17.691  -2.954  1.00 20.00     0.014 C 
HETATM    8  C1  UNL     1     -36.128  17.547  -1.810  1.00 20.00    -0.025 C 
HETATM    9  C2  UNL     1     -35.410  17.304  -0.698  1.00 20.00    -0.025 C 
HETATM   10  C6  UNL     1     -33.944  17.289  -1.110  1.00 20.00     0.014 C 
HETATM   11  C4  UNL     1     -34.042  18.422  -2.150  1.00 20.00     0.017 C 
ENDBRANCH   2   7
TORSDOF 3
ENDMDL
MODEL 9
REMARK VINA RESULT:      -3.9      2.683      4.970
REMARK  3 active torsions:
REMARK  status: ('A' for Active; 'I' for Inactive)
REMARK    1  A    between atoms: C3_3  and  C7_7 
REMARK    2  A    between atoms: C5_5  and  C8_8 
REMARK    3  A    between atoms: C6_6  and  C9_9 
ROOT
HETATM    1  C7  UNL     1     -33.061   8.077   3.519  1.00 20.00     0.097 A 
HETATM    2  C8  UNL     1     -33.424   6.751   4.159  1.00 20.00     0.013 A 
HETATM    3  C9  UNL     1     -33.095   7.943   5.029  1.00 20.00     0.013 A 
ENDROOT
BRANCH   1   4
HETATM    4  C3  UNL     1     -31.752   8.167   2.899  1.00 20.00     0.177 C 
HETATM    5  O10 UNL     1     -30.776   8.179   3.700  1.00 20.00    -0.648 OA
HETATM    6  O11 UNL     1     -31.765   8.224   1.638  1.00 20.00    -0.648 OA
ENDBRANCH   1   4
BRANCH   2   7
HETATM    7  C5  UNL     1     -34.832   6.347   4.622  1.00 20.00     0.014 C 
HETATM    8  C1  UNL     1     -35.238   5.075   3.890  1.00 20.00    -0.025 C 
HETATM    9  C2  UNL     1     -34.456   4.087   4.362  1.00 20.00    -0.025 C 
HETATM   10  C6  UNL     1     -33.536   4.708   5.405  1.00 20.00     0.014 C 
HETATM   11  C4  UNL     1     -34.572   5.688   5.990  1.00 20.00     0.017 C 
ENDBRANCH   2   7
TORSDOF 3
ENDMDL
