MODEL 1
REMARK VINA RESULT:      -6.3      0.000      0.000
REMARK  0 active torsions:
REMARK  status: ('A' for Active; 'I' for Inactive)
ROOT
HETATM    1  C1  UNL     1     -34.359   5.865   5.473  1.00 20.00     0.012 C 
HETATM    2  C2  UNL     1     -33.763   7.269   5.574  1.00 20.00     0.077 C 
HETATM    3  C3  UNL     1     -34.981   5.622   4.100  1.00 20.00     0.082 C 
HETATM    4  C4  UNL     1     -33.012   6.852   3.105  1.00 20.00     0.264 A 
HETATM    5  C5  UNL     1     -32.903   7.613   4.398  1.00 20.00     0.237 A 
HETATM    6  C6  UNL     1     -33.920   5.679   3.011  1.00 20.00     0.274 C 
HETATM    7  O7  UNL     1     -33.649   8.119   3.273  1.00 20.00    -0.332 OA
HETATM    8  F8  UNL     1     -31.697   8.249   4.661  1.00 20.00    -0.209 F 
HETATM    9  F9  UNL     1     -34.521   5.666   1.794  1.00 20.00    -0.203 F 
HETATM   10  F10 UNL     1     -33.165   4.548   3.076  1.00 20.00    -0.203 F 
ENDROOT
TORSDOF 0
ENDMDL
MODEL 2
REMARK VINA RESULT:      -5.7      1.892      2.611
REMARK  0 active torsions:
REMARK  status: ('A' for Active; 'I' for Inactive)
ROOT
HETATM    1  C1  UNL     1     -33.449   4.871   2.686  1.00 20.00     0.012 C 
HETATM    2  C2  UNL     1     -32.564   6.114   2.581  1.00 20.00     0.077 C 
HETATM    3  C3  UNL     1     -33.911   4.639   4.124  1.00 20.00     0.082 C 
HETATM    4  C4  UNL     1     -34.233   7.137   4.314  1.00 20.00     0.264 A 
HETATM    5  C5  UNL     1     -33.157   7.300   3.275  1.00 20.00     0.237 A 
HETATM    6  C6  UNL     1     -34.789   5.788   4.598  1.00 20.00     0.274 C 
HETATM    7  O7  UNL     1     -32.869   7.339   4.686  1.00 20.00    -0.332 OA
HETATM    8  F8  UNL     1     -33.096   8.518   2.611  1.00 20.00    -0.209 F 
HETATM    9  F9  UNL     1     -35.016   5.662   5.930  1.00 20.00    -0.203 F 
HETATM   10  F10 UNL     1     -36.004   5.691   3.993  1.00 20.00    -0.203 F 
ENDROOT
TORSDOF 0
ENDMDL
MODEL 3
REMARK VINA RESULT:      -5.6      1.764      2.562
REMARK  0 active torsions:
REMARK  status: ('A' for Active; 'I' for Inactive)
ROOT
HETATM    1  C1  UNL     1     -33.269   7.064   3.016  1.00 20.00     0.012 C 
HETATM    2  C2  UNL     1     -32.761   7.597   4.356  1.00 20.00     0.077 C 
HETATM    3  C3  UNL     1     -33.636   5.585   3.110  1.00 20.00     0.082 C 
HETATM    4  C4  UNL     1     -34.628   6.081   5.379  1.00 20.00     0.264 A 
HETATM    5  C5  UNL     1     -33.649   7.217   5.499  1.00 20.00     0.237 A 
HETATM    6  C6  UNL     1     -34.790   5.377   4.081  1.00 20.00     0.274 C 
HETATM    7  O7  UNL     1     -33.368   5.907   6.029  1.00 20.00    -0.332 OA
HETATM    8  F8  UNL     1     -33.930   8.202   6.437  1.00 20.00    -0.209 F 
HETATM    9  F9  UNL     1     -34.960   4.049   4.302  1.00 20.00    -0.203 F 
HETATM   10  F10 UNL     1     -35.938   5.817   3.497  1.00 20.00    -0.203 F 
ENDROOT
TORSDOF 0
ENDMDL
MODEL 4
REMARK VINA RESULT:      -5.4      1.840      2.998
REMARK  0 active torsions:
REMARK  status: ('A' for Active; 'I' for Inactive)
ROOT
HETATM    1  C1  UNL     1     -33.580   7.561   5.521  1.00 20.00     0.012 C 
HETATM    2  C2  UNL     1     -34.300   6.212   5.529  1.00 20.00     0.077 C 
HETATM    3  C3  UNL     1     -32.458   7.586   4.485  1.00 20.00     0.082 C 
HETATM    4  C4  UNL     1     -34.003   6.325   2.935  1.00 20.00     0.264 A 
HETATM    5  C5  UNL     1     -34.672   5.752   4.155  1.00 20.00     0.237 A 
HETATM    6  C6  UNL     1     -33.021   7.431   3.079  1.00 20.00     0.274 C 
HETATM    7  O7  UNL     1     -33.604   5.064   3.474  1.00 20.00    -0.332 OA
HETATM    8  F8  UNL     1     -35.941   5.214   3.989  1.00 20.00    -0.209 F 
HETATM    9  F9  UNL     1     -32.001   7.251   2.202  1.00 20.00    -0.203 F 
HETATM   10  F10 UNL     1     -33.632   8.594   2.722  1.00 20.00    -0.203 F 
ENDROOT
TORSDOF 0
ENDMDL
MODEL 5
REMARK VINA RESULT:      -5.4      1.635      2.039
REMARK  0 active torsions:
REMARK  status: ('A' for Active; 'I' for Inactive)
ROOT
HETATM    1  C1  UNL     1     -33.711   6.859   5.793  1.00 20.00     0.012 C 
HETATM    2  C2  UNL     1     -33.420   7.589   4.482  1.00 20.00     0.077 C 
HETATM    3  C3  UNL     1     -34.813   5.816   5.616  1.00 20.00     0.082 C 
HETATM    4  C4  UNL     1     -33.765   5.238   3.392  1.00 20.00     0.264 A 
HETATM    5  C5  UNL     1     -33.250   6.650   3.328  1.00 20.00     0.237 A 
HETATM    6  C6  UNL     1     -34.372   4.727   4.648  1.00 20.00     0.274 C 
HETATM    7  O7  UNL     1     -34.497   6.263   2.719  1.00 20.00    -0.332 OA
HETATM    8  F8  UNL     1     -32.202   6.905   2.454  1.00 20.00    -0.209 F 
HETATM    9  F9  UNL     1     -35.432   3.933   4.351  1.00 20.00    -0.203 F 
HETATM   10  F10 UNL     1     -33.461   3.931   5.271  1.00 20.00    -0.203 F 
ENDROOT
TORSDOF 0
ENDMDL
MODEL 6
REMARK VINA RESULT:      -5.4      1.766      3.561
REMARK  0 active torsions:
REMARK  status: ('A' for Active; 'I' for Inactive)
ROOT
HETATM    1  C1  UNL     1     -32.622   6.535   2.967  1.00 20.00     0.012 C 
HETATM    2  C2  UNL     1     -33.514   5.313   2.749  1.00 20.00     0.077 C 
HETATM    3  C3  UNL     1     -33.371   7.644   3.704  1.00 20.00     0.082 C 
HETATM    4  C4  UNL     1     -34.400   5.847   5.149  1.00 20.00     0.264 A 
HETATM    5  C5  UNL     1     -34.233   4.897   3.993  1.00 20.00     0.237 A 
HETATM    6  C6  UNL     1     -33.765   7.190   5.102  1.00 20.00     0.274 C 
HETATM    7  O7  UNL     1     -35.457   5.625   4.215  1.00 20.00    -0.332 OA
HETATM    8  F8  UNL     1     -34.276   3.539   4.277  1.00 20.00    -0.209 F 
HETATM    9  F9  UNL     1     -34.599   8.106   5.655  1.00 20.00    -0.203 F 
HETATM   10  F10 UNL     1     -32.652   7.164   5.884  1.00 20.00    -0.203 F 
ENDROOT
TORSDOF 0
ENDMDL
MODEL 7
REMARK VINA RESULT:      -5.3      1.931      3.100
REMARK  0 active torsions:
REMARK  status: ('A' for Active; 'I' for Inactive)
ROOT
HETATM    1  C1  UNL     1     -32.870   7.490   4.796  1.00 20.00     0.012 C 
HETATM    2  C2  UNL     1     -33.336   7.298   3.352  1.00 20.00     0.077 C 
HETATM    3  C3  UNL     1     -33.976   7.137   5.789  1.00 20.00     0.082 C 
HETATM    4  C4  UNL     1     -34.551   5.183   4.295  1.00 20.00     0.264 A 
HETATM    5  C5  UNL     1     -34.008   5.978   3.138  1.00 20.00     0.237 A 
HETATM    6  C6  UNL     1     -34.341   5.663   5.685  1.00 20.00     0.274 C 
HETATM    7  O7  UNL     1     -35.408   5.986   3.482  1.00 20.00    -0.332 OA
HETATM    8  F8  UNL     1     -33.672   5.276   1.988  1.00 20.00    -0.209 F 
HETATM    9  F9  UNL     1     -35.455   5.422   6.423  1.00 20.00    -0.203 F 
HETATM   10  F10 UNL     1     -33.344   4.925   6.246  1.00 20.00    -0.203 F 
ENDROOT
TORSDOF 0
ENDMDL
MODEL 8
REMARK VINA RESULT:      -5.3      1.927      3.008
REMARK  0 active torsions:
REMARK  status: ('A' for Active; 'I' for Inactive)
ROOT
HETATM    1  C1  UNL     1     -32.921   4.640   2.927  1.00 20.00     0.012 C 
HETATM    2  C2  UNL     1     -34.059   4.212   3.854  1.00 20.00     0.077 C 
HETATM    3  C3  UNL     1     -33.202   6.002   2.295  1.00 20.00     0.082 C 
HETATM    4  C4  UNL     1     -34.116   6.736   4.532  1.00 20.00     0.264 A 
HETATM    5  C5  UNL     1     -34.468   5.298   4.799  1.00 20.00     0.237 A 
HETATM    6  C6  UNL     1     -33.270   7.086   3.361  1.00 20.00     0.274 C 
HETATM    7  O7  UNL     1     -35.415   6.224   4.231  1.00 20.00    -0.332 OA
HETATM    8  F8  UNL     1     -34.694   4.935   6.120  1.00 20.00    -0.209 F 
HETATM    9  F9  UNL     1     -33.720   8.239   2.804  1.00 20.00    -0.203 F 
HETATM   10  F10 UNL     1     -32.010   7.343   3.806  1.00 20.00    -0.203 F 
ENDROOT
TORSDOF 0
ENDMDL
MODEL 9
REMARK VINA RESULT:      -4.9      1.327      3.173
REMARK  0 active torsions:
REMARK  status: ('A' for Active; 'I' for Inactive)
ROOT
HETATM    1  C1  UNL     1     -34.684   5.273   5.411  1.00 20.00     0.012 C 
HETATM    2  C2  UNL     1     -34.424   4.767   3.992  1.00 20.00     0.077 C 
HETATM    3  C3  UNL     1     -33.545   6.166   5.899  1.00 20.00     0.082 C 
HETATM    4  C4  UNL     1     -33.476   7.168   3.581  1.00 20.00     0.264 A 
HETATM    5  C5  UNL     1     -34.009   5.861   3.059  1.00 20.00     0.237 A 
HETATM    6  C6  UNL     1     -33.443   7.422   5.045  1.00 20.00     0.274 C 
HETATM    7  O7  UNL     1     -32.597   6.146   3.107  1.00 20.00    -0.332 OA
HETATM    8  F8  UNL     1     -34.586   5.870   1.797  1.00 20.00    -0.209 F 
HETATM    9  F9  UNL     1     -32.307   8.093   5.364  1.00 20.00    -0.203 F 
HETATM   10  F10 UNL     1     -34.476   8.250   5.358  1.00 20.00    -0.203 F 
ENDROOT
TORSDOF 0
ENDMDL
