MODEL 1
REMARK VINA RESULT:      -5.2      0.000      0.000
REMARK  1 active torsions:
REMARK  status: ('A' for Active; 'I' for Inactive)
REMARK    1  A    between atoms: C3_3  and  C4_4 
ROOT
HETATM    1  C1  UNL     1     -35.003   5.425   4.248  1.00 20.00    -0.018 A 
HETATM    2  C2  UNL     1     -34.663   5.321   5.544  1.00 20.00    -0.025 A 
HETATM    3  C4  UNL     1     -34.133   6.644   4.008  1.00 20.00     0.084 A 
HETATM    4  C5  UNL     1     -33.667   6.463   5.481  1.00 20.00     0.018 A 
HETATM    5  C7  UNL     1     -33.942   7.633   6.414  1.00 20.00     0.015 C 
ENDROOT
BRANCH   3   6
HETATM    6  C3  UNL     1     -33.128   6.386   2.881  1.00 20.00     0.131 C 
HETATM    7  C6  UNL     1     -32.499   7.596   2.245  1.00 20.00     0.091 C 
HETATM    8  O8  UNL     1     -32.848   5.245   2.514  1.00 20.00    -0.298 OA
ENDBRANCH   3   6
TORSDOF 1
ENDMDL
MODEL 2
REMARK VINA RESULT:      -5.0      1.423      3.485
REMARK  1 active torsions:
REMARK  status: ('A' for Active; 'I' for Inactive)
REMARK    1  A    between atoms: C3_3  and  C4_4 
ROOT
HETATM    1  C1  UNL     1     -32.429   7.836   4.293  1.00 20.00    -0.018 A 
HETATM    2  C2  UNL     1     -31.468   8.266   3.457  1.00 20.00    -0.025 A 
HETATM    3  C4  UNL     1     -33.385   7.469   3.174  1.00 20.00     0.084 A 
HETATM    4  C5  UNL     1     -32.236   7.876   2.208  1.00 20.00     0.018 A 
HETATM    5  C7  UNL     1     -32.549   9.009   1.242  1.00 20.00     0.015 C 
ENDROOT
BRANCH   3   6
HETATM    6  C3  UNL     1     -33.787   5.993   3.260  1.00 20.00     0.131 C 
HETATM    7  C6  UNL     1     -35.038   5.676   4.035  1.00 20.00     0.091 C 
HETATM    8  O8  UNL     1     -33.121   5.110   2.721  1.00 20.00    -0.298 OA
ENDBRANCH   3   6
TORSDOF 1
ENDMDL
MODEL 3
REMARK VINA RESULT:      -4.9      1.206      2.969
REMARK  1 active torsions:
REMARK  status: ('A' for Active; 'I' for Inactive)
REMARK    1  A    between atoms: C3_3  and  C4_4 
ROOT
HETATM    1  C1  UNL     1     -33.643   7.238   4.789  1.00 20.00    -0.018 A 
HETATM    2  C2  UNL     1     -32.550   7.976   4.532  1.00 20.00    -0.025 A 
HETATM    3  C4  UNL     1     -33.723   6.675   3.383  1.00 20.00     0.084 A 
HETATM    4  C5  UNL     1     -32.402   7.453   3.116  1.00 20.00     0.018 A 
HETATM    5  C7  UNL     1     -32.459   8.501   2.014  1.00 20.00     0.015 C 
ENDROOT
BRANCH   3   6
HETATM    6  C3  UNL     1     -33.684   5.143   3.403  1.00 20.00     0.131 C 
HETATM    7  C6  UNL     1     -34.529   4.459   4.443  1.00 20.00     0.091 C 
HETATM    8  O8  UNL     1     -32.997   4.504   2.607  1.00 20.00    -0.298 OA
ENDBRANCH   3   6
TORSDOF 1
ENDMDL
MODEL 4
REMARK VINA RESULT:      -4.8      2.775      3.934
REMARK  1 active torsions:
REMARK  status: ('A' for Active; 'I' for Inactive)
REMARK    1  A    between atoms: C3_3  and  C4_4 
ROOT
HETATM    1  C1  UNL     1     -31.405   8.448   3.103  1.00 20.00    -0.018 A 
HETATM    2  C2  UNL     1     -32.272   7.865   3.947  1.00 20.00    -0.025 A 
HETATM    3  C4  UNL     1     -32.219   8.113   1.868  1.00 20.00     0.084 A 
HETATM    4  C5  UNL     1     -33.268   7.525   2.854  1.00 20.00     0.018 A 
HETATM    5  C7  UNL     1     -33.584   6.047   2.684  1.00 20.00     0.015 C 
ENDROOT
BRANCH   3   6
HETATM    6  C3  UNL     1     -32.574   9.382   1.085  1.00 20.00     0.131 C 
HETATM    7  C6  UNL     1     -32.966   9.201  -0.356  1.00 20.00     0.091 C 
HETATM    8  O8  UNL     1     -32.543  10.494   1.611  1.00 20.00    -0.298 OA
ENDBRANCH   3   6
TORSDOF 1
ENDMDL
MODEL 5
REMARK VINA RESULT:      -4.6      1.559      1.876
REMARK  1 active torsions:
REMARK  status: ('A' for Active; 'I' for Inactive)
REMARK    1  A    between atoms: C3_3  and  C4_4 
ROOT
HETATM    1  C1  UNL     1     -33.968   6.171   2.639  1.00 20.00    -0.018 A 
HETATM    2  C2  UNL     1     -33.911   5.344   3.697  1.00 20.00    -0.025 A 
HETATM    3  C4  UNL     1     -33.571   7.395   3.440  1.00 20.00     0.084 A 
HETATM    4  C5  UNL     1     -33.412   6.420   4.642  1.00 20.00     0.018 A 
HETATM    5  C7  UNL     1     -34.294   6.703   5.849  1.00 20.00     0.015 C 
ENDROOT
BRANCH   3   6
HETATM    6  C3  UNL     1     -32.317   8.052   2.853  1.00 20.00     0.131 C 
HETATM    7  C6  UNL     1     -32.449   8.657   1.482  1.00 20.00     0.091 C 
HETATM    8  O8  UNL     1     -31.255   8.085   3.474  1.00 20.00    -0.298 OA
ENDBRANCH   3   6
TORSDOF 1
ENDMDL
MODEL 6
REMARK VINA RESULT:      -4.5      2.213      3.266
REMARK  1 active torsions:
REMARK  status: ('A' for Active; 'I' for Inactive)
REMARK    1  A    between atoms: C3_3  and  C4_4 
ROOT
HETATM    1  C1  UNL     1     -32.312   8.009   4.095  1.00 20.00    -0.018 A 
HETATM    2  C2  UNL     1     -33.372   7.231   4.371  1.00 20.00    -0.025 A 
HETATM    3  C4  UNL     1     -32.195   7.524   2.663  1.00 20.00     0.084 A 
HETATM    4  C5  UNL     1     -33.481   6.698   2.955  1.00 20.00     0.018 A 
HETATM    5  C7  UNL     1     -33.350   5.189   2.804  1.00 20.00     0.015 C 
ENDROOT
BRANCH   3   6
HETATM    6  C3  UNL     1     -32.281   8.696   1.679  1.00 20.00     0.131 C 
HETATM    7  C6  UNL     1     -31.313   8.684   0.527  1.00 20.00     0.091 C 
HETATM    8  O8  UNL     1     -33.102   9.600   1.823  1.00 20.00    -0.298 OA
ENDBRANCH   3   6
TORSDOF 1
ENDMDL
MODEL 7
REMARK VINA RESULT:      -4.5      1.773      3.697
REMARK  1 active torsions:
REMARK  status: ('A' for Active; 'I' for Inactive)
REMARK    1  A    between atoms: C3_3  and  C4_4 
ROOT
HETATM    1  C1  UNL     1     -33.569   7.680   3.366  1.00 20.00    -0.018 A 
HETATM    2  C2  UNL     1     -32.525   7.130   2.723  1.00 20.00    -0.025 A 
HETATM    3  C4  UNL     1     -34.114   6.347   3.841  1.00 20.00     0.084 A 
HETATM    4  C5  UNL     1     -32.854   5.721   3.179  1.00 20.00     0.018 A 
HETATM    5  C7  UNL     1     -33.117   4.711   2.071  1.00 20.00     0.015 C 
ENDROOT
BRANCH   3   6
HETATM    6  C3  UNL     1     -34.235   6.317   5.369  1.00 20.00     0.131 C 
HETATM    7  C6  UNL     1     -34.674   5.018   5.988  1.00 20.00     0.091 C 
HETATM    8  O8  UNL     1     -33.983   7.307   6.055  1.00 20.00    -0.298 OA
ENDBRANCH   3   6
TORSDOF 1
ENDMDL
MODEL 8
REMARK VINA RESULT:      -4.5      1.333      2.160
REMARK  1 active torsions:
REMARK  status: ('A' for Active; 'I' for Inactive)
REMARK    1  A    between atoms: C3_3  and  C4_4 
ROOT
HETATM    1  C1  UNL     1     -33.427   7.203   5.540  1.00 20.00    -0.018 A 
HETATM    2  C2  UNL     1     -34.591   6.545   5.674  1.00 20.00    -0.025 A 
HETATM    3  C4  UNL     1     -33.041   6.476   4.267  1.00 20.00     0.084 A 
HETATM    4  C5  UNL     1     -34.431   5.786   4.370  1.00 20.00     0.018 A 
HETATM    5  C7  UNL     1     -34.414   4.269   4.486  1.00 20.00     0.015 C 
ENDROOT
BRANCH   3   6
HETATM    6  C3  UNL     1     -32.794   7.466   3.124  1.00 20.00     0.131 C 
HETATM    7  C6  UNL     1     -31.563   8.326   3.228  1.00 20.00     0.091 C 
HETATM    8  O8  UNL     1     -33.563   7.553   2.167  1.00 20.00    -0.298 OA
ENDBRANCH   3   6
TORSDOF 1
ENDMDL
MODEL 9
REMARK VINA RESULT:      -4.2      1.821      3.414
REMARK  1 active torsions:
REMARK  status: ('A' for Active; 'I' for Inactive)
REMARK    1  A    between atoms: C3_3  and  C4_4 
ROOT
HETATM    1  C1  UNL     1     -33.657   5.599   2.987  1.00 20.00    -0.018 A 
HETATM    2  C2  UNL     1     -33.683   6.577   2.066  1.00 20.00    -0.025 A 
HETATM    3  C4  UNL     1     -33.034   6.476   4.056  1.00 20.00     0.084 A 
HETATM    4  C5  UNL     1     -33.155   7.631   3.021  1.00 20.00     0.018 A 
HETATM    5  C7  UNL     1     -31.849   8.298   2.613  1.00 20.00     0.015 C 
ENDROOT
BRANCH   3   6
HETATM    6  C3  UNL     1     -33.912   6.518   5.311  1.00 20.00     0.131 C 
HETATM    7  C6  UNL     1     -34.695   5.273   5.630  1.00 20.00     0.091 C 
HETATM    8  O8  UNL     1     -33.972   7.519   6.024  1.00 20.00    -0.298 OA
ENDBRANCH   3   6
TORSDOF 1
ENDMDL
