MODEL 1
REMARK VINA RESULT:      -4.9      0.000      0.000
REMARK  1 active torsions:
REMARK  status: ('A' for Active; 'I' for Inactive)
REMARK    1  A    between atoms: C3_3  and  C8_8 
ROOT
HETATM    1  C1  UNL     1     -34.575  16.569  -3.906  1.00 20.00    -0.079 C 
HETATM    2  C2  UNL     1     -34.954  17.347  -2.890  1.00 20.00    -0.028 C 
HETATM    3  C4  UNL     1     -34.022  15.170  -3.796  1.00 20.00     0.039 C 
HETATM    4  C5  UNL     1     -35.721  16.153  -6.044  1.00 20.00     0.023 C 
HETATM    5  C6  UNL     1     -33.343  16.166  -5.846  1.00 20.00     0.014 C 
HETATM    6  C7  UNL     1     -34.578  16.936  -5.373  1.00 20.00     0.015 C 
HETATM    7  C8  UNL     1     -35.198  14.702  -6.029  1.00 20.00     0.077 C 
HETATM    8  C9  UNL     1     -33.843  14.824  -5.292  1.00 20.00     0.003 C 
HETATM    9  C10 UNL     1     -34.919  16.931  -1.457  1.00 20.00     0.036 C 
ENDROOT
BRANCH   7  10
HETATM   10  C3  UNL     1     -36.145  13.738  -5.386  1.00 20.00     0.223 C 
HETATM   11  O11 UNL     1     -35.877  12.546  -5.277  1.00 20.00    -0.279 OA
HETATM   12 CL12 UNL     1     -37.602  14.515  -4.846  1.00 20.00    -0.043 Cl
ENDBRANCH   7  10
TORSDOF 1
ENDMDL
MODEL 2
REMARK VINA RESULT:      -4.6      1.498      1.804
REMARK  1 active torsions:
REMARK  status: ('A' for Active; 'I' for Inactive)
REMARK    1  A    between atoms: C3_3  and  C8_8 
ROOT
HETATM    1  C1  UNL     1     -33.853  16.502  -4.449  1.00 20.00    -0.079 C 
HETATM    2  C2  UNL     1     -33.738  17.832  -4.458  1.00 20.00    -0.028 C 
HETATM    3  C4  UNL     1     -34.691  15.688  -3.495  1.00 20.00     0.039 C 
HETATM    4  C5  UNL     1     -34.180  14.968  -6.346  1.00 20.00     0.023 C 
HETATM    5  C6  UNL     1     -32.943  14.355  -4.399  1.00 20.00     0.014 C 
HETATM    6  C7  UNL     1     -33.139  15.530  -5.360  1.00 20.00     0.015 C 
HETATM    7  C8  UNL     1     -35.048  14.062  -5.448  1.00 20.00     0.077 C 
HETATM    8  C9  UNL     1     -34.433  14.266  -4.043  1.00 20.00     0.003 C 
HETATM    9  C10 UNL     1     -34.464  18.743  -3.524  1.00 20.00     0.036 C 
ENDROOT
BRANCH   7  10
HETATM   10  C3  UNL     1     -36.508  14.384  -5.517  1.00 20.00     0.223 C 
HETATM   11  O11 UNL     1     -37.348  13.694  -4.950  1.00 20.00    -0.279 OA
HETATM   12 CL12 UNL     1     -36.820  15.805  -6.467  1.00 20.00    -0.043 Cl
ENDBRANCH   7  10
TORSDOF 1
ENDMDL
MODEL 3
REMARK VINA RESULT:      -4.6      1.618      2.904
REMARK  1 active torsions:
REMARK  status: ('A' for Active; 'I' for Inactive)
REMARK    1  A    between atoms: C3_3  and  C8_8 
ROOT
HETATM    1  C1  UNL     1     -34.344  16.997  -5.196  1.00 20.00    -0.079 C 
HETATM    2  C2  UNL     1     -34.010  17.860  -6.158  1.00 20.00    -0.028 C 
HETATM    3  C4  UNL     1     -35.737  16.517  -4.875  1.00 20.00     0.039 C 
HETATM    4  C5  UNL     1     -33.265  14.870  -4.587  1.00 20.00     0.023 C 
HETATM    5  C6  UNL     1     -34.326  16.275  -2.978  1.00 20.00     0.014 C 
HETATM    6  C7  UNL     1     -33.407  16.352  -4.199  1.00 20.00     0.015 C 
HETATM    7  C8  UNL     1     -34.646  14.286  -4.226  1.00 20.00     0.077 C 
HETATM    8  C9  UNL     1     -35.433  15.524  -3.731  1.00 20.00     0.003 C 
HETATM    9  C10 UNL     1     -34.984  18.473  -7.109  1.00 20.00     0.036 C 
ENDROOT
BRANCH   7  10
HETATM   10  C3  UNL     1     -35.304  13.574  -5.365  1.00 20.00     0.223 C 
HETATM   11  O11 UNL     1     -36.357  12.961  -5.220  1.00 20.00    -0.279 OA
HETATM   12 CL12 UNL     1     -34.406  13.734  -6.844  1.00 20.00    -0.043 Cl
ENDBRANCH   7  10
TORSDOF 1
ENDMDL
MODEL 4
REMARK VINA RESULT:      -4.5      2.241      2.738
REMARK  1 active torsions:
REMARK  status: ('A' for Active; 'I' for Inactive)
REMARK    1  A    between atoms: C3_3  and  C8_8 
ROOT
HETATM    1  C1  UNL     1     -34.131  16.219  -3.036  1.00 20.00    -0.079 C 
HETATM    2  C2  UNL     1     -33.628  16.988  -2.068  1.00 20.00    -0.028 C 
HETATM    3  C4  UNL     1     -35.593  15.954  -3.295  1.00 20.00     0.039 C 
HETATM    4  C5  UNL     1     -33.497  16.116  -5.413  1.00 20.00     0.023 C 
HETATM    5  C6  UNL     1     -34.266  14.206  -4.208  1.00 20.00     0.014 C 
HETATM    6  C7  UNL     1     -33.345  15.417  -4.050  1.00 20.00     0.015 C 
HETATM    7  C8  UNL     1     -34.968  15.834  -5.781  1.00 20.00     0.077 C 
HETATM    8  C9  UNL     1     -35.496  15.058  -4.550  1.00 20.00     0.003 C 
HETATM    9  C10 UNL     1     -34.457  17.750  -1.088  1.00 20.00     0.036 C 
ENDROOT
BRANCH   7  10
HETATM   10  C3  UNL     1     -35.749  17.072  -6.090  1.00 20.00     0.223 C 
HETATM   11  O11 UNL     1     -36.902  17.020  -6.505  1.00 20.00    -0.279 OA
HETATM   12 CL12 UNL     1     -34.831  18.516  -5.789  1.00 20.00    -0.043 Cl
ENDBRANCH   7  10
TORSDOF 1
ENDMDL
MODEL 5
REMARK VINA RESULT:      -4.4      1.739      2.403
REMARK  1 active torsions:
REMARK  status: ('A' for Active; 'I' for Inactive)
REMARK    1  A    between atoms: C3_3  and  C8_8 
ROOT
HETATM    1  C1  UNL     1     -36.015  16.320  -3.952  1.00 20.00    -0.079 C 
HETATM    2  C2  UNL     1     -35.611  16.505  -2.694  1.00 20.00    -0.028 C 
HETATM    3  C4  UNL     1     -35.129  16.251  -5.171  1.00 20.00     0.039 C 
HETATM    4  C5  UNL     1     -37.663  14.713  -4.825  1.00 20.00     0.023 C 
HETATM    5  C6  UNL     1     -37.339  16.868  -5.793  1.00 20.00     0.014 C 
HETATM    6  C7  UNL     1     -37.444  16.184  -4.429  1.00 20.00     0.015 C 
HETATM    7  C8  UNL     1     -36.829  14.577  -6.115  1.00 20.00     0.077 C 
HETATM    8  C9  UNL     1     -36.184  15.975  -6.266  1.00 20.00     0.003 C 
HETATM    9  C10 UNL     1     -34.182  16.642  -2.285  1.00 20.00     0.036 C 
ENDROOT
BRANCH   7  10
HETATM   10  C3  UNL     1     -35.835  13.460  -6.064  1.00 20.00     0.223 C 
HETATM   11  O11 UNL     1     -35.825  12.648  -5.144  1.00 20.00    -0.279 OA
HETATM   12 CL12 UNL     1     -34.756  13.482  -7.425  1.00 20.00    -0.043 Cl
ENDBRANCH   7  10
TORSDOF 1
ENDMDL
MODEL 6
REMARK VINA RESULT:      -4.4      1.610      2.144
REMARK  1 active torsions:
REMARK  status: ('A' for Active; 'I' for Inactive)
REMARK    1  A    between atoms: C3_3  and  C8_8 
ROOT
HETATM    1  C1  UNL     1     -34.357  15.358  -5.178  1.00 20.00    -0.079 C 
HETATM    2  C2  UNL     1     -33.712  16.327  -4.524  1.00 20.00    -0.028 C 
HETATM    3  C4  UNL     1     -35.067  14.183  -4.554  1.00 20.00     0.039 C 
HETATM    4  C5  UNL     1     -35.928  15.550  -7.064  1.00 20.00     0.023 C 
HETATM    5  C6  UNL     1     -34.465  13.685  -6.800  1.00 20.00     0.014 C 
HETATM    6  C7  UNL     1     -34.477  15.210  -6.678  1.00 20.00     0.015 C 
HETATM    7  C8  UNL     1     -36.721  14.349  -6.509  1.00 20.00     0.077 C 
HETATM    8  C9  UNL     1     -35.630  13.495  -5.819  1.00 20.00     0.003 C 
HETATM    9  C10 UNL     1     -33.619  16.415  -3.037  1.00 20.00     0.036 C 
ENDROOT
BRANCH   7  10
HETATM   10  C3  UNL     1     -37.838  14.746  -5.597  1.00 20.00     0.223 C 
HETATM   11  O11 UNL     1     -38.525  13.912  -5.017  1.00 20.00    -0.279 OA
HETATM   12 CL12 UNL     1     -38.009  16.472  -5.486  1.00 20.00    -0.043 Cl
ENDBRANCH   7  10
TORSDOF 1
ENDMDL
MODEL 7
REMARK VINA RESULT:      -4.3      2.547      3.806
REMARK  1 active torsions:
REMARK  status: ('A' for Active; 'I' for Inactive)
REMARK    1  A    between atoms: C3_3  and  C8_8 
ROOT
HETATM    1  C1  UNL     1     -35.728  14.714  -5.693  1.00 20.00    -0.079 C 
HETATM    2  C2  UNL     1     -36.794  14.055  -5.230  1.00 20.00    -0.028 C 
HETATM    3  C4  UNL     1     -35.684  16.169  -6.088  1.00 20.00     0.039 C 
HETATM    4  C5  UNL     1     -33.409  14.670  -4.870  1.00 20.00     0.023 C 
HETATM    5  C6  UNL     1     -33.945  14.966  -7.176  1.00 20.00     0.014 C 
HETATM    6  C7  UNL     1     -34.356  14.135  -5.959  1.00 20.00     0.015 C 
HETATM    7  C8  UNL     1     -33.260  16.159  -5.246  1.00 20.00     0.077 C 
HETATM    8  C9  UNL     1     -34.193  16.307  -6.471  1.00 20.00     0.003 C 
HETATM    9  C10 UNL     1     -38.129  14.681  -4.997  1.00 20.00     0.036 C 
ENDROOT
BRANCH   7  10
HETATM   10  C3  UNL     1     -33.592  17.089  -4.122  1.00 20.00     0.223 C 
HETATM   11  O11 UNL     1     -33.406  18.298  -4.210  1.00 20.00    -0.279 OA
HETATM   12 CL12 UNL     1     -34.247  16.249  -2.749  1.00 20.00    -0.043 Cl
ENDBRANCH   7  10
TORSDOF 1
ENDMDL
MODEL 8
REMARK VINA RESULT:      -4.3      2.516      4.061
REMARK  1 active torsions:
REMARK  status: ('A' for Active; 'I' for Inactive)
REMARK    1  A    between atoms: C3_3  and  C8_8 
ROOT
HETATM    1  C1  UNL     1     -34.852  14.361  -5.645  1.00 20.00    -0.079 C 
HETATM    2  C2  UNL     1     -35.908  13.794  -6.233  1.00 20.00    -0.028 C 
HETATM    3  C4  UNL     1     -33.801  15.203  -6.325  1.00 20.00     0.039 C 
HETATM    4  C5  UNL     1     -34.748  15.604  -3.523  1.00 20.00     0.023 C 
HETATM    5  C6  UNL     1     -32.937  14.269  -4.317  1.00 20.00     0.014 C 
HETATM    6  C7  UNL     1     -34.462  14.246  -4.189  1.00 20.00     0.015 C 
HETATM    7  C8  UNL     1     -33.661  16.517  -4.125  1.00 20.00     0.077 C 
HETATM    8  C9  UNL     1     -32.922  15.582  -5.112  1.00 20.00     0.003 C 
HETATM    9  C10 UNL     1     -36.238  13.936  -7.682  1.00 20.00     0.036 C 
ENDROOT
BRANCH   7  10
HETATM   10  C3  UNL     1     -34.213  17.751  -4.768  1.00 20.00     0.223 C 
HETATM   11  O11 UNL     1     -33.482  18.642  -5.187  1.00 20.00    -0.279 OA
HETATM   12 CL12 UNL     1     -35.949  17.735  -4.830  1.00 20.00    -0.043 Cl
ENDBRANCH   7  10
TORSDOF 1
ENDMDL
MODEL 9
REMARK VINA RESULT:      -4.3      2.175      3.542
REMARK  1 active torsions:
REMARK  status: ('A' for Active; 'I' for Inactive)
REMARK    1  A    between atoms: C3_3  and  C8_8 
ROOT
HETATM    1  C1  UNL     1     -33.863  15.859  -6.117  1.00 20.00    -0.079 C 
HETATM    2  C2  UNL     1     -34.026  16.255  -7.381  1.00 20.00    -0.028 C 
HETATM    3  C4  UNL     1     -33.481  16.738  -4.952  1.00 20.00     0.039 C 
HETATM    4  C5  UNL     1     -35.283  14.366  -4.771  1.00 20.00     0.023 C 
HETATM    5  C6  UNL     1     -32.916  14.475  -4.496  1.00 20.00     0.014 C 
HETATM    6  C7  UNL     1     -33.984  14.446  -5.591  1.00 20.00     0.015 C 
HETATM    7  C8  UNL     1     -34.948  15.198  -3.516  1.00 20.00     0.077 C 
HETATM    8  C9  UNL     1     -33.515  15.706  -3.802  1.00 20.00     0.003 C 
HETATM    9  C10 UNL     1     -33.884  17.667  -7.843  1.00 20.00     0.036 C 
ENDROOT
BRANCH   7  10
HETATM   10  C3  UNL     1     -35.931  16.295  -3.253  1.00 20.00     0.223 C 
HETATM   11  O11 UNL     1     -36.797  16.595  -4.069  1.00 20.00    -0.279 OA
HETATM   12 CL12 UNL     1     -35.680  17.041  -1.704  1.00 20.00    -0.043 Cl
ENDBRANCH   7  10
TORSDOF 1
ENDMDL
