MODEL 1
REMARK VINA RESULT:      -5.6      0.000      0.000
REMARK  0 active torsions:
REMARK  status: ('A' for Active; 'I' for Inactive)
ROOT
HETATM    1  C1  UNL     1     -32.209   9.362   1.030  1.00 20.00     0.017 C 
HETATM    2  C2  UNL     1     -32.212   8.451   1.811  1.00 20.00    -0.057 C 
HETATM    3  C3  UNL     1     -32.217   7.339   2.763  1.00 20.00     0.342 C 
HETATM    4  C4  UNL     1     -33.605   7.463   4.559  1.00 20.00     0.150 C 
HETATM    5  C5  UNL     1     -33.870   6.182   3.795  1.00 20.00     0.150 C 
HETATM    6  C6  UNL     1     -33.613   7.306   6.066  1.00 20.00     0.042 C 
HETATM    7  C7  UNL     1     -35.336   5.813   3.679  1.00 20.00     0.042 C 
HETATM    8  O8  UNL     1     -32.297   7.837   4.108  1.00 20.00    -0.343 OA
HETATM    9  O9  UNL     1     -33.329   6.471   2.500  1.00 20.00    -0.343 OA
ENDROOT
TORSDOF 0
ENDMDL
MODEL 2
REMARK VINA RESULT:      -4.2      1.296      2.268
REMARK  0 active torsions:
REMARK  status: ('A' for Active; 'I' for Inactive)
ROOT
HETATM    1  C1  UNL     1     -31.497   8.389   1.854  1.00 20.00     0.017 C 
HETATM    2  C2  UNL     1     -32.512   7.866   2.222  1.00 20.00    -0.057 C 
HETATM    3  C3  UNL     1     -33.751   7.228   2.673  1.00 20.00     0.342 C 
HETATM    4  C4  UNL     1     -33.596   5.389   4.000  1.00 20.00     0.150 C 
HETATM    5  C5  UNL     1     -34.454   6.438   4.677  1.00 20.00     0.150 C 
HETATM    6  C6  UNL     1     -34.119   3.972   4.131  1.00 20.00     0.042 C 
HETATM    7  C7  UNL     1     -34.225   6.567   6.170  1.00 20.00     0.042 C 
HETATM    8  O8  UNL     1     -33.618   5.798   2.626  1.00 20.00    -0.343 OA
HETATM    9  O9  UNL     1     -34.059   7.643   4.011  1.00 20.00    -0.343 OA
ENDROOT
TORSDOF 0
ENDMDL
MODEL 3
REMARK VINA RESULT:      -3.9     10.995     12.408
REMARK  0 active torsions:
REMARK  status: ('A' for Active; 'I' for Inactive)
ROOT
HETATM    1  C1  UNL     1     -34.590  16.373  -2.494  1.00 20.00     0.017 C 
HETATM    2  C2  UNL     1     -34.028  15.874  -3.430  1.00 20.00    -0.057 C 
HETATM    3  C3  UNL     1     -33.342  15.266  -4.572  1.00 20.00     0.342 C 
HETATM    4  C4  UNL     1     -34.601  14.493  -6.299  1.00 20.00     0.150 C 
HETATM    5  C5  UNL     1     -33.572  15.478  -6.816  1.00 20.00     0.150 C 
HETATM    6  C6  UNL     1     -34.792  13.271  -7.174  1.00 20.00     0.042 C 
HETATM    7  C7  UNL     1     -34.085  16.414  -7.891  1.00 20.00     0.042 C 
HETATM    8  O8  UNL     1     -34.063  14.111  -5.026  1.00 20.00    -0.343 OA
HETATM    9  O9  UNL     1     -33.227  16.218  -5.639  1.00 20.00    -0.343 OA
ENDROOT
TORSDOF 0
ENDMDL
MODEL 4
REMARK VINA RESULT:      -3.8     11.315     11.925
REMARK  0 active torsions:
REMARK  status: ('A' for Active; 'I' for Inactive)
ROOT
HETATM    1  C1  UNL     1     -30.782  18.588   1.872  1.00 20.00     0.017 C 
HETATM    2  C2  UNL     1     -31.571  18.872   1.013  1.00 20.00    -0.057 C 
HETATM    3  C3  UNL     1     -32.533  19.218  -0.035  1.00 20.00     0.342 C 
HETATM    4  C4  UNL     1     -33.293  17.560  -1.392  1.00 20.00     0.150 C 
HETATM    5  C5  UNL     1     -34.464  18.271  -0.746  1.00 20.00     0.150 C 
HETATM    6  C6  UNL     1     -33.494  17.223  -2.855  1.00 20.00     0.042 C 
HETATM    7  C7  UNL     1     -35.590  17.355  -0.308  1.00 20.00     0.042 C 
HETATM    8  O8  UNL     1     -32.227  18.507  -1.245  1.00 20.00    -0.343 OA
HETATM    9  O9  UNL     1     -33.864  18.895   0.394  1.00 20.00    -0.343 OA
ENDROOT
TORSDOF 0
ENDMDL
MODEL 5
REMARK VINA RESULT:      -3.6     11.189     12.323
REMARK  0 active torsions:
REMARK  status: ('A' for Active; 'I' for Inactive)
ROOT
HETATM    1  C1  UNL     1     -38.605  14.930  -4.892  1.00 20.00     0.017 C 
HETATM    2  C2  UNL     1     -37.562  14.366  -5.080  1.00 20.00    -0.057 C 
HETATM    3  C3  UNL     1     -36.290  13.678  -5.308  1.00 20.00     0.342 C 
HETATM    4  C4  UNL     1     -34.788  14.631  -6.725  1.00 20.00     0.150 C 
HETATM    5  C5  UNL     1     -34.136  14.378  -5.382  1.00 20.00     0.150 C 
HETATM    6  C6  UNL     1     -33.912  14.307  -7.918  1.00 20.00     0.042 C 
HETATM    7  C7  UNL     1     -33.212  15.486  -4.915  1.00 20.00     0.042 C 
HETATM    8  O8  UNL     1     -35.925  13.757  -6.695  1.00 20.00    -0.343 OA
HETATM    9  O9  UNL     1     -35.260  14.269  -4.501  1.00 20.00    -0.343 OA
ENDROOT
TORSDOF 0
ENDMDL
MODEL 6
REMARK VINA RESULT:      -3.6     10.940     12.245
REMARK  0 active torsions:
REMARK  status: ('A' for Active; 'I' for Inactive)
ROOT
HETATM    1  C1  UNL     1     -35.330  16.930  -1.437  1.00 20.00     0.017 C 
HETATM    2  C2  UNL     1     -34.574  16.558  -2.292  1.00 20.00    -0.057 C 
HETATM    3  C3  UNL     1     -33.652  16.106  -3.336  1.00 20.00     0.342 C 
HETATM    4  C4  UNL     1     -34.527  15.311  -5.277  1.00 20.00     0.150 C 
HETATM    5  C5  UNL     1     -33.558  16.435  -5.576  1.00 20.00     0.150 C 
HETATM    6  C6  UNL     1     -34.433  14.133  -6.227  1.00 20.00     0.042 C 
HETATM    7  C7  UNL     1     -34.007  17.376  -6.676  1.00 20.00     0.042 C 
HETATM    8  O8  UNL     1     -34.151  14.909  -3.954  1.00 20.00    -0.343 OA
HETATM    9  O9  UNL     1     -33.490  17.132  -4.326  1.00 20.00    -0.343 OA
ENDROOT
TORSDOF 0
ENDMDL
MODEL 7
REMARK VINA RESULT:      -3.6     10.450     11.985
REMARK  0 active torsions:
REMARK  status: ('A' for Active; 'I' for Inactive)
ROOT
HETATM    1  C1  UNL     1     -32.532  18.126  -1.124  1.00 20.00     0.017 C 
HETATM    2  C2  UNL     1     -33.302  17.813  -1.990  1.00 20.00    -0.057 C 
HETATM    3  C3  UNL     1     -34.243  17.431  -3.045  1.00 20.00     0.342 C 
HETATM    4  C4  UNL     1     -33.452  16.243  -4.815  1.00 20.00     0.150 C 
HETATM    5  C5  UNL     1     -34.609  15.503  -4.177  1.00 20.00     0.150 C 
HETATM    6  C6  UNL     1     -33.457  16.227  -6.330  1.00 20.00     0.042 C 
HETATM    7  C7  UNL     1     -34.422  14.001  -4.091  1.00 20.00     0.042 C 
HETATM    8  O8  UNL     1     -33.629  17.583  -4.335  1.00 20.00    -0.343 OA
HETATM    9  O9  UNL     1     -34.659  16.070  -2.862  1.00 20.00    -0.343 OA
ENDROOT
TORSDOF 0
ENDMDL
MODEL 8
REMARK VINA RESULT:      -3.5     11.187     11.738
REMARK  0 active torsions:
REMARK  status: ('A' for Active; 'I' for Inactive)
ROOT
HETATM    1  C1  UNL     1     -33.928  17.011  -1.812  1.00 20.00     0.017 C 
HETATM    2  C2  UNL     1     -33.734  17.887  -1.015  1.00 20.00    -0.057 C 
HETATM    3  C3  UNL     1     -33.497  18.956  -0.043  1.00 20.00     0.342 C 
HETATM    4  C4  UNL     1     -33.188  18.384   2.135  1.00 20.00     0.150 C 
HETATM    5  C5  UNL     1     -32.017  19.215   1.653  1.00 20.00     0.150 C 
HETATM    6  C6  UNL     1     -33.667  18.726   3.532  1.00 20.00     0.042 C 
HETATM    7  C7  UNL     1     -30.666  18.745   2.155  1.00 20.00     0.042 C 
HETATM    8  O8  UNL     1     -34.209  18.686   1.175  1.00 20.00    -0.343 OA
HETATM    9  O9  UNL     1     -32.093  19.069   0.230  1.00 20.00    -0.343 OA
ENDROOT
TORSDOF 0
ENDMDL
MODEL 9
REMARK VINA RESULT:      -3.5     10.669     11.637
REMARK  0 active torsions:
REMARK  status: ('A' for Active; 'I' for Inactive)
ROOT
HETATM    1  C1  UNL     1     -36.812  14.619  -7.918  1.00 20.00     0.017 C 
HETATM    2  C2  UNL     1     -36.351  14.212  -6.886  1.00 20.00    -0.057 C 
HETATM    3  C3  UNL     1     -35.790  13.717  -5.628  1.00 20.00     0.342 C 
HETATM    4  C4  UNL     1     -33.831  14.609  -4.897  1.00 20.00     0.150 C 
HETATM    5  C5  UNL     1     -34.887  14.741  -3.820  1.00 20.00     0.150 C 
HETATM    6  C6  UNL     1     -32.462  14.207  -4.386  1.00 20.00     0.042 C 
HETATM    7  C7  UNL     1     -34.858  16.058  -3.071  1.00 20.00     0.042 C 
HETATM    8  O8  UNL     1     -34.365  13.580  -5.741  1.00 20.00    -0.343 OA
HETATM    9  O9  UNL     1     -36.108  14.621  -4.559  1.00 20.00    -0.343 OA
ENDROOT
TORSDOF 0
ENDMDL
