MODEL 1
REMARK VINA RESULT:      -5.6      0.000      0.000
REMARK  2 active torsions:
REMARK  status: ('A' for Active; 'I' for Inactive)
REMARK    1  A    between atoms: C4_4  and  C6_6 
REMARK    2  A    between atoms: C7_7  and  O10_10 
ROOT
HETATM    1  C1  UNL     1     -32.340   8.458   1.911  1.00 20.00     0.218 C 
HETATM    2  C4  UNL     1     -32.572   7.454   2.704  1.00 20.00     0.043 C 
HETATM    3  O9  UNL     1     -32.129   9.367   1.194  1.00 20.00    -0.284 OA
ENDROOT
BRANCH   2   4
HETATM    4  C6  UNL     1     -33.696   7.383   3.682  1.00 20.00     0.064 C 
HETATM    5  C3  UNL     1     -33.258   7.537   5.110  1.00 20.00    -0.020 C 
HETATM    6  C2  UNL     1     -33.940   6.724   5.922  1.00 20.00    -0.027 C 
HETATM    7  C5  UNL     1     -34.925   5.885   5.172  1.00 20.00     0.059 C 
HETATM    8  C7  UNL     1     -34.446   6.036   3.722  1.00 20.00     0.135 C 
BRANCH   8   9
HETATM    9  O10 UNL     1     -33.586   4.933   3.433  1.00 20.00    -0.389 OA
HETATM   10  C8  UNL     1     -34.001   3.763   4.120  1.00 20.00     0.202 C 
ENDBRANCH   8   9
ENDBRANCH   2   4
TORSDOF 2
ENDMDL
MODEL 2
REMARK VINA RESULT:      -4.2     11.401     12.603
REMARK  2 active torsions:
REMARK  status: ('A' for Active; 'I' for Inactive)
REMARK    1  A    between atoms: C4_4  and  C6_6 
REMARK    2  A    between atoms: C7_7  and  O10_10 
ROOT
HETATM    1  C1  UNL     1     -35.700  13.934  -4.891  1.00 20.00     0.218 C 
HETATM    2  C4  UNL     1     -35.447  15.165  -4.559  1.00 20.00     0.043 C 
HETATM    3  O9  UNL     1     -35.930  12.820  -5.192  1.00 20.00    -0.284 OA
ENDROOT
BRANCH   2   4
HETATM    4  C6  UNL     1     -34.620  15.580  -3.387  1.00 20.00     0.064 C 
HETATM    5  C3  UNL     1     -35.418  16.217  -2.287  1.00 20.00    -0.020 C 
HETATM    6  C2  UNL     1     -34.758  17.237  -1.730  1.00 20.00    -0.027 C 
HETATM    7  C5  UNL     1     -33.428  17.459  -2.378  1.00 20.00     0.059 C 
HETATM    8  C7  UNL     1     -33.562  16.662  -3.682  1.00 20.00     0.135 C 
BRANCH   8   9
HETATM    9  O10 UNL     1     -33.987  17.567  -4.702  1.00 20.00    -0.389 OA
HETATM   10  C8  UNL     1     -33.289  18.799  -4.620  1.00 20.00     0.202 C 
ENDBRANCH   8   9
ENDBRANCH   2   4
TORSDOF 2
ENDMDL
MODEL 3
REMARK VINA RESULT:      -4.0      1.424      2.277
REMARK  2 active torsions:
REMARK  status: ('A' for Active; 'I' for Inactive)
REMARK    1  A    between atoms: C4_4  and  C6_6 
REMARK    2  A    between atoms: C7_7  and  O10_10 
ROOT
HETATM    1  C1  UNL     1     -32.491   8.585   1.806  1.00 20.00     0.218 C 
HETATM    2  C4  UNL     1     -32.102   7.641   2.611  1.00 20.00     0.043 C 
HETATM    3  O9  UNL     1     -32.842   9.439   1.078  1.00 20.00    -0.284 OA
ENDROOT
BRANCH   2   4
HETATM    4  C6  UNL     1     -32.910   6.439   2.970  1.00 20.00     0.064 C 
HETATM    5  C3  UNL     1     -34.307   6.472   2.424  1.00 20.00    -0.020 C 
HETATM    6  C2  UNL     1     -35.188   5.978   3.299  1.00 20.00    -0.027 C 
HETATM    7  C5  UNL     1     -34.529   5.555   4.574  1.00 20.00     0.059 C 
HETATM    8  C7  UNL     1     -33.162   6.245   4.479  1.00 20.00     0.135 C 
BRANCH   8   9
HETATM    9  O10 UNL     1     -33.256   7.490   5.173  1.00 20.00    -0.389 OA
HETATM   10  C8  UNL     1     -33.995   7.354   6.376  1.00 20.00     0.202 C 
ENDBRANCH   8   9
ENDBRANCH   2   4
TORSDOF 2
ENDMDL
MODEL 4
REMARK VINA RESULT:      -3.9     11.583     12.357
REMARK  2 active torsions:
REMARK  status: ('A' for Active; 'I' for Inactive)
REMARK    1  A    between atoms: C4_4  and  C6_6 
REMARK    2  A    between atoms: C7_7  and  O10_10 
ROOT
HETATM    1  C1  UNL     1     -33.230  17.463  -2.189  1.00 20.00     0.218 C 
HETATM    2  C4  UNL     1     -34.003  16.579  -2.748  1.00 20.00     0.043 C 
HETATM    3  O9  UNL     1     -32.531  18.263  -1.684  1.00 20.00    -0.284 OA
ENDROOT
BRANCH   2   4
HETATM    4  C6  UNL     1     -33.571  15.612  -3.800  1.00 20.00     0.064 C 
HETATM    5  C3  UNL     1     -33.200  16.267  -5.098  1.00 20.00    -0.020 C 
HETATM    6  C2  UNL     1     -33.612  15.548  -6.146  1.00 20.00    -0.027 C 
HETATM    7  C5  UNL     1     -34.341  14.312  -5.721  1.00 20.00     0.059 C 
HETATM    8  C7  UNL     1     -34.651  14.606  -4.248  1.00 20.00     0.135 C 
BRANCH   8   9
HETATM    9  O10 UNL     1     -35.965  15.162  -4.184  1.00 20.00    -0.389 OA
HETATM   10  C8  UNL     1     -36.892  14.377  -4.915  1.00 20.00     0.202 C 
ENDBRANCH   8   9
ENDBRANCH   2   4
TORSDOF 2
ENDMDL
MODEL 5
REMARK VINA RESULT:      -3.9     11.572     13.167
REMARK  2 active torsions:
REMARK  status: ('A' for Active; 'I' for Inactive)
REMARK    1  A    between atoms: C4_4  and  C6_6 
REMARK    2  A    between atoms: C7_7  and  O10_10 
ROOT
HETATM    1  C1  UNL     1     -37.265  14.083  -5.527  1.00 20.00     0.218 C 
HETATM    2  C4  UNL     1     -36.213  14.100  -6.292  1.00 20.00     0.043 C 
HETATM    3  O9  UNL     1     -38.216  14.068  -4.836  1.00 20.00    -0.284 OA
ENDROOT
BRANCH   2   4
HETATM    4  C6  UNL     1     -34.804  14.121  -5.804  1.00 20.00     0.064 C 
HETATM    5  C3  UNL     1     -34.686  14.316  -4.320  1.00 20.00    -0.020 C 
HETATM    6  C2  UNL     1     -33.657  15.109  -4.009  1.00 20.00    -0.027 C 
HETATM    7  C5  UNL     1     -32.934  15.587  -5.229  1.00 20.00     0.059 C 
HETATM    8  C7  UNL     1     -33.939  15.277  -6.347  1.00 20.00     0.135 C 
BRANCH   8   9
HETATM    9  O10 UNL     1     -34.705  16.459  -6.581  1.00 20.00    -0.389 OA
HETATM   10  C8  UNL     1     -34.025  17.351  -7.448  1.00 20.00     0.202 C 
ENDBRANCH   8   9
ENDBRANCH   2   4
TORSDOF 2
ENDMDL
MODEL 6
REMARK VINA RESULT:      -3.9      1.775      3.549
REMARK  2 active torsions:
REMARK  status: ('A' for Active; 'I' for Inactive)
REMARK    1  A    between atoms: C4_4  and  C6_6 
REMARK    2  A    between atoms: C7_7  and  O10_10 
ROOT
HETATM    1  C1  UNL     1     -33.886   7.372   5.590  1.00 20.00     0.218 C 
HETATM    2  C4  UNL     1     -34.686   7.191   4.581  1.00 20.00     0.043 C 
HETATM    3  O9  UNL     1     -33.162   7.537   6.502  1.00 20.00    -0.284 OA
ENDROOT
BRANCH   2   4
HETATM    4  C6  UNL     1     -34.677   5.994   3.690  1.00 20.00     0.064 C 
HETATM    5  C3  UNL     1     -34.390   4.711   4.414  1.00 20.00    -0.020 C 
HETATM    6  C2  UNL     1     -33.611   3.902   3.689  1.00 20.00    -0.027 C 
HETATM    7  C5  UNL     1     -33.236   4.519   2.378  1.00 20.00     0.059 C 
HETATM    8  C7  UNL     1     -33.587   5.996   2.600  1.00 20.00     0.135 C 
BRANCH   8   9
HETATM    9  O10 UNL     1     -32.399   6.664   3.028  1.00 20.00    -0.389 OA
HETATM   10  C8  UNL     1     -32.187   7.859   2.294  1.00 20.00     0.202 C 
ENDBRANCH   8   9
ENDBRANCH   2   4
TORSDOF 2
ENDMDL
MODEL 7
REMARK VINA RESULT:      -3.9     11.771     12.417
REMARK  2 active torsions:
REMARK  status: ('A' for Active; 'I' for Inactive)
REMARK    1  A    between atoms: C4_4  and  C6_6 
REMARK    2  A    between atoms: C7_7  and  O10_10 
ROOT
HETATM    1  C1  UNL     1     -37.771  14.619  -4.925  1.00 20.00     0.218 C 
HETATM    2  C4  UNL     1     -36.731  15.382  -4.757  1.00 20.00     0.043 C 
HETATM    3  O9  UNL     1     -38.712  13.930  -5.077  1.00 20.00    -0.284 OA
ENDROOT
BRANCH   2   4
HETATM    4  C6  UNL     1     -35.468  14.966  -4.080  1.00 20.00     0.064 C 
HETATM    5  C3  UNL     1     -34.688  16.114  -3.510  1.00 20.00    -0.020 C 
HETATM    6  C2  UNL     1     -33.373  15.943  -3.675  1.00 20.00    -0.027 C 
HETATM    7  C5  UNL     1     -33.063  14.669  -4.397  1.00 20.00     0.059 C 
HETATM    8  C7  UNL     1     -34.425  14.294  -4.995  1.00 20.00     0.135 C 
BRANCH   8   9
HETATM    9  O10 UNL     1     -34.469  14.805  -6.328  1.00 20.00    -0.389 OA
HETATM   10  C8  UNL     1     -34.434  13.757  -7.283  1.00 20.00     0.202 C 
ENDBRANCH   8   9
ENDBRANCH   2   4
TORSDOF 2
ENDMDL
MODEL 8
REMARK VINA RESULT:      -3.8     11.582     13.080
REMARK  2 active torsions:
REMARK  status: ('A' for Active; 'I' for Inactive)
REMARK    1  A    between atoms: C4_4  and  C6_6 
REMARK    2  A    between atoms: C7_7  and  O10_10 
ROOT
HETATM    1  C1  UNL     1     -34.668  13.400  -6.636  1.00 20.00     0.218 C 
HETATM    2  C4  UNL     1     -34.157  14.576  -6.419  1.00 20.00     0.043 C 
HETATM    3  O9  UNL     1     -35.130  12.337  -6.833  1.00 20.00    -0.284 OA
ENDROOT
BRANCH   2   4
HETATM    4  C6  UNL     1     -33.646  15.054  -5.101  1.00 20.00     0.064 C 
HETATM    5  C3  UNL     1     -34.629  14.882  -3.980  1.00 20.00    -0.020 C 
HETATM    6  C2  UNL     1     -34.600  15.920  -3.138  1.00 20.00    -0.027 C 
HETATM    7  C5  UNL     1     -33.612  16.958  -3.569  1.00 20.00     0.059 C 
HETATM    8  C7  UNL     1     -33.337  16.563  -5.025  1.00 20.00     0.135 C 
BRANCH   8   9
HETATM    9  O10 UNL     1     -34.208  17.333  -5.855  1.00 20.00    -0.389 OA
HETATM   10  C8  UNL     1     -34.072  18.720  -5.597  1.00 20.00     0.202 C 
ENDBRANCH   8   9
ENDBRANCH   2   4
TORSDOF 2
ENDMDL
MODEL 9
REMARK VINA RESULT:      -3.8     11.327     12.015
REMARK  2 active torsions:
REMARK  status: ('A' for Active; 'I' for Inactive)
REMARK    1  A    between atoms: C4_4  and  C6_6 
REMARK    2  A    between atoms: C7_7  and  O10_10 
ROOT
HETATM    1  C1  UNL     1     -32.955  14.667  -4.461  1.00 20.00     0.218 C 
HETATM    2  C4  UNL     1     -33.447  15.809  -4.843  1.00 20.00     0.043 C 
HETATM    3  O9  UNL     1     -32.511  13.634  -4.116  1.00 20.00    -0.284 OA
ENDROOT
BRANCH   2   4
HETATM    4  C6  UNL     1     -34.130  16.786  -3.947  1.00 20.00     0.064 C 
HETATM    5  C3  UNL     1     -33.734  16.655  -2.505  1.00 20.00    -0.020 C 
HETATM    6  C2  UNL     1     -34.778  16.836  -1.691  1.00 20.00    -0.027 C 
HETATM    7  C5  UNL     1     -36.040  17.095  -2.453  1.00 20.00     0.059 C 
HETATM    8  C7  UNL     1     -35.664  16.645  -3.871  1.00 20.00     0.135 C 
BRANCH   8   9
HETATM    9  O10 UNL     1     -36.087  15.289  -4.021  1.00 20.00    -0.389 OA
HETATM   10  C8  UNL     1     -37.458  15.214  -4.374  1.00 20.00     0.202 C 
ENDBRANCH   8   9
ENDBRANCH   2   4
TORSDOF 2
ENDMDL
