MODEL 1
REMARK VINA RESULT:      -6.2      0.000      0.000
REMARK  1 active torsions:
REMARK  status: ('A' for Active; 'I' for Inactive)
REMARK    1  A    between atoms: C1_1  and  C3_3 
ROOT
HETATM    1  C1  UNL     1     -32.896   7.426   3.930  1.00 20.00    -0.010 C 
HETATM    2  C2  UNL     1     -33.514   6.300   3.539  1.00 20.00    -0.066 C 
HETATM    3  C4  UNL     1     -33.073   8.018   5.305  1.00 20.00     0.042 C 
HETATM    4  C5  UNL     1     -33.331   5.492   2.290  1.00 20.00     0.035 C 
HETATM    5  C6  UNL     1     -34.144   7.328   6.160  1.00 20.00     0.005 C 
HETATM    6  C7  UNL     1     -33.312   4.077   2.852  1.00 20.00     0.005 C 
HETATM    7  C8  UNL     1     -34.175   5.817   5.926  1.00 20.00     0.009 C 
HETATM    8  C9  UNL     1     -34.285   4.078   4.031  1.00 20.00     0.009 C 
HETATM    9  C10 UNL     1     -34.447   5.542   4.449  1.00 20.00     0.015 C 
ENDROOT
BRANCH   1  10
HETATM   10  C3  UNL     1     -31.969   8.128   3.035  1.00 20.00     0.152 C 
HETATM   11  C11 UNL     1     -32.532   8.757   1.788  1.00 20.00     0.096 C 
HETATM   12  O12 UNL     1     -30.768   8.190   3.302  1.00 20.00    -0.293 OA
ENDBRANCH   1  10
TORSDOF 1
ENDMDL
MODEL 2
REMARK VINA RESULT:      -5.1     11.749     12.691
REMARK  1 active torsions:
REMARK  status: ('A' for Active; 'I' for Inactive)
REMARK    1  A    between atoms: C1_1  and  C3_3 
ROOT
HETATM    1  C1  UNL     1     -35.749  14.057  -5.759  1.00 20.00    -0.010 C 
HETATM    2  C2  UNL     1     -35.082  14.488  -4.676  1.00 20.00    -0.066 C 
HETATM    3  C4  UNL     1     -37.219  14.314  -5.968  1.00 20.00     0.042 C 
HETATM    4  C5  UNL     1     -33.613  14.468  -4.386  1.00 20.00     0.035 C 
HETATM    5  C6  UNL     1     -37.928  14.959  -4.769  1.00 20.00     0.005 C 
HETATM    6  C7  UNL     1     -33.402  15.863  -3.814  1.00 20.00     0.005 C 
HETATM    7  C8  UNL     1     -37.030  15.967  -4.050  1.00 20.00     0.009 C 
HETATM    8  C9  UNL     1     -34.675  16.196  -3.034  1.00 20.00     0.009 C 
HETATM    9  C10 UNL     1     -35.762  15.262  -3.575  1.00 20.00     0.015 C 
ENDROOT
BRANCH   1  10
HETATM   10  C3  UNL     1     -35.057  13.333  -6.832  1.00 20.00     0.152 C 
HETATM   11  C11 UNL     1     -34.361  14.141  -7.895  1.00 20.00     0.096 C 
HETATM   12  O12 UNL     1     -35.058  12.101  -6.856  1.00 20.00    -0.293 OA
ENDBRANCH   1  10
TORSDOF 1
ENDMDL
MODEL 3
REMARK VINA RESULT:      -4.7     11.771     13.593
REMARK  1 active torsions:
REMARK  status: ('A' for Active; 'I' for Inactive)
REMARK    1  A    between atoms: C1_1  and  C3_3 
ROOT
HETATM    1  C1  UNL     1     -35.186  14.900  -4.955  1.00 20.00    -0.010 C 
HETATM    2  C2  UNL     1     -34.644  15.495  -6.029  1.00 20.00    -0.066 C 
HETATM    3  C4  UNL     1     -34.811  15.268  -3.543  1.00 20.00     0.042 C 
HETATM    4  C5  UNL     1     -35.010  15.375  -7.477  1.00 20.00     0.035 C 
HETATM    5  C6  UNL     1     -33.641  16.254  -3.433  1.00 20.00     0.005 C 
HETATM    6  C7  UNL     1     -34.970  16.832  -7.917  1.00 20.00     0.005 C 
HETATM    7  C8  UNL     1     -33.664  17.294  -4.554  1.00 20.00     0.009 C 
HETATM    8  C9  UNL     1     -33.842  17.484  -7.116  1.00 20.00     0.009 C 
HETATM    9  C10 UNL     1     -33.604  16.580  -5.903  1.00 20.00     0.015 C 
ENDROOT
BRANCH   1  10
HETATM   10  C3  UNL     1     -36.219  13.868  -5.105  1.00 20.00     0.152 C 
HETATM   11  C11 UNL     1     -37.661  14.304  -5.098  1.00 20.00     0.096 C 
HETATM   12  O12 UNL     1     -35.905  12.683  -5.226  1.00 20.00    -0.293 OA
ENDBRANCH   1  10
TORSDOF 1
ENDMDL
MODEL 4
REMARK VINA RESULT:      -4.7     12.010     12.815
REMARK  1 active torsions:
REMARK  status: ('A' for Active; 'I' for Inactive)
REMARK    1  A    between atoms: C1_1  and  C3_3 
ROOT
HETATM    1  C1  UNL     1     -36.262  15.891  -3.806  1.00 20.00    -0.010 C 
HETATM    2  C2  UNL     1     -35.205  15.303  -4.389  1.00 20.00    -0.066 C 
HETATM    3  C4  UNL     1     -36.145  16.728  -2.558  1.00 20.00     0.042 C 
HETATM    4  C5  UNL     1     -35.111  14.585  -5.701  1.00 20.00     0.035 C 
HETATM    5  C6  UNL     1     -34.752  16.716  -1.914  1.00 20.00     0.005 C 
HETATM    6  C7  UNL     1     -33.816  15.156  -6.261  1.00 20.00     0.005 C 
HETATM    7  C8  UNL     1     -33.639  16.676  -2.962  1.00 20.00     0.009 C 
HETATM    8  C9  UNL     1     -32.898  15.379  -5.059  1.00 20.00     0.009 C 
HETATM    9  C10 UNL     1     -33.810  15.432  -3.831  1.00 20.00     0.015 C 
ENDROOT
BRANCH   1  10
HETATM   10  C3  UNL     1     -37.605  15.775  -4.388  1.00 20.00     0.152 C 
HETATM   11  C11 UNL     1     -38.129  16.936  -5.191  1.00 20.00     0.096 C 
HETATM   12  O12 UNL     1     -38.276  14.758  -4.212  1.00 20.00    -0.293 OA
ENDBRANCH   1  10
TORSDOF 1
ENDMDL
MODEL 5
REMARK VINA RESULT:      -4.6     11.948     13.018
REMARK  1 active torsions:
REMARK  status: ('A' for Active; 'I' for Inactive)
REMARK    1  A    between atoms: C1_1  and  C3_3 
ROOT
HETATM    1  C1  UNL     1     -36.062  15.175  -4.976  1.00 20.00    -0.010 C 
HETATM    2  C2  UNL     1     -35.596  16.062  -4.083  1.00 20.00    -0.066 C 
HETATM    3  C4  UNL     1     -35.157  14.285  -5.789  1.00 20.00     0.042 C 
HETATM    4  C5  UNL     1     -36.341  16.897  -3.085  1.00 20.00     0.035 C 
HETATM    5  C6  UNL     1     -33.661  14.592  -5.638  1.00 20.00     0.005 C 
HETATM    6  C7  UNL     1     -35.471  16.727  -1.847  1.00 20.00     0.005 C 
HETATM    7  C8  UNL     1     -33.306  15.008  -4.210  1.00 20.00     0.009 C 
HETATM    8  C9  UNL     1     -34.031  16.637  -2.351  1.00 20.00     0.009 C 
HETATM    9  C10 UNL     1     -34.121  16.242  -3.828  1.00 20.00     0.015 C 
ENDROOT
BRANCH   1  10
HETATM   10  C3  UNL     1     -37.504  14.998  -5.182  1.00 20.00     0.152 C 
HETATM   11  C11 UNL     1     -38.226  16.010  -6.033  1.00 20.00     0.096 C 
HETATM   12  O12 UNL     1     -38.097  14.050  -4.666  1.00 20.00    -0.293 OA
ENDBRANCH   1  10
TORSDOF 1
ENDMDL
MODEL 6
REMARK VINA RESULT:      -4.6     11.702     12.970
REMARK  1 active torsions:
REMARK  status: ('A' for Active; 'I' for Inactive)
REMARK    1  A    between atoms: C1_1  and  C3_3 
ROOT
HETATM    1  C1  UNL     1     -36.925  15.711  -4.320  1.00 20.00    -0.010 C 
HETATM    2  C2  UNL     1     -35.725  15.554  -3.738  1.00 20.00    -0.066 C 
HETATM    3  C4  UNL     1     -37.827  16.881  -4.026  1.00 20.00     0.042 C 
HETATM    4  C5  UNL     1     -34.643  14.558  -4.027  1.00 20.00     0.035 C 
HETATM    5  C6  UNL     1     -37.342  17.787  -2.887  1.00 20.00     0.005 C 
HETATM    6  C7  UNL     1     -33.406  15.446  -4.000  1.00 20.00     0.005 C 
HETATM    7  C8  UNL     1     -35.819  17.925  -2.878  1.00 20.00     0.009 C 
HETATM    8  C9  UNL     1     -33.671  16.506  -2.930  1.00 20.00     0.009 C 
HETATM    9  C10 UNL     1     -35.189  16.542  -2.732  1.00 20.00     0.015 C 
ENDROOT
BRANCH   1  10
HETATM   10  C3  UNL     1     -37.410  14.751  -5.319  1.00 20.00     0.152 C 
HETATM   11  C11 UNL     1     -37.037  14.981  -6.760  1.00 20.00     0.096 C 
HETATM   12  O12 UNL     1     -38.105  13.793  -4.979  1.00 20.00    -0.293 OA
ENDBRANCH   1  10
TORSDOF 1
ENDMDL
MODEL 7
REMARK VINA RESULT:      -4.5     11.875     12.594
REMARK  1 active torsions:
REMARK  status: ('A' for Active; 'I' for Inactive)
REMARK    1  A    between atoms: C1_1  and  C3_3 
ROOT
HETATM    1  C1  UNL     1     -35.033  16.030  -3.513  1.00 20.00    -0.010 C 
HETATM    2  C2  UNL     1     -35.904  15.205  -4.116  1.00 20.00    -0.066 C 
HETATM    3  C4  UNL     1     -33.541  15.900  -3.675  1.00 20.00     0.042 C 
HETATM    4  C5  UNL     1     -37.398  15.284  -4.199  1.00 20.00     0.035 C 
HETATM    5  C6  UNL     1     -33.091  14.652  -4.445  1.00 20.00     0.005 C 
HETATM    6  C7  UNL     1     -37.632  14.955  -5.668  1.00 20.00     0.005 C 
HETATM    7  C8  UNL     1     -34.056  14.304  -5.580  1.00 20.00     0.009 C 
HETATM    8  C9  UNL     1     -36.561  13.933  -6.047  1.00 20.00     0.009 C 
HETATM    9  C10 UNL     1     -35.450  14.072  -5.002  1.00 20.00     0.015 C 
ENDROOT
BRANCH   1  10
HETATM   10  C3  UNL     1     -35.502  17.144  -2.679  1.00 20.00     0.152 C 
HETATM   11  C11 UNL     1     -35.458  16.975  -1.184  1.00 20.00     0.096 C 
HETATM   12  O12 UNL     1     -35.923  18.178  -3.199  1.00 20.00    -0.293 OA
ENDBRANCH   1  10
TORSDOF 1
ENDMDL
MODEL 8
REMARK VINA RESULT:      -4.5     11.977     12.971
REMARK  1 active torsions:
REMARK  status: ('A' for Active; 'I' for Inactive)
REMARK    1  A    between atoms: C1_1  and  C3_3 
ROOT
HETATM    1  C1  UNL     1     -34.783  14.640  -5.523  1.00 20.00    -0.010 C 
HETATM    2  C2  UNL     1     -35.868  15.415  -5.362  1.00 20.00    -0.066 C 
HETATM    3  C4  UNL     1     -33.591  14.704  -4.603  1.00 20.00     0.042 C 
HETATM    4  C5  UNL     1     -37.189  15.372  -6.068  1.00 20.00     0.035 C 
HETATM    5  C6  UNL     1     -33.645  15.839  -3.572  1.00 20.00     0.005 C 
HETATM    6  C7  UNL     1     -38.155  15.533  -4.902  1.00 20.00     0.005 C 
HETATM    7  C8  UNL     1     -35.067  16.080  -3.062  1.00 20.00     0.009 C 
HETATM    8  C9  UNL     1     -37.467  16.470  -3.910  1.00 20.00     0.009 C 
HETATM    9  C10 UNL     1     -35.973  16.421  -4.243  1.00 20.00     0.015 C 
ENDROOT
BRANCH   1  10
HETATM   10  C3  UNL     1     -34.719  13.647  -6.602  1.00 20.00     0.152 C 
HETATM   11  C11 UNL     1     -34.122  14.071  -7.918  1.00 20.00     0.096 C 
HETATM   12  O12 UNL     1     -35.149  12.506  -6.427  1.00 20.00    -0.293 OA
ENDBRANCH   1  10
TORSDOF 1
ENDMDL
MODEL 9
REMARK VINA RESULT:      -4.5      0.647      2.783
REMARK  1 active torsions:
REMARK  status: ('A' for Active; 'I' for Inactive)
REMARK    1  A    between atoms: C1_1  and  C3_3 
ROOT
HETATM    1  C1  UNL     1     -32.753   6.948   3.079  1.00 20.00    -0.010 C 
HETATM    2  C2  UNL     1     -33.044   6.803   4.382  1.00 20.00    -0.066 C 
HETATM    3  C4  UNL     1     -33.078   5.897   2.049  1.00 20.00     0.042 C 
HETATM    4  C5  UNL     1     -32.945   7.794   5.501  1.00 20.00     0.035 C 
HETATM    5  C6  UNL     1     -33.613   4.582   2.629  1.00 20.00     0.005 C 
HETATM    6  C7  UNL     1     -34.265   7.558   6.225  1.00 20.00     0.005 C 
HETATM    7  C8  UNL     1     -34.509   4.819   3.846  1.00 20.00     0.009 C 
HETATM    8  C9  UNL     1     -34.553   6.062   6.100  1.00 20.00     0.009 C 
HETATM    9  C10 UNL     1     -33.717   5.564   4.917  1.00 20.00     0.015 C 
ENDROOT
BRANCH   1  10
HETATM   10  C3  UNL     1     -32.125   8.177   2.579  1.00 20.00     0.152 C 
HETATM   11  C11 UNL     1     -32.809   8.915   1.459  1.00 20.00     0.096 C 
HETATM   12  O12 UNL     1     -31.067   8.580   3.065  1.00 20.00    -0.293 OA
ENDBRANCH   1  10
TORSDOF 1
ENDMDL
