MODEL 1
REMARK VINA RESULT:      -7.6      0.000      0.000
REMARK  1 active torsions:
REMARK  status: ('A' for Active; 'I' for Inactive)
REMARK    1  A    between atoms: C5_5  and  C8_8 
ROOT
HETATM    1  C1  UNL     1     -34.526   4.943   5.560  1.00 20.00    -0.004 C 
HETATM    2  C2  UNL     1     -34.172   6.324   5.886  1.00 20.00    -0.004 C 
HETATM    3  C3  UNL     1     -34.336   4.246   4.419  1.00 20.00    -0.026 C 
HETATM    4  C4  UNL     1     -33.960   7.315   4.997  1.00 20.00    -0.021 C 
HETATM    5  C6  UNL     1     -33.690   4.692   3.113  1.00 20.00     0.033 C 
HETATM    6  C7  UNL     1     -34.035   7.095   3.555  1.00 20.00     0.026 A 
HETATM    7  C8  UNL     1     -33.078   7.283   2.429  1.00 20.00     0.085 A 
HETATM    8  C9  UNL     1     -33.007   6.011   3.222  1.00 20.00     0.011 A 
ENDROOT
BRANCH   7   9
HETATM    9  C5  UNL     1     -32.008   8.280   2.551  1.00 20.00     0.224 C 
HETATM   10  O10 UNL     1     -31.195   8.245   3.470  1.00 20.00    -0.279 OA
HETATM   11 CL11 UNL     1     -32.061   9.455   1.272  1.00 20.00    -0.043 Cl
ENDBRANCH   7   9
TORSDOF 1
ENDMDL
MODEL 2
REMARK VINA RESULT:      -6.8      1.393      2.300
REMARK  1 active torsions:
REMARK  status: ('A' for Active; 'I' for Inactive)
REMARK    1  A    between atoms: C5_5  and  C8_8 
ROOT
HETATM    1  C1  UNL     1     -34.769   5.807   4.794  1.00 20.00    -0.004 C 
HETATM    2  C2  UNL     1     -34.691   5.700   3.337  1.00 20.00    -0.004 C 
HETATM    3  C3  UNL     1     -34.121   6.639   5.638  1.00 20.00    -0.026 C 
HETATM    4  C4  UNL     1     -33.663   6.116   2.570  1.00 20.00    -0.021 C 
HETATM    5  C6  UNL     1     -33.102   7.728   5.325  1.00 20.00     0.033 C 
HETATM    6  C7  UNL     1     -32.487   6.772   3.136  1.00 20.00     0.026 A 
HETATM    7  C8  UNL     1     -31.833   8.093   2.914  1.00 20.00     0.085 A 
HETATM    8  C9  UNL     1     -32.989   8.018   3.869  1.00 20.00     0.011 A 
ENDROOT
BRANCH   7   9
HETATM    9  C5  UNL     1     -31.995   8.771   1.622  1.00 20.00     0.224 C 
HETATM   10  O10 UNL     1     -31.315   8.469   0.646  1.00 20.00    -0.279 OA
HETATM   11 CL11 UNL     1     -33.225   9.996   1.677  1.00 20.00    -0.043 Cl
ENDBRANCH   7   9
TORSDOF 1
ENDMDL
MODEL 3
REMARK VINA RESULT:      -4.7     11.741     12.362
REMARK  1 active torsions:
REMARK  status: ('A' for Active; 'I' for Inactive)
REMARK    1  A    between atoms: C5_5  and  C8_8 
ROOT
HETATM    1  C1  UNL     1     -33.662  18.451   0.294  1.00 20.00    -0.004 C 
HETATM    2  C2  UNL     1     -32.648  18.397  -0.758  1.00 20.00    -0.004 C 
HETATM    3  C3  UNL     1     -34.907  17.927   0.326  1.00 20.00    -0.026 C 
HETATM    4  C4  UNL     1     -32.881  18.175  -2.067  1.00 20.00    -0.021 C 
HETATM    5  C6  UNL     1     -35.638  17.115  -0.736  1.00 20.00     0.033 C 
HETATM    6  C7  UNL     1     -34.223  17.925  -2.587  1.00 20.00     0.026 A 
HETATM    7  C8  UNL     1     -34.845  16.806  -3.349  1.00 20.00     0.085 A 
HETATM    8  C9  UNL     1     -34.754  16.690  -1.856  1.00 20.00     0.011 A 
ENDROOT
BRANCH   7   9
HETATM    9  C5  UNL     1     -34.002  15.957  -4.201  1.00 20.00     0.224 C 
HETATM   10  O10 UNL     1     -33.174  16.436  -4.969  1.00 20.00    -0.279 OA
HETATM   11 CL11 UNL     1     -34.334  14.268  -3.972  1.00 20.00    -0.043 Cl
ENDBRANCH   7   9
TORSDOF 1
ENDMDL
MODEL 4
REMARK VINA RESULT:      -4.6     11.936     12.474
REMARK  1 active torsions:
REMARK  status: ('A' for Active; 'I' for Inactive)
REMARK    1  A    between atoms: C5_5  and  C8_8 
ROOT
HETATM    1  C1  UNL     1     -34.605  17.120  -2.250  1.00 20.00    -0.004 C 
HETATM    2  C2  UNL     1     -33.615  16.261  -2.898  1.00 20.00    -0.004 C 
HETATM    3  C3  UNL     1     -35.931  17.241  -2.480  1.00 20.00    -0.026 C 
HETATM    4  C4  UNL     1     -33.727  15.716  -4.126  1.00 20.00    -0.021 C 
HETATM    5  C6  UNL     1     -36.803  16.512  -3.495  1.00 20.00     0.033 C 
HETATM    6  C7  UNL     1     -34.911  15.911  -4.959  1.00 20.00     0.026 A 
HETATM    7  C8  UNL     1     -35.893  14.986  -5.591  1.00 20.00     0.085 A 
HETATM    8  C9  UNL     1     -36.102  15.378  -4.158  1.00 20.00     0.011 A 
ENDROOT
BRANCH   7   9
HETATM    9  C5  UNL     1     -35.485  13.615  -5.922  1.00 20.00     0.224 C 
HETATM   10  O10 UNL     1     -35.871  12.652  -5.266  1.00 20.00    -0.279 OA
HETATM   11 CL11 UNL     1     -34.431  13.562  -7.302  1.00 20.00    -0.043 Cl
ENDBRANCH   7   9
TORSDOF 1
ENDMDL
