MODEL 1
REMARK VINA RESULT:      -6.8      0.000      0.000
REMARK  1 active torsions:
REMARK  status: ('A' for Active; 'I' for Inactive)
REMARK    1  A    between atoms: C3_3  and  C7_7 
ROOT
HETATM    1  C1  UNL     1     -34.218   5.818   5.956  1.00 20.00    -0.030 C 
HETATM    2  C2  UNL     1     -34.461   4.814   5.107  1.00 20.00    -0.026 C 
HETATM    3  C4  UNL     1     -34.105   7.154   5.285  1.00 20.00     0.033 C 
HETATM    4  C5  UNL     1     -33.201   5.361   2.950  1.00 20.00     0.021 C 
HETATM    5  C6  UNL     1     -34.537   5.322   3.726  1.00 20.00     0.013 C 
HETATM    6  C7  UNL     1     -33.434   6.863   2.674  1.00 20.00     0.060 C 
HETATM    7  C8  UNL     1     -34.483   6.871   3.823  1.00 20.00     0.008 C 
ENDROOT
BRANCH   6   8
HETATM    8  C3  UNL     1     -32.238   7.812   2.773  1.00 20.00     0.127 C 
HETATM    9  C9  UNL     1     -31.963   8.683   1.577  1.00 20.00     0.091 C 
HETATM   10  O10 UNL     1     -31.534   7.861   3.781  1.00 20.00    -0.298 OA
ENDBRANCH   6   8
TORSDOF 1
ENDMDL
MODEL 2
REMARK VINA RESULT:      -5.9      0.987      1.127
REMARK  1 active torsions:
REMARK  status: ('A' for Active; 'I' for Inactive)
REMARK    1  A    between atoms: C3_3  and  C7_7 
ROOT
HETATM    1  C1  UNL     1     -34.248   5.768   5.904  1.00 20.00    -0.030 C 
HETATM    2  C2  UNL     1     -34.254   4.638   5.188  1.00 20.00    -0.026 C 
HETATM    3  C4  UNL     1     -34.390   7.005   5.069  1.00 20.00     0.033 C 
HETATM    4  C5  UNL     1     -33.070   5.164   2.983  1.00 20.00     0.021 C 
HETATM    5  C6  UNL     1     -34.392   4.945   3.754  1.00 20.00     0.013 C 
HETATM    6  C7  UNL     1     -33.597   6.540   2.518  1.00 20.00     0.060 C 
HETATM    7  C8  UNL     1     -34.659   6.472   3.653  1.00 20.00     0.008 C 
ENDROOT
BRANCH   6   8
HETATM    8  C3  UNL     1     -32.624   7.720   2.501  1.00 20.00     0.127 C 
HETATM    9  C9  UNL     1     -31.699   7.853   3.680  1.00 20.00     0.091 C 
HETATM   10  O10 UNL     1     -32.598   8.522   1.568  1.00 20.00    -0.298 OA
ENDBRANCH   6   8
TORSDOF 1
ENDMDL
MODEL 3
REMARK VINA RESULT:      -4.8      1.407      2.197
REMARK  1 active torsions:
REMARK  status: ('A' for Active; 'I' for Inactive)
REMARK    1  A    between atoms: C3_3  and  C7_7 
ROOT
HETATM    1  C1  UNL     1     -35.169   5.946   3.652  1.00 20.00    -0.030 C 
HETATM    2  C2  UNL     1     -34.562   6.156   4.825  1.00 20.00    -0.026 C 
HETATM    3  C4  UNL     1     -34.261   6.111   2.471  1.00 20.00     0.033 C 
HETATM    4  C5  UNL     1     -32.847   8.013   4.437  1.00 20.00     0.021 C 
HETATM    5  C6  UNL     1     -33.147   6.507   4.610  1.00 20.00     0.013 C 
HETATM    6  C7  UNL     1     -32.152   7.696   3.095  1.00 20.00     0.060 C 
HETATM    7  C8  UNL     1     -32.872   6.316   3.094  1.00 20.00     0.008 C 
ENDROOT
BRANCH   6   8
HETATM    8  C3  UNL     1     -32.386   8.642   1.915  1.00 20.00     0.127 C 
HETATM    9  C9  UNL     1     -31.382   8.590   0.796  1.00 20.00     0.091 C 
HETATM   10  O10 UNL     1     -33.349   9.407   1.883  1.00 20.00    -0.298 OA
ENDBRANCH   6   8
TORSDOF 1
ENDMDL
MODEL 4
REMARK VINA RESULT:      -4.4      1.955      3.586
REMARK  1 active torsions:
REMARK  status: ('A' for Active; 'I' for Inactive)
REMARK    1  A    between atoms: C3_3  and  C7_7 
ROOT
HETATM    1  C1  UNL     1     -31.625   8.129   3.734  1.00 20.00    -0.030 C 
HETATM    2  C2  UNL     1     -32.190   8.511   4.884  1.00 20.00    -0.026 C 
HETATM    3  C4  UNL     1     -32.519   7.280   2.882  1.00 20.00     0.033 C 
HETATM    4  C5  UNL     1     -33.672   6.572   5.648  1.00 20.00     0.021 C 
HETATM    5  C6  UNL     1     -33.554   7.964   4.987  1.00 20.00     0.013 C 
HETATM    6  C7  UNL     1     -34.415   6.064   4.392  1.00 20.00     0.060 C 
HETATM    7  C8  UNL     1     -33.867   7.299   3.619  1.00 20.00     0.008 C 
ENDROOT
BRANCH   6   8
HETATM    8  C3  UNL     1     -34.080   4.668   3.867  1.00 20.00     0.127 C 
HETATM    9  C9  UNL     1     -33.225   4.596   2.630  1.00 20.00     0.091 C 
HETATM   10  O10 UNL     1     -34.489   3.652   4.427  1.00 20.00    -0.298 OA
ENDBRANCH   6   8
TORSDOF 1
ENDMDL
MODEL 5
REMARK VINA RESULT:      -4.3     11.777     12.465
REMARK  1 active torsions:
REMARK  status: ('A' for Active; 'I' for Inactive)
REMARK    1  A    between atoms: C3_3  and  C7_7 
ROOT
HETATM    1  C1  UNL     1     -34.549  16.227  -2.665  1.00 20.00    -0.030 C 
HETATM    2  C2  UNL     1     -35.815  16.656  -2.655  1.00 20.00    -0.026 C 
HETATM    3  C4  UNL     1     -34.085  15.764  -4.013  1.00 20.00     0.033 C 
HETATM    4  C5  UNL     1     -37.095  15.190  -4.314  1.00 20.00     0.021 C 
HETATM    5  C6  UNL     1     -36.404  16.536  -4.000  1.00 20.00     0.013 C 
HETATM    6  C7  UNL     1     -36.192  15.044  -5.559  1.00 20.00     0.060 C 
HETATM    7  C8  UNL     1     -35.248  16.121  -4.951  1.00 20.00     0.008 C 
ENDROOT
BRANCH   6   8
HETATM    8  C3  UNL     1     -35.615  13.663  -5.878  1.00 20.00     0.127 C 
HETATM    9  C9  UNL     1     -34.722  13.565  -7.085  1.00 20.00     0.091 C 
HETATM   10  O10 UNL     1     -35.867  12.682  -5.181  1.00 20.00    -0.298 OA
ENDBRANCH   6   8
TORSDOF 1
ENDMDL
MODEL 6
REMARK VINA RESULT:      -4.3     11.681     12.798
REMARK  1 active torsions:
REMARK  status: ('A' for Active; 'I' for Inactive)
REMARK    1  A    between atoms: C3_3  and  C7_7 
ROOT
HETATM    1  C1  UNL     1     -34.159  16.998  -3.551  1.00 20.00    -0.030 C 
HETATM    2  C2  UNL     1     -33.418  17.293  -4.624  1.00 20.00    -0.026 C 
HETATM    3  C4  UNL     1     -34.479  15.538  -3.429  1.00 20.00     0.033 C 
HETATM    4  C5  UNL     1     -34.170  15.711  -6.488  1.00 20.00     0.021 C 
HETATM    5  C6  UNL     1     -33.135  16.072  -5.399  1.00 20.00     0.013 C 
HETATM    6  C7  UNL     1     -34.325  14.315  -5.844  1.00 20.00     0.060 C 
HETATM    7  C8  UNL     1     -33.664  14.881  -4.554  1.00 20.00     0.008 C 
ENDROOT
BRANCH   6   8
HETATM    8  C3  UNL     1     -35.729  13.716  -5.741  1.00 20.00     0.127 C 
HETATM    9  C9  UNL     1     -36.860  14.545  -6.288  1.00 20.00     0.091 C 
HETATM   10  O10 UNL     1     -35.925  12.612  -5.236  1.00 20.00    -0.298 OA
ENDBRANCH   6   8
TORSDOF 1
ENDMDL
MODEL 7
REMARK VINA RESULT:      -4.3     11.297     12.562
REMARK  1 active torsions:
REMARK  status: ('A' for Active; 'I' for Inactive)
REMARK    1  A    between atoms: C3_3  and  C7_7 
ROOT
HETATM    1  C1  UNL     1     -34.842  17.771  -4.599  1.00 20.00    -0.030 C 
HETATM    2  C2  UNL     1     -33.686  17.527  -3.975  1.00 20.00    -0.026 C 
HETATM    3  C4  UNL     1     -35.802  16.621  -4.552  1.00 20.00     0.033 C 
HETATM    4  C5  UNL     1     -33.158  15.054  -4.356  1.00 20.00     0.021 C 
HETATM    5  C6  UNL     1     -33.686  16.163  -3.418  1.00 20.00     0.013 C 
HETATM    6  C7  UNL     1     -34.483  14.285  -4.153  1.00 20.00     0.060 C 
HETATM    7  C8  UNL     1     -35.120  15.603  -3.624  1.00 20.00     0.008 C 
ENDROOT
BRANCH   6   8
HETATM    8  C3  UNL     1     -35.119  13.604  -5.367  1.00 20.00     0.127 C 
HETATM    9  C9  UNL     1     -34.586  13.995  -6.719  1.00 20.00     0.091 C 
HETATM   10  O10 UNL     1     -36.021  12.778  -5.244  1.00 20.00    -0.298 OA
ENDBRANCH   6   8
TORSDOF 1
ENDMDL
MODEL 8
REMARK VINA RESULT:      -4.3     11.485     12.571
REMARK  1 active torsions:
REMARK  status: ('A' for Active; 'I' for Inactive)
REMARK    1  A    between atoms: C3_3  and  C7_7 
ROOT
HETATM    1  C1  UNL     1     -33.772  16.392  -4.266  1.00 20.00    -0.030 C 
HETATM    2  C2  UNL     1     -33.020  15.550  -4.983  1.00 20.00    -0.026 C 
HETATM    3  C4  UNL     1     -35.050  15.781  -3.775  1.00 20.00     0.033 C 
HETATM    4  C5  UNL     1     -34.637  14.070  -6.301  1.00 20.00     0.021 C 
HETATM    5  C6  UNL     1     -33.687  14.240  -5.094  1.00 20.00     0.013 C 
HETATM    6  C7  UNL     1     -35.768  13.676  -5.325  1.00 20.00     0.060 C 
HETATM    7  C8  UNL     1     -34.933  14.301  -4.170  1.00 20.00     0.008 C 
ENDROOT
BRANCH   6   8
HETATM    8  C3  UNL     1     -37.173  14.220  -5.587  1.00 20.00     0.127 C 
HETATM    9  C9  UNL     1     -37.317  15.213  -6.708  1.00 20.00     0.091 C 
HETATM   10  O10 UNL     1     -38.139  13.863  -4.913  1.00 20.00    -0.298 OA
ENDBRANCH   6   8
TORSDOF 1
ENDMDL
MODEL 9
REMARK VINA RESULT:      -4.3      1.343      3.809
REMARK  1 active torsions:
REMARK  status: ('A' for Active; 'I' for Inactive)
REMARK    1  A    between atoms: C3_3  and  C7_7 
ROOT
HETATM    1  C1  UNL     1     -31.779   9.078   2.705  1.00 20.00    -0.030 C 
HETATM    2  C2  UNL     1     -32.511   8.681   1.659  1.00 20.00    -0.026 C 
HETATM    3  C4  UNL     1     -31.640   8.030   3.769  1.00 20.00     0.033 C 
HETATM    4  C5  UNL     1     -34.349   7.164   2.587  1.00 20.00     0.021 C 
HETATM    5  C6  UNL     1     -32.989   7.303   1.865  1.00 20.00     0.013 C 
HETATM    6  C7  UNL     1     -33.674   6.243   3.629  1.00 20.00     0.060 C 
HETATM    7  C8  UNL     1     -32.295   6.784   3.153  1.00 20.00     0.008 C 
ENDROOT
BRANCH   6   8
HETATM    8  C3  UNL     1     -34.056   6.412   5.100  1.00 20.00     0.127 C 
HETATM    9  C9  UNL     1     -34.602   5.197   5.801  1.00 20.00     0.091 C 
HETATM   10  O10 UNL     1     -33.923   7.487   5.682  1.00 20.00    -0.298 OA
ENDBRANCH   6   8
TORSDOF 1
ENDMDL
