MODEL 1
REMARK VINA RESULT:      -4.4      0.000      0.000
REMARK  1 active torsions:
REMARK  status: ('A' for Active; 'I' for Inactive)
REMARK    1  A    between atoms: C1_1  and  C5_5 
ROOT
HETATM    1  C2  UNL     1     -34.086  15.780  -3.326  1.00 20.00     0.002 C 
HETATM    2  C3  UNL     1     -34.062  14.510  -4.179  1.00 20.00     0.017 C 
HETATM    3  C4  UNL     1     -34.927  16.802  -4.086  1.00 20.00     0.010 C 
HETATM    4  C5  UNL     1     -34.812  14.846  -5.485  1.00 20.00     0.023 C 
HETATM    5  C6  UNL     1     -35.799  15.975  -5.051  1.00 20.00    -0.034 C 
HETATM    6  C8  UNL     1     -33.805  15.261  -6.570  1.00 20.00     0.024 C 
HETATM    7  C9  UNL     1     -37.027  15.434  -4.283  1.00 20.00     0.016 C 
HETATM    8  C10 UNL     1     -36.309  16.852  -6.203  1.00 20.00     0.016 C 
ENDROOT
BRANCH   4   9
HETATM    9  C1  UNL     1     -35.521  13.625  -6.008  1.00 20.00     0.132 C 
HETATM   10  C7  UNL     1     -35.776  13.574  -7.490  1.00 20.00     0.091 C 
HETATM   11  O11 UNL     1     -35.874  12.714  -5.261  1.00 20.00    -0.298 OA
ENDBRANCH   4   9
TORSDOF 1
ENDMDL
MODEL 2
REMARK VINA RESULT:      -4.3      1.055      2.449
REMARK  1 active torsions:
REMARK  status: ('A' for Active; 'I' for Inactive)
REMARK    1  A    between atoms: C1_1  and  C5_5 
ROOT
HETATM    1  C2  UNL     1     -33.672  16.775  -6.655  1.00 20.00     0.002 C 
HETATM    2  C3  UNL     1     -34.537  15.606  -7.134  1.00 20.00     0.017 C 
HETATM    3  C4  UNL     1     -33.833  16.845  -5.139  1.00 20.00     0.010 C 
HETATM    4  C5  UNL     1     -35.276  15.071  -5.890  1.00 20.00     0.023 C 
HETATM    5  C6  UNL     1     -34.320  15.445  -4.714  1.00 20.00    -0.034 C 
HETATM    6  C8  UNL     1     -36.674  15.707  -5.803  1.00 20.00     0.024 C 
HETATM    7  C9  UNL     1     -33.101  14.498  -4.610  1.00 20.00     0.016 C 
HETATM    8  C10 UNL     1     -34.995  15.503  -3.337  1.00 20.00     0.016 C 
ENDROOT
BRANCH   4   9
HETATM    9  C1  UNL     1     -35.493  13.586  -6.010  1.00 20.00     0.132 C 
HETATM   10  C7  UNL     1     -35.053  12.940  -7.297  1.00 20.00     0.091 C 
HETATM   11  O11 UNL     1     -36.002  12.932  -5.101  1.00 20.00    -0.298 OA
ENDBRANCH   4   9
TORSDOF 1
ENDMDL
MODEL 3
REMARK VINA RESULT:      -4.3      1.254      2.486
REMARK  1 active torsions:
REMARK  status: ('A' for Active; 'I' for Inactive)
REMARK    1  A    between atoms: C1_1  and  C5_5 
ROOT
HETATM    1  C2  UNL     1     -33.857  16.798  -7.093  1.00 20.00     0.002 C 
HETATM    2  C3  UNL     1     -33.623  15.556  -6.231  1.00 20.00     0.017 C 
HETATM    3  C4  UNL     1     -35.217  16.616  -7.763  1.00 20.00     0.010 C 
HETATM    4  C5  UNL     1     -34.814  14.611  -6.492  1.00 20.00     0.023 C 
HETATM    5  C6  UNL     1     -35.965  15.587  -6.893  1.00 20.00    -0.034 C 
HETATM    6  C8  UNL     1     -34.438  13.589  -7.577  1.00 20.00     0.024 C 
HETATM    7  C9  UNL     1     -36.586  16.312  -5.676  1.00 20.00     0.016 C 
HETATM    8  C10 UNL     1     -37.105  14.935  -7.688  1.00 20.00     0.016 C 
ENDROOT
BRANCH   4   9
HETATM    9  C1  UNL     1     -35.133  13.818  -5.253  1.00 20.00     0.132 C 
HETATM   10  C7  UNL     1     -34.426  14.225  -3.988  1.00 20.00     0.091 C 
HETATM   11  O11 UNL     1     -35.933  12.884  -5.272  1.00 20.00    -0.298 OA
ENDBRANCH   4   9
TORSDOF 1
ENDMDL
MODEL 4
REMARK VINA RESULT:      -4.3      1.209      2.647
REMARK  1 active torsions:
REMARK  status: ('A' for Active; 'I' for Inactive)
REMARK    1  A    between atoms: C1_1  and  C5_5 
ROOT
HETATM    1  C2  UNL     1     -34.598  17.308  -6.047  1.00 20.00     0.002 C 
HETATM    2  C3  UNL     1     -35.234  16.351  -5.037  1.00 20.00     0.017 C 
HETATM    3  C4  UNL     1     -34.040  16.446  -7.176  1.00 20.00     0.010 C 
HETATM    4  C5  UNL     1     -34.945  14.923  -5.545  1.00 20.00     0.023 C 
HETATM    5  C6  UNL     1     -34.809  15.112  -7.089  1.00 20.00    -0.034 C 
HETATM    6  C8  UNL     1     -33.686  14.371  -4.857  1.00 20.00     0.024 C 
HETATM    7  C9  UNL     1     -36.176  15.272  -7.795  1.00 20.00     0.016 C 
HETATM    8  C10 UNL     1     -34.034  13.995  -7.802  1.00 20.00     0.016 C 
ENDROOT
BRANCH   4   9
HETATM    9  C1  UNL     1     -36.073  13.998  -5.173  1.00 20.00     0.132 C 
HETATM   10  C7  UNL     1     -37.354  14.642  -4.717  1.00 20.00     0.091 C 
HETATM   11  O11 UNL     1     -35.954  12.775  -5.239  1.00 20.00    -0.298 OA
ENDBRANCH   4   9
TORSDOF 1
ENDMDL
MODEL 5
REMARK VINA RESULT:      -4.1      1.338      3.129
REMARK  1 active torsions:
REMARK  status: ('A' for Active; 'I' for Inactive)
REMARK    1  A    between atoms: C1_1  and  C5_5 
ROOT
HETATM    1  C2  UNL     1     -36.693  16.513  -6.562  1.00 20.00     0.002 C 
HETATM    2  C3  UNL     1     -35.549  16.616  -5.551  1.00 20.00     0.017 C 
HETATM    3  C4  UNL     1     -36.495  15.198  -7.313  1.00 20.00     0.010 C 
HETATM    4  C5  UNL     1     -34.635  15.399  -5.798  1.00 20.00     0.023 C 
HETATM    5  C6  UNL     1     -35.608  14.334  -6.396  1.00 20.00    -0.034 C 
HETATM    6  C8  UNL     1     -33.478  15.799  -6.729  1.00 20.00     0.024 C 
HETATM    7  C9  UNL     1     -36.496  13.665  -5.320  1.00 20.00     0.016 C 
HETATM    8  C10 UNL     1     -34.920  13.223  -7.201  1.00 20.00     0.016 C 
ENDROOT
BRANCH   4   9
HETATM    9  C1  UNL     1     -34.005  14.948  -4.507  1.00 20.00     0.132 C 
HETATM   10  C7  UNL     1     -34.350  15.738  -3.274  1.00 20.00     0.091 C 
HETATM   11  O11 UNL     1     -33.247  13.980  -4.462  1.00 20.00    -0.298 OA
ENDBRANCH   4   9
TORSDOF 1
ENDMDL
MODEL 6
REMARK VINA RESULT:      -4.1      1.235      2.851
REMARK  1 active torsions:
REMARK  status: ('A' for Active; 'I' for Inactive)
REMARK    1  A    between atoms: C1_1  and  C5_5 
ROOT
HETATM    1  C2  UNL     1     -33.823  16.743  -5.907  1.00 20.00     0.002 C 
HETATM    2  C3  UNL     1     -34.906  16.412  -4.878  1.00 20.00     0.017 C 
HETATM    3  C4  UNL     1     -33.702  15.527  -6.821  1.00 20.00     0.010 C 
HETATM    4  C5  UNL     1     -35.334  14.954  -5.146  1.00 20.00     0.023 C 
HETATM    5  C6  UNL     1     -35.034  14.766  -6.666  1.00 20.00    -0.034 C 
HETATM    6  C8  UNL     1     -34.554  14.006  -4.220  1.00 20.00     0.024 C 
HETATM    7  C9  UNL     1     -36.100  15.426  -7.573  1.00 20.00     0.016 C 
HETATM    8  C10 UNL     1     -34.875  13.305  -7.108  1.00 20.00     0.016 C 
ENDROOT
BRANCH   4   9
HETATM    9  C1  UNL     1     -36.791  14.768  -4.815  1.00 20.00     0.132 C 
HETATM   10  C7  UNL     1     -37.534  15.981  -4.324  1.00 20.00     0.091 C 
HETATM   11  O11 UNL     1     -37.348  13.679  -4.943  1.00 20.00    -0.298 OA
ENDBRANCH   4   9
TORSDOF 1
ENDMDL
MODEL 7
REMARK VINA RESULT:      -4.1      1.545      2.253
REMARK  1 active torsions:
REMARK  status: ('A' for Active; 'I' for Inactive)
REMARK    1  A    between atoms: C1_1  and  C5_5 
ROOT
HETATM    1  C2  UNL     1     -33.742  14.621  -4.202  1.00 20.00     0.002 C 
HETATM    2  C3  UNL     1     -35.060  13.990  -4.658  1.00 20.00     0.017 C 
HETATM    3  C4  UNL     1     -33.255  15.497  -5.353  1.00 20.00     0.010 C 
HETATM    4  C5  UNL     1     -35.273  14.432  -6.121  1.00 20.00     0.023 C 
HETATM    5  C6  UNL     1     -34.509  15.791  -6.201  1.00 20.00    -0.034 C 
HETATM    6  C8  UNL     1     -34.744  13.346  -7.073  1.00 20.00     0.024 C 
HETATM    7  C9  UNL     1     -35.293  16.957  -5.555  1.00 20.00     0.016 C 
HETATM    8  C10 UNL     1     -34.112  16.216  -7.621  1.00 20.00     0.016 C 
ENDROOT
BRANCH   4   9
HETATM    9  C1  UNL     1     -36.743  14.575  -6.414  1.00 20.00     0.132 C 
HETATM   10  C7  UNL     1     -37.684  14.403  -5.253  1.00 20.00     0.091 C 
HETATM   11  O11 UNL     1     -37.154  14.824  -7.547  1.00 20.00    -0.298 OA
ENDBRANCH   4   9
TORSDOF 1
ENDMDL
MODEL 8
REMARK VINA RESULT:      -4.0      1.890      3.532
REMARK  1 active torsions:
REMARK  status: ('A' for Active; 'I' for Inactive)
REMARK    1  A    between atoms: C1_1  and  C5_5 
ROOT
HETATM    1  C2  UNL     1     -33.693  14.821  -7.783  1.00 20.00     0.002 C 
HETATM    2  C3  UNL     1     -33.460  15.822  -6.650  1.00 20.00     0.017 C 
HETATM    3  C4  UNL     1     -34.652  13.763  -7.243  1.00 20.00     0.010 C 
HETATM    4  C5  UNL     1     -34.214  15.273  -5.420  1.00 20.00     0.023 C 
HETATM    5  C6  UNL     1     -35.367  14.431  -6.051  1.00 20.00    -0.034 C 
HETATM    6  C8  UNL     1     -33.247  14.469  -4.535  1.00 20.00     0.024 C 
HETATM    7  C9  UNL     1     -36.525  15.307  -6.585  1.00 20.00     0.016 C 
HETATM    8  C10 UNL     1     -35.966  13.370  -5.118  1.00 20.00     0.016 C 
ENDROOT
BRANCH   4   9
HETATM    9  C1  UNL     1     -34.723  16.408  -4.571  1.00 20.00     0.132 C 
HETATM   10  C7  UNL     1     -35.021  16.094  -3.130  1.00 20.00     0.091 C 
HETATM   11  O11 UNL     1     -34.885  17.537  -5.031  1.00 20.00    -0.298 OA
ENDBRANCH   4   9
TORSDOF 1
ENDMDL
MODEL 9
REMARK VINA RESULT:      -4.0      1.627      2.761
REMARK  1 active torsions:
REMARK  status: ('A' for Active; 'I' for Inactive)
REMARK    1  A    between atoms: C1_1  and  C5_5 
ROOT
HETATM    1  C2  UNL     1     -36.035  16.463  -3.491  1.00 20.00     0.002 C 
HETATM    2  C3  UNL     1     -36.423  15.971  -4.886  1.00 20.00     0.017 C 
HETATM    3  C4  UNL     1     -34.679  15.839  -3.169  1.00 20.00     0.010 C 
HETATM    4  C5  UNL     1     -35.327  14.977  -5.322  1.00 20.00     0.023 C 
HETATM    5  C6  UNL     1     -34.069  15.463  -4.534  1.00 20.00    -0.034 C 
HETATM    6  C8  UNL     1     -35.768  13.541  -4.996  1.00 20.00     0.024 C 
HETATM    7  C9  UNL     1     -33.419  16.719  -5.160  1.00 20.00     0.016 C 
HETATM    8  C10 UNL     1     -32.976  14.399  -4.362  1.00 20.00     0.016 C 
ENDROOT
BRANCH   4   9
HETATM    9  C1  UNL     1     -35.133  15.034  -6.814  1.00 20.00     0.132 C 
HETATM   10  C7  UNL     1     -34.392  13.886  -7.444  1.00 20.00     0.091 C 
HETATM   11  O11 UNL     1     -35.562  15.971  -7.486  1.00 20.00    -0.298 OA
ENDBRANCH   4   9
TORSDOF 1
ENDMDL
