MODEL 1
REMARK VINA RESULT:      -5.5      0.000      0.000
REMARK  2 active torsions:
REMARK  status: ('A' for Active; 'I' for Inactive)
REMARK    1  A    between atoms: C1_1  and  C6_6 
REMARK    2  A    between atoms: C7_7  and  C8_8 
ROOT
HETATM    1  C2  UNL     1     -33.077   8.231   3.905  1.00 20.00     0.014 C 
HETATM    2  C3  UNL     1     -33.157   6.429   2.139  1.00 20.00     0.014 C 
HETATM    3  C4  UNL     1     -33.512   7.217   4.963  1.00 20.00     0.008 C 
HETATM    4  C5  UNL     1     -33.593   5.412   3.193  1.00 20.00     0.008 C 
HETATM    5  C6  UNL     1     -32.333   7.550   2.762  1.00 20.00     0.072 C 
HETATM    6  C7  UNL     1     -34.346   6.083   4.350  1.00 20.00     0.014 C 
ENDROOT
BRANCH   5   7
HETATM    7  C1  UNL     1     -32.089   8.592   1.687  1.00 20.00     0.223 C 
HETATM    8  O9  UNL     1     -31.198   8.463   0.854  1.00 20.00    -0.279 OA
HETATM    9 CL11 UNL     1     -33.198   9.925   1.804  1.00 20.00    -0.043 Cl
ENDBRANCH   5   7
BRANCH   6  10
HETATM   10  C8  UNL     1     -34.725   5.055   5.415  1.00 20.00     0.226 C 
HETATM   11  F10 UNL     1     -34.310   3.838   4.991  1.00 20.00    -0.255 F 
ENDBRANCH   6  10
TORSDOF 2
ENDMDL
MODEL 2
REMARK VINA RESULT:      -5.3      3.626      4.630
REMARK  2 active torsions:
REMARK  status: ('A' for Active; 'I' for Inactive)
REMARK    1  A    between atoms: C1_1  and  C6_6 
REMARK    2  A    between atoms: C7_7  and  C8_8 
ROOT
HETATM    1  C2  UNL     1     -33.790   6.988   4.621  1.00 20.00     0.014 C 
HETATM    2  C3  UNL     1     -33.254   5.445   2.696  1.00 20.00     0.014 C 
HETATM    3  C4  UNL     1     -33.406   8.193   3.766  1.00 20.00     0.008 C 
HETATM    4  C5  UNL     1     -32.867   6.648   1.837  1.00 20.00     0.008 C 
HETATM    5  C6  UNL     1     -34.279   5.831   3.757  1.00 20.00     0.072 C 
HETATM    6  C7  UNL     1     -32.371   7.820   2.695  1.00 20.00     0.014 C 
ENDROOT
BRANCH   5   7
HETATM    7  C1  UNL     1     -34.477   4.631   4.663  1.00 20.00     0.223 C 
HETATM    8  O9  UNL     1     -34.386   3.482   4.241  1.00 20.00    -0.279 OA
HETATM    9 CL11 UNL     1     -34.831   5.098   6.299  1.00 20.00    -0.043 Cl
ENDBRANCH   5   7
BRANCH   6  10
HETATM   10  C8  UNL     1     -32.041   9.027   1.819  1.00 20.00     0.226 C 
HETATM   11  F10 UNL     1     -31.283   8.599   0.782  1.00 20.00    -0.255 F 
ENDBRANCH   6  10
TORSDOF 2
ENDMDL
MODEL 3
REMARK VINA RESULT:      -5.1      0.694      1.603
REMARK  2 active torsions:
REMARK  status: ('A' for Active; 'I' for Inactive)
REMARK    1  A    between atoms: C1_1  and  C6_6 
REMARK    2  A    between atoms: C7_7  and  C8_8 
ROOT
HETATM    1  C2  UNL     1     -33.582   6.762   2.288  1.00 20.00     0.014 C 
HETATM    2  C3  UNL     1     -32.466   8.107   4.109  1.00 20.00     0.014 C 
HETATM    3  C4  UNL     1     -34.410   6.023   3.337  1.00 20.00     0.008 C 
HETATM    4  C5  UNL     1     -33.291   7.369   5.163  1.00 20.00     0.008 C 
HETATM    5  C6  UNL     1     -33.195   8.155   2.772  1.00 20.00     0.072 C 
HETATM    6  C7  UNL     1     -33.686   5.964   4.690  1.00 20.00     0.014 C 
ENDROOT
BRANCH   5   7
HETATM    7  C1  UNL     1     -32.243   8.749   1.750  1.00 20.00     0.223 C 
HETATM    8  O9  UNL     1     -31.227   8.159   1.396  1.00 20.00    -0.279 OA
HETATM    9 CL11 UNL     1     -32.777  10.303   1.185  1.00 20.00    -0.043 Cl
ENDBRANCH   5   7
BRANCH   6  10
HETATM   10  C8  UNL     1     -34.553   5.267   5.737  1.00 20.00     0.226 C 
HETATM   11  F10 UNL     1     -34.819   4.014   5.296  1.00 20.00    -0.255 F 
ENDBRANCH   6  10
TORSDOF 2
ENDMDL
MODEL 4
REMARK VINA RESULT:      -5.1      3.703      4.711
REMARK  2 active torsions:
REMARK  status: ('A' for Active; 'I' for Inactive)
REMARK    1  A    between atoms: C1_1  and  C6_6 
REMARK    2  A    between atoms: C7_7  and  C8_8 
ROOT
HETATM    1  C2  UNL     1     -33.187   7.258   4.890  1.00 20.00     0.014 C 
HETATM    2  C3  UNL     1     -33.712   5.819   2.883  1.00 20.00     0.014 C 
HETATM    3  C4  UNL     1     -32.703   8.374   3.966  1.00 20.00     0.008 C 
HETATM    4  C5  UNL     1     -33.228   6.932   1.955  1.00 20.00     0.008 C 
HETATM    5  C6  UNL     1     -34.229   6.385   4.201  1.00 20.00     0.072 C 
HETATM    6  C7  UNL     1     -32.175   7.818   2.635  1.00 20.00     0.014 C 
ENDROOT
BRANCH   5   7
HETATM    7  C1  UNL     1     -34.528   5.214   5.118  1.00 20.00     0.223 C 
HETATM    8  O9  UNL     1     -34.969   5.379   6.251  1.00 20.00    -0.279 OA
HETATM    9 CL11 UNL     1     -34.172   3.688   4.368  1.00 20.00    -0.043 Cl
ENDBRANCH   5   7
BRANCH   6  10
HETATM   10  C8  UNL     1     -31.746   8.953   1.708  1.00 20.00     0.226 C 
HETATM   11  F10 UNL     1     -31.087   8.411   0.657  1.00 20.00    -0.255 F 
ENDBRANCH   6  10
TORSDOF 2
ENDMDL
MODEL 5
REMARK VINA RESULT:      -5.0      3.781      4.946
REMARK  2 active torsions:
REMARK  status: ('A' for Active; 'I' for Inactive)
REMARK    1  A    between atoms: C1_1  and  C6_6 
REMARK    2  A    between atoms: C7_7  and  C8_8 
ROOT
HETATM    1  C2  UNL     1     -33.994   6.682   3.092  1.00 20.00     0.014 C 
HETATM    2  C3  UNL     1     -32.446   8.019   4.572  1.00 20.00     0.014 C 
HETATM    3  C4  UNL     1     -33.178   7.090   1.866  1.00 20.00     0.008 C 
HETATM    4  C5  UNL     1     -31.628   8.431   3.349  1.00 20.00     0.008 C 
HETATM    5  C6  UNL     1     -33.133   6.677   4.350  1.00 20.00     0.072 C 
HETATM    6  C7  UNL     1     -32.483   8.444   2.074  1.00 20.00     0.014 C 
ENDROOT
BRANCH   5   7
HETATM    7  C1  UNL     1     -34.050   6.428   5.533  1.00 20.00     0.223 C 
HETATM    8  O9  UNL     1     -34.238   7.282   6.394  1.00 20.00    -0.279 OA
HETATM    9 CL11 UNL     1     -34.756   4.841   5.490  1.00 20.00    -0.043 Cl
ENDBRANCH   5   7
BRANCH   6  10
HETATM   10  C8  UNL     1     -31.632   8.806   0.858  1.00 20.00     0.226 C 
HETATM   11  F10 UNL     1     -31.999  10.042   0.442  1.00 20.00    -0.255 F 
ENDBRANCH   6  10
TORSDOF 2
ENDMDL
MODEL 6
REMARK VINA RESULT:      -4.7     11.367     11.760
REMARK  2 active torsions:
REMARK  status: ('A' for Active; 'I' for Inactive)
REMARK    1  A    between atoms: C1_1  and  C6_6 
REMARK    2  A    between atoms: C7_7  and  C8_8 
ROOT
HETATM    1  C2  UNL     1     -36.355  15.194  -4.176  1.00 20.00     0.014 C 
HETATM    2  C3  UNL     1     -33.851  14.872  -4.187  1.00 20.00     0.014 C 
HETATM    3  C4  UNL     1     -36.195  16.425  -3.286  1.00 20.00     0.008 C 
HETATM    4  C5  UNL     1     -33.686  16.102  -3.296  1.00 20.00     0.008 C 
HETATM    5  C6  UNL     1     -35.115  14.969  -5.034  1.00 20.00     0.072 C 
HETATM    6  C7  UNL     1     -34.927  16.339  -2.424  1.00 20.00     0.014 C 
ENDROOT
BRANCH   5   7
HETATM    7  C1  UNL     1     -35.288  13.645  -5.755  1.00 20.00     0.223 C 
HETATM    8  O9  UNL     1     -35.955  12.733  -5.277  1.00 20.00    -0.279 OA
HETATM    9 CL11 UNL     1     -34.449  13.615  -7.276  1.00 20.00    -0.043 Cl
ENDBRANCH   5   7
BRANCH   6  10
HETATM   10  C8  UNL     1     -34.760  17.602  -1.582  1.00 20.00     0.226 C 
HETATM   11  F10 UNL     1     -33.639  17.464  -0.834  1.00 20.00    -0.255 F 
ENDBRANCH   6  10
TORSDOF 2
ENDMDL
MODEL 7
REMARK VINA RESULT:      -4.7     11.246     11.798
REMARK  2 active torsions:
REMARK  status: ('A' for Active; 'I' for Inactive)
REMARK    1  A    between atoms: C1_1  and  C6_6 
REMARK    2  A    between atoms: C7_7  and  C8_8 
ROOT
HETATM    1  C2  UNL     1     -36.431  15.840  -3.643  1.00 20.00     0.014 C 
HETATM    2  C3  UNL     1     -34.319  14.565  -4.176  1.00 20.00     0.014 C 
HETATM    3  C4  UNL     1     -35.598  16.973  -3.045  1.00 20.00     0.008 C 
HETATM    4  C5  UNL     1     -33.482  15.695  -3.578  1.00 20.00     0.008 C 
HETATM    5  C6  UNL     1     -35.648  15.085  -4.710  1.00 20.00     0.072 C 
HETATM    6  C7  UNL     1     -34.257  16.462  -2.499  1.00 20.00     0.014 C 
ENDROOT
BRANCH   5   7
HETATM    7  C1  UNL     1     -36.478  13.886  -5.127  1.00 20.00     0.223 C 
HETATM    8  O9  UNL     1     -35.978  12.776  -5.277  1.00 20.00    -0.279 OA
HETATM    9 CL11 UNL     1     -38.153  14.294  -5.347  1.00 20.00    -0.043 Cl
ENDBRANCH   5   7
BRANCH   6  10
HETATM   10  C8  UNL     1     -33.421  17.619  -1.954  1.00 20.00     0.226 C 
HETATM   11  F10 UNL     1     -33.576  17.653  -0.609  1.00 20.00    -0.255 F 
ENDBRANCH   6  10
TORSDOF 2
ENDMDL
MODEL 8
REMARK VINA RESULT:      -4.6     11.293     11.749
REMARK  2 active torsions:
REMARK  status: ('A' for Active; 'I' for Inactive)
REMARK    1  A    between atoms: C1_1  and  C6_6 
REMARK    2  A    between atoms: C7_7  and  C8_8 
ROOT
HETATM    1  C2  UNL     1     -33.816  14.623  -4.925  1.00 20.00     0.014 C 
HETATM    2  C3  UNL     1     -36.117  15.282  -4.122  1.00 20.00     0.014 C 
HETATM    3  C4  UNL     1     -33.187  15.425  -3.786  1.00 20.00     0.008 C 
HETATM    4  C5  UNL     1     -35.492  16.086  -2.983  1.00 20.00     0.008 C 
HETATM    5  C6  UNL     1     -35.210  14.134  -4.549  1.00 20.00     0.072 C 
HETATM    6  C7  UNL     1     -34.089  16.588  -3.348  1.00 20.00     0.014 C 
ENDROOT
BRANCH   5   7
HETATM    7  C1  UNL     1     -35.823  13.499  -5.784  1.00 20.00     0.223 C 
HETATM    8  O9  UNL     1     -35.344  12.492  -6.296  1.00 20.00    -0.279 OA
HETATM    9 CL11 UNL     1     -37.227  14.362  -6.335  1.00 20.00    -0.043 Cl
ENDBRANCH   5   7
BRANCH   6  10
HETATM   10  C8  UNL     1     -33.464  17.342  -2.175  1.00 20.00     0.226 C 
HETATM   11  F10 UNL     1     -34.064  16.921  -1.037  1.00 20.00    -0.255 F 
ENDBRANCH   6  10
TORSDOF 2
ENDMDL
MODEL 9
REMARK VINA RESULT:      -4.4     11.586     12.038
REMARK  2 active torsions:
REMARK  status: ('A' for Active; 'I' for Inactive)
REMARK    1  A    between atoms: C1_1  and  C6_6 
REMARK    2  A    between atoms: C7_7  and  C8_8 
ROOT
HETATM    1  C2  UNL     1     -32.241  18.121  -0.767  1.00 20.00     0.014 C 
HETATM    2  C3  UNL     1     -34.042  18.251   0.997  1.00 20.00     0.014 C 
HETATM    3  C4  UNL     1     -33.297  17.810  -1.826  1.00 20.00     0.008 C 
HETATM    4  C5  UNL     1     -35.102  17.939  -0.059  1.00 20.00     0.008 C 
HETATM    5  C6  UNL     1     -32.831  18.938   0.377  1.00 20.00     0.072 C 
HETATM    6  C7  UNL     1     -34.523  17.114  -1.216  1.00 20.00     0.014 C 
ENDROOT
BRANCH   5   7
HETATM    7  C1  UNL     1     -31.768  19.056   1.453  1.00 20.00     0.223 C 
HETATM    8  O9  UNL     1     -30.574  19.109   1.177  1.00 20.00    -0.279 OA
HETATM    9 CL11 UNL     1     -32.456  19.105   3.048  1.00 20.00    -0.043 Cl
ENDBRANCH   5   7
BRANCH   6  10
HETATM   10  C8  UNL     1     -35.586  16.861  -2.283  1.00 20.00     0.226 C 
HETATM   11  F10 UNL     1     -35.232  15.751  -2.974  1.00 20.00    -0.255 F 
ENDBRANCH   6  10
TORSDOF 2
ENDMDL
