MODEL 1
REMARK VINA RESULT:      -4.9      0.000      0.000
REMARK  1 active torsions:
REMARK  status: ('A' for Active; 'I' for Inactive)
REMARK    1  A    between atoms: C2_2  and  C3_3 
ROOT
HETATM    1  C1  UNL     1     -35.624  16.115  -5.424  1.00 20.00    -0.011 C 
HETATM    2  C2  UNL     1     -35.549  14.912  -4.835  1.00 20.00    -0.019 C 
HETATM    3  C4  UNL     1     -33.215  16.445  -5.238  1.00 20.00     0.010 C 
HETATM    4  C5  UNL     1     -33.139  15.043  -4.562  1.00 20.00     0.011 C 
HETATM    5  C6  UNL     1     -34.581  16.984  -4.743  1.00 20.00     0.017 C 
HETATM    6  C7  UNL     1     -34.473  14.974  -3.775  1.00 20.00     0.030 C 
HETATM    7  C8  UNL     1     -34.664  16.437  -3.290  1.00 20.00    -0.033 C 
HETATM    8  C9  UNL     1     -36.013  16.707  -2.581  1.00 20.00     0.016 C 
HETATM    9  C10 UNL     1     -33.567  16.954  -2.340  1.00 20.00     0.016 C 
ENDROOT
BRANCH   2  10
HETATM   10  C3  UNL     1     -36.352  13.754  -5.167  1.00 20.00     0.265 C 
HETATM   11  O11 UNL     1     -35.887  12.616  -5.272  1.00 20.00    -0.302 OA
ENDBRANCH   2  10
TORSDOF 1
ENDMDL
MODEL 2
REMARK VINA RESULT:      -4.7      0.820      2.440
REMARK  1 active torsions:
REMARK  status: ('A' for Active; 'I' for Inactive)
REMARK    1  A    between atoms: C2_2  and  C3_3 
ROOT
HETATM    1  C1  UNL     1     -34.150  14.514  -3.965  1.00 20.00    -0.011 C 
HETATM    2  C2  UNL     1     -35.318  14.742  -4.584  1.00 20.00    -0.019 C 
HETATM    3  C4  UNL     1     -34.457  16.439  -2.501  1.00 20.00     0.010 C 
HETATM    4  C5  UNL     1     -35.816  16.690  -3.220  1.00 20.00     0.011 C 
HETATM    5  C6  UNL     1     -33.570  15.880  -3.642  1.00 20.00     0.017 C 
HETATM    6  C7  UNL     1     -35.518  16.238  -4.673  1.00 20.00     0.030 C 
HETATM    7  C8  UNL     1     -34.046  16.689  -4.881  1.00 20.00    -0.033 C 
HETATM    8  C9  UNL     1     -33.420  16.236  -6.221  1.00 20.00     0.016 C 
HETATM    9  C10 UNL     1     -33.815  18.210  -4.789  1.00 20.00     0.016 C 
ENDROOT
BRANCH   2  10
HETATM   10  C3  UNL     1     -36.233  13.730  -5.068  1.00 20.00     0.265 C 
HETATM   11  O11 UNL     1     -35.883  12.581  -5.353  1.00 20.00    -0.302 OA
ENDBRANCH   2  10
TORSDOF 1
ENDMDL
MODEL 3
REMARK VINA RESULT:      -4.3      2.446      3.716
REMARK  1 active torsions:
REMARK  status: ('A' for Active; 'I' for Inactive)
REMARK    1  A    between atoms: C2_2  and  C3_3 
ROOT
HETATM    1  C1  UNL     1     -35.183  16.152  -2.727  1.00 20.00    -0.011 C 
HETATM    2  C2  UNL     1     -33.968  16.701  -2.875  1.00 20.00    -0.019 C 
HETATM    3  C4  UNL     1     -34.584  14.251  -4.131  1.00 20.00     0.010 C 
HETATM    4  C5  UNL     1     -33.173  14.893  -4.289  1.00 20.00     0.011 C 
HETATM    5  C6  UNL     1     -35.511  15.490  -4.054  1.00 20.00     0.017 C 
HETATM    6  C7  UNL     1     -33.490  16.411  -4.280  1.00 20.00     0.030 C 
HETATM    7  C8  UNL     1     -34.842  16.487  -5.041  1.00 20.00    -0.033 C 
HETATM    8  C9  UNL     1     -35.486  17.894  -5.064  1.00 20.00     0.016 C 
HETATM    9  C10 UNL     1     -34.789  16.012  -6.505  1.00 20.00     0.016 C 
ENDROOT
BRANCH   2  10
HETATM   10  C3  UNL     1     -33.239  17.432  -1.861  1.00 20.00     0.265 C 
HETATM   11  O11 UNL     1     -32.637  18.486  -2.087  1.00 20.00    -0.302 OA
ENDBRANCH   2  10
TORSDOF 1
ENDMDL
MODEL 4
REMARK VINA RESULT:      -4.3      1.512      2.123
REMARK  1 active torsions:
REMARK  status: ('A' for Active; 'I' for Inactive)
REMARK    1  A    between atoms: C2_2  and  C3_3 
ROOT
HETATM    1  C1  UNL     1     -35.984  16.292  -5.586  1.00 20.00    -0.011 C 
HETATM    2  C2  UNL     1     -36.514  15.188  -5.036  1.00 20.00    -0.019 C 
HETATM    3  C4  UNL     1     -34.372  14.980  -6.861  1.00 20.00     0.010 C 
HETATM    4  C5  UNL     1     -35.000  13.705  -6.223  1.00 20.00     0.011 C 
HETATM    5  C6  UNL     1     -34.496  16.022  -5.721  1.00 20.00     0.017 C 
HETATM    6  C7  UNL     1     -35.397  14.196  -4.807  1.00 20.00     0.030 C 
HETATM    7  C8  UNL     1     -34.245  15.172  -4.444  1.00 20.00    -0.033 C 
HETATM    8  C9  UNL     1     -34.449  15.938  -3.115  1.00 20.00     0.016 C 
HETATM    9  C10 UNL     1     -32.849  14.526  -4.359  1.00 20.00     0.016 C 
ENDROOT
BRANCH   2  10
HETATM   10  C3  UNL     1     -37.913  14.982  -4.730  1.00 20.00     0.265 C 
HETATM   11  O11 UNL     1     -38.518  13.939  -4.996  1.00 20.00    -0.302 OA
ENDBRANCH   2  10
TORSDOF 1
ENDMDL
MODEL 5
REMARK VINA RESULT:      -4.2      2.472      3.980
REMARK  1 active torsions:
REMARK  status: ('A' for Active; 'I' for Inactive)
REMARK    1  A    between atoms: C2_2  and  C3_3 
ROOT
HETATM    1  C1  UNL     1     -33.648  17.418  -4.228  1.00 20.00    -0.011 C 
HETATM    2  C2  UNL     1     -33.787  17.026  -2.952  1.00 20.00    -0.019 C 
HETATM    3  C4  UNL     1     -36.001  16.989  -4.701  1.00 20.00     0.010 C 
HETATM    4  C5  UNL     1     -36.154  16.545  -3.215  1.00 20.00     0.011 C 
HETATM    5  C6  UNL     1     -34.564  16.524  -5.046  1.00 20.00     0.017 C 
HETATM    6  C7  UNL     1     -34.781  15.888  -2.916  1.00 20.00     0.030 C 
HETATM    7  C8  UNL     1     -34.432  15.190  -4.259  1.00 20.00    -0.033 C 
HETATM    8  C9  UNL     1     -33.021  14.556  -4.304  1.00 20.00     0.016 C 
HETATM    9  C10 UNL     1     -35.415  14.084  -4.689  1.00 20.00     0.016 C 
ENDROOT
BRANCH   2  10
HETATM   10  C3  UNL     1     -33.112  17.604  -1.810  1.00 20.00     0.265 C 
HETATM   11  O11 UNL     1     -32.447  18.642  -1.870  1.00 20.00    -0.302 OA
ENDBRANCH   2  10
TORSDOF 1
ENDMDL
MODEL 6
REMARK VINA RESULT:      -4.1     10.799     11.827
REMARK  1 active torsions:
REMARK  status: ('A' for Active; 'I' for Inactive)
REMARK    1  A    between atoms: C2_2  and  C3_3 
ROOT
HETATM    1  C1  UNL     1     -31.925   7.061   2.976  1.00 20.00    -0.011 C 
HETATM    2  C2  UNL     1     -32.918   7.873   2.583  1.00 20.00    -0.019 C 
HETATM    3  C4  UNL     1     -33.275   5.074   2.557  1.00 20.00     0.010 C 
HETATM    4  C5  UNL     1     -34.418   6.026   2.094  1.00 20.00     0.011 C 
HETATM    5  C6  UNL     1     -32.590   5.892   3.681  1.00 20.00     0.017 C 
HETATM    6  C7  UNL     1     -34.228   7.257   3.018  1.00 20.00     0.030 C 
HETATM    7  C8  UNL     1     -33.786   6.616   4.362  1.00 20.00    -0.033 C 
HETATM    8  C9  UNL     1     -33.380   7.633   5.454  1.00 20.00     0.016 C 
HETATM    9  C10 UNL     1     -34.826   5.681   5.008  1.00 20.00     0.016 C 
ENDROOT
BRANCH   2  10
HETATM   10  C3  UNL     1     -32.761   9.115   1.857  1.00 20.00     0.265 C 
HETATM   11  O11 UNL     1     -32.039   9.231   0.862  1.00 20.00    -0.302 OA
ENDBRANCH   2  10
TORSDOF 1
ENDMDL
MODEL 7
REMARK VINA RESULT:      -4.1      1.445      2.299
REMARK  1 active torsions:
REMARK  status: ('A' for Active; 'I' for Inactive)
REMARK    1  A    between atoms: C2_2  and  C3_3 
ROOT
HETATM    1  C1  UNL     1     -33.507  15.489  -6.444  1.00 20.00    -0.011 C 
HETATM    2  C2  UNL     1     -34.471  14.560  -6.359  1.00 20.00    -0.019 C 
HETATM    3  C4  UNL     1     -33.405  15.721  -4.019  1.00 20.00     0.010 C 
HETATM    4  C5  UNL     1     -34.518  14.635  -3.931  1.00 20.00     0.011 C 
HETATM    5  C6  UNL     1     -33.773  16.476  -5.321  1.00 20.00     0.017 C 
HETATM    6  C7  UNL     1     -35.368  14.920  -5.196  1.00 20.00     0.030 C 
HETATM    7  C8  UNL     1     -35.327  16.469  -5.300  1.00 20.00    -0.033 C 
HETATM    8  C9  UNL     1     -35.987  17.044  -6.575  1.00 20.00     0.016 C 
HETATM    9  C10 UNL     1     -35.963  17.215  -4.111  1.00 20.00     0.016 C 
ENDROOT
BRANCH   2  10
HETATM   10  C3  UNL     1     -34.617  13.407  -7.222  1.00 20.00     0.265 C 
HETATM   11  O11 UNL     1     -35.067  12.325  -6.836  1.00 20.00    -0.302 OA
ENDBRANCH   2  10
TORSDOF 1
ENDMDL
MODEL 8
REMARK VINA RESULT:      -4.0      1.876      3.344
REMARK  1 active torsions:
REMARK  status: ('A' for Active; 'I' for Inactive)
REMARK    1  A    between atoms: C2_2  and  C3_3 
ROOT
HETATM    1  C1  UNL     1     -34.571  15.256  -3.606  1.00 20.00    -0.011 C 
HETATM    2  C2  UNL     1     -35.466  16.027  -4.242  1.00 20.00    -0.019 C 
HETATM    3  C4  UNL     1     -32.902  15.616  -5.347  1.00 20.00     0.010 C 
HETATM    4  C5  UNL     1     -33.946  16.517  -6.073  1.00 20.00     0.011 C 
HETATM    5  C6  UNL     1     -33.792  14.531  -4.690  1.00 20.00     0.017 C 
HETATM    6  C7  UNL     1     -35.289  15.822  -5.729  1.00 20.00     0.030 C 
HETATM    7  C8  UNL     1     -34.913  14.315  -5.745  1.00 20.00    -0.033 C 
HETATM    8  C9  UNL     1     -36.047  13.366  -5.289  1.00 20.00     0.016 C 
HETATM    9  C10 UNL     1     -34.427  13.783  -7.107  1.00 20.00     0.016 C 
ENDROOT
BRANCH   2  10
HETATM   10  C3  UNL     1     -36.423  16.911  -3.612  1.00 20.00     0.265 C 
HETATM   11  O11 UNL     1     -37.619  16.939  -3.914  1.00 20.00    -0.302 OA
ENDBRANCH   2  10
TORSDOF 1
ENDMDL
MODEL 9
REMARK VINA RESULT:      -3.9      2.559      3.763
REMARK  1 active torsions:
REMARK  status: ('A' for Active; 'I' for Inactive)
REMARK    1  A    between atoms: C2_2  and  C3_3 
ROOT
HETATM    1  C1  UNL     1     -33.655  16.506  -3.028  1.00 20.00    -0.011 C 
HETATM    2  C2  UNL     1     -33.694  17.394  -4.034  1.00 20.00    -0.019 C 
HETATM    3  C4  UNL     1     -33.121  14.680  -4.553  1.00 20.00     0.010 C 
HETATM    4  C5  UNL     1     -33.160  15.721  -5.712  1.00 20.00     0.011 C 
HETATM    5  C6  UNL     1     -34.212  15.209  -3.589  1.00 20.00     0.017 C 
HETATM    6  C7  UNL     1     -34.268  16.701  -5.249  1.00 20.00     0.030 C 
HETATM    7  C8  UNL     1     -35.294  15.763  -4.558  1.00 20.00    -0.033 C 
HETATM    8  C9  UNL     1     -36.465  16.495  -3.860  1.00 20.00     0.016 C 
HETATM    9  C10 UNL     1     -35.935  14.710  -5.483  1.00 20.00     0.016 C 
ENDROOT
BRANCH   2  10
HETATM   10  C3  UNL     1     -33.250  18.770  -3.968  1.00 20.00     0.265 C 
HETATM   11  O11 UNL     1     -32.720  19.263  -2.968  1.00 20.00    -0.302 OA
ENDBRANCH   2  10
TORSDOF 1
ENDMDL
