MODEL 1
REMARK VINA RESULT:      -4.4      0.000      0.000
REMARK  1 active torsions:
REMARK  status: ('A' for Active; 'I' for Inactive)
REMARK    1  A    between atoms: C2_2  and  C6_6 
ROOT
HETATM    1  C1  UNL     1     -33.525   5.805   3.277  1.00 20.00     0.139 C 
HETATM    2  C3  UNL     1     -34.611   5.020   3.983  1.00 20.00     0.089 C 
HETATM    3  C4  UNL     1     -34.414   5.014   5.489  1.00 20.00     0.081 C 
HETATM    4  C5  UNL     1     -33.104   7.408   5.165  1.00 20.00     0.093 C 
HETATM    5  C6  UNL     1     -33.381   7.268   3.670  1.00 20.00     0.133 C 
HETATM    6  O8  UNL     1     -32.848   5.292   2.386  1.00 20.00    -0.297 OA
HETATM    7  S10 UNL     1     -34.445   6.699   6.169  1.00 20.00    -0.168 SA
ENDROOT
BRANCH   5   8
HETATM    8  C2  UNL     1     -32.290   7.963   2.914  1.00 20.00     0.135 C 
HETATM    9  C7  UNL     1     -32.658   8.545   1.576  1.00 20.00     0.091 C 
HETATM   10  O9  UNL     1     -31.149   8.055   3.366  1.00 20.00    -0.298 OA
ENDBRANCH   5   8
TORSDOF 1
ENDMDL
MODEL 2
REMARK VINA RESULT:      -4.2     11.832     12.715
REMARK  1 active torsions:
REMARK  status: ('A' for Active; 'I' for Inactive)
REMARK    1  A    between atoms: C2_2  and  C6_6 
ROOT
HETATM    1  C1  UNL     1     -33.941  14.865  -4.247  1.00 20.00     0.139 C 
HETATM    2  C3  UNL     1     -33.647  16.101  -3.422  1.00 20.00     0.089 C 
HETATM    3  C4  UNL     1     -33.610  17.354  -4.279  1.00 20.00     0.081 C 
HETATM    4  C5  UNL     1     -35.320  16.043  -5.985  1.00 20.00     0.093 C 
HETATM    5  C6  UNL     1     -35.252  14.862  -5.020  1.00 20.00     0.133 C 
HETATM    6  O8  UNL     1     -33.185  13.894  -4.228  1.00 20.00    -0.297 OA
HETATM    7  S10 UNL     1     -35.200  17.635  -5.113  1.00 20.00    -0.168 SA
ENDROOT
BRANCH   5   8
HETATM    8  C2  UNL     1     -35.459  13.597  -5.797  1.00 20.00     0.135 C 
HETATM    9  C7  UNL     1     -35.008  13.603  -7.233  1.00 20.00     0.091 C 
HETATM   10  O9  UNL     1     -35.970  12.602  -5.286  1.00 20.00    -0.298 OA
ENDBRANCH   5   8
TORSDOF 1
ENDMDL
MODEL 3
REMARK VINA RESULT:      -4.1     11.452     12.738
REMARK  1 active torsions:
REMARK  status: ('A' for Active; 'I' for Inactive)
REMARK    1  A    between atoms: C2_2  and  C6_6 
ROOT
HETATM    1  C1  UNL     1     -35.260  13.936  -4.774  1.00 20.00     0.139 C 
HETATM    2  C3  UNL     1     -33.910  14.187  -4.136  1.00 20.00     0.089 C 
HETATM    3  C4  UNL     1     -33.175  15.335  -4.806  1.00 20.00     0.081 C 
HETATM    4  C5  UNL     1     -35.652  16.314  -5.482  1.00 20.00     0.093 C 
HETATM    5  C6  UNL     1     -36.240  15.100  -4.768  1.00 20.00     0.133 C 
HETATM    6  O8  UNL     1     -35.560  12.824  -5.208  1.00 20.00    -0.297 OA
HETATM    7  S10 UNL     1     -34.117  16.885  -4.690  1.00 20.00    -0.168 SA
ENDROOT
BRANCH   5   8
HETATM    8  C2  UNL     1     -37.549  14.754  -5.411  1.00 20.00     0.135 C 
HETATM    9  C7  UNL     1     -37.751  15.223  -6.827  1.00 20.00     0.091 C 
HETATM   10  O9  UNL     1     -38.414  14.116  -4.813  1.00 20.00    -0.298 OA
ENDBRANCH   5   8
TORSDOF 1
ENDMDL
MODEL 4
REMARK VINA RESULT:      -4.1     11.539     12.370
REMARK  1 active torsions:
REMARK  status: ('A' for Active; 'I' for Inactive)
REMARK    1  A    between atoms: C2_2  and  C6_6 
ROOT
HETATM    1  C1  UNL     1     -36.836  15.451  -4.175  1.00 20.00     0.139 C 
HETATM    2  C3  UNL     1     -36.677  16.722  -3.365  1.00 20.00     0.089 C 
HETATM    3  C4  UNL     1     -35.547  16.609  -2.357  1.00 20.00     0.081 C 
HETATM    4  C5  UNL     1     -34.419  14.779  -4.069  1.00 20.00     0.093 C 
HETATM    5  C6  UNL     1     -35.625  15.003  -4.978  1.00 20.00     0.133 C 
HETATM    6  O8  UNL     1     -37.916  14.862  -4.226  1.00 20.00    -0.297 OA
HETATM    7  S10 UNL     1     -33.956  16.295  -3.177  1.00 20.00    -0.168 SA
ENDROOT
BRANCH   5   8
HETATM    8  C2  UNL     1     -35.880  13.745  -5.752  1.00 20.00     0.135 C 
HETATM    9  C7  UNL     1     -36.161  13.900  -7.222  1.00 20.00     0.091 C 
HETATM   10  O9  UNL     1     -35.859  12.639  -5.212  1.00 20.00    -0.298 OA
ENDBRANCH   5   8
TORSDOF 1
ENDMDL
MODEL 5
REMARK VINA RESULT:      -4.0     11.903     12.967
REMARK  1 active torsions:
REMARK  status: ('A' for Active; 'I' for Inactive)
REMARK    1  A    between atoms: C2_2  and  C6_6 
ROOT
HETATM    1  C1  UNL     1     -35.362  13.664  -6.138  1.00 20.00     0.139 C 
HETATM    2  C3  UNL     1     -35.959  13.679  -7.530  1.00 20.00     0.089 C 
HETATM    3  C4  UNL     1     -36.449  15.063  -7.918  1.00 20.00     0.081 C 
HETATM    4  C5  UNL     1     -34.558  16.044  -6.182  1.00 20.00     0.093 C 
HETATM    5  C6  UNL     1     -34.181  14.592  -5.897  1.00 20.00     0.133 C 
HETATM    6  O8  UNL     1     -35.777  12.887  -5.278  1.00 20.00    -0.297 OA
HETATM    7  S10 UNL     1     -35.095  16.275  -7.904  1.00 20.00    -0.168 SA
ENDROOT
BRANCH   5   8
HETATM    8  C2  UNL     1     -33.654  14.501  -4.496  1.00 20.00     0.135 C 
HETATM    9  C7  UNL     1     -34.179  15.508  -3.509  1.00 20.00     0.091 C 
HETATM   10  O9  UNL     1     -32.834  13.644  -4.170  1.00 20.00    -0.298 OA
ENDBRANCH   5   8
TORSDOF 1
ENDMDL
MODEL 6
REMARK VINA RESULT:      -4.0     11.711     12.669
REMARK  1 active torsions:
REMARK  status: ('A' for Active; 'I' for Inactive)
REMARK    1  A    between atoms: C2_2  and  C6_6 
ROOT
HETATM    1  C1  UNL     1     -34.217  15.249  -5.665  1.00 20.00     0.139 C 
HETATM    2  C3  UNL     1     -33.074  16.159  -5.263  1.00 20.00     0.089 C 
HETATM    3  C4  UNL     1     -33.555  17.326  -4.418  1.00 20.00     0.081 C 
HETATM    4  C5  UNL     1     -35.624  15.697  -3.634  1.00 20.00     0.093 C 
HETATM    5  C6  UNL     1     -35.016  14.623  -4.532  1.00 20.00     0.133 C 
HETATM    6  O8  UNL     1     -34.431  14.985  -6.849  1.00 20.00    -0.297 OA
HETATM    7  S10 UNL     1     -34.347  16.754  -2.886  1.00 20.00    -0.168 SA
ENDROOT
BRANCH   5   8
HETATM    8  C2  UNL     1     -36.116  13.734  -5.027  1.00 20.00     0.135 C 
HETATM    9  C7  UNL     1     -37.484  14.350  -5.142  1.00 20.00     0.091 C 
HETATM   10  O9  UNL     1     -35.911  12.558  -5.327  1.00 20.00    -0.298 OA
ENDBRANCH   5   8
TORSDOF 1
ENDMDL
MODEL 7
REMARK VINA RESULT:      -3.9     11.847     12.481
REMARK  1 active torsions:
REMARK  status: ('A' for Active; 'I' for Inactive)
REMARK    1  A    between atoms: C2_2  and  C6_6 
ROOT
HETATM    1  C1  UNL     1     -34.270  15.228  -4.198  1.00 20.00     0.139 C 
HETATM    2  C3  UNL     1     -33.907  16.216  -3.108  1.00 20.00     0.089 C 
HETATM    3  C4  UNL     1     -34.670  17.521  -3.255  1.00 20.00     0.081 C 
HETATM    4  C5  UNL     1     -36.621  16.052  -4.514  1.00 20.00     0.093 C 
HETATM    5  C6  UNL     1     -35.735  14.829  -4.291  1.00 20.00     0.133 C 
HETATM    6  O8  UNL     1     -33.403  14.730  -4.917  1.00 20.00    -0.297 OA
HETATM    7  S10 UNL     1     -36.465  17.255  -3.159  1.00 20.00    -0.168 SA
ENDROOT
BRANCH   5   8
HETATM    8  C2  UNL     1     -35.994  13.843  -5.390  1.00 20.00     0.135 C 
HETATM    9  C7  UNL     1     -36.418  14.407  -6.719  1.00 20.00     0.091 C 
HETATM   10  O9  UNL     1     -35.865  12.632  -5.214  1.00 20.00    -0.298 OA
ENDBRANCH   5   8
TORSDOF 1
ENDMDL
MODEL 8
REMARK VINA RESULT:      -3.7     11.819     12.956
REMARK  1 active torsions:
REMARK  status: ('A' for Active; 'I' for Inactive)
REMARK    1  A    between atoms: C2_2  and  C6_6 
ROOT
HETATM    1  C1  UNL     1     -34.971  14.529  -4.712  1.00 20.00     0.139 C 
HETATM    2  C3  UNL     1     -34.907  15.406  -3.479  1.00 20.00     0.089 C 
HETATM    3  C4  UNL     1     -33.652  16.261  -3.460  1.00 20.00     0.081 C 
HETATM    4  C5  UNL     1     -33.692  16.094  -6.203  1.00 20.00     0.093 C 
HETATM    5  C6  UNL     1     -34.951  15.243  -6.054  1.00 20.00     0.133 C 
HETATM    6  O8  UNL     1     -35.101  13.308  -4.616  1.00 20.00    -0.297 OA
HETATM    7  S10 UNL     1     -33.578  17.362  -4.904  1.00 20.00    -0.168 SA
ENDROOT
BRANCH   5   8
HETATM    8  C2  UNL     1     -35.027  14.295  -7.213  1.00 20.00     0.135 C 
HETATM    9  C7  UNL     1     -36.389  14.065  -7.810  1.00 20.00     0.091 C 
HETATM   10  O9  UNL     1     -34.025  13.735  -7.655  1.00 20.00    -0.298 OA
ENDBRANCH   5   8
TORSDOF 1
ENDMDL
MODEL 9
REMARK VINA RESULT:      -3.7     11.898     13.560
REMARK  1 active torsions:
REMARK  status: ('A' for Active; 'I' for Inactive)
REMARK    1  A    between atoms: C2_2  and  C6_6 
ROOT
HETATM    1  C1  UNL     1     -37.789  14.779  -5.697  1.00 20.00     0.139 C 
HETATM    2  C3  UNL     1     -38.696  15.775  -6.391  1.00 20.00     0.089 C 
HETATM    3  C4  UNL     1     -38.216  17.203  -6.199  1.00 20.00     0.081 C 
HETATM    4  C5  UNL     1     -35.695  16.148  -5.921  1.00 20.00     0.093 C 
HETATM    5  C6  UNL     1     -36.331  14.776  -6.130  1.00 20.00     0.133 C 
HETATM    6  O8  UNL     1     -38.237  13.976  -4.879  1.00 20.00    -0.297 OA
HETATM    7  S10 UNL     1     -36.547  17.439  -6.877  1.00 20.00    -0.168 SA
ENDROOT
BRANCH   5   8
HETATM    8  C2  UNL     1     -35.515  13.754  -5.396  1.00 20.00     0.135 C 
HETATM    9  C7  UNL     1     -34.715  14.244  -4.220  1.00 20.00     0.091 C 
HETATM   10  O9  UNL     1     -35.503  12.572  -5.738  1.00 20.00    -0.298 OA
ENDBRANCH   5   8
TORSDOF 1
ENDMDL
