MODEL 1
REMARK VINA RESULT:      -5.4      0.000      0.000
REMARK  2 active torsions:
REMARK  status: ('A' for Active; 'I' for Inactive)
REMARK    1  A    between atoms: C1_1  and  C7_7 
REMARK    2  A    between atoms: C1_1  and  C9_9 
ROOT
HETATM    1  C2  UNL     1     -34.275   4.851   5.535  1.00 20.00     0.000 C 
HETATM    2  C3  UNL     1     -34.443   6.310   5.945  1.00 20.00     0.001 C 
HETATM    3  C4  UNL     1     -34.310   4.690   4.018  1.00 20.00     0.001 C 
HETATM    4  C5  UNL     1     -33.403   7.209   5.276  1.00 20.00     0.017 C 
HETATM    5  C6  UNL     1     -33.269   5.573   3.330  1.00 20.00     0.017 C 
HETATM    6  C7  UNL     1     -33.362   7.042   3.755  1.00 20.00     0.018 C 
HETATM    7  C8  UNL     1     -34.607   7.674   3.137  1.00 20.00     0.023 C 
ENDROOT
BRANCH   6   8
HETATM    8  C1  UNL     1     -32.229   7.864   3.141  1.00 20.00     0.148 C 
HETATM    9  O10 UNL     1     -31.287   8.248   3.833  1.00 20.00    -0.296 OA
BRANCH   8  10
HETATM   10  C9  UNL     1     -32.357   8.160   1.665  1.00 20.00     0.193 C 
HETATM   11 CL11 UNL     1     -32.406   9.904   1.377  1.00 20.00    -0.123 Cl
ENDBRANCH   8  10
ENDBRANCH   6   8
TORSDOF 2
ENDMDL
MODEL 2
REMARK VINA RESULT:      -4.4     11.620     12.305
REMARK  2 active torsions:
REMARK  status: ('A' for Active; 'I' for Inactive)
REMARK    1  A    between atoms: C1_1  and  C7_7 
REMARK    2  A    between atoms: C1_1  and  C9_9 
ROOT
HETATM    1  C2  UNL     1     -34.884  16.633  -2.075  1.00 20.00     0.000 C 
HETATM    2  C3  UNL     1     -33.696  16.410  -3.005  1.00 20.00     0.001 C 
HETATM    3  C4  UNL     1     -36.179  16.816  -2.859  1.00 20.00     0.001 C 
HETATM    4  C5  UNL     1     -33.932  15.235  -3.953  1.00 20.00     0.017 C 
HETATM    5  C6  UNL     1     -36.440  15.645  -3.805  1.00 20.00     0.017 C 
HETATM    6  C7  UNL     1     -35.251  15.346  -4.723  1.00 20.00     0.018 C 
HETATM    7  C8  UNL     1     -35.135  16.442  -5.781  1.00 20.00     0.023 C 
ENDROOT
BRANCH   6   8
HETATM    8  C1  UNL     1     -35.505  14.095  -5.563  1.00 20.00     0.148 C 
HETATM    9  O10 UNL     1     -35.573  12.987  -5.032  1.00 20.00    -0.296 OA
BRANCH   8  10
HETATM   10  C9  UNL     1     -35.659  14.322  -7.049  1.00 20.00     0.193 C 
HETATM   11 CL11 UNL     1     -34.199  13.822  -7.914  1.00 20.00    -0.123 Cl
ENDBRANCH   8  10
ENDBRANCH   6   8
TORSDOF 2
ENDMDL
MODEL 3
REMARK VINA RESULT:      -4.2      1.578      2.576
REMARK  2 active torsions:
REMARK  status: ('A' for Active; 'I' for Inactive)
REMARK    1  A    between atoms: C1_1  and  C7_7 
REMARK    2  A    between atoms: C1_1  and  C9_9 
ROOT
HETATM    1  C2  UNL     1     -34.250   5.613   3.991  1.00 20.00     0.000 C 
HETATM    2  C3  UNL     1     -33.160   5.352   2.958  1.00 20.00     0.001 C 
HETATM    3  C4  UNL     1     -33.980   6.892   4.777  1.00 20.00     0.001 C 
HETATM    4  C5  UNL     1     -32.975   6.542   2.016  1.00 20.00     0.017 C 
HETATM    5  C6  UNL     1     -33.804   8.098   3.854  1.00 20.00     0.017 C 
HETATM    6  C7  UNL     1     -32.756   7.862   2.762  1.00 20.00     0.018 C 
HETATM    7  C8  UNL     1     -31.360   7.873   3.382  1.00 20.00     0.023 C 
ENDROOT
BRANCH   6   8
HETATM    8  C1  UNL     1     -32.700   9.041   1.789  1.00 20.00     0.148 C 
HETATM    9  O10 UNL     1     -33.321  10.076   2.024  1.00 20.00    -0.296 OA
BRANCH   8  10
HETATM   10  C9  UNL     1     -31.850   8.835   0.558  1.00 20.00     0.193 C 
HETATM   11 CL11 UNL     1     -32.798   9.111  -0.911  1.00 20.00    -0.123 Cl
ENDBRANCH   8  10
ENDBRANCH   6   8
TORSDOF 2
ENDMDL
MODEL 4
REMARK VINA RESULT:      -4.2      2.546      4.599
REMARK  2 active torsions:
REMARK  status: ('A' for Active; 'I' for Inactive)
REMARK    1  A    between atoms: C1_1  and  C7_7 
REMARK    2  A    between atoms: C1_1  and  C9_9 
ROOT
HETATM    1  C2  UNL     1     -32.395   9.936   0.296  1.00 20.00     0.000 C 
HETATM    2  C3  UNL     1     -32.943  10.407   1.639  1.00 20.00     0.001 C 
HETATM    3  C4  UNL     1     -31.394   8.798   0.470  1.00 20.00     0.001 C 
HETATM    4  C5  UNL     1     -33.557   9.255   2.436  1.00 20.00     0.017 C 
HETATM    5  C6  UNL     1     -31.992   7.631   1.255  1.00 20.00     0.017 C 
HETATM    6  C7  UNL     1     -32.607   8.064   2.589  1.00 20.00     0.018 C 
HETATM    7  C8  UNL     1     -31.493   8.422   3.572  1.00 20.00     0.023 C 
ENDROOT
BRANCH   6   8
HETATM    8  C1  UNL     1     -33.301   6.892   3.282  1.00 20.00     0.148 C 
HETATM    9  O10 UNL     1     -33.475   5.828   2.689  1.00 20.00    -0.296 OA
BRANCH   8  10
HETATM   10  C9  UNL     1     -33.743   7.138   4.705  1.00 20.00     0.193 C 
HETATM   11 CL11 UNL     1     -34.523   5.700   5.378  1.00 20.00    -0.123 Cl
ENDBRANCH   8  10
ENDBRANCH   6   8
TORSDOF 2
ENDMDL
MODEL 5
REMARK VINA RESULT:      -4.2     11.353     12.340
REMARK  2 active torsions:
REMARK  status: ('A' for Active; 'I' for Inactive)
REMARK    1  A    between atoms: C1_1  and  C7_7 
REMARK    2  A    between atoms: C1_1  and  C9_9 
ROOT
HETATM    1  C2  UNL     1     -35.680  13.592  -6.810  1.00 20.00     0.000 C 
HETATM    2  C3  UNL     1     -34.283  14.098  -7.157  1.00 20.00     0.001 C 
HETATM    3  C4  UNL     1     -35.835  13.365  -5.310  1.00 20.00     0.001 C 
HETATM    4  C5  UNL     1     -33.929  15.362  -6.374  1.00 20.00     0.017 C 
HETATM    5  C6  UNL     1     -35.496  14.622  -4.509  1.00 20.00     0.017 C 
HETATM    6  C7  UNL     1     -34.123  15.201  -4.863  1.00 20.00     0.018 C 
HETATM    7  C8  UNL     1     -33.027  14.298  -4.300  1.00 20.00     0.023 C 
ENDROOT
BRANCH   6   8
HETATM    8  C1  UNL     1     -33.878  16.521  -4.133  1.00 20.00     0.148 C 
HETATM    9  O10 UNL     1     -33.340  17.465  -4.709  1.00 20.00    -0.296 OA
BRANCH   8  10
HETATM   10  C9  UNL     1     -34.332  16.569  -2.693  1.00 20.00     0.193 C 
HETATM   11 CL11 UNL     1     -33.175  17.466  -1.699  1.00 20.00    -0.123 Cl
ENDBRANCH   8  10
ENDBRANCH   6   8
TORSDOF 2
ENDMDL
MODEL 6
REMARK VINA RESULT:      -4.2     11.335     12.447
REMARK  2 active torsions:
REMARK  status: ('A' for Active; 'I' for Inactive)
REMARK    1  A    between atoms: C1_1  and  C7_7 
REMARK    2  A    between atoms: C1_1  and  C9_9 
ROOT
HETATM    1  C2  UNL     1     -34.051  17.835  -3.586  1.00 20.00     0.000 C 
HETATM    2  C3  UNL     1     -34.225  16.677  -2.609  1.00 20.00     0.001 C 
HETATM    3  C4  UNL     1     -33.531  17.353  -4.937  1.00 20.00     0.001 C 
HETATM    4  C5  UNL     1     -35.125  15.583  -3.183  1.00 20.00     0.017 C 
HETATM    5  C6  UNL     1     -34.424  16.266  -5.533  1.00 20.00     0.017 C 
HETATM    6  C7  UNL     1     -34.674  15.105  -4.566  1.00 20.00     0.018 C 
HETATM    7  C8  UNL     1     -33.401  14.272  -4.430  1.00 20.00     0.023 C 
ENDROOT
BRANCH   6   8
HETATM    8  C1  UNL     1     -35.668  14.104  -5.154  1.00 20.00     0.148 C 
HETATM    9  O10 UNL     1     -35.488  12.894  -5.026  1.00 20.00    -0.296 OA
BRANCH   8  10
HETATM   10  C9  UNL     1     -36.849  14.702  -5.882  1.00 20.00     0.193 C 
HETATM   11 CL11 UNL     1     -38.313  14.599  -4.893  1.00 20.00    -0.123 Cl
ENDBRANCH   8  10
ENDBRANCH   6   8
TORSDOF 2
ENDMDL
MODEL 7
REMARK VINA RESULT:      -4.1     11.638     12.165
REMARK  2 active torsions:
REMARK  status: ('A' for Active; 'I' for Inactive)
REMARK    1  A    between atoms: C1_1  and  C7_7 
REMARK    2  A    between atoms: C1_1  and  C9_9 
ROOT
HETATM    1  C2  UNL     1     -34.907  17.046  -1.618  1.00 20.00     0.000 C 
HETATM    2  C3  UNL     1     -33.620  16.915  -2.424  1.00 20.00     0.001 C 
HETATM    3  C4  UNL     1     -36.133  17.076  -2.525  1.00 20.00     0.001 C 
HETATM    4  C5  UNL     1     -33.650  15.693  -3.343  1.00 20.00     0.017 C 
HETATM    5  C6  UNL     1     -36.188  15.856  -3.444  1.00 20.00     0.017 C 
HETATM    6  C7  UNL     1     -34.893  15.649  -4.235  1.00 20.00     0.018 C 
HETATM    7  C8  UNL     1     -34.781  16.718  -5.321  1.00 20.00     0.023 C 
ENDROOT
BRANCH   6   8
HETATM    8  C1  UNL     1     -34.944  14.354  -5.045  1.00 20.00     0.148 C 
HETATM    9  O10 UNL     1     -33.910  13.837  -5.466  1.00 20.00    -0.296 OA
BRANCH   8  10
HETATM   10  C9  UNL     1     -36.322  13.780  -5.279  1.00 20.00     0.193 C 
HETATM   11 CL11 UNL     1     -36.996  14.372  -6.805  1.00 20.00    -0.123 Cl
ENDBRANCH   8  10
ENDBRANCH   6   8
TORSDOF 2
ENDMDL
MODEL 8
REMARK VINA RESULT:      -4.1      1.586      2.593
REMARK  2 active torsions:
REMARK  status: ('A' for Active; 'I' for Inactive)
REMARK    1  A    between atoms: C1_1  and  C7_7 
REMARK    2  A    between atoms: C1_1  and  C9_9 
ROOT
HETATM    1  C2  UNL     1     -34.454   5.811   3.759  1.00 20.00     0.000 C 
HETATM    2  C3  UNL     1     -33.135   5.335   3.161  1.00 20.00     0.001 C 
HETATM    3  C4  UNL     1     -34.334   7.224   4.320  1.00 20.00     0.001 C 
HETATM    4  C5  UNL     1     -32.613   6.303   2.098  1.00 20.00     0.017 C 
HETATM    5  C6  UNL     1     -33.826   8.210   3.270  1.00 20.00     0.017 C 
HETATM    6  C7  UNL     1     -32.529   7.747   2.599  1.00 20.00     0.018 C 
HETATM    7  C8  UNL     1     -31.369   7.880   3.583  1.00 20.00     0.023 C 
ENDROOT
BRANCH   6   8
HETATM    8  C1  UNL     1     -32.123   8.697   1.472  1.00 20.00     0.148 C 
HETATM    9  O10 UNL     1     -31.069   8.530   0.861  1.00 20.00    -0.296 OA
BRANCH   8  10
HETATM   10  C9  UNL     1     -33.089   9.822   1.181  1.00 20.00     0.193 C 
HETATM   11 CL11 UNL     1     -33.508   9.861  -0.537  1.00 20.00    -0.123 Cl
ENDBRANCH   8  10
ENDBRANCH   6   8
TORSDOF 2
ENDMDL
MODEL 9
REMARK VINA RESULT:      -4.0      2.578      4.267
REMARK  2 active torsions:
REMARK  status: ('A' for Active; 'I' for Inactive)
REMARK    1  A    between atoms: C1_1  and  C7_7 
REMARK    2  A    between atoms: C1_1  and  C9_9 
ROOT
HETATM    1  C2  UNL     1     -32.002   9.355   1.668  1.00 20.00     0.000 C 
HETATM    2  C3  UNL     1     -31.096   8.538   2.585  1.00 20.00     0.001 C 
HETATM    3  C4  UNL     1     -33.230   8.557   1.243  1.00 20.00     0.001 C 
HETATM    4  C5  UNL     1     -31.853   8.009   3.803  1.00 20.00     0.017 C 
HETATM    5  C6  UNL     1     -34.008   8.028   2.448  1.00 20.00     0.017 C 
HETATM    6  C7  UNL     1     -33.127   7.247   3.428  1.00 20.00     0.018 C 
HETATM    7  C8  UNL     1     -32.755   5.898   2.816  1.00 20.00     0.023 C 
ENDROOT
BRANCH   6   8
HETATM    8  C1  UNL     1     -33.915   6.845   4.675  1.00 20.00     0.148 C 
HETATM    9  O10 UNL     1     -33.694   7.386   5.757  1.00 20.00    -0.296 OA
BRANCH   8  10
HETATM   10  C9  UNL     1     -34.950   5.763   4.476  1.00 20.00     0.193 C 
HETATM   11 CL11 UNL     1     -34.568   4.341   5.458  1.00 20.00    -0.123 Cl
ENDBRANCH   8  10
ENDBRANCH   6   8
TORSDOF 2
ENDMDL
