MODEL 1
REMARK VINA RESULT:      -4.2      0.000      0.000
REMARK  1 active torsions:
REMARK  status: ('A' for Active; 'I' for Inactive)
REMARK    1  A    between atoms: C2_2  and  C4_4 
ROOT
HETATM    1  C1  UNL     1     -33.682   7.232   5.700  1.00 20.00     0.065 C 
HETATM    2  C3  UNL     1     -33.014   6.973   4.457  1.00 20.00     0.113 A 
HETATM    3  C4  UNL     1     -33.392   7.795   3.245  1.00 20.00     0.082 A 
HETATM    4  C5  UNL     1     -33.752   6.322   3.300  1.00 20.00    -0.019 A 
HETATM    5  C7  UNL     1     -32.978   5.330   2.465  1.00 20.00     0.017 C 
HETATM    6  C8  UNL     1     -35.217   5.977   3.427  1.00 20.00     0.017 C 
HETATM    7  N9  UNL     1     -34.221   7.444   6.706  1.00 20.00    -0.197 NA
ENDROOT
BRANCH   3   8
HETATM    8  C2  UNL     1     -32.333   8.279   2.349  1.00 20.00     0.129 C 
HETATM    9  C6  UNL     1     -32.772   8.824   1.016  1.00 20.00     0.091 C 
HETATM   10  O10 UNL     1     -31.147   8.242   2.672  1.00 20.00    -0.298 OA
ENDBRANCH   3   8
TORSDOF 1
ENDMDL
MODEL 2
REMARK VINA RESULT:      -4.1     10.853     11.547
REMARK  1 active torsions:
REMARK  status: ('A' for Active; 'I' for Inactive)
REMARK    1  A    between atoms: C2_2  and  C4_4 
ROOT
HETATM    1  C1  UNL     1     -34.692  16.290  -2.828  1.00 20.00     0.065 C 
HETATM    2  C3  UNL     1     -34.974  15.731  -4.119  1.00 20.00     0.113 A 
HETATM    3  C4  UNL     1     -35.029  14.226  -4.262  1.00 20.00     0.082 A 
HETATM    4  C5  UNL     1     -33.895  15.004  -4.903  1.00 20.00    -0.019 A 
HETATM    5  C7  UNL     1     -33.879  15.209  -6.398  1.00 20.00     0.017 C 
HETATM    6  C8  UNL     1     -32.516  14.821  -4.313  1.00 20.00     0.017 C 
HETATM    7  N9  UNL     1     -34.467  16.741  -1.783  1.00 20.00    -0.197 NA
ENDROOT
BRANCH   3   8
HETATM    8  C2  UNL     1     -36.087  13.623  -5.083  1.00 20.00     0.129 C 
HETATM    9  C6  UNL     1     -37.375  14.392  -5.201  1.00 20.00     0.091 C 
HETATM   10  O10 UNL     1     -35.928  12.542  -5.649  1.00 20.00    -0.298 OA
ENDBRANCH   3   8
TORSDOF 1
ENDMDL
MODEL 3
REMARK VINA RESULT:      -4.1     11.233     12.455
REMARK  1 active torsions:
REMARK  status: ('A' for Active; 'I' for Inactive)
REMARK    1  A    between atoms: C2_2  and  C4_4 
ROOT
HETATM    1  C1  UNL     1     -34.051  17.221  -6.050  1.00 20.00     0.065 C 
HETATM    2  C3  UNL     1     -33.858  15.816  -5.832  1.00 20.00     0.113 A 
HETATM    3  C4  UNL     1     -35.013  14.999  -5.296  1.00 20.00     0.082 A 
HETATM    4  C5  UNL     1     -33.795  15.249  -4.424  1.00 20.00    -0.019 A 
HETATM    5  C7  UNL     1     -32.809  14.133  -4.179  1.00 20.00     0.017 C 
HETATM    6  C8  UNL     1     -33.980  16.154  -3.229  1.00 20.00     0.017 C 
HETATM    7  N9  UNL     1     -34.209  18.356  -6.227  1.00 20.00    -0.197 NA
ENDROOT
BRANCH   3   8
HETATM    8  C2  UNL     1     -35.274  13.669  -5.862  1.00 20.00     0.129 C 
HETATM    9  C6  UNL     1     -34.743  13.405  -7.245  1.00 20.00     0.091 C 
HETATM   10  O10 UNL     1     -35.896  12.812  -5.235  1.00 20.00    -0.298 OA
ENDBRANCH   3   8
TORSDOF 1
ENDMDL
MODEL 4
REMARK VINA RESULT:      -4.0     11.386     12.392
REMARK  1 active torsions:
REMARK  status: ('A' for Active; 'I' for Inactive)
REMARK    1  A    between atoms: C2_2  and  C4_4 
ROOT
HETATM    1  C1  UNL     1     -35.717  13.836  -4.874  1.00 20.00     0.065 C 
HETATM    2  C3  UNL     1     -35.493  15.136  -4.312  1.00 20.00     0.113 A 
HETATM    3  C4  UNL     1     -34.876  16.207  -5.185  1.00 20.00     0.082 A 
HETATM    4  C5  UNL     1     -34.085  15.627  -4.026  1.00 20.00    -0.019 A 
HETATM    5  C7  UNL     1     -33.886  16.444  -2.773  1.00 20.00     0.017 C 
HETATM    6  C8  UNL     1     -32.893  14.766  -4.370  1.00 20.00     0.017 C 
HETATM    7  N9  UNL     1     -35.900  12.784  -5.330  1.00 20.00    -0.197 NA
ENDROOT
BRANCH   3   8
HETATM    8  C2  UNL     1     -35.406  17.576  -5.125  1.00 20.00     0.129 C 
HETATM    9  C6  UNL     1     -34.524  18.668  -5.666  1.00 20.00     0.091 C 
HETATM   10  O10 UNL     1     -36.518  17.817  -4.656  1.00 20.00    -0.298 OA
ENDBRANCH   3   8
TORSDOF 1
ENDMDL
MODEL 5
REMARK VINA RESULT:      -4.0     11.579     12.413
REMARK  1 active torsions:
REMARK  status: ('A' for Active; 'I' for Inactive)
REMARK    1  A    between atoms: C2_2  and  C4_4 
ROOT
HETATM    1  C1  UNL     1     -36.022  17.472  -5.264  1.00 20.00     0.065 C 
HETATM    2  C3  UNL     1     -35.273  16.255  -5.385  1.00 20.00     0.113 A 
HETATM    3  C4  UNL     1     -35.887  14.971  -4.871  1.00 20.00     0.082 A 
HETATM    4  C5  UNL     1     -34.691  15.576  -4.158  1.00 20.00    -0.019 A 
HETATM    5  C7  UNL     1     -33.330  14.940  -4.307  1.00 20.00     0.017 C 
HETATM    6  C8  UNL     1     -34.930  16.151  -2.782  1.00 20.00     0.017 C 
HETATM    7  N9  UNL     1     -36.629  18.456  -5.167  1.00 20.00    -0.197 NA
ENDROOT
BRANCH   3   8
HETATM    8  C2  UNL     1     -35.749  13.743  -5.664  1.00 20.00     0.129 C 
HETATM    9  C6  UNL     1     -35.460  13.913  -7.132  1.00 20.00     0.091 C 
HETATM   10  O10 UNL     1     -35.862  12.629  -5.155  1.00 20.00    -0.298 OA
ENDBRANCH   3   8
TORSDOF 1
ENDMDL
MODEL 6
REMARK VINA RESULT:      -3.9     11.230     11.989
REMARK  1 active torsions:
REMARK  status: ('A' for Active; 'I' for Inactive)
REMARK    1  A    between atoms: C2_2  and  C4_4 
ROOT
HETATM    1  C1  UNL     1     -33.471  15.130  -4.080  1.00 20.00     0.065 C 
HETATM    2  C3  UNL     1     -33.649  16.475  -3.612  1.00 20.00     0.113 A 
HETATM    3  C4  UNL     1     -34.088  16.692  -2.180  1.00 20.00     0.082 A 
HETATM    4  C5  UNL     1     -35.037  17.018  -3.319  1.00 20.00    -0.019 A 
HETATM    5  C7  UNL     1     -35.300  18.458  -3.685  1.00 20.00     0.017 C 
HETATM    6  C8  UNL     1     -36.251  16.133  -3.476  1.00 20.00     0.017 C 
HETATM    7  N9  UNL     1     -33.325  14.043  -4.458  1.00 20.00    -0.197 NA
ENDROOT
BRANCH   3   8
HETATM    8  C2  UNL     1     -33.461  17.762  -1.393  1.00 20.00     0.129 C 
HETATM    9  C6  UNL     1     -34.138  18.138  -0.103  1.00 20.00     0.091 C 
HETATM   10  O10 UNL     1     -32.431  18.321  -1.768  1.00 20.00    -0.298 OA
ENDBRANCH   3   8
TORSDOF 1
ENDMDL
MODEL 7
REMARK VINA RESULT:      -3.9      2.378      3.715
REMARK  1 active torsions:
REMARK  status: ('A' for Active; 'I' for Inactive)
REMARK    1  A    between atoms: C2_2  and  C4_4 
ROOT
HETATM    1  C1  UNL     1     -32.436   8.088   2.297  1.00 20.00     0.065 C 
HETATM    2  C3  UNL     1     -33.474   7.601   3.158  1.00 20.00     0.113 A 
HETATM    3  C4  UNL     1     -33.090   6.739   4.341  1.00 20.00     0.082 A 
HETATM    4  C5  UNL     1     -33.843   6.128   3.174  1.00 20.00    -0.019 A 
HETATM    5  C7  UNL     1     -35.307   5.790   3.322  1.00 20.00     0.017 C 
HETATM    6  C8  UNL     1     -33.090   5.144   2.310  1.00 20.00     0.017 C 
HETATM    7  N9  UNL     1     -31.596   8.484   1.601  1.00 20.00    -0.197 NA
ENDROOT
BRANCH   3   8
HETATM    8  C2  UNL     1     -33.753   6.958   5.633  1.00 20.00     0.129 C 
HETATM    9  C6  UNL     1     -34.566   5.815   6.179  1.00 20.00     0.091 C 
HETATM   10  O10 UNL     1     -33.648   8.023   6.241  1.00 20.00    -0.298 OA
ENDBRANCH   3   8
TORSDOF 1
ENDMDL
MODEL 8
REMARK VINA RESULT:      -3.9     11.210     11.866
REMARK  1 active torsions:
REMARK  status: ('A' for Active; 'I' for Inactive)
REMARK    1  A    between atoms: C2_2  and  C4_4 
ROOT
HETATM    1  C1  UNL     1     -36.697  14.291  -4.719  1.00 20.00     0.065 C 
HETATM    2  C3  UNL     1     -35.435  14.717  -4.187  1.00 20.00     0.113 A 
HETATM    3  C4  UNL     1     -34.875  16.052  -4.627  1.00 20.00     0.082 A 
HETATM    4  C5  UNL     1     -34.198  14.767  -5.067  1.00 20.00    -0.019 A 
HETATM    5  C7  UNL     1     -32.891  14.355  -4.434  1.00 20.00     0.017 C 
HETATM    6  C8  UNL     1     -34.289  14.408  -6.531  1.00 20.00     0.017 C 
HETATM    7  N9  UNL     1     -37.719  13.949  -5.148  1.00 20.00    -0.197 NA
ENDROOT
BRANCH   3   8
HETATM    8  C2  UNL     1     -34.249  16.931  -3.630  1.00 20.00     0.129 C 
HETATM    9  C6  UNL     1     -34.620  16.695  -2.191  1.00 20.00     0.091 C 
HETATM   10  O10 UNL     1     -33.458  17.815  -3.956  1.00 20.00    -0.298 OA
ENDBRANCH   3   8
TORSDOF 1
ENDMDL
MODEL 9
REMARK VINA RESULT:      -3.9     11.386     12.118
REMARK  1 active torsions:
REMARK  status: ('A' for Active; 'I' for Inactive)
REMARK    1  A    between atoms: C2_2  and  C4_4 
ROOT
HETATM    1  C1  UNL     1     -37.824  14.413  -4.946  1.00 20.00     0.065 C 
HETATM    2  C3  UNL     1     -36.515  13.933  -5.284  1.00 20.00     0.113 A 
HETATM    3  C4  UNL     1     -35.390  14.934  -5.426  1.00 20.00     0.082 A 
HETATM    4  C5  UNL     1     -35.916  14.209  -6.652  1.00 20.00    -0.019 A 
HETATM    5  C7  UNL     1     -35.098  13.105  -7.276  1.00 20.00     0.017 C 
HETATM    6  C8  UNL     1     -36.675  15.032  -7.665  1.00 20.00     0.017 C 
HETATM    7  N9  UNL     1     -38.883  14.801  -4.671  1.00 20.00    -0.197 NA
ENDROOT
BRANCH   3   8
HETATM    8  C2  UNL     1     -34.069  14.613  -4.870  1.00 20.00     0.129 C 
HETATM    9  C6  UNL     1     -32.926  15.498  -5.286  1.00 20.00     0.091 C 
HETATM   10  O10 UNL     1     -33.906  13.668  -4.100  1.00 20.00    -0.298 OA
ENDBRANCH   3   8
TORSDOF 1
ENDMDL
