MODEL 1
REMARK VINA RESULT:      -5.4      0.000      0.000
REMARK  0 active torsions:
REMARK  status: ('A' for Active; 'I' for Inactive)
ROOT
HETATM    1  C1  UNL     1     -34.638  16.764  -1.917  1.00 20.00    -0.004 C 
HETATM    2  C2  UNL     1     -33.503  16.670  -2.794  1.00 20.00    -0.003 C 
HETATM    3  C3  UNL     1     -35.882  16.613  -2.385  1.00 20.00    -0.025 C 
HETATM    4  C4  UNL     1     -33.622  16.218  -4.051  1.00 20.00    -0.009 C 
HETATM    5  C5  UNL     1     -34.987  14.231  -4.601  1.00 20.00     0.140 C 
HETATM    6  C6  UNL     1     -36.160  16.338  -3.838  1.00 20.00     0.048 C 
HETATM    7  C7  UNL     1     -36.099  13.524  -5.355  1.00 20.00     0.079 C 
HETATM    8  C8  UNL     1     -36.258  14.046  -6.773  1.00 20.00     0.008 C 
HETATM    9  C9  UNL     1     -36.322  15.569  -6.821  1.00 20.00     0.006 C 
HETATM   10  C10 UNL     1     -35.089  16.221  -6.161  1.00 20.00     0.001 C 
HETATM   11  C11 UNL     1     -34.947  15.779  -4.664  1.00 20.00     0.044 C 
HETATM   12  C12 UNL     1     -33.843  15.961  -7.027  1.00 20.00     0.011 C 
HETATM   13  O13 UNL     1     -34.212  13.573  -3.903  1.00 20.00    -0.297 OA
ENDROOT
TORSDOF 0
ENDMDL
MODEL 2
REMARK VINA RESULT:      -5.4      2.053      3.378
REMARK  0 active torsions:
REMARK  status: ('A' for Active; 'I' for Inactive)
ROOT
HETATM    1  C1  UNL     1     -34.507  17.921  -0.551  1.00 20.00    -0.004 C 
HETATM    2  C2  UNL     1     -35.581  17.069  -0.984  1.00 20.00    -0.003 C 
HETATM    3  C3  UNL     1     -33.340  17.940  -1.204  1.00 20.00    -0.025 C 
HETATM    4  C4  UNL     1     -35.541  16.435  -2.165  1.00 20.00    -0.009 C 
HETATM    5  C5  UNL     1     -34.783  17.563  -4.230  1.00 20.00     0.140 C 
HETATM    6  C6  UNL     1     -33.088  17.083  -2.415  1.00 20.00     0.048 C 
HETATM    7  C7  UNL     1     -33.889  17.685  -5.452  1.00 20.00     0.079 C 
HETATM    8  C8  UNL     1     -33.524  16.331  -6.038  1.00 20.00     0.008 C 
HETATM    9  C9  UNL     1     -33.022  15.361  -4.973  1.00 20.00     0.006 C 
HETATM   10  C10 UNL     1     -34.043  15.176  -3.831  1.00 20.00     0.001 C 
HETATM   11  C11 UNL     1     -34.373  16.543  -3.139  1.00 20.00     0.044 C 
HETATM   12  C12 UNL     1     -35.272  14.412  -4.357  1.00 20.00     0.011 C 
HETATM   13  O13 UNL     1     -35.744  18.325  -4.103  1.00 20.00    -0.297 OA
ENDROOT
TORSDOF 0
ENDMDL
MODEL 3
REMARK VINA RESULT:      -5.3     10.173     11.423
REMARK  0 active torsions:
REMARK  status: ('A' for Active; 'I' for Inactive)
ROOT
HETATM    1  C1  UNL     1     -32.188   9.986   0.865  1.00 20.00    -0.004 C 
HETATM    2  C2  UNL     1     -31.509   8.723   0.760  1.00 20.00    -0.003 C 
HETATM    3  C3  UNL     1     -33.310  10.105   1.583  1.00 20.00    -0.025 C 
HETATM    4  C4  UNL     1     -31.838   7.682   1.538  1.00 20.00    -0.009 C 
HETATM    5  C5  UNL     1     -32.272   7.945   3.958  1.00 20.00     0.140 C 
HETATM    6  C6  UNL     1     -33.917   8.938   2.314  1.00 20.00     0.048 C 
HETATM    7  C7  UNL     1     -33.137   7.801   5.199  1.00 20.00     0.079 C 
HETATM    8  C8  UNL     1     -33.987   6.542   5.166  1.00 20.00     0.008 C 
HETATM    9  C9  UNL     1     -34.735   6.389   3.846  1.00 20.00     0.006 C 
HETATM   10  C10 UNL     1     -33.779   6.402   2.634  1.00 20.00     0.001 C 
HETATM   11  C11 UNL     1     -32.949   7.731   2.582  1.00 20.00     0.044 C 
HETATM   12  C12 UNL     1     -32.930   5.117   2.634  1.00 20.00     0.011 C 
HETATM   13  O13 UNL     1     -31.099   8.306   4.075  1.00 20.00    -0.297 OA
ENDROOT
TORSDOF 0
ENDMDL
MODEL 4
REMARK VINA RESULT:      -5.2      1.288      3.998
REMARK  0 active torsions:
REMARK  status: ('A' for Active; 'I' for Inactive)
ROOT
HETATM    1  C1  UNL     1     -34.074  14.036  -7.846  1.00 20.00    -0.004 C 
HETATM    2  C2  UNL     1     -35.204  13.299  -7.347  1.00 20.00    -0.003 C 
HETATM    3  C3  UNL     1     -33.834  15.286  -7.434  1.00 20.00    -0.025 C 
HETATM    4  C4  UNL     1     -35.925  13.739  -6.305  1.00 20.00    -0.009 C 
HETATM    5  C5  UNL     1     -34.858  14.671  -4.279  1.00 20.00     0.140 C 
HETATM    6  C6  UNL     1     -34.720  15.982  -6.437  1.00 20.00     0.048 C 
HETATM    7  C7  UNL     1     -34.642  15.766  -3.248  1.00 20.00     0.079 C 
HETATM    8  C8  UNL     1     -35.916  16.540  -2.953  1.00 20.00     0.008 C 
HETATM    9  C9  UNL     1     -36.620  16.993  -4.228  1.00 20.00     0.006 C 
HETATM   10  C10 UNL     1     -36.936  15.810  -5.167  1.00 20.00     0.001 C 
HETATM   11  C11 UNL     1     -35.630  15.042  -5.569  1.00 20.00     0.044 C 
HETATM   12  C12 UNL     1     -38.028  14.928  -4.535  1.00 20.00     0.011 C 
HETATM   13  O13 UNL     1     -34.347  13.562  -4.103  1.00 20.00    -0.297 OA
ENDROOT
TORSDOF 0
ENDMDL
MODEL 5
REMARK VINA RESULT:      -5.1      1.746      2.950
REMARK  0 active torsions:
REMARK  status: ('A' for Active; 'I' for Inactive)
ROOT
HETATM    1  C1  UNL     1     -34.552  17.611  -1.323  1.00 20.00    -0.004 C 
HETATM    2  C2  UNL     1     -35.832  17.095  -1.725  1.00 20.00    -0.003 C 
HETATM    3  C3  UNL     1     -33.432  17.234  -1.949  1.00 20.00    -0.025 C 
HETATM    4  C4  UNL     1     -35.983  16.399  -2.862  1.00 20.00    -0.009 C 
HETATM    5  C5  UNL     1     -34.914  17.103  -4.977  1.00 20.00     0.140 C 
HETATM    6  C6  UNL     1     -33.448  16.260  -3.096  1.00 20.00     0.048 C 
HETATM    7  C7  UNL     1     -34.022  16.867  -6.183  1.00 20.00     0.079 C 
HETATM    8  C8  UNL     1     -34.081  15.430  -6.672  1.00 20.00     0.008 C 
HETATM    9  C9  UNL     1     -33.898  14.429  -5.537  1.00 20.00     0.006 C 
HETATM   10  C10 UNL     1     -34.930  14.637  -4.409  1.00 20.00     0.001 C 
HETATM   11  C11 UNL     1     -34.834  16.084  -3.813  1.00 20.00     0.044 C 
HETATM   12  C12 UNL     1     -36.331  14.245  -4.913  1.00 20.00     0.011 C 
HETATM   13  O13 UNL     1     -35.601  18.126  -4.921  1.00 20.00    -0.297 OA
ENDROOT
TORSDOF 0
ENDMDL
MODEL 6
REMARK VINA RESULT:      -4.9      1.933      4.161
REMARK  0 active torsions:
REMARK  status: ('A' for Active; 'I' for Inactive)
ROOT
HETATM    1  C1  UNL     1     -34.081  14.603  -6.007  1.00 20.00    -0.004 C 
HETATM    2  C2  UNL     1     -33.190  15.710  -5.789  1.00 20.00    -0.003 C 
HETATM    3  C3  UNL     1     -34.976  14.248  -5.079  1.00 20.00    -0.025 C 
HETATM    4  C4  UNL     1     -33.360  16.556  -4.762  1.00 20.00    -0.009 C 
HETATM    5  C5  UNL     1     -35.588  17.433  -4.146  1.00 20.00     0.140 C 
HETATM    6  C6  UNL     1     -35.101  14.980  -3.769  1.00 20.00     0.048 C 
HETATM    7  C7  UNL     1     -36.722  17.668  -3.163  1.00 20.00     0.079 C 
HETATM    8  C8  UNL     1     -36.221  17.902  -1.749  1.00 20.00     0.008 C 
HETATM    9  C9  UNL     1     -35.210  16.845  -1.316  1.00 20.00     0.006 C 
HETATM   10  C10 UNL     1     -34.012  16.759  -2.284  1.00 20.00     0.001 C 
HETATM   11  C11 UNL     1     -34.485  16.424  -3.741  1.00 20.00     0.044 C 
HETATM   12  C12 UNL     1     -33.160  18.036  -2.166  1.00 20.00     0.011 C 
HETATM   13  O13 UNL     1     -35.622  17.975  -5.253  1.00 20.00    -0.297 OA
ENDROOT
TORSDOF 0
ENDMDL
MODEL 7
REMARK VINA RESULT:      -4.8      1.659      2.705
REMARK  0 active torsions:
REMARK  status: ('A' for Active; 'I' for Inactive)
ROOT
HETATM    1  C1  UNL     1     -38.218  15.700  -4.425  1.00 20.00    -0.004 C 
HETATM    2  C2  UNL     1     -36.989  15.705  -3.679  1.00 20.00    -0.003 C 
HETATM    3  C3  UNL     1     -38.209  15.707  -5.763  1.00 20.00    -0.025 C 
HETATM    4  C4  UNL     1     -35.805  15.498  -4.274  1.00 20.00    -0.009 C 
HETATM    5  C5  UNL     1     -35.487  13.725  -5.967  1.00 20.00     0.140 C 
HETATM    6  C6  UNL     1     -36.928  15.719  -6.552  1.00 20.00     0.048 C 
HETATM    7  C7  UNL     1     -35.083  13.231  -7.346  1.00 20.00     0.079 C 
HETATM    8  C8  UNL     1     -33.912  14.011  -7.918  1.00 20.00     0.008 C 
HETATM    9  C9  UNL     1     -34.122  15.518  -7.816  1.00 20.00     0.006 C 
HETATM   10  C10 UNL     1     -34.387  15.969  -6.364  1.00 20.00     0.001 C 
HETATM   11  C11 UNL     1     -35.648  15.253  -5.771  1.00 20.00     0.044 C 
HETATM   12  C12 UNL     1     -33.104  15.802  -5.530  1.00 20.00     0.011 C 
HETATM   13  O13 UNL     1     -35.753  12.907  -5.083  1.00 20.00    -0.297 OA
ENDROOT
TORSDOF 0
ENDMDL
MODEL 8
REMARK VINA RESULT:      -4.8      1.818      4.066
REMARK  0 active torsions:
REMARK  status: ('A' for Active; 'I' for Inactive)
ROOT
HETATM    1  C1  UNL     1     -35.836  13.636  -5.176  1.00 20.00    -0.004 C 
HETATM    2  C2  UNL     1     -34.586  13.889  -4.512  1.00 20.00    -0.003 C 
HETATM    3  C3  UNL     1     -36.911  14.391  -4.926  1.00 20.00    -0.025 C 
HETATM    4  C4  UNL     1     -34.385  15.004  -3.795  1.00 20.00    -0.009 C 
HETATM    5  C5  UNL     1     -35.111  17.225  -4.601  1.00 20.00     0.140 C 
HETATM    6  C6  UNL     1     -36.874  15.534  -3.948  1.00 20.00     0.048 C 
HETATM    7  C7  UNL     1     -35.878  18.529  -4.461  1.00 20.00     0.079 C 
HETATM    8  C8  UNL     1     -35.928  19.017  -3.023  1.00 20.00     0.008 C 
HETATM    9  C9  UNL     1     -36.357  17.916  -2.058  1.00 20.00     0.006 C 
HETATM   10  C10 UNL     1     -35.446  16.674  -2.155  1.00 20.00     0.001 C 
HETATM   11  C11 UNL     1     -35.444  16.085  -3.607  1.00 20.00     0.044 C 
HETATM   12  C12 UNL     1     -34.051  17.014  -1.599  1.00 20.00     0.011 C 
HETATM   13  O13 UNL     1     -34.321  17.084  -5.538  1.00 20.00    -0.297 OA
ENDROOT
TORSDOF 0
ENDMDL
MODEL 9
REMARK VINA RESULT:      -4.6      1.471      4.058
REMARK  0 active torsions:
REMARK  status: ('A' for Active; 'I' for Inactive)
ROOT
HETATM    1  C1  UNL     1     -36.265  14.031  -6.081  1.00 20.00    -0.004 C 
HETATM    2  C2  UNL     1     -36.086  15.369  -6.577  1.00 20.00    -0.003 C 
HETATM    3  C3  UNL     1     -35.680  13.636  -4.945  1.00 20.00    -0.025 C 
HETATM    4  C4  UNL     1     -35.519  16.326  -5.828  1.00 20.00    -0.009 C 
HETATM    5  C5  UNL     1     -36.092  16.629  -3.442  1.00 20.00     0.140 C 
HETATM    6  C6  UNL     1     -34.813  14.558  -4.131  1.00 20.00     0.048 C 
HETATM    7  C7  UNL     1     -35.733  16.727  -1.969  1.00 20.00     0.079 C 
HETATM    8  C8  UNL     1     -34.384  17.388  -1.746  1.00 20.00     0.008 C 
HETATM    9  C9  UNL     1     -33.296  16.784  -2.628  1.00 20.00     0.006 C 
HETATM   10  C10 UNL     1     -33.665  16.846  -4.125  1.00 20.00     0.001 C 
HETATM   11  C11 UNL     1     -35.008  16.091  -4.410  1.00 20.00     0.044 C 
HETATM   12  C12 UNL     1     -33.640  18.310  -4.602  1.00 20.00     0.011 C 
HETATM   13  O13 UNL     1     -37.240  16.893  -3.807  1.00 20.00    -0.297 OA
ENDROOT
TORSDOF 0
ENDMDL
