MODEL 1
REMARK VINA RESULT:      -6.7      0.000      0.000
REMARK  1 active torsions:
REMARK  status: ('A' for Active; 'I' for Inactive)
REMARK    1  A    between atoms: C5_5  and  C9_9 
ROOT
HETATM    1  C1  UNL     1     -34.014   6.935   5.605  1.00 20.00     0.049 C 
HETATM    2  C2  UNL     1     -33.588   7.677   4.575  1.00 20.00    -0.018 C 
HETATM    3  C3  UNL     1     -34.413   5.524   5.382  1.00 20.00     0.182 C 
HETATM    4  C4  UNL     1     -33.390   5.636   3.116  1.00 20.00     0.054 C 
HETATM    5  C5  UNL     1     -33.423   7.169   3.164  1.00 20.00     0.014 C 
HETATM    6  C6  UNL     1     -34.501   5.031   3.957  1.00 20.00     0.244 C 
HETATM    7  O10 UNL     1     -34.709   4.811   6.338  1.00 20.00    -0.290 OA
HETATM    8  F11 UNL     1     -34.386   3.675   3.908  1.00 20.00    -0.241 F 
ENDROOT
BRANCH   5   9
HETATM    9  C9  UNL     1     -32.156   7.740   2.525  1.00 20.00    -0.015 C 
HETATM   10  C7  UNL     1     -32.514   8.783   1.468  1.00 20.00     0.010 C 
HETATM   11  C8  UNL     1     -31.243   8.342   3.589  1.00 20.00     0.010 C 
ENDBRANCH   5   9
TORSDOF 1
ENDMDL
MODEL 2
REMARK VINA RESULT:      -5.6      0.489      1.174
REMARK  1 active torsions:
REMARK  status: ('A' for Active; 'I' for Inactive)
REMARK    1  A    between atoms: C5_5  and  C9_9 
ROOT
HETATM    1  C1  UNL     1     -34.067   6.852   5.716  1.00 20.00     0.049 C 
HETATM    2  C2  UNL     1     -33.751   7.823   4.850  1.00 20.00    -0.018 C 
HETATM    3  C3  UNL     1     -34.277   5.467   5.228  1.00 20.00     0.182 C 
HETATM    4  C4  UNL     1     -33.293   6.134   3.040  1.00 20.00     0.054 C 
HETATM    5  C5  UNL     1     -33.530   7.614   3.372  1.00 20.00     0.014 C 
HETATM    6  C6  UNL     1     -34.308   5.241   3.734  1.00 20.00     0.244 C 
HETATM    7  O10 UNL     1     -34.468   4.555   6.029  1.00 20.00    -0.290 OA
HETATM    8  F11 UNL     1     -34.014   3.946   3.436  1.00 20.00    -0.241 F 
ENDROOT
BRANCH   5   9
HETATM    9  C9  UNL     1     -32.355   8.456   2.874  1.00 20.00    -0.015 C 
HETATM   10  C7  UNL     1     -31.072   8.072   3.609  1.00 20.00     0.010 C 
HETATM   11  C8  UNL     1     -32.181   8.294   1.367  1.00 20.00     0.010 C 
ENDBRANCH   5   9
TORSDOF 1
ENDMDL
MODEL 3
REMARK VINA RESULT:      -5.3      1.721      2.523
REMARK  1 active torsions:
REMARK  status: ('A' for Active; 'I' for Inactive)
REMARK    1  A    between atoms: C5_5  and  C9_9 
ROOT
HETATM    1  C1  UNL     1     -33.871   5.920   2.830  1.00 20.00     0.049 C 
HETATM    2  C2  UNL     1     -32.892   6.648   2.280  1.00 20.00    -0.018 C 
HETATM    3  C3  UNL     1     -34.242   6.134   4.250  1.00 20.00     0.182 C 
HETATM    4  C4  UNL     1     -32.884   8.221   4.245  1.00 20.00     0.054 C 
HETATM    5  C5  UNL     1     -32.141   7.748   2.989  1.00 20.00     0.014 C 
HETATM    6  C6  UNL     1     -33.368   7.047   5.079  1.00 20.00     0.244 C 
HETATM    7  O10 UNL     1     -35.204   5.540   4.731  1.00 20.00    -0.290 OA
HETATM    8  F11 UNL     1     -34.056   7.534   6.147  1.00 20.00    -0.241 F 
ENDROOT
BRANCH   5   9
HETATM    9  C9  UNL     1     -31.893   8.930   2.051  1.00 20.00    -0.015 C 
HETATM   10  C7  UNL     1     -31.319   8.446   0.721  1.00 20.00     0.010 C 
HETATM   11  C8  UNL     1     -33.181   9.716   1.827  1.00 20.00     0.010 C 
ENDBRANCH   5   9
TORSDOF 1
ENDMDL
MODEL 4
REMARK VINA RESULT:      -5.3      2.742      4.383
REMARK  1 active torsions:
REMARK  status: ('A' for Active; 'I' for Inactive)
REMARK    1  A    between atoms: C5_5  and  C9_9 
ROOT
HETATM    1  C1  UNL     1     -32.768   6.864   2.353  1.00 20.00     0.049 C 
HETATM    2  C2  UNL     1     -33.842   6.194   2.786  1.00 20.00    -0.018 C 
HETATM    3  C3  UNL     1     -32.121   7.870   3.230  1.00 20.00     0.182 C 
HETATM    4  C4  UNL     1     -33.468   7.008   5.139  1.00 20.00     0.054 C 
HETATM    5  C5  UNL     1     -34.445   6.340   4.162  1.00 20.00     0.014 C 
HETATM    6  C6  UNL     1     -32.819   8.235   4.520  1.00 20.00     0.244 C 
HETATM    7  O10 UNL     1     -31.078   8.415   2.877  1.00 20.00    -0.290 OA
HETATM    8  F11 UNL     1     -31.934   8.749   5.418  1.00 20.00    -0.241 F 
ENDROOT
BRANCH   5   9
HETATM    9  C9  UNL     1     -34.885   4.981   4.709  1.00 20.00    -0.015 C 
HETATM   10  C7  UNL     1     -34.075   3.858   4.066  1.00 20.00     0.010 C 
HETATM   11  C8  UNL     1     -34.745   4.945   6.228  1.00 20.00     0.010 C 
ENDBRANCH   5   9
TORSDOF 1
ENDMDL
MODEL 5
REMARK VINA RESULT:      -4.8     11.648     12.175
REMARK  1 active torsions:
REMARK  status: ('A' for Active; 'I' for Inactive)
REMARK    1  A    between atoms: C5_5  and  C9_9 
ROOT
HETATM    1  C1  UNL     1     -36.262  15.085  -4.206  1.00 20.00     0.049 C 
HETATM    2  C2  UNL     1     -35.985  16.300  -3.717  1.00 20.00    -0.018 C 
HETATM    3  C3  UNL     1     -35.156  14.164  -4.565  1.00 20.00     0.182 C 
HETATM    4  C4  UNL     1     -33.571  15.672  -3.377  1.00 20.00     0.054 C 
HETATM    5  C5  UNL     1     -34.594  16.814  -3.438  1.00 20.00     0.014 C 
HETATM    6  C6  UNL     1     -33.746  14.708  -4.539  1.00 20.00     0.244 C 
HETATM    7  O10 UNL     1     -35.404  13.014  -4.920  1.00 20.00    -0.290 OA
HETATM    8  F11 UNL     1     -32.843  13.699  -4.398  1.00 20.00    -0.241 F 
ENDROOT
BRANCH   5   9
HETATM    9  C9  UNL     1     -34.561  17.616  -2.136  1.00 20.00    -0.015 C 
HETATM   10  C7  UNL     1     -35.465  16.971  -1.089  1.00 20.00     0.010 C 
HETATM   11  C8  UNL     1     -33.131  17.733  -1.615  1.00 20.00     0.010 C 
ENDBRANCH   5   9
TORSDOF 1
ENDMDL
MODEL 6
REMARK VINA RESULT:      -4.7     11.933     12.741
REMARK  1 active torsions:
REMARK  status: ('A' for Active; 'I' for Inactive)
REMARK    1  A    between atoms: C5_5  and  C9_9 
ROOT
HETATM    1  C1  UNL     1     -33.612  16.242  -5.876  1.00 20.00     0.049 C 
HETATM    2  C2  UNL     1     -33.324  16.804  -4.696  1.00 20.00    -0.018 C 
HETATM    3  C3  UNL     1     -34.318  14.938  -5.920  1.00 20.00     0.182 C 
HETATM    4  C4  UNL     1     -34.825  15.180  -3.494  1.00 20.00     0.054 C 
HETATM    5  C5  UNL     1     -33.718  16.234  -3.356  1.00 20.00     0.014 C 
HETATM    6  C6  UNL     1     -34.523  14.201  -4.616  1.00 20.00     0.244 C 
HETATM    7  O10 UNL     1     -34.673  14.466  -6.997  1.00 20.00    -0.290 OA
HETATM    8  F11 UNL     1     -35.562  13.328  -4.715  1.00 20.00    -0.241 F 
ENDROOT
BRANCH   5   9
HETATM    9  C9  UNL     1     -34.165  17.342  -2.403  1.00 20.00    -0.015 C 
HETATM   10  C7  UNL     1     -35.287  16.844  -1.494  1.00 20.00     0.010 C 
HETATM   11  C8  UNL     1     -32.986  17.847  -1.577  1.00 20.00     0.010 C 
ENDBRANCH   5   9
TORSDOF 1
ENDMDL
MODEL 7
REMARK VINA RESULT:      -4.6      2.199      3.192
REMARK  1 active torsions:
REMARK  status: ('A' for Active; 'I' for Inactive)
REMARK    1  A    between atoms: C5_5  and  C9_9 
ROOT
HETATM    1  C1  UNL     1     -33.749   6.658   2.505  1.00 20.00     0.049 C 
HETATM    2  C2  UNL     1     -33.073   7.262   1.521  1.00 20.00    -0.018 C 
HETATM    3  C3  UNL     1     -33.405   6.942   3.919  1.00 20.00     0.182 C 
HETATM    4  C4  UNL     1     -32.023   8.866   3.152  1.00 20.00     0.054 C 
HETATM    5  C5  UNL     1     -31.985   8.287   1.732  1.00 20.00     0.014 C 
HETATM    6  C6  UNL     1     -32.170   7.769   4.194  1.00 20.00     0.244 C 
HETATM    7  O10 UNL     1     -34.086   6.468   4.825  1.00 20.00    -0.290 OA
HETATM    8  F11 UNL     1     -32.244   8.352   5.422  1.00 20.00    -0.241 F 
ENDROOT
BRANCH   5   9
HETATM    9  C9  UNL     1     -32.093   9.415   0.704  1.00 20.00    -0.015 C 
HETATM   10  C7  UNL     1     -32.978   8.989  -0.465  1.00 20.00     0.010 C 
HETATM   11  C8  UNL     1     -32.634  10.684   1.356  1.00 20.00     0.010 C 
ENDBRANCH   5   9
TORSDOF 1
ENDMDL
MODEL 8
REMARK VINA RESULT:      -4.5     12.093     13.048
REMARK  1 active torsions:
REMARK  status: ('A' for Active; 'I' for Inactive)
REMARK    1  A    between atoms: C5_5  and  C9_9 
ROOT
HETATM    1  C1  UNL     1     -34.828  14.073  -4.404  1.00 20.00     0.049 C 
HETATM    2  C2  UNL     1     -34.831  15.149  -3.608  1.00 20.00    -0.018 C 
HETATM    3  C3  UNL     1     -34.337  14.187  -5.799  1.00 20.00     0.182 C 
HETATM    4  C4  UNL     1     -33.409  16.429  -5.244  1.00 20.00     0.054 C 
HETATM    5  C5  UNL     1     -34.312  16.509  -4.005  1.00 20.00     0.014 C 
HETATM    6  C6  UNL     1     -34.032  15.568  -6.330  1.00 20.00     0.244 C 
HETATM    7  O10 UNL     1     -34.239  13.183  -6.500  1.00 20.00    -0.290 OA
HETATM    8  F11 UNL     1     -33.163  15.502  -7.375  1.00 20.00    -0.241 F 
ENDROOT
BRANCH   5   9
HETATM    9  C9  UNL     1     -33.555  17.162  -2.847  1.00 20.00    -0.015 C 
HETATM   10  C7  UNL     1     -33.273  18.631  -3.154  1.00 20.00     0.010 C 
HETATM   11  C8  UNL     1     -34.342  17.023  -1.548  1.00 20.00     0.010 C 
ENDBRANCH   5   9
TORSDOF 1
ENDMDL
MODEL 9
REMARK VINA RESULT:      -4.4     12.024     12.548
REMARK  1 active torsions:
REMARK  status: ('A' for Active; 'I' for Inactive)
REMARK    1  A    between atoms: C5_5  and  C9_9 
ROOT
HETATM    1  C1  UNL     1     -32.669  18.250  -1.020  1.00 20.00     0.049 C 
HETATM    2  C2  UNL     1     -33.271  17.735  -2.099  1.00 20.00    -0.018 C 
HETATM    3  C3  UNL     1     -33.438  18.439   0.235  1.00 20.00     0.182 C 
HETATM    4  C4  UNL     1     -35.265  17.046  -0.725  1.00 20.00     0.054 C 
HETATM    5  C5  UNL     1     -34.704  17.263  -2.137  1.00 20.00     0.014 C 
HETATM    6  C6  UNL     1     -34.931  18.213   0.189  1.00 20.00     0.244 C 
HETATM    7  O10 UNL     1     -32.867  18.817   1.255  1.00 20.00    -0.290 OA
HETATM    8  F11 UNL     1     -35.415  17.936   1.431  1.00 20.00    -0.241 F 
ENDROOT
BRANCH   5   9
HETATM    9  C9  UNL     1     -34.831  15.976  -2.954  1.00 20.00    -0.015 C 
HETATM   10  C7  UNL     1     -36.115  15.992  -3.779  1.00 20.00     0.010 C 
HETATM   11  C8  UNL     1     -33.613  15.790  -3.854  1.00 20.00     0.010 C 
ENDBRANCH   5   9
TORSDOF 1
ENDMDL
