MODEL 1
REMARK VINA RESULT:      -3.7      0.000      0.000
REMARK  2 active torsions:
REMARK  status: ('A' for Active; 'I' for Inactive)
REMARK    1  A    between atoms: C3_3  and  C9_9 
REMARK    2  A    between atoms: C3_3  and  S10_10 
ROOT
HETATM    1  C1  UNL     1     -33.230  15.196  -5.018  1.00 20.00     0.010 A 
HETATM    2  C2  UNL     1     -34.701  15.040  -5.374  1.00 20.00    -0.025 A 
HETATM    3  C3  UNL     1     -34.237  16.190  -4.448  1.00 20.00     0.019 A 
HETATM    4  C4  UNL     1     -32.486  14.211  -4.181  1.00 20.00     0.012 C 
HETATM    5  C5  UNL     1     -35.077  15.322  -6.817  1.00 20.00     0.017 C 
HETATM    6  C6  UNL     1     -35.517  13.903  -4.803  1.00 20.00     0.017 C 
ENDROOT
BRANCH   3   7
HETATM    7  C9  UNL     1     -34.574  16.175  -2.974  1.00 20.00    -0.003 C 
HETATM    8  C7  UNL     1     -33.559  16.992  -2.167  1.00 20.00     0.011 C 
HETATM    9  C8  UNL     1     -35.990  16.707  -2.726  1.00 20.00     0.011 C 
ENDBRANCH   3   7
BRANCH   3  10
HETATM   10  S10 UNL     1     -34.177  17.854  -5.071  1.00 20.00    -0.171 SA
HETATM   11  H28 UNL     1     -32.860  18.063  -4.898  1.00 20.00     0.102 HD
ENDBRANCH   3  10
TORSDOF 2
ENDMDL
MODEL 2
REMARK VINA RESULT:      -3.5      1.761      3.637
REMARK  2 active torsions:
REMARK  status: ('A' for Active; 'I' for Inactive)
REMARK    1  A    between atoms: C3_3  and  C9_9 
REMARK    2  A    between atoms: C3_3  and  S10_10 
ROOT
HETATM    1  C1  UNL     1     -34.178  14.407  -4.044  1.00 20.00     0.010 A 
HETATM    2  C2  UNL     1     -34.650  15.852  -4.092  1.00 20.00    -0.025 A 
HETATM    3  C3  UNL     1     -35.042  14.862  -5.215  1.00 20.00     0.019 A 
HETATM    4  C4  UNL     1     -32.746  14.013  -4.186  1.00 20.00     0.012 C 
HETATM    5  C5  UNL     1     -35.667  16.263  -3.043  1.00 20.00     0.017 C 
HETATM    6  C6  UNL     1     -33.680  16.973  -4.389  1.00 20.00     0.017 C 
ENDROOT
BRANCH   3   7
HETATM    7  C9  UNL     1     -34.447  14.991  -6.599  1.00 20.00    -0.003 C 
HETATM    8  C7  UNL     1     -34.417  13.638  -7.317  1.00 20.00     0.011 C 
HETATM    9  C8  UNL     1     -35.221  16.013  -7.440  1.00 20.00     0.011 C 
ENDBRANCH   3   7
BRANCH   3  10
HETATM   10  S10 UNL     1     -36.702  14.229  -5.292  1.00 20.00    -0.171 SA
HETATM   11  H28 UNL     1     -36.473  13.228  -6.160  1.00 20.00     0.102 HD
ENDBRANCH   3  10
TORSDOF 2
ENDMDL
MODEL 3
REMARK VINA RESULT:      -3.5      1.308      3.618
REMARK  2 active torsions:
REMARK  status: ('A' for Active; 'I' for Inactive)
REMARK    1  A    between atoms: C3_3  and  C9_9 
REMARK    2  A    between atoms: C3_3  and  S10_10 
ROOT
HETATM    1  C1  UNL     1     -35.335  17.237  -3.988  1.00 20.00     0.010 A 
HETATM    2  C2  UNL     1     -33.902  17.465  -3.531  1.00 20.00    -0.025 A 
HETATM    3  C3  UNL     1     -34.241  16.303  -4.496  1.00 20.00     0.019 A 
HETATM    4  C4  UNL     1     -36.423  16.800  -3.066  1.00 20.00     0.012 C 
HETATM    5  C5  UNL     1     -33.222  18.718  -4.049  1.00 20.00     0.017 C 
HETATM    6  C6  UNL     1     -33.486  17.158  -2.110  1.00 20.00     0.017 C 
ENDROOT
BRANCH   3   7
HETATM    7  C9  UNL     1     -34.182  14.868  -4.026  1.00 20.00    -0.003 C 
HETATM    8  C7  UNL     1     -35.274  14.023  -4.691  1.00 20.00     0.011 C 
HETATM    9  C8  UNL     1     -32.805  14.253  -4.298  1.00 20.00     0.011 C 
ENDBRANCH   3   7
BRANCH   3  10
HETATM   10  S10 UNL     1     -33.802  16.429  -6.214  1.00 20.00    -0.171 SA
HETATM   11  H28 UNL     1     -33.040  17.533  -6.125  1.00 20.00     0.102 HD
ENDBRANCH   3  10
TORSDOF 2
ENDMDL
MODEL 4
REMARK VINA RESULT:      -3.5      1.224      3.605
REMARK  2 active torsions:
REMARK  status: ('A' for Active; 'I' for Inactive)
REMARK    1  A    between atoms: C3_3  and  C9_9 
REMARK    2  A    between atoms: C3_3  and  S10_10 
ROOT
HETATM    1  C1  UNL     1     -35.878  14.787  -4.597  1.00 20.00     0.010 A 
HETATM    2  C2  UNL     1     -34.573  15.427  -4.148  1.00 20.00    -0.025 A 
HETATM    3  C3  UNL     1     -35.334  15.979  -5.377  1.00 20.00     0.019 A 
HETATM    4  C4  UNL     1     -35.958  13.407  -5.158  1.00 20.00     0.012 C 
HETATM    5  C5  UNL     1     -34.608  16.171  -2.826  1.00 20.00     0.017 C 
HETATM    6  C6  UNL     1     -33.255  14.712  -4.343  1.00 20.00     0.017 C 
ENDROOT
BRANCH   3   7
HETATM    7  C9  UNL     1     -34.783  15.793  -6.772  1.00 20.00    -0.003 C 
HETATM    8  C7  UNL     1     -35.912  15.647  -7.798  1.00 20.00     0.011 C 
HETATM    9  C8  UNL     1     -33.865  16.956  -7.165  1.00 20.00     0.011 C 
ENDBRANCH   3   7
BRANCH   3  10
HETATM   10  S10 UNL     1     -36.226  17.511  -5.244  1.00 20.00    -0.171 SA
HETATM   11  H28 UNL     1     -37.427  17.055  -5.643  1.00 20.00     0.102 HD
ENDBRANCH   3  10
TORSDOF 2
ENDMDL
MODEL 5
REMARK VINA RESULT:      -3.5      1.517      3.335
REMARK  2 active torsions:
REMARK  status: ('A' for Active; 'I' for Inactive)
REMARK    1  A    between atoms: C3_3  and  C9_9 
REMARK    2  A    between atoms: C3_3  and  S10_10 
ROOT
HETATM    1  C1  UNL     1     -34.596  15.323  -3.835  1.00 20.00     0.010 A 
HETATM    2  C2  UNL     1     -34.553  16.572  -2.966  1.00 20.00    -0.025 A 
HETATM    3  C3  UNL     1     -34.798  16.687  -4.490  1.00 20.00     0.019 A 
HETATM    4  C4  UNL     1     -33.403  14.463  -4.084  1.00 20.00     0.012 C 
HETATM    5  C5  UNL     1     -35.700  16.751  -1.989  1.00 20.00     0.017 C 
HETATM    6  C6  UNL     1     -33.248  17.060  -2.380  1.00 20.00     0.017 C 
ENDROOT
BRANCH   3   7
HETATM    7  C9  UNL     1     -33.737  17.262  -5.400  1.00 20.00    -0.003 C 
HETATM    8  C7  UNL     1     -33.775  16.600  -6.781  1.00 20.00     0.011 C 
HETATM    9  C8  UNL     1     -33.896  18.780  -5.543  1.00 20.00     0.011 C 
ENDBRANCH   3   7
BRANCH   3  10
HETATM   10  S10 UNL     1     -36.428  17.062  -5.094  1.00 20.00    -0.171 SA
HETATM   11  H28 UNL     1     -36.680  18.111  -4.291  1.00 20.00     0.102 HD
ENDBRANCH   3  10
TORSDOF 2
ENDMDL
MODEL 6
REMARK VINA RESULT:      -3.4      1.534      2.294
REMARK  2 active torsions:
REMARK  status: ('A' for Active; 'I' for Inactive)
REMARK    1  A    between atoms: C3_3  and  C9_9 
REMARK    2  A    between atoms: C3_3  and  S10_10 
ROOT
HETATM    1  C1  UNL     1     -34.675  16.075  -5.636  1.00 20.00     0.010 A 
HETATM    2  C2  UNL     1     -34.415  14.942  -4.655  1.00 20.00    -0.025 A 
HETATM    3  C3  UNL     1     -34.821  16.344  -4.141  1.00 20.00     0.019 A 
HETATM    4  C4  UNL     1     -33.606  16.684  -6.478  1.00 20.00     0.012 C 
HETATM    5  C5  UNL     1     -35.419  13.805  -4.657  1.00 20.00     0.017 C 
HETATM    6  C6  UNL     1     -33.010  14.436  -4.414  1.00 20.00     0.017 C 
ENDROOT
BRANCH   3   7
HETATM    7  C9  UNL     1     -33.822  17.221  -3.422  1.00 20.00    -0.003 C 
HETATM    8  C7  UNL     1     -34.032  18.698  -3.768  1.00 20.00     0.011 C 
HETATM    9  C8  UNL     1     -33.904  17.022  -1.904  1.00 20.00     0.011 C 
ENDBRANCH   3   7
BRANCH   3  10
HETATM   10  S10 UNL     1     -36.466  16.612  -3.522  1.00 20.00    -0.171 SA
HETATM   11  H28 UNL     1     -37.112  16.561  -4.700  1.00 20.00     0.102 HD
ENDBRANCH   3  10
TORSDOF 2
ENDMDL
MODEL 7
REMARK VINA RESULT:      -3.4      1.414      2.381
REMARK  2 active torsions:
REMARK  status: ('A' for Active; 'I' for Inactive)
REMARK    1  A    between atoms: C3_3  and  C9_9 
REMARK    2  A    between atoms: C3_3  and  S10_10 
ROOT
HETATM    1  C1  UNL     1     -35.234  14.714  -6.896  1.00 20.00     0.010 A 
HETATM    2  C2  UNL     1     -36.443  15.284  -6.169  1.00 20.00    -0.025 A 
HETATM    3  C3  UNL     1     -35.013  15.558  -5.645  1.00 20.00     0.019 A 
HETATM    4  C4  UNL     1     -34.938  13.253  -6.962  1.00 20.00     0.012 C 
HETATM    5  C5  UNL     1     -37.214  16.370  -6.896  1.00 20.00     0.017 C 
HETATM    6  C6  UNL     1     -37.368  14.383  -5.383  1.00 20.00     0.017 C 
ENDROOT
BRANCH   3   7
HETATM    7  C9  UNL     1     -34.525  14.917  -4.366  1.00 20.00    -0.003 C 
HETATM    8  C7  UNL     1     -33.034  14.574  -4.453  1.00 20.00     0.011 C 
HETATM    9  C8  UNL     1     -34.783  15.825  -3.158  1.00 20.00     0.011 C 
ENDBRANCH   3   7
BRANCH   3  10
HETATM   10  S10 UNL     1     -34.285  17.165  -5.869  1.00 20.00    -0.171 SA
HETATM   11  H28 UNL     1     -35.148  17.861  -5.108  1.00 20.00     0.102 HD
ENDBRANCH   3  10
TORSDOF 2
ENDMDL
MODEL 8
REMARK VINA RESULT:      -3.4      1.730      2.687
REMARK  2 active torsions:
REMARK  status: ('A' for Active; 'I' for Inactive)
REMARK    1  A    between atoms: C3_3  and  C9_9 
REMARK    2  A    between atoms: C3_3  and  S10_10 
ROOT
HETATM    1  C1  UNL     1     -34.527  15.725  -3.344  1.00 20.00     0.010 A 
HETATM    2  C2  UNL     1     -35.605  15.219  -4.292  1.00 20.00    -0.025 A 
HETATM    3  C3  UNL     1     -34.580  16.277  -4.766  1.00 20.00     0.019 A 
HETATM    4  C4  UNL     1     -34.826  16.546  -2.135  1.00 20.00     0.012 C 
HETATM    5  C5  UNL     1     -35.481  13.775  -4.742  1.00 20.00     0.017 C 
HETATM    6  C6  UNL     1     -37.052  15.614  -4.098  1.00 20.00     0.017 C 
ENDROOT
BRANCH   3   7
HETATM    7  C9  UNL     1     -35.007  17.706  -5.016  1.00 20.00    -0.003 C 
HETATM    8  C7  UNL     1     -33.865  18.684  -4.720  1.00 20.00     0.011 C 
HETATM    9  C8  UNL     1     -35.496  17.892  -6.457  1.00 20.00     0.011 C 
ENDBRANCH   3   7
BRANCH   3  10
HETATM   10  S10 UNL     1     -33.270  15.802  -5.869  1.00 20.00    -0.171 SA
HETATM   11  H28 UNL     1     -33.998  15.743  -6.998  1.00 20.00     0.102 HD
ENDBRANCH   3  10
TORSDOF 2
ENDMDL
MODEL 9
REMARK VINA RESULT:      -3.3      1.855      3.410
REMARK  2 active torsions:
REMARK  status: ('A' for Active; 'I' for Inactive)
REMARK    1  A    between atoms: C3_3  and  C9_9 
REMARK    2  A    between atoms: C3_3  and  S10_10 
ROOT
HETATM    1  C1  UNL     1     -35.394  16.174  -3.051  1.00 20.00     0.010 A 
HETATM    2  C2  UNL     1     -35.791  16.950  -4.298  1.00 20.00    -0.025 A 
HETATM    3  C3  UNL     1     -34.997  15.627  -4.419  1.00 20.00     0.019 A 
HETATM    4  C4  UNL     1     -34.409  16.683  -2.054  1.00 20.00     0.012 C 
HETATM    5  C5  UNL     1     -37.273  16.987  -4.624  1.00 20.00     0.017 C 
HETATM    6  C6  UNL     1     -35.118  18.260  -4.639  1.00 20.00     0.017 C 
ENDROOT
BRANCH   3   7
HETATM    7  C9  UNL     1     -33.549  15.635  -4.854  1.00 20.00    -0.003 C 
HETATM    8  C7  UNL     1     -32.796  14.425  -4.292  1.00 20.00     0.011 C 
HETATM    9  C8  UNL     1     -33.431  15.662  -6.382  1.00 20.00     0.011 C 
ENDBRANCH   3   7
BRANCH   3  10
HETATM   10  S10 UNL     1     -35.820  14.153  -4.974  1.00 20.00    -0.171 SA
HETATM   11  H28 UNL     1     -34.736  13.362  -5.057  1.00 20.00     0.102 HD
ENDBRANCH   3  10
TORSDOF 2
ENDMDL
