MODEL 1
REMARK VINA RESULT:      -4.9      0.000      0.000
REMARK  2 active torsions:
REMARK  status: ('A' for Active; 'I' for Inactive)
REMARK    1  A    between atoms: C2_2  and  C3_3 
REMARK    2  A    between atoms: C3_3  and  O11_11 
ROOT
HETATM    1  C1  UNL     1     -35.914  15.595  -3.911  1.00 20.00    -0.008 C 
HETATM    2  C2  UNL     1     -35.101  14.857  -4.674  1.00 20.00     0.020 C 
HETATM    3  C4  UNL     1     -33.698  16.156  -3.303  1.00 20.00     0.022 C 
HETATM    4  C5  UNL     1     -35.149  16.648  -3.168  1.00 20.00     0.006 C 
HETATM    5  C6  UNL     1     -33.658  15.268  -4.572  1.00 20.00    -0.014 C 
HETATM    6  C7  UNL     1     -35.578  16.784  -1.714  1.00 20.00     0.014 C 
HETATM    7  C8  UNL     1     -33.235  16.081  -5.802  1.00 20.00     0.020 C 
HETATM    8  C9  UNL     1     -32.704  14.086  -4.367  1.00 20.00     0.020 C 
ENDROOT
BRANCH   2   9
HETATM    9  C3  UNL     1     -35.615  13.803  -5.534  1.00 20.00     0.172 C 
HETATM   10  O10 UNL     1     -35.746  13.891  -6.747  1.00 20.00    -0.646 OA
BRANCH   9  11
HETATM   11  O11 UNL     1     -35.926  12.713  -4.796  1.00 20.00    -0.773 OA
HETATM   12  H25 UNL     1     -35.506  12.730  -3.910  1.00 20.00     0.167 HD
ENDBRANCH   9  11
ENDBRANCH   2   9
TORSDOF 2
ENDMDL
MODEL 2
REMARK VINA RESULT:      -4.7      1.298      2.893
REMARK  2 active torsions:
REMARK  status: ('A' for Active; 'I' for Inactive)
REMARK    1  A    between atoms: C2_2  and  C3_3 
REMARK    2  A    between atoms: C3_3  and  O11_11 
ROOT
HETATM    1  C1  UNL     1     -35.070  15.120  -6.743  1.00 20.00    -0.008 C 
HETATM    2  C2  UNL     1     -35.230  14.738  -5.472  1.00 20.00     0.020 C 
HETATM    3  C4  UNL     1     -33.584  16.419  -5.439  1.00 20.00     0.022 C 
HETATM    4  C5  UNL     1     -33.874  16.009  -6.894  1.00 20.00     0.006 C 
HETATM    5  C6  UNL     1     -34.189  15.305  -4.547  1.00 20.00    -0.014 C 
HETATM    6  C7  UNL     1     -34.132  17.212  -7.790  1.00 20.00     0.014 C 
HETATM    7  C8  UNL     1     -33.135  14.246  -4.197  1.00 20.00     0.020 C 
HETATM    8  C9  UNL     1     -34.777  15.908  -3.267  1.00 20.00     0.020 C 
ENDROOT
BRANCH   2   9
HETATM    9  C3  UNL     1     -36.293  13.826  -5.080  1.00 20.00     0.172 C 
HETATM   10  O10 UNL     1     -37.426  14.164  -4.768  1.00 20.00    -0.646 OA
BRANCH   9  11
HETATM   11  O11 UNL     1     -35.843  12.550  -5.110  1.00 20.00    -0.773 OA
HETATM   12  H25 UNL     1     -35.741  12.212  -6.025  1.00 20.00     0.167 HD
ENDBRANCH   9  11
ENDBRANCH   2   9
TORSDOF 2
ENDMDL
MODEL 3
REMARK VINA RESULT:      -4.6      1.468      1.824
REMARK  2 active torsions:
REMARK  status: ('A' for Active; 'I' for Inactive)
REMARK    1  A    between atoms: C2_2  and  C3_3 
REMARK    2  A    between atoms: C3_3  and  O11_11 
ROOT
HETATM    1  C1  UNL     1     -35.541  15.506  -3.709  1.00 20.00    -0.008 C 
HETATM    2  C2  UNL     1     -35.689  14.966  -4.923  1.00 20.00     0.020 C 
HETATM    3  C4  UNL     1     -33.940  16.527  -5.118  1.00 20.00     0.022 C 
HETATM    4  C5  UNL     1     -34.628  16.694  -3.752  1.00 20.00     0.006 C 
HETATM    5  C6  UNL     1     -34.901  15.678  -5.988  1.00 20.00    -0.014 C 
HETATM    6  C7  UNL     1     -33.630  16.723  -2.604  1.00 20.00     0.014 C 
HETATM    7  C8  UNL     1     -35.814  16.573  -6.836  1.00 20.00     0.020 C 
HETATM    8  C9  UNL     1     -34.106  14.730  -6.891  1.00 20.00     0.020 C 
ENDROOT
BRANCH   2   9
HETATM    9  C3  UNL     1     -36.572  13.833  -5.149  1.00 20.00     0.172 C 
HETATM   10  O10 UNL     1     -37.757  13.915  -5.438  1.00 20.00    -0.646 OA
BRANCH   9  11
HETATM   11  O11 UNL     1     -35.888  12.676  -4.992  1.00 20.00    -0.773 OA
HETATM   12  H25 UNL     1     -36.312  11.926  -5.462  1.00 20.00     0.167 HD
ENDBRANCH   9  11
ENDBRANCH   2   9
TORSDOF 2
ENDMDL
MODEL 4
REMARK VINA RESULT:      -4.5      1.416      2.588
REMARK  2 active torsions:
REMARK  status: ('A' for Active; 'I' for Inactive)
REMARK    1  A    between atoms: C2_2  and  C3_3 
REMARK    2  A    between atoms: C3_3  and  O11_11 
ROOT
HETATM    1  C1  UNL     1     -34.414  15.082  -3.528  1.00 20.00    -0.008 C 
HETATM    2  C2  UNL     1     -35.211  14.860  -4.578  1.00 20.00     0.020 C 
HETATM    3  C4  UNL     1     -35.631  17.074  -3.906  1.00 20.00     0.022 C 
HETATM    4  C5  UNL     1     -34.762  16.371  -2.848  1.00 20.00     0.006 C 
HETATM    5  C6  UNL     1     -36.220  15.953  -4.799  1.00 20.00    -0.014 C 
HETATM    6  C7  UNL     1     -33.540  17.194  -2.466  1.00 20.00     0.014 C 
HETATM    7  C8  UNL     1     -37.607  15.525  -4.304  1.00 20.00     0.020 C 
HETATM    8  C9  UNL     1     -36.300  16.420  -6.256  1.00 20.00     0.020 C 
ENDROOT
BRANCH   2   9
HETATM    9  C3  UNL     1     -35.106  13.644  -5.370  1.00 20.00     0.172 C 
HETATM   10  O10 UNL     1     -35.907  12.721  -5.345  1.00 20.00    -0.646 OA
BRANCH   9  11
HETATM   11  O11 UNL     1     -33.992  13.686  -6.136  1.00 20.00    -0.773 OA
HETATM   12  H25 UNL     1     -33.536  12.819  -6.181  1.00 20.00     0.167 HD
ENDBRANCH   9  11
ENDBRANCH   2   9
TORSDOF 2
ENDMDL
MODEL 5
REMARK VINA RESULT:      -4.4     11.239     12.341
REMARK  2 active torsions:
REMARK  status: ('A' for Active; 'I' for Inactive)
REMARK    1  A    between atoms: C2_2  and  C3_3 
REMARK    2  A    between atoms: C3_3  and  O11_11 
ROOT
HETATM    1  C1  UNL     1     -32.986   8.041   3.799  1.00 20.00    -0.008 C 
HETATM    2  C2  UNL     1     -33.612   7.022   4.396  1.00 20.00     0.020 C 
HETATM    3  C4  UNL     1     -33.338   6.384   2.149  1.00 20.00     0.022 C 
HETATM    4  C5  UNL     1     -32.972   7.870   2.310  1.00 20.00     0.006 C 
HETATM    5  C6  UNL     1     -34.116   5.987   3.428  1.00 20.00    -0.014 C 
HETATM    6  C7  UNL     1     -31.626   8.203   1.683  1.00 20.00     0.014 C 
HETATM    7  C8  UNL     1     -35.629   6.126   3.219  1.00 20.00     0.020 C 
HETATM    8  C9  UNL     1     -33.769   4.552   3.840  1.00 20.00     0.020 C 
ENDROOT
BRANCH   2   9
HETATM    9  C3  UNL     1     -33.804   6.987   5.837  1.00 20.00     0.172 C 
HETATM   10  O10 UNL     1     -34.657   6.328   6.414  1.00 20.00    -0.646 OA
BRANCH   9  11
HETATM   11  O11 UNL     1     -32.900   7.790   6.444  1.00 20.00    -0.773 OA
HETATM   12  H25 UNL     1     -31.988   7.639   6.118  1.00 20.00     0.167 HD
ENDBRANCH   9  11
ENDBRANCH   2   9
TORSDOF 2
ENDMDL
MODEL 6
REMARK VINA RESULT:      -4.2      2.347      3.467
REMARK  2 active torsions:
REMARK  status: ('A' for Active; 'I' for Inactive)
REMARK    1  A    between atoms: C2_2  and  C3_3 
REMARK    2  A    between atoms: C3_3  and  O11_11 
ROOT
HETATM    1  C1  UNL     1     -35.832  14.140  -4.710  1.00 20.00    -0.008 C 
HETATM    2  C2  UNL     1     -34.717  14.624  -5.266  1.00 20.00     0.020 C 
HETATM    3  C4  UNL     1     -36.416  14.917  -6.866  1.00 20.00     0.022 C 
HETATM    4  C5  UNL     1     -36.937  14.037  -5.716  1.00 20.00     0.006 C 
HETATM    5  C6  UNL     1     -34.873  14.942  -6.728  1.00 20.00    -0.014 C 
HETATM    6  C7  UNL     1     -38.278  14.522  -5.183  1.00 20.00     0.014 C 
HETATM    7  C8  UNL     1     -34.223  13.856  -7.595  1.00 20.00     0.020 C 
HETATM    8  C9  UNL     1     -34.325  16.321  -7.111  1.00 20.00     0.020 C 
ENDROOT
BRANCH   2   9
HETATM    9  C3  UNL     1     -33.486  14.766  -4.504  1.00 20.00     0.172 C 
HETATM   10  O10 UNL     1     -33.156  15.769  -3.888  1.00 20.00    -0.646 OA
BRANCH   9  11
HETATM   11  O11 UNL     1     -32.762  13.625  -4.577  1.00 20.00    -0.773 OA
HETATM   12  H25 UNL     1     -31.904  13.756  -5.034  1.00 20.00     0.167 HD
ENDBRANCH   9  11
ENDBRANCH   2   9
TORSDOF 2
ENDMDL
MODEL 7
REMARK VINA RESULT:      -4.2      1.422      1.617
REMARK  2 active torsions:
REMARK  status: ('A' for Active; 'I' for Inactive)
REMARK    1  A    between atoms: C2_2  and  C3_3 
REMARK    2  A    between atoms: C3_3  and  O11_11 
ROOT
HETATM    1  C1  UNL     1     -36.195  16.629  -2.826  1.00 20.00    -0.008 C 
HETATM    2  C2  UNL     1     -35.878  15.798  -3.824  1.00 20.00     0.020 C 
HETATM    3  C4  UNL     1     -33.846  16.361  -2.781  1.00 20.00     0.022 C 
HETATM    4  C5  UNL     1     -34.970  17.260  -2.238  1.00 20.00     0.006 C 
HETATM    5  C6  UNL     1     -34.398  15.711  -4.075  1.00 20.00    -0.014 C 
HETATM    6  C7  UNL     1     -34.990  17.300  -0.717  1.00 20.00     0.014 C 
HETATM    7  C8  UNL     1     -34.005  16.527  -5.314  1.00 20.00     0.020 C 
HETATM    8  C9  UNL     1     -33.888  14.272  -4.208  1.00 20.00     0.020 C 
ENDROOT
BRANCH   2   9
HETATM    9  C3  UNL     1     -36.901  15.105  -4.591  1.00 20.00     0.172 C 
HETATM   10  O10 UNL     1     -36.752  14.670  -5.724  1.00 20.00    -0.646 OA
BRANCH   9  11
HETATM   11  O11 UNL     1     -38.040  15.014  -3.867  1.00 20.00    -0.773 OA
HETATM   12  H25 UNL     1     -38.339  15.885  -3.530  1.00 20.00     0.167 HD
ENDBRANCH   9  11
ENDBRANCH   2   9
TORSDOF 2
ENDMDL
MODEL 8
REMARK VINA RESULT:      -4.2      1.356      1.433
REMARK  2 active torsions:
REMARK  status: ('A' for Active; 'I' for Inactive)
REMARK    1  A    between atoms: C2_2  and  C3_3 
REMARK    2  A    between atoms: C3_3  and  O11_11 
ROOT
HETATM    1  C1  UNL     1     -36.446  15.473  -5.390  1.00 20.00    -0.008 C 
HETATM    2  C2  UNL     1     -35.337  14.743  -5.544  1.00 20.00     0.020 C 
HETATM    3  C4  UNL     1     -34.641  16.789  -4.613  1.00 20.00     0.022 C 
HETATM    4  C5  UNL     1     -36.116  16.892  -5.038  1.00 20.00     0.006 C 
HETATM    5  C6  UNL     1     -34.075  15.528  -5.314  1.00 20.00    -0.014 C 
HETATM    6  C7  UNL     1     -36.996  17.454  -3.932  1.00 20.00     0.014 C 
HETATM    7  C8  UNL     1     -33.407  15.890  -6.647  1.00 20.00     0.020 C 
HETATM    8  C9  UNL     1     -33.074  14.814  -4.399  1.00 20.00     0.020 C 
ENDROOT
BRANCH   2   9
HETATM    9  C3  UNL     1     -35.395  13.345  -5.940  1.00 20.00     0.172 C 
HETATM   10  O10 UNL     1     -34.953  12.896  -6.988  1.00 20.00    -0.646 OA
BRANCH   9  11
HETATM   11  O11 UNL     1     -36.010  12.617  -4.980  1.00 20.00    -0.773 OA
HETATM   12  H25 UNL     1     -36.369  11.772  -5.325  1.00 20.00     0.167 HD
ENDBRANCH   9  11
ENDBRANCH   2   9
TORSDOF 2
ENDMDL
MODEL 9
REMARK VINA RESULT:      -4.2      1.729      3.221
REMARK  2 active torsions:
REMARK  status: ('A' for Active; 'I' for Inactive)
REMARK    1  A    between atoms: C2_2  and  C3_3 
REMARK    2  A    between atoms: C3_3  and  O11_11 
ROOT
HETATM    1  C1  UNL     1     -33.475  16.257  -5.670  1.00 20.00    -0.008 C 
HETATM    2  C2  UNL     1     -33.947  15.653  -4.574  1.00 20.00     0.020 C 
HETATM    3  C4  UNL     1     -34.680  17.885  -4.448  1.00 20.00     0.022 C 
HETATM    4  C5  UNL     1     -33.658  17.742  -5.590  1.00 20.00     0.006 C 
HETATM    5  C6  UNL     1     -34.537  16.611  -3.577  1.00 20.00    -0.014 C 
HETATM    6  C7  UNL     1     -34.159  18.353  -6.890  1.00 20.00     0.014 C 
HETATM    7  C8  UNL     1     -33.571  16.847  -2.409  1.00 20.00     0.020 C 
HETATM    8  C9  UNL     1     -35.907  16.171  -3.049  1.00 20.00     0.020 C 
ENDROOT
BRANCH   2   9
HETATM    9  C3  UNL     1     -33.835  14.215  -4.391  1.00 20.00     0.172 C 
HETATM   10  O10 UNL     1     -34.780  13.443  -4.317  1.00 20.00    -0.646 OA
BRANCH   9  11
HETATM   11  O11 UNL     1     -32.532  13.858  -4.314  1.00 20.00    -0.773 OA
HETATM   12  H25 UNL     1     -32.321  13.088  -4.884  1.00 20.00     0.167 HD
ENDBRANCH   9  11
ENDBRANCH   2   9
TORSDOF 2
ENDMDL
