MODEL 1
REMARK VINA RESULT:      -6.3      0.000      0.000
REMARK  1 active torsions:
REMARK  status: ('A' for Active; 'I' for Inactive)
REMARK    1  A    between atoms: C4_4  and  C10_10 
ROOT
HETATM    1  C1  UNL     1     -33.567   4.526   2.972  1.00 20.00    -0.003 C 
HETATM    2  C2  UNL     1     -33.133   5.888   2.753  1.00 20.00     0.011 C 
HETATM    3  C3  UNL     1     -34.080   3.956   4.069  1.00 20.00    -0.026 C 
HETATM    4  C4  UNL     1     -33.137   6.962   3.560  1.00 20.00    -0.009 C 
HETATM    5  C5  UNL     1     -33.721   6.969   4.936  1.00 20.00     0.156 C 
HETATM    6  C6  UNL     1     -34.439   4.602   5.368  1.00 20.00     0.035 C 
HETATM    7  C7  UNL     1     -34.878   6.049   5.242  1.00 20.00     0.087 C 
HETATM    8  O11 UNL     1     -33.297   7.751   5.786  1.00 20.00    -0.293 OA
ENDROOT
BRANCH   4   9
HETATM    9  C10 UNL     1     -32.521   8.263   3.127  1.00 20.00     0.014 C 
HETATM   10  C8  UNL     1     -31.071   8.334   3.589  1.00 20.00     0.015 C 
HETATM   11  C9  UNL     1     -32.625   8.430   1.616  1.00 20.00     0.015 C 
ENDBRANCH   4   9
TORSDOF 1
ENDMDL
MODEL 2
REMARK VINA RESULT:      -6.0      1.541      2.579
REMARK  1 active torsions:
REMARK  status: ('A' for Active; 'I' for Inactive)
REMARK    1  A    between atoms: C4_4  and  C10_10 
ROOT
HETATM    1  C1  UNL     1     -33.970   6.881   5.838  1.00 20.00    -0.003 C 
HETATM    2  C2  UNL     1     -33.211   7.427   4.735  1.00 20.00     0.011 C 
HETATM    3  C3  UNL     1     -34.757   5.799   5.885  1.00 20.00    -0.026 C 
HETATM    4  C4  UNL     1     -33.059   7.009   3.468  1.00 20.00    -0.009 C 
HETATM    5  C5  UNL     1     -33.634   5.736   2.936  1.00 20.00     0.156 C 
HETATM    6  C6  UNL     1     -35.002   4.785   4.814  1.00 20.00     0.035 C 
HETATM    7  C7  UNL     1     -33.827   4.573   3.878  1.00 20.00     0.087 C 
HETATM    8  O11 UNL     1     -33.894   5.626   1.738  1.00 20.00    -0.293 OA
ENDROOT
BRANCH   4   9
HETATM    9  C10 UNL     1     -32.291   7.825   2.465  1.00 20.00     0.014 C 
HETATM   10  C8  UNL     1     -33.193   8.894   1.860  1.00 20.00     0.015 C 
HETATM   11  C9  UNL     1     -31.059   8.447   3.110  1.00 20.00     0.015 C 
ENDBRANCH   4   9
TORSDOF 1
ENDMDL
MODEL 3
REMARK VINA RESULT:      -5.3      0.587      1.211
REMARK  1 active torsions:
REMARK  status: ('A' for Active; 'I' for Inactive)
REMARK    1  A    between atoms: C4_4  and  C10_10 
ROOT
HETATM    1  C1  UNL     1     -33.868   4.342   3.326  1.00 20.00    -0.003 C 
HETATM    2  C2  UNL     1     -33.212   5.499   2.758  1.00 20.00     0.011 C 
HETATM    3  C3  UNL     1     -34.369   4.157   4.553  1.00 20.00    -0.026 C 
HETATM    4  C4  UNL     1     -32.937   6.707   3.276  1.00 20.00    -0.009 C 
HETATM    5  C5  UNL     1     -33.372   7.150   4.635  1.00 20.00     0.156 C 
HETATM    6  C6  UNL     1     -34.473   5.145   5.671  1.00 20.00     0.035 C 
HETATM    7  C7  UNL     1     -34.644   6.582   5.216  1.00 20.00     0.087 C 
HETATM    8  O11 UNL     1     -32.728   8.003   5.245  1.00 20.00    -0.293 OA
ENDROOT
BRANCH   4   9
HETATM    9  C10 UNL     1     -32.135   7.720   2.507  1.00 20.00     0.014 C 
HETATM   10  C8  UNL     1     -33.066   8.704   1.810  1.00 20.00     0.015 C 
HETATM   11  C9  UNL     1     -31.161   8.444   3.428  1.00 20.00     0.015 C 
ENDBRANCH   4   9
TORSDOF 1
ENDMDL
MODEL 4
REMARK VINA RESULT:      -4.9     11.892     12.582
REMARK  1 active torsions:
REMARK  status: ('A' for Active; 'I' for Inactive)
REMARK    1  A    between atoms: C4_4  and  C10_10 
ROOT
HETATM    1  C1  UNL     1     -35.782  17.356   0.289  1.00 20.00    -0.003 C 
HETATM    2  C2  UNL     1     -35.162  17.157  -1.002  1.00 20.00     0.011 C 
HETATM    3  C3  UNL     1     -35.287  17.915   1.400  1.00 20.00    -0.026 C 
HETATM    4  C4  UNL     1     -33.944  17.484  -1.463  1.00 20.00    -0.009 C 
HETATM    5  C5  UNL     1     -32.937  18.261  -0.678  1.00 20.00     0.156 C 
HETATM    6  C6  UNL     1     -33.962  18.582   1.591  1.00 20.00     0.035 C 
HETATM    7  C7  UNL     1     -33.421  19.259   0.345  1.00 20.00     0.087 C 
HETATM    8  O11 UNL     1     -31.735  18.125  -0.904  1.00 20.00    -0.293 OA
ENDROOT
BRANCH   4   9
HETATM    9  C10 UNL     1     -33.491  17.064  -2.834  1.00 20.00     0.014 C 
HETATM   10  C8  UNL     1     -34.280  15.844  -3.294  1.00 20.00     0.015 C 
HETATM   11  C9  UNL     1     -33.633  18.215  -3.822  1.00 20.00     0.015 C 
ENDBRANCH   4   9
TORSDOF 1
ENDMDL
MODEL 5
REMARK VINA RESULT:      -4.7     11.823     13.044
REMARK  1 active torsions:
REMARK  status: ('A' for Active; 'I' for Inactive)
REMARK    1  A    between atoms: C4_4  and  C10_10 
ROOT
HETATM    1  C1  UNL     1     -33.913  16.434  -6.891  1.00 20.00    -0.003 C 
HETATM    2  C2  UNL     1     -34.172  16.548  -5.473  1.00 20.00     0.011 C 
HETATM    3  C3  UNL     1     -33.920  15.353  -7.680  1.00 20.00    -0.026 C 
HETATM    4  C4  UNL     1     -34.509  15.628  -4.555  1.00 20.00    -0.009 C 
HETATM    5  C5  UNL     1     -34.785  14.194  -4.875  1.00 20.00     0.156 C 
HETATM    6  C6  UNL     1     -34.295  13.949  -7.325  1.00 20.00     0.035 C 
HETATM    7  C7  UNL     1     -35.342  13.843  -6.233  1.00 20.00     0.087 C 
HETATM    8  O11 UNL     1     -34.610  13.323  -4.023  1.00 20.00    -0.293 OA
ENDROOT
BRANCH   4   9
HETATM    9  C10 UNL     1     -34.619  15.984  -3.098  1.00 20.00     0.014 C 
HETATM   10  C8  UNL     1     -33.481  16.915  -2.701  1.00 20.00     0.015 C 
HETATM   11  C9  UNL     1     -35.974  16.615  -2.801  1.00 20.00     0.015 C 
ENDBRANCH   4   9
TORSDOF 1
ENDMDL
MODEL 6
REMARK VINA RESULT:      -4.6     11.315     12.341
REMARK  1 active torsions:
REMARK  status: ('A' for Active; 'I' for Inactive)
REMARK    1  A    between atoms: C4_4  and  C10_10 
ROOT
HETATM    1  C1  UNL     1     -37.119  15.611  -4.007  1.00 20.00    -0.003 C 
HETATM    2  C2  UNL     1     -36.037  16.242  -3.285  1.00 20.00     0.011 C 
HETATM    3  C3  UNL     1     -37.084  14.634  -4.921  1.00 20.00    -0.026 C 
HETATM    4  C4  UNL     1     -34.712  16.026  -3.303  1.00 20.00    -0.009 C 
HETATM    5  C5  UNL     1     -34.057  14.934  -4.085  1.00 20.00     0.156 C 
HETATM    6  C6  UNL     1     -35.904  13.847  -5.392  1.00 20.00     0.035 C 
HETATM    7  C7  UNL     1     -34.823  13.661  -4.344  1.00 20.00     0.087 C 
HETATM    8  O11 UNL     1     -32.892  15.056  -4.464  1.00 20.00    -0.293 OA
ENDROOT
BRANCH   4   9
HETATM    9  C10 UNL     1     -33.769  16.904  -2.528  1.00 20.00     0.014 C 
HETATM   10  C8  UNL     1     -33.474  18.176  -3.314  1.00 20.00     0.015 C 
HETATM   11  C9  UNL     1     -34.344  17.229  -1.155  1.00 20.00     0.015 C 
ENDBRANCH   4   9
TORSDOF 1
ENDMDL
MODEL 7
REMARK VINA RESULT:      -4.5     11.610     12.767
REMARK  1 active torsions:
REMARK  status: ('A' for Active; 'I' for Inactive)
REMARK    1  A    between atoms: C4_4  and  C10_10 
ROOT
HETATM    1  C1  UNL     1     -36.570  16.258  -6.159  1.00 20.00    -0.003 C 
HETATM    2  C2  UNL     1     -35.917  16.473  -4.887  1.00 20.00     0.011 C 
HETATM    3  C3  UNL     1     -36.590  15.171  -6.939  1.00 20.00    -0.026 C 
HETATM    4  C4  UNL     1     -35.173  15.658  -4.121  1.00 20.00    -0.009 C 
HETATM    5  C5  UNL     1     -34.929  14.217  -4.431  1.00 20.00     0.156 C 
HETATM    6  C6  UNL     1     -36.008  13.821  -6.663  1.00 20.00     0.035 C 
HETATM    7  C7  UNL     1     -35.978  13.446  -5.194  1.00 20.00     0.087 C 
HETATM    8  O11 UNL     1     -33.910  13.659  -4.024  1.00 20.00    -0.293 OA
ENDROOT
BRANCH   4   9
HETATM    9  C10 UNL     1     -34.503  16.159  -2.872  1.00 20.00     0.014 C 
HETATM   10  C8  UNL     1     -33.480  17.232  -3.222  1.00 20.00     0.015 C 
HETATM   11  C9  UNL     1     -35.537  16.688  -1.884  1.00 20.00     0.015 C 
ENDBRANCH   4   9
TORSDOF 1
ENDMDL
MODEL 8
REMARK VINA RESULT:      -4.5     12.037     12.828
REMARK  1 active torsions:
REMARK  status: ('A' for Active; 'I' for Inactive)
REMARK    1  A    between atoms: C4_4  and  C10_10 
ROOT
HETATM    1  C1  UNL     1     -33.954  18.414   2.450  1.00 20.00    -0.003 C 
HETATM    2  C2  UNL     1     -34.201  18.450   1.026  1.00 20.00     0.011 C 
HETATM    3  C3  UNL     1     -32.796  18.372   3.119  1.00 20.00    -0.026 C 
HETATM    4  C4  UNL     1     -33.360  18.472  -0.021  1.00 20.00    -0.009 C 
HETATM    5  C5  UNL     1     -31.873  18.555   0.106  1.00 20.00     0.156 C 
HETATM    6  C6  UNL     1     -31.406  18.444   2.571  1.00 20.00     0.035 C 
HETATM    7  C7  UNL     1     -31.281  19.263   1.300  1.00 20.00     0.087 C 
HETATM    8  O11 UNL     1     -31.148  18.098  -0.777  1.00 20.00    -0.293 OA
ENDROOT
BRANCH   4   9
HETATM    9  C10 UNL     1     -33.871  18.396  -1.433  1.00 20.00     0.014 C 
HETATM   10  C8  UNL     1     -34.147  16.946  -1.812  1.00 20.00     0.015 C 
HETATM   11  C9  UNL     1     -35.119  19.254  -1.598  1.00 20.00     0.015 C 
ENDBRANCH   4   9
TORSDOF 1
ENDMDL
MODEL 9
REMARK VINA RESULT:      -4.5     11.981     12.921
REMARK  1 active torsions:
REMARK  status: ('A' for Active; 'I' for Inactive)
REMARK    1  A    between atoms: C4_4  and  C10_10 
ROOT
HETATM    1  C1  UNL     1     -35.202  14.142  -4.521  1.00 20.00    -0.003 C 
HETATM    2  C2  UNL     1     -35.029  15.186  -3.536  1.00 20.00     0.011 C 
HETATM    3  C3  UNL     1     -34.791  14.088  -5.794  1.00 20.00    -0.026 C 
HETATM    4  C4  UNL     1     -34.403  16.372  -3.599  1.00 20.00    -0.009 C 
HETATM    5  C5  UNL     1     -33.625  16.842  -4.786  1.00 20.00     0.156 C 
HETATM    6  C6  UNL     1     -33.946  15.072  -6.538  1.00 20.00     0.035 C 
HETATM    7  C7  UNL     1     -32.952  15.819  -5.668  1.00 20.00     0.087 C 
HETATM    8  O11 UNL     1     -33.494  18.046  -5.005  1.00 20.00    -0.293 OA
ENDROOT
BRANCH   4   9
HETATM    9  C10 UNL     1     -34.457  17.344  -2.453  1.00 20.00     0.014 C 
HETATM   10  C8  UNL     1     -35.481  16.881  -1.424  1.00 20.00     0.015 C 
HETATM   11  C9  UNL     1     -33.080  17.508  -1.822  1.00 20.00     0.015 C 
ENDBRANCH   4   9
TORSDOF 1
ENDMDL
