MODEL 1
REMARK VINA RESULT:      -5.9      0.000      0.000
REMARK  1 active torsions:
REMARK  status: ('A' for Active; 'I' for Inactive)
REMARK    1  A    between atoms: C6_6  and  C8_8 
ROOT
HETATM    1  C1  UNL     1     -34.398   5.839   5.977  1.00 20.00     0.061 C 
HETATM    2  C2  UNL     1     -33.573   5.691   2.730  1.00 20.00     0.066 C 
HETATM    3  C3  UNL     1     -33.874   7.255   5.628  1.00 20.00     0.170 C 
HETATM    4  C4  UNL     1     -34.898   5.231   4.726  1.00 20.00     0.153 A 
HETATM    5  C5  UNL     1     -33.696   4.808   3.906  1.00 20.00     0.153 A 
HETATM    6  C6  UNL     1     -33.494   7.171   3.217  1.00 20.00     0.123 C 
HETATM    7  O9  UNL     1     -32.922   7.288   4.543  1.00 20.00    -0.386 OA
HETATM    8  O10 UNL     1     -34.734   3.908   4.247  1.00 20.00    -0.375 OA
ENDROOT
BRANCH   6   9
HETATM    9  C8  UNL     1     -32.622   7.994   2.274  1.00 20.00     0.027 C 
HETATM   10  C7  UNL     1     -31.398   8.509   2.961  1.00 20.00     0.007 C 
ENDBRANCH   6   9
TORSDOF 1
ENDMDL
MODEL 2
REMARK VINA RESULT:      -4.8      1.459      2.354
REMARK  1 active torsions:
REMARK  status: ('A' for Active; 'I' for Inactive)
REMARK    1  A    between atoms: C6_6  and  C8_8 
ROOT
HETATM    1  C1  UNL     1     -34.869   5.393   3.973  1.00 20.00     0.061 C 
HETATM    2  C2  UNL     1     -32.803   7.861   4.912  1.00 20.00     0.066 C 
HETATM    3  C3  UNL     1     -34.042   5.729   2.708  1.00 20.00     0.170 C 
HETATM    4  C4  UNL     1     -34.062   5.785   5.148  1.00 20.00     0.153 A 
HETATM    5  C5  UNL     1     -34.120   7.295   5.263  1.00 20.00     0.153 A 
HETATM    6  C6  UNL     1     -32.406   7.368   3.486  1.00 20.00     0.123 C 
HETATM    7  O9  UNL     1     -33.560   7.090   2.655  1.00 20.00    -0.386 OA
HETATM    8  O10 UNL     1     -34.473   6.441   6.335  1.00 20.00    -0.375 OA
ENDROOT
BRANCH   6   9
HETATM    9  C8  UNL     1     -31.578   8.430   2.769  1.00 20.00     0.027 C 
HETATM   10  C7  UNL     1     -32.197   8.829   1.468  1.00 20.00     0.007 C 
ENDBRANCH   6   9
TORSDOF 1
ENDMDL
MODEL 3
REMARK VINA RESULT:      -4.2     11.750     12.998
REMARK  1 active torsions:
REMARK  status: ('A' for Active; 'I' for Inactive)
REMARK    1  A    between atoms: C6_6  and  C8_8 
ROOT
HETATM    1  C1  UNL     1     -34.465  14.820  -7.443  1.00 20.00     0.061 C 
HETATM    2  C2  UNL     1     -34.686  14.297  -4.139  1.00 20.00     0.066 C 
HETATM    3  C3  UNL     1     -33.776  16.047  -6.794  1.00 20.00     0.170 C 
HETATM    4  C4  UNL     1     -34.373  13.700  -6.483  1.00 20.00     0.153 A 
HETATM    5  C5  UNL     1     -35.390  13.948  -5.387  1.00 20.00     0.153 A 
HETATM    6  C6  UNL     1     -33.760  15.524  -4.407  1.00 20.00     0.123 C 
HETATM    7  O9  UNL     1     -34.260  16.371  -5.472  1.00 20.00    -0.386 OA
HETATM    8  O10 UNL     1     -35.356  12.743  -6.130  1.00 20.00    -0.375 OA
ENDROOT
BRANCH   6   9
HETATM    9  C8  UNL     1     -33.650  16.390  -3.156  1.00 20.00     0.027 C 
HETATM   10  C7  UNL     1     -34.943  16.446  -2.406  1.00 20.00     0.007 C 
ENDBRANCH   6   9
TORSDOF 1
ENDMDL
MODEL 4
REMARK VINA RESULT:      -4.2     11.590     12.276
REMARK  1 active torsions:
REMARK  status: ('A' for Active; 'I' for Inactive)
REMARK    1  A    between atoms: C6_6  and  C8_8 
ROOT
HETATM    1  C1  UNL     1     -37.364  14.598  -4.915  1.00 20.00     0.061 C 
HETATM    2  C2  UNL     1     -34.075  14.523  -4.271  1.00 20.00     0.066 C 
HETATM    3  C3  UNL     1     -37.070  15.919  -4.161  1.00 20.00     0.170 C 
HETATM    4  C4  UNL     1     -36.109  14.173  -5.570  1.00 20.00     0.153 A 
HETATM    5  C5  UNL     1     -35.202  13.599  -4.500  1.00 20.00     0.153 A 
HETATM    6  C6  UNL     1     -34.641  15.930  -3.907  1.00 20.00     0.123 C 
HETATM    7  O9  UNL     1     -35.938  15.855  -3.266  1.00 20.00    -0.386 OA
HETATM    8  O10 UNL     1     -35.546  12.876  -5.667  1.00 20.00    -0.375 OA
ENDROOT
BRANCH   6   9
HETATM    9  C8  UNL     1     -33.701  16.646  -2.942  1.00 20.00     0.027 C 
HETATM   10  C7  UNL     1     -34.381  16.980  -1.652  1.00 20.00     0.007 C 
ENDBRANCH   6   9
TORSDOF 1
ENDMDL
MODEL 5
REMARK VINA RESULT:      -4.1     12.141     12.672
REMARK  1 active torsions:
REMARK  status: ('A' for Active; 'I' for Inactive)
REMARK    1  A    between atoms: C6_6  and  C8_8 
ROOT
HETATM    1  C1  UNL     1     -35.469  13.667  -6.564  1.00 20.00     0.061 C 
HETATM    2  C2  UNL     1     -36.095  15.400  -3.763  1.00 20.00     0.066 C 
HETATM    3  C3  UNL     1     -34.119  14.327  -6.188  1.00 20.00     0.170 C 
HETATM    4  C4  UNL     1     -36.257  13.530  -5.322  1.00 20.00     0.153 A 
HETATM    5  C5  UNL     1     -36.794  14.902  -4.964  1.00 20.00     0.153 A 
HETATM    6  C6  UNL     1     -34.559  15.393  -4.034  1.00 20.00     0.123 C 
HETATM    7  O9  UNL     1     -34.244  15.556  -5.440  1.00 20.00    -0.386 OA
HETATM    8  O10 UNL     1     -37.637  13.773  -5.107  1.00 20.00    -0.375 OA
ENDROOT
BRANCH   6   9
HETATM    9  C8  UNL     1     -33.882  16.536  -3.285  1.00 20.00     0.027 C 
HETATM   10  C7  UNL     1     -34.506  16.766  -1.945  1.00 20.00     0.007 C 
ENDBRANCH   6   9
TORSDOF 1
ENDMDL
MODEL 6
REMARK VINA RESULT:      -3.9      1.384      4.162
REMARK  1 active torsions:
REMARK  status: ('A' for Active; 'I' for Inactive)
REMARK    1  A    between atoms: C6_6  and  C8_8 
ROOT
HETATM    1  C1  UNL     1     -32.740   7.083   1.666  1.00 20.00     0.061 C 
HETATM    2  C2  UNL     1     -32.811   7.868   4.924  1.00 20.00     0.066 C 
HETATM    3  C3  UNL     1     -33.778   6.118   2.290  1.00 20.00     0.170 C 
HETATM    4  C4  UNL     1     -32.678   8.284   2.524  1.00 20.00     0.153 A 
HETATM    5  C5  UNL     1     -31.894   7.920   3.769  1.00 20.00     0.153 A 
HETATM    6  C6  UNL     1     -33.963   6.865   4.609  1.00 20.00     0.123 C 
HETATM    7  O9  UNL     1     -33.554   5.824   3.687  1.00 20.00    -0.386 OA
HETATM    8  O10 UNL     1     -31.545   9.021   2.950  1.00 20.00    -0.375 OA
ENDROOT
BRANCH   6   9
HETATM    9  C8  UNL     1     -34.432   6.177   5.887  1.00 20.00     0.027 C 
HETATM   10  C7  UNL     1     -34.692   4.721   5.669  1.00 20.00     0.007 C 
ENDBRANCH   6   9
TORSDOF 1
ENDMDL
MODEL 7
REMARK VINA RESULT:      -3.8      1.478      3.762
REMARK  1 active torsions:
REMARK  status: ('A' for Active; 'I' for Inactive)
REMARK    1  A    between atoms: C6_6  and  C8_8 
ROOT
HETATM    1  C1  UNL     1     -31.837   8.828   4.162  1.00 20.00     0.061 C 
HETATM    2  C2  UNL     1     -33.450   6.470   2.407  1.00 20.00     0.066 C 
HETATM    3  C3  UNL     1     -32.610   7.998   5.217  1.00 20.00     0.170 C 
HETATM    4  C4  UNL     1     -31.604   7.953   2.994  1.00 20.00     0.153 A 
HETATM    5  C5  UNL     1     -32.913   7.834   2.239  1.00 20.00     0.153 A 
HETATM    6  C6  UNL     1     -33.589   6.166   3.931  1.00 20.00     0.123 C 
HETATM    7  O9  UNL     1     -33.808   7.364   4.716  1.00 20.00    -0.386 OA
HETATM    8  O10 UNL     1     -31.716   8.256   1.614  1.00 20.00    -0.375 OA
ENDROOT
BRANCH   6   9
HETATM    9  C8  UNL     1     -34.775   5.239   4.181  1.00 20.00     0.027 C 
HETATM   10  C7  UNL     1     -34.771   4.698   5.575  1.00 20.00     0.007 C 
ENDBRANCH   6   9
TORSDOF 1
ENDMDL
MODEL 8
REMARK VINA RESULT:      -3.7     11.787     12.875
REMARK  1 active torsions:
REMARK  status: ('A' for Active; 'I' for Inactive)
REMARK    1  A    between atoms: C6_6  and  C8_8 
ROOT
HETATM    1  C1  UNL     1     -34.378  18.274  -0.374  1.00 20.00     0.061 C 
HETATM    2  C2  UNL     1     -33.565  17.145  -3.424  1.00 20.00     0.066 C 
HETATM    3  C3  UNL     1     -35.406  17.156  -0.677  1.00 20.00     0.170 C 
HETATM    4  C4  UNL     1     -33.166  17.990  -1.171  1.00 20.00     0.153 A 
HETATM    5  C5  UNL     1     -33.461  18.370  -2.608  1.00 20.00     0.153 A 
HETATM    6  C6  UNL     1     -34.649  16.213  -2.800  1.00 20.00     0.123 C 
HETATM    7  O9  UNL     1     -35.668  16.953  -2.083  1.00 20.00    -0.386 OA
HETATM    8  O10 UNL     1     -32.347  18.886  -1.903  1.00 20.00    -0.375 OA
ENDROOT
BRANCH   6   9
HETATM    9  C8  UNL     1     -35.355  15.415  -3.892  1.00 20.00     0.027 C 
HETATM   10  C7  UNL     1     -34.612  14.162  -4.230  1.00 20.00     0.007 C 
ENDBRANCH   6   9
TORSDOF 1
ENDMDL
MODEL 9
REMARK VINA RESULT:      -3.7     11.834     13.516
REMARK  1 active torsions:
REMARK  status: ('A' for Active; 'I' for Inactive)
REMARK    1  A    between atoms: C6_6  and  C8_8 
ROOT
HETATM    1  C1  UNL     1     -33.687  14.384  -4.243  1.00 20.00     0.061 C 
HETATM    2  C2  UNL     1     -35.697  14.769  -6.899  1.00 20.00     0.066 C 
HETATM    3  C3  UNL     1     -33.300  15.758  -4.846  1.00 20.00     0.170 C 
HETATM    4  C4  UNL     1     -35.086  14.108  -4.632  1.00 20.00     0.153 A 
HETATM    5  C5  UNL     1     -35.086  13.697  -6.091  1.00 20.00     0.153 A 
HETATM    6  C6  UNL     1     -34.927  16.101  -6.636  1.00 20.00     0.123 C 
HETATM    7  O9  UNL     1     -33.545  15.876  -6.265  1.00 20.00    -0.386 OA
HETATM    8  O10 UNL     1     -35.666  12.894  -5.080  1.00 20.00    -0.375 OA
ENDROOT
BRANCH   6   9
HETATM    9  C8  UNL     1     -34.923  16.969  -7.890  1.00 20.00     0.027 C 
HETATM   10  C7  UNL     1     -33.752  17.897  -7.918  1.00 20.00     0.007 C 
ENDBRANCH   6   9
TORSDOF 1
ENDMDL
