MODEL 1
REMARK VINA RESULT:      -5.5      0.000      0.000
REMARK  0 active torsions:
REMARK  status: ('A' for Active; 'I' for Inactive)
ROOT
HETATM    1  C1  UNL     1     -32.147   7.905   3.653  1.00 20.00     0.145 C 
HETATM    2  C2  UNL     1     -33.108   7.151   4.546  1.00 20.00     0.089 C 
HETATM    3  C3  UNL     1     -34.566   4.478   4.540  1.00 20.00     0.002 C 
HETATM    4  C4  UNL     1     -35.279   5.748   4.037  1.00 20.00     0.010 C 
HETATM    5  C5  UNL     1     -33.446   4.776   3.523  1.00 20.00     0.010 C 
HETATM    6  C6  UNL     1     -33.827   7.011   2.229  1.00 20.00     0.037 C 
HETATM    7  C7  UNL     1     -32.411   7.599   2.197  1.00 20.00     0.152 C 
HETATM    8  C8  UNL     1     -33.893   6.270   3.567  1.00 20.00    -0.032 C 
HETATM    9  O9  UNL     1     -31.268   8.647   4.071  1.00 20.00    -0.296 OA
HETATM   10 CL10 UNL     1     -32.319   9.067   1.230  1.00 20.00    -0.117 Cl
ENDROOT
TORSDOF 0
ENDMDL
MODEL 2
REMARK VINA RESULT:      -5.4      2.571      3.876
REMARK  0 active torsions:
REMARK  status: ('A' for Active; 'I' for Inactive)
ROOT
HETATM    1  C1  UNL     1     -33.909   6.717   4.942  1.00 20.00     0.145 C 
HETATM    2  C2  UNL     1     -32.890   7.729   4.465  1.00 20.00     0.089 C 
HETATM    3  C3  UNL     1     -32.205   9.197   1.887  1.00 20.00     0.002 C 
HETATM    4  C4  UNL     1     -31.454   7.906   2.263  1.00 20.00     0.010 C 
HETATM    5  C5  UNL     1     -33.519   8.403   2.025  1.00 20.00     0.010 C 
HETATM    6  C6  UNL     1     -33.135   5.949   2.829  1.00 20.00     0.037 C 
HETATM    7  C7  UNL     1     -34.282   5.764   3.830  1.00 20.00     0.152 C 
HETATM    8  C8  UNL     1     -32.752   7.425   2.969  1.00 20.00    -0.032 C 
HETATM    9  O9  UNL     1     -34.371   6.698   6.075  1.00 20.00    -0.296 OA
HETATM   10 CL10 UNL     1     -34.379   4.115   4.437  1.00 20.00    -0.117 Cl
ENDROOT
TORSDOF 0
ENDMDL
MODEL 3
REMARK VINA RESULT:      -4.8     11.207     12.166
REMARK  0 active torsions:
REMARK  status: ('A' for Active; 'I' for Inactive)
ROOT
HETATM    1  C1  UNL     1     -35.647  13.853  -4.953  1.00 20.00     0.145 C 
HETATM    2  C2  UNL     1     -34.535  14.387  -4.077  1.00 20.00     0.089 C 
HETATM    3  C3  UNL     1     -34.084  16.729  -2.183  1.00 20.00     0.002 C 
HETATM    4  C4  UNL     1     -33.622  16.822  -3.650  1.00 20.00     0.010 C 
HETATM    5  C5  UNL     1     -35.494  16.393  -2.712  1.00 20.00     0.010 C 
HETATM    6  C6  UNL     1     -35.576  16.202  -5.314  1.00 20.00     0.037 C 
HETATM    7  C7  UNL     1     -36.484  14.981  -5.509  1.00 20.00     0.152 C 
HETATM    8  C8  UNL     1     -34.811  15.895  -4.024  1.00 20.00    -0.032 C 
HETATM    9  O9  UNL     1     -35.838  12.662  -5.160  1.00 20.00    -0.296 OA
HETATM   10 CL10 UNL     1     -36.861  14.694  -7.204  1.00 20.00    -0.117 Cl
ENDROOT
TORSDOF 0
ENDMDL
MODEL 4
REMARK VINA RESULT:      -4.8      2.789      4.058
REMARK  0 active torsions:
REMARK  status: ('A' for Active; 'I' for Inactive)
ROOT
HETATM    1  C1  UNL     1     -33.691   5.327   3.647  1.00 20.00     0.145 C 
HETATM    2  C2  UNL     1     -33.421   6.142   2.401  1.00 20.00     0.089 C 
HETATM    3  C3  UNL     1     -31.729   8.544   1.601  1.00 20.00     0.002 C 
HETATM    4  C4  UNL     1     -33.209   8.735   1.984  1.00 20.00     0.010 C 
HETATM    5  C5  UNL     1     -31.529   7.847   2.962  1.00 20.00     0.010 C 
HETATM    6  C6  UNL     1     -33.751   7.609   4.310  1.00 20.00     0.037 C 
HETATM    7  C7  UNL     1     -33.619   6.192   4.883  1.00 20.00     0.152 C 
HETATM    8  C8  UNL     1     -33.056   7.527   2.948  1.00 20.00    -0.032 C 
HETATM    9  O9  UNL     1     -33.919   4.125   3.637  1.00 20.00    -0.296 OA
HETATM   10 CL10 UNL     1     -34.927   5.796   5.992  1.00 20.00    -0.117 Cl
ENDROOT
TORSDOF 0
ENDMDL
MODEL 5
REMARK VINA RESULT:      -4.2     11.699     12.322
REMARK  0 active torsions:
REMARK  status: ('A' for Active; 'I' for Inactive)
ROOT
HETATM    1  C1  UNL     1     -32.366  18.273  -0.481  1.00 20.00     0.145 C 
HETATM    2  C2  UNL     1     -33.089  17.563  -1.605  1.00 20.00     0.089 C 
HETATM    3  C3  UNL     1     -35.738  17.802  -3.087  1.00 20.00     0.002 C 
HETATM    4  C4  UNL     1     -35.596  16.814  -1.914  1.00 20.00     0.010 C 
HETATM    5  C5  UNL     1     -35.258  18.913  -2.132  1.00 20.00     0.010 C 
HETATM    6  C6  UNL     1     -34.619  18.005   0.230  1.00 20.00     0.037 C 
HETATM    7  C7  UNL     1     -33.347  18.804   0.539  1.00 20.00     0.152 C 
HETATM    8  C8  UNL     1     -34.570  17.797  -1.286  1.00 20.00    -0.032 C 
HETATM    9  O9  UNL     1     -31.151  18.404  -0.429  1.00 20.00    -0.296 OA
HETATM   10 CL10 UNL     1     -32.757  18.516   2.172  1.00 20.00    -0.117 Cl
ENDROOT
TORSDOF 0
ENDMDL
MODEL 6
REMARK VINA RESULT:      -4.1     11.879     12.635
REMARK  0 active torsions:
REMARK  status: ('A' for Active; 'I' for Inactive)
ROOT
HETATM    1  C1  UNL     1     -34.075  17.586  -5.058  1.00 20.00     0.145 C 
HETATM    2  C2  UNL     1     -34.774  18.024  -3.789  1.00 20.00     0.089 C 
HETATM    3  C3  UNL     1     -34.366  17.757  -0.784  1.00 20.00     0.002 C 
HETATM    4  C4  UNL     1     -35.296  16.779  -1.527  1.00 20.00     0.010 C 
HETATM    5  C5  UNL     1     -33.254  17.360  -1.776  1.00 20.00     0.010 C 
HETATM    6  C6  UNL     1     -34.086  15.700  -3.611  1.00 20.00     0.037 C 
HETATM    7  C7  UNL     1     -33.397  16.250  -4.866  1.00 20.00     0.152 C 
HETATM    8  C8  UNL     1     -34.382  16.946  -2.772  1.00 20.00    -0.032 C 
HETATM    9  O9  UNL     1     -34.058  18.246  -6.088  1.00 20.00    -0.296 OA
HETATM   10 CL10 UNL     1     -33.648  15.221  -6.271  1.00 20.00    -0.117 Cl
ENDROOT
TORSDOF 0
ENDMDL
MODEL 7
REMARK VINA RESULT:      -4.0     10.958     11.755
REMARK  0 active torsions:
REMARK  status: ('A' for Active; 'I' for Inactive)
ROOT
HETATM    1  C1  UNL     1     -35.046  16.758  -1.837  1.00 20.00     0.145 C 
HETATM    2  C2  UNL     1     -35.865  16.170  -2.965  1.00 20.00     0.089 C 
HETATM    3  C3  UNL     1     -35.494  14.129  -5.195  1.00 20.00     0.002 C 
HETATM    4  C4  UNL     1     -35.296  15.630  -5.481  1.00 20.00     0.010 C 
HETATM    5  C5  UNL     1     -34.456  14.269  -4.063  1.00 20.00     0.010 C 
HETATM    6  C6  UNL     1     -33.633  16.726  -3.747  1.00 20.00     0.037 C 
HETATM    7  C7  UNL     1     -33.588  16.847  -2.220  1.00 20.00     0.152 C 
HETATM    8  C8  UNL     1     -34.813  15.787  -4.013  1.00 20.00    -0.032 C 
HETATM    9  O9  UNL     1     -35.517  17.095  -0.759  1.00 20.00    -0.296 OA
HETATM   10 CL10 UNL     1     -32.902  18.380  -1.691  1.00 20.00    -0.117 Cl
ENDROOT
TORSDOF 0
ENDMDL
MODEL 8
REMARK VINA RESULT:      -4.0     11.445     12.133
REMARK  0 active torsions:
REMARK  status: ('A' for Active; 'I' for Inactive)
ROOT
HETATM    1  C1  UNL     1     -33.114  17.939  -1.338  1.00 20.00     0.145 C 
HETATM    2  C2  UNL     1     -33.331  17.016  -2.518  1.00 20.00     0.089 C 
HETATM    3  C3  UNL     1     -35.510  16.453  -4.569  1.00 20.00     0.002 C 
HETATM    4  C4  UNL     1     -35.403  15.587  -3.299  1.00 20.00     0.010 C 
HETATM    5  C5  UNL     1     -35.584  17.688  -3.649  1.00 20.00     0.010 C 
HETATM    6  C6  UNL     1     -35.321  17.081  -1.123  1.00 20.00     0.037 C 
HETATM    7  C7  UNL     1     -34.416  18.213  -0.622  1.00 20.00     0.152 C 
HETATM    8  C8  UNL     1     -34.854  16.839  -2.561  1.00 20.00    -0.032 C 
HETATM    9  O9  UNL     1     -32.025  18.405  -1.030  1.00 20.00    -0.296 OA
HETATM   10 CL10 UNL     1     -34.185  18.161   1.122  1.00 20.00    -0.117 Cl
ENDROOT
TORSDOF 0
ENDMDL
MODEL 9
REMARK VINA RESULT:      -3.9     11.577     12.427
REMARK  0 active torsions:
REMARK  status: ('A' for Active; 'I' for Inactive)
ROOT
HETATM    1  C1  UNL     1     -34.962  15.914  -6.122  1.00 20.00     0.145 C 
HETATM    2  C2  UNL     1     -35.265  16.811  -4.941  1.00 20.00     0.089 C 
HETATM    3  C3  UNL     1     -34.244  17.222  -2.102  1.00 20.00     0.002 C 
HETATM    4  C4  UNL     1     -35.479  16.338  -2.358  1.00 20.00     0.010 C 
HETATM    5  C5  UNL     1     -33.476  16.335  -3.103  1.00 20.00     0.010 C 
HETATM    6  C6  UNL     1     -34.987  14.513  -4.202  1.00 20.00     0.037 C 
HETATM    7  C7  UNL     1     -34.512  14.549  -5.659  1.00 20.00     0.152 C 
HETATM    8  C8  UNL     1     -34.855  15.964  -3.731  1.00 20.00    -0.032 C 
HETATM    9  O9  UNL     1     -35.059  16.270  -7.289  1.00 20.00    -0.296 OA
HETATM   10 CL10 UNL     1     -35.257  13.288  -6.636  1.00 20.00    -0.117 Cl
ENDROOT
TORSDOF 0
ENDMDL
