MODEL 1
REMARK VINA RESULT:      -4.2      0.000      0.000
REMARK  1 active torsions:
REMARK  status: ('A' for Active; 'I' for Inactive)
REMARK    1  A    between atoms: C5_5  and  N7_7 
ROOT
HETATM    1  C1  UNL     1     -33.676   4.674   3.533  1.00 20.00     0.332 C 
HETATM    2  N7  UNL     1     -32.942   5.335   2.903  1.00 20.00    -0.241 NA
HETATM    3  O8  UNL     1     -34.408   4.003   4.164  1.00 20.00    -0.260 OA
ENDROOT
BRANCH   2   4
HETATM    4  C5  UNL     1     -33.400   6.717   2.702  1.00 20.00     0.126 C 
HETATM    5  C3  UNL     1     -33.947   7.254   4.024  1.00 20.00     0.029 C 
HETATM    6  C2  UNL     1     -32.789   7.986   4.707  1.00 20.00     0.003 C 
HETATM    7  C4  UNL     1     -31.600   7.915   3.750  1.00 20.00     0.018 C 
HETATM    8  C6  UNL     1     -32.195   7.591   2.389  1.00 20.00     0.083 C 
HETATM    9 BR9  UNL     1     -32.762   9.231   1.490  1.00 20.00    -0.089 Br
ENDBRANCH   2   4
TORSDOF 1
ENDMDL
MODEL 2
REMARK VINA RESULT:      -4.1     11.243     11.791
REMARK  1 active torsions:
REMARK  status: ('A' for Active; 'I' for Inactive)
REMARK    1  A    between atoms: C5_5  and  N7_7 
ROOT
HETATM    1  C1  UNL     1     -35.924  13.712  -4.983  1.00 20.00     0.332 C 
HETATM    2  N7  UNL     1     -35.921  14.824  -4.612  1.00 20.00    -0.241 NA
HETATM    3  O8  UNL     1     -35.936  12.597  -5.358  1.00 20.00    -0.260 OA
ENDROOT
BRANCH   2   4
HETATM    4  C5  UNL     1     -34.777  15.169  -3.756  1.00 20.00     0.126 C 
HETATM    5  C3  UNL     1     -33.495  14.656  -4.413  1.00 20.00     0.029 C 
HETATM    6  C2  UNL     1     -32.933  15.822  -5.232  1.00 20.00     0.003 C 
HETATM    7  C4  UNL     1     -33.861  17.011  -4.997  1.00 20.00     0.018 C 
HETATM    8  C6  UNL     1     -34.628  16.681  -3.726  1.00 20.00     0.083 C 
HETATM    9 BR9  UNL     1     -33.602  17.231  -2.156  1.00 20.00    -0.089 Br
ENDBRANCH   2   4
TORSDOF 1
ENDMDL
MODEL 3
REMARK VINA RESULT:      -4.1      3.179      3.791
REMARK  1 active torsions:
REMARK  status: ('A' for Active; 'I' for Inactive)
REMARK    1  A    between atoms: C5_5  and  N7_7 
ROOT
HETATM    1  C1  UNL     1     -32.344   8.884   1.351  1.00 20.00     0.332 C 
HETATM    2  N7  UNL     1     -33.020   8.554   2.250  1.00 20.00    -0.241 NA
HETATM    3  O8  UNL     1     -31.670   9.222   0.447  1.00 20.00    -0.260 OA
ENDROOT
BRANCH   2   4
HETATM    4  C5  UNL     1     -32.602   7.298   2.887  1.00 20.00     0.126 C 
HETATM    5  C3  UNL     1     -32.539   7.507   4.400  1.00 20.00     0.029 C 
HETATM    6  C2  UNL     1     -33.896   7.064   4.955  1.00 20.00     0.003 C 
HETATM    7  C4  UNL     1     -34.708   6.550   3.768  1.00 20.00     0.018 C 
HETATM    8  C6  UNL     1     -33.691   6.258   2.677  1.00 20.00     0.083 C 
HETATM    9 BR9  UNL     1     -32.962   4.458   2.897  1.00 20.00    -0.089 Br
ENDBRANCH   2   4
TORSDOF 1
ENDMDL
MODEL 4
REMARK VINA RESULT:      -4.1     11.227     11.626
REMARK  1 active torsions:
REMARK  status: ('A' for Active; 'I' for Inactive)
REMARK    1  A    between atoms: C5_5  and  N7_7 
ROOT
HETATM    1  C1  UNL     1     -35.225  13.609  -4.666  1.00 20.00     0.332 C 
HETATM    2  N7  UNL     1     -34.488  14.359  -4.148  1.00 20.00    -0.241 NA
HETATM    3  O8  UNL     1     -35.959  12.849  -5.184  1.00 20.00    -0.260 OA
ENDROOT
BRANCH   2   4
HETATM    4  C5  UNL     1     -34.853  15.773  -4.317  1.00 20.00     0.126 C 
HETATM    5  C3  UNL     1     -35.955  16.123  -3.317  1.00 20.00     0.029 C 
HETATM    6  C2  UNL     1     -35.253  16.694  -2.081  1.00 20.00     0.003 C 
HETATM    7  C4  UNL     1     -33.760  16.723  -2.400  1.00 20.00     0.018 C 
HETATM    8  C6  UNL     1     -33.667  16.635  -3.915  1.00 20.00     0.083 C 
HETATM    9 BR9  UNL     1     -33.823  18.415  -4.707  1.00 20.00    -0.089 Br
ENDBRANCH   2   4
TORSDOF 1
ENDMDL
MODEL 5
REMARK VINA RESULT:      -3.8     12.185     12.709
REMARK  1 active torsions:
REMARK  status: ('A' for Active; 'I' for Inactive)
REMARK    1  A    between atoms: C5_5  and  N7_7 
ROOT
HETATM    1  C1  UNL     1     -37.535  14.224  -5.596  1.00 20.00     0.332 C 
HETATM    2  N7  UNL     1     -36.763  14.238  -6.478  1.00 20.00    -0.241 NA
HETATM    3  O8  UNL     1     -38.317  14.213  -4.717  1.00 20.00    -0.260 OA
ENDROOT
BRANCH   2   4
HETATM    4  C5  UNL     1     -35.387  13.912  -6.076  1.00 20.00     0.126 C 
HETATM    5  C3  UNL     1     -34.621  13.409  -7.300  1.00 20.00     0.029 C 
HETATM    6  C2  UNL     1     -33.908  14.627  -7.895  1.00 20.00     0.003 C 
HETATM    7  C4  UNL     1     -34.222  15.809  -6.981  1.00 20.00     0.018 C 
HETATM    8  C6  UNL     1     -34.680  15.194  -5.667  1.00 20.00     0.083 C 
HETATM    9 BR9  UNL     1     -33.138  14.788  -4.537  1.00 20.00    -0.089 Br
ENDBRANCH   2   4
TORSDOF 1
ENDMDL
MODEL 6
REMARK VINA RESULT:      -3.6     11.658     12.315
REMARK  1 active torsions:
REMARK  status: ('A' for Active; 'I' for Inactive)
REMARK    1  A    between atoms: C5_5  and  N7_7 
ROOT
HETATM    1  C1  UNL     1     -37.117  14.157  -5.268  1.00 20.00     0.332 C 
HETATM    2  N7  UNL     1     -36.012  14.392  -5.579  1.00 20.00    -0.241 NA
HETATM    3  O8  UNL     1     -38.227  13.916  -4.961  1.00 20.00    -0.260 OA
ENDROOT
BRANCH   2   4
HETATM    4  C5  UNL     1     -35.410  15.520  -4.856  1.00 20.00     0.126 C 
HETATM    5  C3  UNL     1     -34.401  14.978  -3.843  1.00 20.00     0.029 C 
HETATM    6  C2  UNL     1     -33.036  14.999  -4.537  1.00 20.00     0.003 C 
HETATM    7  C4  UNL     1     -33.258  15.605  -5.921  1.00 20.00     0.018 C 
HETATM    8  C6  UNL     1     -34.585  16.343  -5.833  1.00 20.00     0.083 C 
HETATM    9 BR9  UNL     1     -34.310  18.148  -5.137  1.00 20.00    -0.089 Br
ENDBRANCH   2   4
TORSDOF 1
ENDMDL
MODEL 7
REMARK VINA RESULT:      -3.6     11.247     11.916
REMARK  1 active torsions:
REMARK  status: ('A' for Active; 'I' for Inactive)
REMARK    1  A    between atoms: C5_5  and  N7_7 
ROOT
HETATM    1  C1  UNL     1     -34.792  16.803  -1.660  1.00 20.00     0.332 C 
HETATM    2  N7  UNL     1     -34.068  16.643  -2.568  1.00 20.00    -0.241 NA
HETATM    3  O8  UNL     1     -35.512  16.965  -0.744  1.00 20.00    -0.260 OA
ENDROOT
BRANCH   2   4
HETATM    4  C5  UNL     1     -34.733  16.171  -3.790  1.00 20.00     0.126 C 
HETATM    5  C3  UNL     1     -33.998  16.740  -5.004  1.00 20.00     0.029 C 
HETATM    6  C2  UNL     1     -32.978  15.679  -5.430  1.00 20.00     0.003 C 
HETATM    7  C4  UNL     1     -33.172  14.486  -4.496  1.00 20.00     0.018 C 
HETATM    8  C6  UNL     1     -34.557  14.665  -3.893  1.00 20.00     0.083 C 
HETATM    9 BR9  UNL     1     -35.913  13.901  -5.074  1.00 20.00    -0.089 Br
ENDBRANCH   2   4
TORSDOF 1
ENDMDL
MODEL 8
REMARK VINA RESULT:      -3.6     11.767     12.357
REMARK  1 active torsions:
REMARK  status: ('A' for Active; 'I' for Inactive)
REMARK    1  A    between atoms: C5_5  and  N7_7 
ROOT
HETATM    1  C1  UNL     1     -38.815  14.827  -4.680  1.00 20.00     0.332 C 
HETATM    2  N7  UNL     1     -37.994  14.032  -4.940  1.00 20.00    -0.241 NA
HETATM    3  O8  UNL     1     -39.644  15.619  -4.416  1.00 20.00    -0.260 OA
ENDROOT
BRANCH   2   4
HETATM    4  C5  UNL     1     -36.902  14.547  -5.776  1.00 20.00     0.126 C 
HETATM    5  C3  UNL     1     -36.317  15.795  -5.113  1.00 20.00     0.029 C 
HETATM    6  C2  UNL     1     -35.132  15.320  -4.267  1.00 20.00     0.003 C 
HETATM    7  C4  UNL     1     -35.007  13.815  -4.493  1.00 20.00     0.018 C 
HETATM    8  C6  UNL     1     -35.768  13.534  -5.779  1.00 20.00     0.083 C 
HETATM    9 BR9  UNL     1     -34.609  13.816  -7.327  1.00 20.00    -0.089 Br
ENDBRANCH   2   4
TORSDOF 1
ENDMDL
MODEL 9
REMARK VINA RESULT:      -3.6     11.545     12.179
REMARK  1 active torsions:
REMARK  status: ('A' for Active; 'I' for Inactive)
REMARK    1  A    between atoms: C5_5  and  N7_7 
ROOT
HETATM    1  C1  UNL     1     -37.654  14.774  -4.578  1.00 20.00     0.332 C 
HETATM    2  N7  UNL     1     -36.871  15.506  -4.105  1.00 20.00    -0.241 NA
HETATM    3  O8  UNL     1     -38.445  14.039  -5.046  1.00 20.00    -0.260 OA
ENDROOT
BRANCH   2   4
HETATM    4  C5  UNL     1     -35.786  15.897  -5.016  1.00 20.00     0.126 C 
HETATM    5  C3  UNL     1     -34.783  16.759  -4.250  1.00 20.00     0.029 C 
HETATM    6  C2  UNL     1     -33.695  15.808  -3.741  1.00 20.00     0.003 C 
HETATM    7  C4  UNL     1     -34.048  14.418  -4.264  1.00 20.00     0.018 C 
HETATM    8  C6  UNL     1     -35.012  14.652  -5.418  1.00 20.00     0.083 C 
HETATM    9 BR9  UNL     1     -34.022  14.972  -7.072  1.00 20.00    -0.089 Br
ENDBRANCH   2   4
TORSDOF 1
ENDMDL
