MODEL 1
REMARK VINA RESULT:      -5.4      0.000      0.000
REMARK  1 active torsions:
REMARK  status: ('A' for Active; 'I' for Inactive)
REMARK    1  A    between atoms: C5_5  and  C7_7 
ROOT
HETATM    1  C1  UNL     1     -34.960   5.684   4.607  1.00 20.00     0.003 C 
HETATM    2  C2  UNL     1     -34.082   6.398   5.629  1.00 20.00     0.003 C 
HETATM    3  C3  UNL     1     -34.098   5.657   3.342  1.00 20.00     0.041 C 
HETATM    4  C4  UNL     1     -33.415   7.512   4.819  1.00 20.00     0.041 C 
HETATM    5  C5  UNL     1     -32.786   7.663   2.237  1.00 20.00     0.167 A 
HETATM    6  C6  UNL     1     -33.284   6.913   3.450  1.00 20.00     0.088 A 
HETATM    7  O8  UNL     1     -31.932   6.785   2.977  1.00 20.00    -0.368 OA
ENDROOT
BRANCH   5   8
HETATM    8  C7  UNL     1     -32.395   9.097   2.291  1.00 20.00     0.120 C 
HETATM    9 BR9  UNL     1     -32.667   9.948   0.554  1.00 20.00    -0.094 Br
ENDBRANCH   5   8
TORSDOF 1
ENDMDL
MODEL 2
REMARK VINA RESULT:      -5.4      1.245      1.898
REMARK  1 active torsions:
REMARK  status: ('A' for Active; 'I' for Inactive)
REMARK    1  A    between atoms: C5_5  and  C7_7 
ROOT
HETATM    1  C1  UNL     1     -34.459   5.210   5.800  1.00 20.00     0.003 C 
HETATM    2  C2  UNL     1     -34.919   4.802   4.404  1.00 20.00     0.003 C 
HETATM    3  C3  UNL     1     -34.093   6.688   5.644  1.00 20.00     0.041 C 
HETATM    4  C4  UNL     1     -33.941   5.524   3.474  1.00 20.00     0.041 C 
HETATM    5  C5  UNL     1     -32.583   7.793   3.782  1.00 20.00     0.167 A 
HETATM    6  C6  UNL     1     -33.613   6.780   4.226  1.00 20.00     0.088 A 
HETATM    7  O8  UNL     1     -33.982   7.996   3.554  1.00 20.00    -0.368 OA
ENDROOT
BRANCH   5   8
HETATM    8  C7  UNL     1     -31.774   7.618   2.547  1.00 20.00     0.120 C 
HETATM    9 BR9  UNL     1     -32.202   9.008   1.243  1.00 20.00    -0.094 Br
ENDBRANCH   5   8
TORSDOF 1
ENDMDL
MODEL 3
REMARK VINA RESULT:      -4.0      2.542      4.477
REMARK  1 active torsions:
REMARK  status: ('A' for Active; 'I' for Inactive)
REMARK    1  A    between atoms: C5_5  and  C7_7 
ROOT
HETATM    1  C1  UNL     1     -32.606  10.217   0.702  1.00 20.00     0.003 C 
HETATM    2  C2  UNL     1     -31.555   9.209   0.249  1.00 20.00     0.003 C 
HETATM    3  C3  UNL     1     -32.799   9.898   2.187  1.00 20.00     0.041 C 
HETATM    4  C4  UNL     1     -31.949   7.922   0.979  1.00 20.00     0.041 C 
HETATM    5  C5  UNL     1     -33.203   7.536   3.295  1.00 20.00     0.167 A 
HETATM    6  C6  UNL     1     -32.546   8.422   2.261  1.00 20.00     0.088 A 
HETATM    7  O8  UNL     1     -31.858   7.998   3.450  1.00 20.00    -0.368 OA
ENDROOT
BRANCH   5   8
HETATM    8  C7  UNL     1     -33.337   6.066   3.117  1.00 20.00     0.120 C 
HETATM    9 BR9  UNL     1     -34.631   5.337   4.384  1.00 20.00    -0.094 Br
ENDBRANCH   5   8
TORSDOF 1
ENDMDL
MODEL 4
REMARK VINA RESULT:      -3.8      2.881      4.055
REMARK  1 active torsions:
REMARK  status: ('A' for Active; 'I' for Inactive)
REMARK    1  A    between atoms: C5_5  and  C7_7 
ROOT
HETATM    1  C1  UNL     1     -31.803   8.718   1.615  1.00 20.00     0.003 C 
HETATM    2  C2  UNL     1     -31.350   8.676   3.071  1.00 20.00     0.003 C 
HETATM    3  C3  UNL     1     -33.235   8.178   1.666  1.00 20.00     0.041 C 
HETATM    4  C4  UNL     1     -31.932   7.362   3.595  1.00 20.00     0.041 C 
HETATM    5  C5  UNL     1     -34.100   5.995   2.873  1.00 20.00     0.167 A 
HETATM    6  C6  UNL     1     -33.201   7.209   2.810  1.00 20.00     0.088 A 
HETATM    7  O8  UNL     1     -34.400   7.188   3.604  1.00 20.00    -0.368 OA
ENDROOT
BRANCH   5   8
HETATM    8  C7  UNL     1     -33.785   4.813   3.718  1.00 20.00     0.120 C 
HETATM    9 BR9  UNL     1     -34.622   4.983   5.474  1.00 20.00    -0.094 Br
ENDBRANCH   5   8
TORSDOF 1
ENDMDL
MODEL 5
REMARK VINA RESULT:      -3.7     10.987     11.465
REMARK  1 active torsions:
REMARK  status: ('A' for Active; 'I' for Inactive)
REMARK    1  A    between atoms: C5_5  and  C7_7 
ROOT
HETATM    1  C1  UNL     1     -34.039  17.727  -0.668  1.00 20.00     0.003 C 
HETATM    2  C2  UNL     1     -35.498  17.626  -1.101  1.00 20.00     0.003 C 
HETATM    3  C3  UNL     1     -33.258  17.523  -1.969  1.00 20.00     0.041 C 
HETATM    4  C4  UNL     1     -35.493  16.490  -2.127  1.00 20.00     0.041 C 
HETATM    5  C5  UNL     1     -33.588  15.624  -3.773  1.00 20.00     0.167 A 
HETATM    6  C6  UNL     1     -34.139  16.604  -2.762  1.00 20.00     0.088 A 
HETATM    7  O8  UNL     1     -34.158  16.874  -4.174  1.00 20.00    -0.368 OA
ENDROOT
BRANCH   5   8
HETATM    8  C7  UNL     1     -34.348  14.426  -4.217  1.00 20.00     0.120 C 
HETATM    9 BR9  UNL     1     -34.395  14.328  -6.167  1.00 20.00    -0.094 Br
ENDBRANCH   5   8
TORSDOF 1
ENDMDL
MODEL 6
REMARK VINA RESULT:      -3.6     11.265     11.551
REMARK  1 active torsions:
REMARK  status: ('A' for Active; 'I' for Inactive)
REMARK    1  A    between atoms: C5_5  and  C7_7 
ROOT
HETATM    1  C1  UNL     1     -35.282  16.890  -2.831  1.00 20.00     0.003 C 
HETATM    2  C2  UNL     1     -33.825  16.459  -2.692  1.00 20.00     0.003 C 
HETATM    3  C3  UNL     1     -35.968  15.663  -3.437  1.00 20.00     0.041 C 
HETATM    4  C4  UNL     1     -33.559  15.664  -3.972  1.00 20.00     0.041 C 
HETATM    5  C5  UNL     1     -35.191  14.241  -5.521  1.00 20.00     0.167 A 
HETATM    6  C6  UNL     1     -34.890  15.041  -4.275  1.00 20.00     0.088 A 
HETATM    7  O8  UNL     1     -34.894  13.603  -4.275  1.00 20.00    -0.368 OA
ENDROOT
BRANCH   5   8
HETATM    8  C7  UNL     1     -34.179  14.015  -6.588  1.00 20.00     0.120 C 
HETATM    9 BR9  UNL     1     -34.252  15.446  -7.915  1.00 20.00    -0.094 Br
ENDBRANCH   5   8
TORSDOF 1
ENDMDL
MODEL 7
REMARK VINA RESULT:      -3.6     10.230     10.983
REMARK  1 active torsions:
REMARK  status: ('A' for Active; 'I' for Inactive)
REMARK    1  A    between atoms: C5_5  and  C7_7 
ROOT
HETATM    1  C1  UNL     1     -41.769   7.679  -0.402  1.00 20.00     0.003 C 
HETATM    2  C2  UNL     1     -40.799   6.625   0.125  1.00 20.00     0.003 C 
HETATM    3  C3  UNL     1     -43.072   6.902  -0.607  1.00 20.00     0.041 C 
HETATM    4  C4  UNL     1     -41.132   5.381  -0.701  1.00 20.00     0.041 C 
HETATM    5  C5  UNL     1     -43.403   4.596  -1.848  1.00 20.00     0.167 A 
HETATM    6  C6  UNL     1     -42.602   5.523  -0.962  1.00 20.00     0.088 A 
HETATM    7  O8  UNL     1     -43.413   4.464  -0.423  1.00 20.00    -0.368 OA
ENDROOT
BRANCH   5   8
HETATM    8  C7  UNL     1     -42.784   3.453  -2.571  1.00 20.00     0.120 C 
HETATM    9 BR9  UNL     1     -43.417   3.386  -4.417  1.00 20.00    -0.094 Br
ENDBRANCH   5   8
TORSDOF 1
ENDMDL
MODEL 8
REMARK VINA RESULT:      -3.5     11.290     12.097
REMARK  1 active torsions:
REMARK  status: ('A' for Active; 'I' for Inactive)
REMARK    1  A    between atoms: C5_5  and  C7_7 
ROOT
HETATM    1  C1  UNL     1     -35.052  12.985  -7.202  1.00 20.00     0.003 C 
HETATM    2  C2  UNL     1     -34.400  14.222  -7.810  1.00 20.00     0.003 C 
HETATM    3  C3  UNL     1     -35.777  13.526  -5.967  1.00 20.00     0.041 C 
HETATM    4  C4  UNL     1     -33.906  15.007  -6.593  1.00 20.00     0.041 C 
HETATM    5  C5  UNL     1     -34.814  15.116  -4.093  1.00 20.00     0.167 A 
HETATM    6  C6  UNL     1     -34.917  14.676  -5.535  1.00 20.00     0.088 A 
HETATM    7  O8  UNL     1     -35.648  15.806  -5.029  1.00 20.00    -0.368 OA
ENDROOT
BRANCH   5   8
HETATM    8  C7  UNL     1     -33.667  15.912  -3.581  1.00 20.00     0.120 C 
HETATM    9 BR9  UNL     1     -34.215  17.003  -2.057  1.00 20.00    -0.094 Br
ENDBRANCH   5   8
TORSDOF 1
ENDMDL
MODEL 9
REMARK VINA RESULT:      -3.5     11.110     11.765
REMARK  1 active torsions:
REMARK  status: ('A' for Active; 'I' for Inactive)
REMARK    1  A    between atoms: C5_5  and  C7_7 
ROOT
HETATM    1  C1  UNL     1     -35.429  13.511  -6.667  1.00 20.00     0.003 C 
HETATM    2  C2  UNL     1     -36.029  13.408  -5.268  1.00 20.00     0.003 C 
HETATM    3  C3  UNL     1     -34.075  14.185  -6.433  1.00 20.00     0.041 C 
HETATM    4  C4  UNL     1     -35.645  14.736  -4.611  1.00 20.00     0.041 C 
HETATM    5  C5  UNL     1     -33.572  16.356  -5.018  1.00 20.00     0.167 A 
HETATM    6  C6  UNL     1     -34.326  15.066  -5.245  1.00 20.00     0.088 A 
HETATM    7  O8  UNL     1     -33.223  15.152  -4.328  1.00 20.00    -0.368 OA
ENDROOT
BRANCH   5   8
HETATM    8  C7  UNL     1     -34.094  17.441  -4.145  1.00 20.00     0.120 C 
HETATM    9 BR9  UNL     1     -33.633  17.101  -2.278  1.00 20.00    -0.094 Br
ENDBRANCH   5   8
TORSDOF 1
ENDMDL
