MODEL 1
REMARK VINA RESULT:      -3.9      0.000      0.000
REMARK  1 active torsions:
REMARK  status: ('A' for Active; 'I' for Inactive)
REMARK    1  A    between atoms: C3_3  and  C7_7 
ROOT
HETATM    1  C1  UNL     1     -32.351   7.577   4.271  1.00 20.00     0.089 C 
HETATM    2  C2  UNL     1     -32.256   7.284   2.780  1.00 20.00     0.053 C 
HETATM    3  C3  UNL     1     -34.616   6.210   3.697  1.00 20.00     0.112 C 
HETATM    4  C4  UNL     1     -32.628   8.472   1.896  1.00 20.00     0.022 C 
HETATM    5  S8  UNL     1     -34.097   7.600   4.750  1.00 20.00    -0.152 SA
HETATM    6  S9  UNL     1     -33.349   5.869   2.430  1.00 20.00    -0.148 SA
ENDROOT
BRANCH   3   7
HETATM    7  C7  UNL     1     -34.832   4.967   4.550  1.00 20.00     0.001 C 
HETATM    8  C5  UNL     1     -33.915   3.832   4.094  1.00 20.00     0.011 C 
HETATM    9  C6  UNL     1     -34.601   5.279   6.029  1.00 20.00     0.011 C 
ENDBRANCH   3   7
TORSDOF 1
ENDMDL
MODEL 2
REMARK VINA RESULT:      -3.6     11.691     12.640
REMARK  1 active torsions:
REMARK  status: ('A' for Active; 'I' for Inactive)
REMARK    1  A    between atoms: C3_3  and  C7_7 
ROOT
HETATM    1  C1  UNL     1     -34.734  14.101  -4.328  1.00 20.00     0.089 C 
HETATM    2  C2  UNL     1     -36.069  14.759  -4.651  1.00 20.00     0.053 C 
HETATM    3  C3  UNL     1     -34.446  16.667  -3.516  1.00 20.00     0.112 C 
HETATM    4  C4  UNL     1     -36.227  15.136  -6.123  1.00 20.00     0.022 C 
HETATM    5  S8  UNL     1     -33.446  15.373  -4.313  1.00 20.00    -0.152 SA
HETATM    6  S9  UNL     1     -36.217  16.240  -3.601  1.00 20.00    -0.148 SA
ENDROOT
BRANCH   3   7
HETATM    7  C7  UNL     1     -34.027  16.822  -2.060  1.00 20.00     0.001 C 
HETATM    8  C5  UNL     1     -33.060  17.995  -1.897  1.00 20.00     0.011 C 
HETATM    9  C6  UNL     1     -35.251  17.010  -1.163  1.00 20.00     0.011 C 
ENDBRANCH   3   7
TORSDOF 1
ENDMDL
MODEL 3
REMARK VINA RESULT:      -3.5     12.022     12.862
REMARK  1 active torsions:
REMARK  status: ('A' for Active; 'I' for Inactive)
REMARK    1  A    between atoms: C3_3  and  C7_7 
ROOT
HETATM    1  C1  UNL     1     -32.921  15.659  -5.507  1.00 20.00     0.089 C 
HETATM    2  C2  UNL     1     -34.043  14.642  -5.667  1.00 20.00     0.053 C 
HETATM    3  C3  UNL     1     -34.818  16.453  -3.748  1.00 20.00     0.112 C 
HETATM    4  C4  UNL     1     -34.927  14.889  -6.887  1.00 20.00     0.022 C 
HETATM    5  S8  UNL     1     -33.623  17.210  -4.892  1.00 20.00    -0.152 SA
HETATM    6  S9  UNL     1     -35.042  14.687  -4.143  1.00 20.00    -0.148 SA
ENDROOT
BRANCH   3   7
HETATM    7  C7  UNL     1     -34.324  16.596  -2.314  1.00 20.00     0.001 C 
HETATM    8  C5  UNL     1     -33.240  17.670  -2.220  1.00 20.00     0.011 C 
HETATM    9  C6  UNL     1     -35.484  16.924  -1.373  1.00 20.00     0.011 C 
ENDBRANCH   3   7
TORSDOF 1
ENDMDL
MODEL 4
REMARK VINA RESULT:      -3.4     12.064     13.029
REMARK  1 active torsions:
REMARK  status: ('A' for Active; 'I' for Inactive)
REMARK    1  A    between atoms: C3_3  and  C7_7 
ROOT
HETATM    1  C1  UNL     1     -35.690  15.846  -6.069  1.00 20.00     0.089 C 
HETATM    2  C2  UNL     1     -34.354  15.390  -6.639  1.00 20.00     0.053 C 
HETATM    3  C3  UNL     1     -34.198  15.224  -3.898  1.00 20.00     0.112 C 
HETATM    4  C4  UNL     1     -34.368  13.957  -7.166  1.00 20.00     0.022 C 
HETATM    5  S8  UNL     1     -35.925  15.076  -4.448  1.00 20.00    -0.152 SA
HETATM    6  S9  UNL     1     -33.108  15.566  -5.320  1.00 20.00    -0.148 SA
ENDROOT
BRANCH   3   7
HETATM    7  C7  UNL     1     -34.073  16.349  -2.878  1.00 20.00     0.001 C 
HETATM    8  C5  UNL     1     -33.585  17.634  -3.548  1.00 20.00     0.011 C 
HETATM    9  C6  UNL     1     -35.408  16.589  -2.172  1.00 20.00     0.011 C 
ENDBRANCH   3   7
TORSDOF 1
ENDMDL
MODEL 5
REMARK VINA RESULT:      -3.4     11.828     12.729
REMARK  1 active torsions:
REMARK  status: ('A' for Active; 'I' for Inactive)
REMARK    1  A    between atoms: C3_3  and  C7_7 
ROOT
HETATM    1  C1  UNL     1     -33.762  16.353  -4.718  1.00 20.00     0.089 C 
HETATM    2  C2  UNL     1     -34.921  16.681  -3.786  1.00 20.00     0.053 C 
HETATM    3  C3  UNL     1     -35.235  14.083  -4.633  1.00 20.00     0.112 C 
HETATM    4  C4  UNL     1     -34.554  16.619  -2.305  1.00 20.00     0.022 C 
HETATM    5  S8  UNL     1     -33.482  14.564  -4.691  1.00 20.00    -0.152 SA
HETATM    6  S9  UNL     1     -36.267  15.509  -4.153  1.00 20.00    -0.148 SA
ENDROOT
BRANCH   3   7
HETATM    7  C7  UNL     1     -35.678  13.570  -5.997  1.00 20.00     0.001 C 
HETATM    8  C5  UNL     1     -36.854  14.390  -6.527  1.00 20.00     0.011 C 
HETATM    9  C6  UNL     1     -34.515  13.602  -6.989  1.00 20.00     0.011 C 
ENDBRANCH   3   7
TORSDOF 1
ENDMDL
MODEL 6
REMARK VINA RESULT:      -3.3     11.742     13.370
REMARK  1 active torsions:
REMARK  status: ('A' for Active; 'I' for Inactive)
REMARK    1  A    between atoms: C3_3  and  C7_7 
ROOT
HETATM    1  C1  UNL     1     -34.683  14.189  -4.171  1.00 20.00     0.089 C 
HETATM    2  C2  UNL     1     -33.543  15.197  -4.124  1.00 20.00     0.053 C 
HETATM    3  C3  UNL     1     -35.136  15.831  -6.274  1.00 20.00     0.112 C 
HETATM    4  C4  UNL     1     -33.743  16.301  -3.088  1.00 20.00     0.022 C 
HETATM    5  S8  UNL     1     -36.097  14.948  -5.008  1.00 20.00    -0.152 SA
HETATM    6  S9  UNL     1     -33.379  15.916  -5.790  1.00 20.00    -0.148 SA
ENDROOT
BRANCH   3   7
HETATM    7  C7  UNL     1     -35.262  15.117  -7.613  1.00 20.00     0.001 C 
HETATM    8  C5  UNL     1     -34.002  14.303  -7.913  1.00 20.00     0.011 C 
HETATM    9  C6  UNL     1     -36.496  14.215  -7.631  1.00 20.00     0.011 C 
ENDBRANCH   3   7
TORSDOF 1
ENDMDL
MODEL 7
REMARK VINA RESULT:      -3.2     12.197     13.651
REMARK  1 active torsions:
REMARK  status: ('A' for Active; 'I' for Inactive)
REMARK    1  A    between atoms: C3_3  and  C7_7 
ROOT
HETATM    1  C1  UNL     1     -35.385  17.043  -4.403  1.00 20.00     0.089 C 
HETATM    2  C2  UNL     1     -34.801  16.074  -3.384  1.00 20.00     0.053 C 
HETATM    3  C3  UNL     1     -33.270  15.919  -5.664  1.00 20.00     0.112 C 
HETATM    4  C4  UNL     1     -33.938  16.749  -2.320  1.00 20.00     0.022 C 
HETATM    5  S8  UNL     1     -34.075  17.546  -5.546  1.00 20.00    -0.152 SA
HETATM    6  S9  UNL     1     -33.823  14.840  -4.301  1.00 20.00    -0.148 SA
ENDROOT
BRANCH   3   7
HETATM    7  C7  UNL     1     -33.608  15.269  -6.999  1.00 20.00     0.001 C 
HETATM    8  C5  UNL     1     -34.465  14.020  -6.790  1.00 20.00     0.011 C 
HETATM    9  C6  UNL     1     -34.322  16.260  -7.918  1.00 20.00     0.011 C 
ENDBRANCH   3   7
TORSDOF 1
ENDMDL
MODEL 8
REMARK VINA RESULT:      -3.1     12.078     13.126
REMARK  1 active torsions:
REMARK  status: ('A' for Active; 'I' for Inactive)
REMARK    1  A    between atoms: C3_3  and  C7_7 
ROOT
HETATM    1  C1  UNL     1     -36.286  13.946  -6.392  1.00 20.00     0.089 C 
HETATM    2  C2  UNL     1     -37.525  14.608  -5.802  1.00 20.00     0.053 C 
HETATM    3  C3  UNL     1     -35.318  15.878  -4.763  1.00 20.00     0.112 C 
HETATM    4  C4  UNL     1     -38.199  15.600  -6.747  1.00 20.00     0.022 C 
HETATM    5  S8  UNL     1     -34.925  15.139  -6.378  1.00 20.00    -0.152 SA
HETATM    6  S9  UNL     1     -37.018  15.444  -4.264  1.00 20.00    -0.148 SA
ENDROOT
BRANCH   3   7
HETATM    7  C7  UNL     1     -34.335  15.380  -3.712  1.00 20.00     0.001 C 
HETATM    8  C5  UNL     1     -33.155  14.664  -4.371  1.00 20.00     0.011 C 
HETATM    9  C6  UNL     1     -33.840  16.536  -2.843  1.00 20.00     0.011 C 
ENDBRANCH   3   7
TORSDOF 1
ENDMDL
MODEL 9
REMARK VINA RESULT:      -3.1     12.332     13.156
REMARK  1 active torsions:
REMARK  status: ('A' for Active; 'I' for Inactive)
REMARK    1  A    between atoms: C3_3  and  C7_7 
ROOT
HETATM    1  C1  UNL     1     -33.977  17.316  -4.843  1.00 20.00     0.089 C 
HETATM    2  C2  UNL     1     -34.887  17.012  -3.660  1.00 20.00     0.053 C 
HETATM    3  C3  UNL     1     -34.776  14.759  -5.235  1.00 20.00     0.112 C 
HETATM    4  C4  UNL     1     -34.132  16.686  -2.373  1.00 20.00     0.022 C 
HETATM    5  S8  UNL     1     -33.274  15.762  -5.451  1.00 20.00    -0.152 SA
HETATM    6  S9  UNL     1     -35.955  15.614  -4.137  1.00 20.00    -0.148 SA
ENDROOT
BRANCH   3   7
HETATM    7  C7  UNL     1     -35.429  14.506  -6.587  1.00 20.00     0.001 C 
HETATM    8  C5  UNL     1     -34.835  13.262  -7.249  1.00 20.00     0.011 C 
HETATM    9  C6  UNL     1     -36.943  14.358  -6.436  1.00 20.00     0.011 C 
ENDBRANCH   3   7
TORSDOF 1
ENDMDL
