MODEL 1
REMARK VINA RESULT:      -3.4      0.000      0.000
REMARK  1 active torsions:
REMARK  status: ('A' for Active; 'I' for Inactive)
REMARK    1  A    between atoms: C7_7  and  N8_8 
ROOT
HETATM    1  C1  UNL     1     -35.250  15.760  -6.497  1.00 20.00     0.137 C 
HETATM    2  C2  UNL     1     -35.662  14.005  -4.906  1.00 20.00     0.140 C 
HETATM    3  C3  UNL     1     -37.002  14.020  -5.625  1.00 20.00     0.068 C 
HETATM    4  C4  UNL     1     -38.077  14.771  -4.850  1.00 20.00     0.023 C 
HETATM    5  N8  UNL     1     -34.916  15.201  -5.271  1.00 20.00    -0.361 N 
HETATM    6  S9  UNL     1     -34.531  17.042  -7.289  1.00 20.00    -0.053 SA
HETATM    7  S10 UNL     1     -36.629  14.891  -7.176  1.00 20.00    -0.095 SA
ENDROOT
BRANCH   5   8
HETATM    8  C7  UNL     1     -33.794  15.585  -4.423  1.00 20.00     0.077 C 
HETATM    9  C5  UNL     1     -32.862  14.393  -4.259  1.00 20.00     0.032 C 
HETATM   10  C6  UNL     1     -34.332  16.067  -3.084  1.00 20.00     0.032 C 
ENDBRANCH   5   8
TORSDOF 1
ENDMDL
MODEL 2
REMARK VINA RESULT:      -3.4      2.027      2.896
REMARK  1 active torsions:
REMARK  status: ('A' for Active; 'I' for Inactive)
REMARK    1  A    between atoms: C7_7  and  N8_8 
ROOT
HETATM    1  C1  UNL     1     -33.899  17.228  -5.102  1.00 20.00     0.137 C 
HETATM    2  C2  UNL     1     -33.677  15.346  -3.623  1.00 20.00     0.140 C 
HETATM    3  C3  UNL     1     -33.839  14.615  -4.947  1.00 20.00     0.068 C 
HETATM    4  C4  UNL     1     -35.253  14.090  -5.159  1.00 20.00     0.023 C 
HETATM    5  N8  UNL     1     -34.035  16.744  -3.808  1.00 20.00    -0.361 N 
HETATM    6  S9  UNL     1     -34.094  18.790  -5.657  1.00 20.00    -0.053 SA
HETATM    7  S10 UNL     1     -33.459  15.897  -6.177  1.00 20.00    -0.095 SA
ENDROOT
BRANCH   5   8
HETATM    8  C7  UNL     1     -34.322  17.534  -2.616  1.00 20.00     0.077 C 
HETATM    9  C5  UNL     1     -33.022  17.807  -1.874  1.00 20.00     0.032 C 
HETATM   10  C6  UNL     1     -35.316  16.774  -1.751  1.00 20.00     0.032 C 
ENDBRANCH   5   8
TORSDOF 1
ENDMDL
MODEL 3
REMARK VINA RESULT:      -3.3      1.727      3.526
REMARK  1 active torsions:
REMARK  status: ('A' for Active; 'I' for Inactive)
REMARK    1  A    between atoms: C7_7  and  N8_8 
ROOT
HETATM    1  C1  UNL     1     -35.779  15.101  -5.012  1.00 20.00     0.137 C 
HETATM    2  C2  UNL     1     -33.900  16.394  -4.254  1.00 20.00     0.140 C 
HETATM    3  C3  UNL     1     -33.177  15.377  -5.123  1.00 20.00     0.068 C 
HETATM    4  C4  UNL     1     -32.542  14.255  -4.311  1.00 20.00     0.023 C 
HETATM    5  N8  UNL     1     -35.266  15.945  -4.036  1.00 20.00    -0.361 N 
HETATM    6  S9  UNL     1     -37.328  14.496  -5.160  1.00 20.00    -0.053 SA
HETATM    7  S10 UNL     1     -34.504  14.712  -6.171  1.00 20.00    -0.095 SA
ENDROOT
BRANCH   5   8
HETATM    8  C7  UNL     1     -36.012  16.549  -2.939  1.00 20.00     0.077 C 
HETATM    9  C5  UNL     1     -36.611  17.867  -3.409  1.00 20.00     0.032 C 
HETATM   10  C6  UNL     1     -35.076  16.746  -1.757  1.00 20.00     0.032 C 
ENDBRANCH   5   8
TORSDOF 1
ENDMDL
MODEL 4
REMARK VINA RESULT:      -3.3      2.081      2.624
REMARK  1 active torsions:
REMARK  status: ('A' for Active; 'I' for Inactive)
REMARK    1  A    between atoms: C7_7  and  N8_8 
ROOT
HETATM    1  C1  UNL     1     -34.935  14.818  -4.532  1.00 20.00     0.137 C 
HETATM    2  C2  UNL     1     -37.207  15.488  -4.123  1.00 20.00     0.140 C 
HETATM    3  C3  UNL     1     -37.434  14.479  -5.237  1.00 20.00     0.068 C 
HETATM    4  C4  UNL     1     -37.641  15.139  -6.595  1.00 20.00     0.023 C 
HETATM    5  N8  UNL     1     -35.788  15.801  -4.049  1.00 20.00    -0.361 N 
HETATM    6  S9  UNL     1     -33.267  14.774  -4.494  1.00 20.00    -0.053 SA
HETATM    7  S10 UNL     1     -35.893  13.516  -5.243  1.00 20.00    -0.095 SA
ENDROOT
BRANCH   5   8
HETATM    8  C7  UNL     1     -35.396  17.008  -3.330  1.00 20.00     0.077 C 
HETATM    9  C5  UNL     1     -35.291  16.691  -1.845  1.00 20.00     0.032 C 
HETATM   10  C6  UNL     1     -36.421  18.098  -3.603  1.00 20.00     0.032 C 
ENDBRANCH   5   8
TORSDOF 1
ENDMDL
MODEL 5
REMARK VINA RESULT:      -3.3      2.133      3.135
REMARK  1 active torsions:
REMARK  status: ('A' for Active; 'I' for Inactive)
REMARK    1  A    between atoms: C7_7  and  N8_8 
ROOT
HETATM    1  C1  UNL     1     -35.336  17.407  -4.516  1.00 20.00     0.137 C 
HETATM    2  C2  UNL     1     -33.572  15.996  -3.691  1.00 20.00     0.140 C 
HETATM    3  C3  UNL     1     -34.048  15.153  -4.863  1.00 20.00     0.068 C 
HETATM    4  C4  UNL     1     -34.960  14.010  -4.434  1.00 20.00     0.023 C 
HETATM    5  N8  UNL     1     -34.552  17.040  -3.430  1.00 20.00    -0.361 N 
HETATM    6  S9  UNL     1     -36.460  18.636  -4.623  1.00 20.00    -0.053 SA
HETATM    7  S10 UNL     1     -34.976  16.341  -5.878  1.00 20.00    -0.095 SA
ENDROOT
BRANCH   5   8
HETATM    8  C7  UNL     1     -34.499  17.712  -2.137  1.00 20.00     0.077 C 
HETATM    9  C5  UNL     1     -33.057  17.745  -1.651  1.00 20.00     0.032 C 
HETATM   10  C6  UNL     1     -35.405  16.976  -1.162  1.00 20.00     0.032 C 
ENDBRANCH   5   8
TORSDOF 1
ENDMDL
MODEL 6
REMARK VINA RESULT:      -3.2      2.457      3.109
REMARK  1 active torsions:
REMARK  status: ('A' for Active; 'I' for Inactive)
REMARK    1  A    between atoms: C7_7  and  N8_8 
ROOT
HETATM    1  C1  UNL     1     -34.655  17.831  -4.750  1.00 20.00     0.137 C 
HETATM    2  C2  UNL     1     -35.264  15.700  -3.819  1.00 20.00     0.140 C 
HETATM    3  C3  UNL     1     -36.031  16.619  -2.881  1.00 20.00     0.068 C 
HETATM    4  C4  UNL     1     -35.318  16.828  -1.550  1.00 20.00     0.023 C 
HETATM    5  N8  UNL     1     -34.319  16.494  -4.591  1.00 20.00    -0.361 N 
HETATM    6  S9  UNL     1     -33.887  18.997  -5.665  1.00 20.00    -0.053 SA
HETATM    7  S10 UNL     1     -36.102  18.184  -3.801  1.00 20.00    -0.095 SA
ENDROOT
BRANCH   5   8
HETATM    8  C7  UNL     1     -33.231  15.791  -5.260  1.00 20.00     0.077 C 
HETATM    9  C5  UNL     1     -33.660  15.439  -6.677  1.00 20.00     0.032 C 
HETATM   10  C6  UNL     1     -32.878  14.550  -4.454  1.00 20.00     0.032 C 
ENDBRANCH   5   8
TORSDOF 1
ENDMDL
MODEL 7
REMARK VINA RESULT:      -3.2      2.342      3.734
REMARK  1 active torsions:
REMARK  status: ('A' for Active; 'I' for Inactive)
REMARK    1  A    between atoms: C7_7  and  N8_8 
ROOT
HETATM    1  C1  UNL     1     -34.826  15.575  -3.753  1.00 20.00     0.137 C 
HETATM    2  C2  UNL     1     -35.638  14.256  -5.592  1.00 20.00     0.140 C 
HETATM    3  C3  UNL     1     -34.161  14.312  -5.949  1.00 20.00     0.068 C 
HETATM    4  C4  UNL     1     -33.855  15.349  -7.022  1.00 20.00     0.023 C 
HETATM    5  N8  UNL     1     -35.911  15.235  -4.550  1.00 20.00    -0.361 N 
HETATM    6  S9  UNL     1     -34.791  16.553  -2.401  1.00 20.00    -0.053 SA
HETATM    7  S10 UNL     1     -33.375  14.788  -4.381  1.00 20.00    -0.095 SA
ENDROOT
BRANCH   5   8
HETATM    8  C7  UNL     1     -37.299  15.622  -4.330  1.00 20.00     0.077 C 
HETATM    9  C5  UNL     1     -38.213  14.582  -4.962  1.00 20.00     0.032 C 
HETATM   10  C6  UNL     1     -37.525  17.005  -4.922  1.00 20.00     0.032 C 
ENDBRANCH   5   8
TORSDOF 1
ENDMDL
MODEL 8
REMARK VINA RESULT:      -3.1      1.906      3.302
REMARK  1 active torsions:
REMARK  status: ('A' for Active; 'I' for Inactive)
REMARK    1  A    between atoms: C7_7  and  N8_8 
ROOT
HETATM    1  C1  UNL     1     -36.374  16.064  -5.553  1.00 20.00     0.137 C 
HETATM    2  C2  UNL     1     -34.830  14.386  -4.791  1.00 20.00     0.140 C 
HETATM    3  C3  UNL     1     -34.858  15.284  -3.564  1.00 20.00     0.068 C 
HETATM    4  C4  UNL     1     -33.653  16.213  -3.488  1.00 20.00     0.023 C 
HETATM    5  N8  UNL     1     -35.454  15.085  -5.904  1.00 20.00    -0.361 N 
HETATM    6  S9  UNL     1     -37.362  16.971  -6.546  1.00 20.00    -0.053 SA
HETATM    7  S10 UNL     1     -36.378  16.253  -3.797  1.00 20.00    -0.095 SA
ENDROOT
BRANCH   5   8
HETATM    8  C7  UNL     1     -35.198  14.583  -7.249  1.00 20.00     0.077 C 
HETATM    9  C5  UNL     1     -35.117  13.064  -7.208  1.00 20.00     0.032 C 
HETATM   10  C6  UNL     1     -33.910  15.202  -7.769  1.00 20.00     0.032 C 
ENDBRANCH   5   8
TORSDOF 1
ENDMDL
MODEL 9
REMARK VINA RESULT:      -3.1      1.621      3.720
REMARK  1 active torsions:
REMARK  status: ('A' for Active; 'I' for Inactive)
REMARK    1  A    between atoms: C7_7  and  N8_8 
ROOT
HETATM    1  C1  UNL     1     -34.796  14.928  -6.310  1.00 20.00     0.137 C 
HETATM    2  C2  UNL     1     -35.982  16.569  -5.015  1.00 20.00     0.140 C 
HETATM    3  C3  UNL     1     -34.587  16.745  -4.437  1.00 20.00     0.068 C 
HETATM    4  C4  UNL     1     -34.410  16.036  -3.100  1.00 20.00     0.023 C 
HETATM    5  N8  UNL     1     -36.018  15.345  -5.799  1.00 20.00    -0.361 N 
HETATM    6  S9  UNL     1     -34.477  13.657  -7.344  1.00 20.00    -0.053 SA
HETATM    7  S10 UNL     1     -33.519  15.980  -5.693  1.00 20.00    -0.095 SA
ENDROOT
BRANCH   5   8
HETATM    8  C7  UNL     1     -37.325  14.783  -6.120  1.00 20.00     0.077 C 
HETATM    9  C5  UNL     1     -37.976  15.626  -7.208  1.00 20.00     0.032 C 
HETATM   10  C6  UNL     1     -38.169  14.747  -4.855  1.00 20.00     0.032 C 
ENDBRANCH   5   8
TORSDOF 1
ENDMDL
