MODEL 1
REMARK VINA RESULT:      -4.6      0.000      0.000
REMARK  1 active torsions:
REMARK  status: ('A' for Active; 'I' for Inactive)
REMARK    1  A    between atoms: C8_8  and  C11_11 
ROOT
HETATM    1  C1  UNL     1     -33.982  16.892  -2.655  1.00 20.00    -0.079 C 
HETATM    2  C2  UNL     1     -35.310  14.472  -4.618  1.00 20.00     0.132 C 
HETATM    3  C3  UNL     1     -33.161  17.494  -1.797  1.00 20.00     0.015 C 
HETATM    4  C4  UNL     1     -35.485  16.481  -2.623  1.00 20.00     0.047 C 
HETATM    5  C5  UNL     1     -34.015  14.307  -5.419  1.00 20.00     0.080 C 
HETATM    6  C6  UNL     1     -32.996  15.213  -4.638  1.00 20.00     0.022 C 
HETATM    7  C7  UNL     1     -34.912  15.320  -3.421  1.00 20.00     0.072 C 
HETATM    8  C8  UNL     1     -33.858  16.341  -4.063  1.00 20.00    -0.004 C 
HETATM    9  O12 UNL     1     -36.392  13.997  -4.926  1.00 20.00    -0.298 OA
ENDROOT
BRANCH   8  10
HETATM   10  C11 UNL     1     -34.217  17.377  -5.137  1.00 20.00    -0.009 C 
HETATM   11  C9  UNL     1     -33.550  18.712  -4.829  1.00 20.00     0.011 C 
HETATM   12  C10 UNL     1     -33.811  16.872  -6.517  1.00 20.00     0.011 C 
ENDBRANCH   8  10
TORSDOF 1
ENDMDL
MODEL 2
REMARK VINA RESULT:      -4.5      1.839      3.898
REMARK  1 active torsions:
REMARK  status: ('A' for Active; 'I' for Inactive)
REMARK    1  A    between atoms: C8_8  and  C11_11 
ROOT
HETATM    1  C1  UNL     1     -34.596  14.533  -6.810  1.00 20.00    -0.079 C 
HETATM    2  C2  UNL     1     -37.575  14.714  -5.208  1.00 20.00     0.132 C 
HETATM    3  C3  UNL     1     -33.610  14.835  -7.653  1.00 20.00     0.015 C 
HETATM    4  C4  UNL     1     -35.570  13.326  -6.656  1.00 20.00     0.047 C 
HETATM    5  C5  UNL     1     -37.306  16.138  -4.711  1.00 20.00     0.080 C 
HETATM    6  C6  UNL     1     -35.975  16.527  -5.450  1.00 20.00     0.022 C 
HETATM    7  C7  UNL     1     -36.494  14.463  -6.246  1.00 20.00     0.072 C 
HETATM    8  C8  UNL     1     -35.226  15.199  -5.601  1.00 20.00    -0.004 C 
HETATM    9  O12 UNL     1     -38.481  13.993  -4.818  1.00 20.00    -0.298 OA
ENDROOT
BRANCH   8  10
HETATM   10  C11 UNL     1     -34.568  14.771  -4.281  1.00 20.00    -0.009 C 
HETATM   11  C9  UNL     1     -33.088  14.481  -4.497  1.00 20.00     0.011 C 
HETATM   12  C10 UNL     1     -34.763  15.847  -3.220  1.00 20.00     0.011 C 
ENDBRANCH   8  10
TORSDOF 1
ENDMDL
MODEL 3
REMARK VINA RESULT:      -4.5      1.197      2.978
REMARK  1 active torsions:
REMARK  status: ('A' for Active; 'I' for Inactive)
REMARK    1  A    between atoms: C8_8  and  C11_11 
ROOT
HETATM    1  C1  UNL     1     -33.984  17.012  -5.175  1.00 20.00    -0.079 C 
HETATM    2  C2  UNL     1     -35.744  14.121  -5.030  1.00 20.00     0.132 C 
HETATM    3  C3  UNL     1     -33.648  18.255  -5.516  1.00 20.00     0.015 C 
HETATM    4  C4  UNL     1     -33.358  15.606  -5.420  1.00 20.00     0.047 C 
HETATM    5  C5  UNL     1     -37.001  14.826  -4.512  1.00 20.00     0.080 C 
HETATM    6  C6  UNL     1     -36.624  16.348  -4.613  1.00 20.00     0.022 C 
HETATM    7  C7  UNL     1     -34.836  15.252  -5.488  1.00 20.00     0.072 C 
HETATM    8  C8  UNL     1     -35.110  16.377  -4.381  1.00 20.00    -0.004 C 
HETATM    9  O12 UNL     1     -35.573  12.912  -5.049  1.00 20.00    -0.298 OA
ENDROOT
BRANCH   8  10
HETATM   10  C11 UNL     1     -34.765  16.214  -2.894  1.00 20.00    -0.009 C 
HETATM   11  C9  UNL     1     -33.418  16.857  -2.590  1.00 20.00     0.011 C 
HETATM   12  C10 UNL     1     -35.864  16.818  -2.027  1.00 20.00     0.011 C 
ENDBRANCH   8  10
TORSDOF 1
ENDMDL
MODEL 4
REMARK VINA RESULT:      -4.5      1.933      3.510
REMARK  1 active torsions:
REMARK  status: ('A' for Active; 'I' for Inactive)
REMARK    1  A    between atoms: C8_8  and  C11_11 
ROOT
HETATM    1  C1  UNL     1     -36.964  14.480  -5.130  1.00 20.00    -0.079 C 
HETATM    2  C2  UNL     1     -33.728  14.402  -4.131  1.00 20.00     0.132 C 
HETATM    3  C3  UNL     1     -38.292  14.551  -5.059  1.00 20.00     0.015 C 
HETATM    4  C4  UNL     1     -35.950  13.379  -5.566  1.00 20.00     0.047 C 
HETATM    5  C5  UNL     1     -33.827  15.770  -3.450  1.00 20.00     0.080 C 
HETATM    6  C6  UNL     1     -35.360  16.104  -3.544  1.00 20.00     0.022 C 
HETATM    7  C7  UNL     1     -35.169  14.020  -4.430  1.00 20.00     0.072 C 
HETATM    8  C8  UNL     1     -35.815  15.427  -4.840  1.00 20.00    -0.004 C 
HETATM    9  O12 UNL     1     -32.688  13.800  -4.351  1.00 20.00    -0.298 OA
ENDROOT
BRANCH   8  10
HETATM   10  C11 UNL     1     -35.390  16.235  -6.075  1.00 20.00    -0.009 C 
HETATM   11  C9  UNL     1     -36.592  16.501  -6.972  1.00 20.00     0.011 C 
HETATM   12  C10 UNL     1     -34.728  17.541  -5.651  1.00 20.00     0.011 C 
ENDBRANCH   8  10
TORSDOF 1
ENDMDL
MODEL 5
REMARK VINA RESULT:      -4.5      2.351      4.092
REMARK  1 active torsions:
REMARK  status: ('A' for Active; 'I' for Inactive)
REMARK    1  A    between atoms: C8_8  and  C11_11 
ROOT
HETATM    1  C1  UNL     1     -34.584  15.395  -3.916  1.00 20.00    -0.079 C 
HETATM    2  C2  UNL     1     -33.348  18.011  -2.154  1.00 20.00     0.132 C 
HETATM    3  C3  UNL     1     -35.005  14.163  -4.193  1.00 20.00     0.015 C 
HETATM    4  C4  UNL     1     -33.392  16.276  -4.398  1.00 20.00     0.047 C 
HETATM    5  C5  UNL     1     -34.469  17.936  -1.113  1.00 20.00     0.080 C 
HETATM    6  C6  UNL     1     -35.232  16.619  -1.507  1.00 20.00     0.022 C 
HETATM    7  C7  UNL     1     -33.476  16.719  -2.945  1.00 20.00     0.072 C 
HETATM    8  C8  UNL     1     -35.064  16.526  -3.026  1.00 20.00    -0.004 C 
HETATM    9  O12 UNL     1     -32.555  18.933  -2.267  1.00 20.00    -0.298 OA
ENDROOT
BRANCH   8  10
HETATM   10  C11 UNL     1     -36.007  17.494  -3.757  1.00 20.00    -0.009 C 
HETATM   11  C9  UNL     1     -36.754  16.767  -4.867  1.00 20.00     0.011 C 
HETATM   12  C10 UNL     1     -36.981  18.128  -2.771  1.00 20.00     0.011 C 
ENDBRANCH   8  10
TORSDOF 1
ENDMDL
MODEL 6
REMARK VINA RESULT:      -4.4      1.705      2.350
REMARK  1 active torsions:
REMARK  status: ('A' for Active; 'I' for Inactive)
REMARK    1  A    between atoms: C8_8  and  C11_11 
ROOT
HETATM    1  C1  UNL     1     -34.163  15.769  -3.969  1.00 20.00    -0.079 C 
HETATM    2  C2  UNL     1     -34.340  13.855  -6.759  1.00 20.00     0.132 C 
HETATM    3  C3  UNL     1     -33.658  16.571  -3.034  1.00 20.00     0.015 C 
HETATM    4  C4  UNL     1     -34.694  14.303  -3.980  1.00 20.00     0.047 C 
HETATM    5  C5  UNL     1     -33.951  15.020  -7.673  1.00 20.00     0.080 C 
HETATM    6  C6  UNL     1     -33.577  16.160  -6.658  1.00 20.00     0.022 C 
HETATM    7  C7  UNL     1     -34.045  14.358  -5.355  1.00 20.00     0.072 C 
HETATM    8  C8  UNL     1     -34.478  15.897  -5.448  1.00 20.00    -0.004 C 
HETATM    9  O12 UNL     1     -34.779  12.780  -7.138  1.00 20.00    -0.298 OA
ENDROOT
BRANCH   8  10
HETATM   10  C11 UNL     1     -35.918  16.366  -5.706  1.00 20.00    -0.009 C 
HETATM   11  C9  UNL     1     -36.402  17.244  -4.560  1.00 20.00     0.011 C 
HETATM   12  C10 UNL     1     -36.002  17.109  -7.034  1.00 20.00     0.011 C 
ENDBRANCH   8  10
TORSDOF 1
ENDMDL
MODEL 7
REMARK VINA RESULT:      -4.4      1.793      2.537
REMARK  1 active torsions:
REMARK  status: ('A' for Active; 'I' for Inactive)
REMARK    1  A    between atoms: C8_8  and  C11_11 
ROOT
HETATM    1  C1  UNL     1     -33.535  14.457  -4.592  1.00 20.00    -0.079 C 
HETATM    2  C2  UNL     1     -36.641  13.880  -5.816  1.00 20.00     0.132 C 
HETATM    3  C3  UNL     1     -32.256  14.253  -4.283  1.00 20.00     0.015 C 
HETATM    4  C4  UNL     1     -34.841  14.653  -3.764  1.00 20.00     0.047 C 
HETATM    5  C5  UNL     1     -36.119  13.645  -7.236  1.00 20.00     0.080 C 
HETATM    6  C6  UNL     1     -34.559  13.652  -7.047  1.00 20.00     0.022 C 
HETATM    7  C7  UNL     1     -35.394  13.871  -4.946  1.00 20.00     0.072 C 
HETATM    8  C8  UNL     1     -34.324  14.613  -5.879  1.00 20.00    -0.004 C 
HETATM    9  O12 UNL     1     -37.815  14.028  -5.514  1.00 20.00    -0.298 OA
ENDROOT
BRANCH   8  10
HETATM   10  C11 UNL     1     -34.447  16.078  -6.322  1.00 20.00    -0.009 C 
HETATM   11  C9  UNL     1     -33.532  16.963  -5.486  1.00 20.00     0.011 C 
HETATM   12  C10 UNL     1     -34.125  16.210  -7.806  1.00 20.00     0.011 C 
ENDBRANCH   8  10
TORSDOF 1
ENDMDL
MODEL 8
REMARK VINA RESULT:      -4.4      1.938      3.650
REMARK  1 active torsions:
REMARK  status: ('A' for Active; 'I' for Inactive)
REMARK    1  A    between atoms: C8_8  and  C11_11 
ROOT
HETATM    1  C1  UNL     1     -36.025  16.270  -5.107  1.00 20.00    -0.079 C 
HETATM    2  C2  UNL     1     -35.128  16.823  -1.888  1.00 20.00     0.132 C 
HETATM    3  C3  UNL     1     -36.178  16.474  -6.414  1.00 20.00     0.015 C 
HETATM    4  C4  UNL     1     -37.002  16.132  -3.901  1.00 20.00     0.047 C 
HETATM    5  C5  UNL     1     -33.648  16.980  -2.249  1.00 20.00     0.080 C 
HETATM    6  C6  UNL     1     -33.661  16.964  -3.820  1.00 20.00     0.022 C 
HETATM    7  C7  UNL     1     -35.851  16.860  -3.224  1.00 20.00     0.072 C 
HETATM    8  C8  UNL     1     -34.844  16.060  -4.178  1.00 20.00    -0.004 C 
HETATM    9  O12 UNL     1     -35.566  16.705  -0.754  1.00 20.00    -0.298 OA
ENDROOT
BRANCH   8  10
HETATM   10  C11 UNL     1     -34.492  14.576  -3.997  1.00 20.00    -0.009 C 
HETATM   11  C9  UNL     1     -35.390  13.709  -4.871  1.00 20.00     0.011 C 
HETATM   12  C10 UNL     1     -33.022  14.337  -4.321  1.00 20.00     0.011 C 
ENDBRANCH   8  10
TORSDOF 1
ENDMDL
MODEL 9
REMARK VINA RESULT:      -4.3      2.144      4.134
REMARK  1 active torsions:
REMARK  status: ('A' for Active; 'I' for Inactive)
REMARK    1  A    between atoms: C8_8  and  C11_11 
ROOT
HETATM    1  C1  UNL     1     -34.318  14.810  -6.834  1.00 20.00    -0.079 C 
HETATM    2  C2  UNL     1     -33.559  17.010  -4.372  1.00 20.00     0.132 C 
HETATM    3  C3  UNL     1     -34.322  13.685  -7.547  1.00 20.00     0.015 C 
HETATM    4  C4  UNL     1     -33.835  16.268  -7.096  1.00 20.00     0.047 C 
HETATM    5  C5  UNL     1     -34.061  16.068  -3.273  1.00 20.00     0.080 C 
HETATM    6  C6  UNL     1     -34.367  14.740  -4.055  1.00 20.00     0.022 C 
HETATM    7  C7  UNL     1     -33.497  16.141  -5.618  1.00 20.00     0.072 C 
HETATM    8  C8  UNL     1     -34.791  15.212  -5.449  1.00 20.00    -0.004 C 
HETATM    9  O12 UNL     1     -33.281  18.188  -4.214  1.00 20.00    -0.298 OA
ENDROOT
BRANCH   8  10
HETATM   10  C11 UNL     1     -36.231  15.745  -5.449  1.00 20.00    -0.009 C 
HETATM   11  C9  UNL     1     -37.050  15.056  -6.534  1.00 20.00     0.011 C 
HETATM   12  C10 UNL     1     -36.868  15.546  -4.079  1.00 20.00     0.011 C 
ENDBRANCH   8  10
TORSDOF 1
ENDMDL
