MODEL 1
REMARK VINA RESULT:      -6.7      0.000      0.000
REMARK  0 active torsions:
REMARK  status: ('A' for Active; 'I' for Inactive)
ROOT
HETATM    1  C1  UNL     1     -33.939   4.568   3.613  1.00 20.00     0.088 C 
HETATM    2  C2  UNL     1     -32.892   6.535   2.696  1.00 20.00    -0.041 C 
HETATM    3  C3  UNL     1     -32.855   7.248   3.975  1.00 20.00    -0.050 C 
HETATM    4  C4  UNL     1     -33.392   5.299   2.530  1.00 20.00     0.101 C 
HETATM    5  C5  UNL     1     -33.682   7.012   5.007  1.00 20.00    -0.081 C 
HETATM    6  C6  UNL     1     -32.296   7.283   1.519  1.00 20.00     0.044 C 
HETATM    7  C7  UNL     1     -31.827   8.351   4.041  1.00 20.00     0.040 C 
HETATM    8  C8  UNL     1     -32.011   9.385   2.925  1.00 20.00     0.009 C 
HETATM    9  C9  UNL     1     -32.569   8.792   1.616  1.00 20.00    -0.014 C 
HETATM   10  C10 UNL     1     -33.587   7.782   6.289  1.00 20.00     0.043 C 
HETATM   11  C11 UNL     1     -34.751   5.962   4.940  1.00 20.00     0.043 C 
HETATM   12  C12 UNL     1     -32.017   9.534   0.400  1.00 20.00     0.010 C 
HETATM   13  N13 UNL     1     -34.388   3.963   4.495  1.00 20.00    -0.192 NA
ENDROOT
TORSDOF 0
ENDMDL
MODEL 2
REMARK VINA RESULT:      -5.7     10.913     11.781
REMARK  0 active torsions:
REMARK  status: ('A' for Active; 'I' for Inactive)
ROOT
HETATM    1  C1  UNL     1     -36.975  14.825  -5.019  1.00 20.00     0.088 C 
HETATM    2  C2  UNL     1     -36.063  16.236  -3.292  1.00 20.00    -0.041 C 
HETATM    3  C3  UNL     1     -34.672  15.871  -3.573  1.00 20.00    -0.050 C 
HETATM    4  C4  UNL     1     -37.124  15.753  -3.959  1.00 20.00     0.101 C 
HETATM    5  C5  UNL     1     -34.285  14.727  -4.161  1.00 20.00    -0.081 C 
HETATM    6  C6  UNL     1     -36.255  17.243  -2.175  1.00 20.00     0.044 C 
HETATM    7  C7  UNL     1     -33.656  16.875  -3.085  1.00 20.00     0.040 C 
HETATM    8  C8  UNL     1     -33.782  17.147  -1.582  1.00 20.00     0.009 C 
HETATM    9  C9  UNL     1     -35.225  17.040  -1.052  1.00 20.00    -0.014 C 
HETATM   10  C10 UNL     1     -32.842  14.418  -4.419  1.00 20.00     0.043 C 
HETATM   11  C11 UNL     1     -35.275  13.688  -4.598  1.00 20.00     0.043 C 
HETATM   12  C12 UNL     1     -35.460  18.020   0.098  1.00 20.00     0.010 C 
HETATM   13  N13 UNL     1     -36.862  14.066  -5.888  1.00 20.00    -0.192 NA
ENDROOT
TORSDOF 0
ENDMDL
MODEL 3
REMARK VINA RESULT:      -5.0     10.919     12.579
REMARK  0 active torsions:
REMARK  status: ('A' for Active; 'I' for Inactive)
ROOT
HETATM    1  C1  UNL     1     -35.363  13.454  -5.393  1.00 20.00     0.088 C 
HETATM    2  C2  UNL     1     -34.780  15.427  -4.139  1.00 20.00    -0.041 C 
HETATM    3  C3  UNL     1     -34.565  16.255  -5.329  1.00 20.00    -0.050 C 
HETATM    4  C4  UNL     1     -35.149  14.135  -4.170  1.00 20.00     0.101 C 
HETATM    5  C5  UNL     1     -34.248  15.780  -6.544  1.00 20.00    -0.081 C 
HETATM    6  C6  UNL     1     -34.577  16.132  -2.812  1.00 20.00     0.044 C 
HETATM    7  C7  UNL     1     -34.666  17.740  -5.078  1.00 20.00     0.040 C 
HETATM    8  C8  UNL     1     -33.699  18.213  -3.987  1.00 20.00     0.009 C 
HETATM    9  C9  UNL     1     -33.437  17.160  -2.892  1.00 20.00    -0.014 C 
HETATM   10  C10 UNL     1     -34.042  16.687  -7.719  1.00 20.00     0.043 C 
HETATM   11  C11 UNL     1     -34.082  14.312  -6.801  1.00 20.00     0.043 C 
HETATM   12  C12 UNL     1     -33.197  17.827  -1.538  1.00 20.00     0.010 C 
HETATM   13  N13 UNL     1     -35.542  12.888  -6.390  1.00 20.00    -0.192 NA
ENDROOT
TORSDOF 0
ENDMDL
MODEL 4
REMARK VINA RESULT:      -5.0     11.298     12.056
REMARK  0 active torsions:
REMARK  status: ('A' for Active; 'I' for Inactive)
ROOT
HETATM    1  C1  UNL     1     -32.710  18.585  -0.392  1.00 20.00     0.088 C 
HETATM    2  C2  UNL     1     -33.757  17.305  -2.144  1.00 20.00    -0.041 C 
HETATM    3  C3  UNL     1     -35.121  17.602  -1.698  1.00 20.00    -0.050 C 
HETATM    4  C4  UNL     1     -32.646  17.759  -1.540  1.00 20.00     0.101 C 
HETATM    5  C5  UNL     1     -35.460  17.940  -0.443  1.00 20.00    -0.081 C 
HETATM    6  C6  UNL     1     -33.654  16.438  -3.383  1.00 20.00     0.044 C 
HETATM    7  C7  UNL     1     -36.173  17.438  -2.769  1.00 20.00     0.040 C 
HETATM    8  C8  UNL     1     -36.167  16.033  -3.380  1.00 20.00     0.009 C 
HETATM    9  C9  UNL     1     -34.770  15.382  -3.424  1.00 20.00    -0.014 C 
HETATM   10  C10 UNL     1     -36.878  18.231  -0.057  1.00 20.00     0.043 C 
HETATM   11  C11 UNL     1     -34.439  18.048   0.650  1.00 20.00     0.043 C 
HETATM   12  C12 UNL     1     -34.629  14.473  -4.645  1.00 20.00     0.010 C 
HETATM   13  N13 UNL     1     -32.754  19.263   0.549  1.00 20.00    -0.192 NA
ENDROOT
TORSDOF 0
ENDMDL
MODEL 5
REMARK VINA RESULT:      -4.9     11.487     12.436
REMARK  0 active torsions:
REMARK  status: ('A' for Active; 'I' for Inactive)
ROOT
HETATM    1  C1  UNL     1     -33.038  18.530   2.633  1.00 20.00     0.088 C 
HETATM    2  C2  UNL     1     -35.126  18.240   1.465  1.00 20.00    -0.041 C 
HETATM    3  C3  UNL     1     -34.493  17.981   0.169  1.00 20.00    -0.050 C 
HETATM    4  C4  UNL     1     -34.454  18.493   2.601  1.00 20.00     0.101 C 
HETATM    5  C5  UNL     1     -33.265  18.399  -0.180  1.00 20.00    -0.081 C 
HETATM    6  C6  UNL     1     -36.641  18.189   1.468  1.00 20.00     0.044 C 
HETATM    7  C7  UNL     1     -35.367  17.238  -0.812  1.00 20.00     0.040 C 
HETATM    8  C8  UNL     1     -36.697  17.957  -1.066  1.00 20.00     0.009 C 
HETATM    9  C9  UNL     1     -37.224  18.736   0.155  1.00 20.00    -0.014 C 
HETATM   10  C10 UNL     1     -32.679  18.097  -1.526  1.00 20.00     0.043 C 
HETATM   11  C11 UNL     1     -32.403  19.192   0.757  1.00 20.00     0.043 C 
HETATM   12  C12 UNL     1     -38.752  18.736   0.186  1.00 20.00     0.010 C 
HETATM   13  N13 UNL     1     -31.879  18.561   2.669  1.00 20.00    -0.192 NA
ENDROOT
TORSDOF 0
ENDMDL
MODEL 6
REMARK VINA RESULT:      -4.7     11.006     12.371
REMARK  0 active torsions:
REMARK  status: ('A' for Active; 'I' for Inactive)
ROOT
HETATM    1  C1  UNL     1     -35.181  16.993  -1.849  1.00 20.00     0.088 C 
HETATM    2  C2  UNL     1     -36.473  16.073  -3.663  1.00 20.00    -0.041 C 
HETATM    3  C3  UNL     1     -35.409  15.170  -4.110  1.00 20.00    -0.050 C 
HETATM    4  C4  UNL     1     -36.366  16.913  -2.619  1.00 20.00     0.101 C 
HETATM    5  C5  UNL     1     -34.099  15.361  -3.885  1.00 20.00    -0.081 C 
HETATM    6  C6  UNL     1     -37.763  15.998  -4.456  1.00 20.00     0.044 C 
HETATM    7  C7  UNL     1     -35.893  13.996  -4.926  1.00 20.00     0.040 C 
HETATM    8  C8  UNL     1     -36.695  14.434  -6.157  1.00 20.00     0.009 C 
HETATM    9  C9  UNL     1     -37.492  15.737  -5.946  1.00 20.00    -0.014 C 
HETATM   10  C10 UNL     1     -33.062  14.394  -4.373  1.00 20.00     0.043 C 
HETATM   11  C11 UNL     1     -33.591  16.553  -3.130  1.00 20.00     0.043 C 
HETATM   12  C12 UNL     1     -38.791  15.720  -6.750  1.00 20.00     0.010 C 
HETATM   13  N13 UNL     1     -34.214  17.064  -1.212  1.00 20.00    -0.192 NA
ENDROOT
TORSDOF 0
ENDMDL
MODEL 7
REMARK VINA RESULT:      -4.6     11.479     12.210
REMARK  0 active torsions:
REMARK  status: ('A' for Active; 'I' for Inactive)
ROOT
HETATM    1  C1  UNL     1     -35.550  18.119   1.432  1.00 20.00     0.088 C 
HETATM    2  C2  UNL     1     -35.470  17.599  -0.920  1.00 20.00    -0.041 C 
HETATM    3  C3  UNL     1     -34.011  17.700  -1.006  1.00 20.00    -0.050 C 
HETATM    4  C4  UNL     1     -36.179  17.792   0.206  1.00 20.00     0.101 C 
HETATM    5  C5  UNL     1     -33.243  18.418  -0.171  1.00 20.00    -0.081 C 
HETATM    6  C6  UNL     1     -36.172  17.231  -2.212  1.00 20.00     0.044 C 
HETATM    7  C7  UNL     1     -33.406  16.965  -2.178  1.00 20.00     0.040 C 
HETATM    8  C8  UNL     1     -33.996  17.421  -3.517  1.00 20.00     0.009 C 
HETATM    9  C9  UNL     1     -35.472  17.856  -3.429  1.00 20.00    -0.014 C 
HETATM   10  C10 UNL     1     -31.753  18.477  -0.318  1.00 20.00     0.043 C 
HETATM   11  C11 UNL     1     -33.829  19.206   0.963  1.00 20.00     0.043 C 
HETATM   12  C12 UNL     1     -36.216  17.531  -4.724  1.00 20.00     0.010 C 
HETATM   13  N13 UNL     1     -35.044  18.386   2.440  1.00 20.00    -0.192 NA
ENDROOT
TORSDOF 0
ENDMDL
MODEL 8
REMARK VINA RESULT:      -4.5     11.251     12.409
REMARK  0 active torsions:
REMARK  status: ('A' for Active; 'I' for Inactive)
ROOT
HETATM    1  C1  UNL     1     -39.011  15.500  -4.595  1.00 20.00     0.088 C 
HETATM    2  C2  UNL     1     -36.915  14.728  -5.500  1.00 20.00    -0.041 C 
HETATM    3  C3  UNL     1     -36.122  15.204  -4.365  1.00 20.00    -0.050 C 
HETATM    4  C4  UNL     1     -38.248  14.865  -5.605  1.00 20.00     0.101 C 
HETATM    5  C5  UNL     1     -36.485  16.201  -3.542  1.00 20.00    -0.081 C 
HETATM    6  C6  UNL     1     -36.131  14.025  -6.591  1.00 20.00     0.044 C 
HETATM    7  C7  UNL     1     -34.787  14.516  -4.208  1.00 20.00     0.040 C 
HETATM    8  C8  UNL     1     -33.925  14.625  -5.471  1.00 20.00     0.009 C 
HETATM    9  C9  UNL     1     -34.742  14.656  -6.778  1.00 20.00    -0.014 C 
HETATM   10  C10 UNL     1     -35.622  16.638  -2.397  1.00 20.00     0.043 C 
HETATM   11  C11 UNL     1     -37.779  16.940  -3.716  1.00 20.00     0.043 C 
HETATM   12  C12 UNL     1     -33.977  13.982  -7.917  1.00 20.00     0.010 C 
HETATM   13  N13 UNL     1     -39.643  16.018  -3.772  1.00 20.00    -0.192 NA
ENDROOT
TORSDOF 0
ENDMDL
MODEL 9
REMARK VINA RESULT:      -4.4     11.227     12.296
REMARK  0 active torsions:
REMARK  status: ('A' for Active; 'I' for Inactive)
ROOT
HETATM    1  C1  UNL     1     -38.751  15.204  -4.823  1.00 20.00     0.088 C 
HETATM    2  C2  UNL     1     -36.414  15.056  -4.255  1.00 20.00    -0.041 C 
HETATM    3  C3  UNL     1     -36.414  16.290  -3.465  1.00 20.00    -0.050 C 
HETATM    4  C4  UNL     1     -37.493  14.556  -4.881  1.00 20.00     0.101 C 
HETATM    5  C5  UNL     1     -37.286  17.299  -3.621  1.00 20.00    -0.081 C 
HETATM    6  C6  UNL     1     -35.086  14.328  -4.321  1.00 20.00     0.044 C 
HETATM    7  C7  UNL     1     -35.287  16.386  -2.464  1.00 20.00     0.040 C 
HETATM    8  C8  UNL     1     -33.911  16.242  -3.123  1.00 20.00     0.009 C 
HETATM    9  C9  UNL     1     -33.906  15.314  -4.353  1.00 20.00    -0.014 C 
HETATM   10  C10 UNL     1     -37.227  18.535  -2.775  1.00 20.00     0.043 C 
HETATM   11  C11 UNL     1     -38.375  17.251  -4.651  1.00 20.00     0.043 C 
HETATM   12  C12 UNL     1     -32.573  14.577  -4.478  1.00 20.00     0.010 C 
HETATM   13  N13 UNL     1     -39.785  15.727  -4.780  1.00 20.00    -0.192 NA
ENDROOT
TORSDOF 0
ENDMDL
