MODEL 1
REMARK VINA RESULT:      -4.9      0.000      0.000
REMARK  1 active torsions:
REMARK  status: ('A' for Active; 'I' for Inactive)
REMARK    1  A    between atoms: C3_3  and  C6_6 
ROOT
HETATM    1  C1  UNL     1     -33.505   7.316   4.705  1.00 20.00    -0.009 C 
HETATM    2  C2  UNL     1     -32.596   7.639   3.769  1.00 20.00    -0.086 C 
HETATM    3  C4  UNL     1     -32.712   7.157   2.345  1.00 20.00     0.037 C 
HETATM    4  C5  UNL     1     -34.941   6.132   2.962  1.00 20.00     0.023 C 
HETATM    5  C6  UNL     1     -34.730   6.494   4.433  1.00 20.00     0.110 C 
HETATM    6  C7  UNL     1     -33.638   5.941   2.169  1.00 20.00    -0.014 C 
HETATM    7  C8  UNL     1     -31.417   8.514   4.078  1.00 20.00     0.043 C 
HETATM    8  C9  UNL     1     -32.917   4.638   2.531  1.00 20.00     0.010 C 
ENDROOT
BRANCH   5   9
HETATM    9  C3  UNL     1     -34.639   5.259   5.311  1.00 20.00     0.180 C 
HETATM   10  O10 UNL     1     -35.167   4.218   4.832  1.00 20.00    -0.647 OA
HETATM   11  O11 UNL     1     -34.042   5.434   6.410  1.00 20.00    -0.647 OA
ENDBRANCH   5   9
TORSDOF 1
ENDMDL
MODEL 2
REMARK VINA RESULT:      -4.9     11.683     12.670
REMARK  1 active torsions:
REMARK  status: ('A' for Active; 'I' for Inactive)
REMARK    1  A    between atoms: C3_3  and  C6_6 
ROOT
HETATM    1  C1  UNL     1     -35.800  15.332  -4.572  1.00 20.00    -0.009 C 
HETATM    2  C2  UNL     1     -35.081  15.996  -3.650  1.00 20.00    -0.086 C 
HETATM    3  C4  UNL     1     -33.631  16.345  -3.872  1.00 20.00     0.037 C 
HETATM    4  C5  UNL     1     -33.846  15.399  -6.208  1.00 20.00     0.023 C 
HETATM    5  C6  UNL     1     -35.265  14.913  -5.909  1.00 20.00     0.110 C 
HETATM    6  C7  UNL     1     -32.945  15.510  -4.967  1.00 20.00    -0.014 C 
HETATM    7  C8  UNL     1     -35.679  16.446  -2.351  1.00 20.00     0.043 C 
HETATM    8  C9  UNL     1     -32.514  14.140  -4.432  1.00 20.00     0.010 C 
ENDROOT
BRANCH   5   9
HETATM    9  C3  UNL     1     -35.369  13.401  -5.974  1.00 20.00     0.180 C 
HETATM   10  O10 UNL     1     -36.067  12.869  -5.066  1.00 20.00    -0.647 OA
HETATM   11  O11 UNL     1     -34.743  12.868  -6.932  1.00 20.00    -0.647 OA
ENDBRANCH   5   9
TORSDOF 1
ENDMDL
MODEL 3
REMARK VINA RESULT:      -4.8     11.719     12.712
REMARK  1 active torsions:
REMARK  status: ('A' for Active; 'I' for Inactive)
REMARK    1  A    between atoms: C3_3  and  C6_6 
ROOT
HETATM    1  C1  UNL     1     -34.467  14.263  -4.126  1.00 20.00    -0.009 C 
HETATM    2  C2  UNL     1     -33.269  14.658  -4.590  1.00 20.00    -0.086 C 
HETATM    3  C4  UNL     1     -33.136  15.720  -5.652  1.00 20.00     0.037 C 
HETATM    4  C5  UNL     1     -35.643  16.036  -5.531  1.00 20.00     0.023 C 
HETATM    5  C6  UNL     1     -35.773  14.852  -4.572  1.00 20.00     0.110 C 
HETATM    6  C7  UNL     1     -34.422  15.961  -6.463  1.00 20.00    -0.014 C 
HETATM    7  C8  UNL     1     -31.987  14.079  -4.069  1.00 20.00     0.043 C 
HETATM    8  C9  UNL     1     -34.590  14.908  -7.563  1.00 20.00     0.010 C 
ENDROOT
BRANCH   5   9
HETATM    9  C3  UNL     1     -36.584  13.722  -5.177  1.00 20.00     0.180 C 
HETATM   10  O10 UNL     1     -37.784  14.005  -5.448  1.00 20.00    -0.647 OA
HETATM   11  O11 UNL     1     -35.952  12.640  -5.335  1.00 20.00    -0.647 OA
ENDBRANCH   5   9
TORSDOF 1
ENDMDL
MODEL 4
REMARK VINA RESULT:      -4.8     11.791     12.732
REMARK  1 active torsions:
REMARK  status: ('A' for Active; 'I' for Inactive)
REMARK    1  A    between atoms: C3_3  and  C6_6 
ROOT
HETATM    1  C1  UNL     1     -34.936  15.682  -3.185  1.00 20.00    -0.009 C 
HETATM    2  C2  UNL     1     -34.173  16.784  -3.280  1.00 20.00    -0.086 C 
HETATM    3  C4  UNL     1     -34.016  17.535  -4.578  1.00 20.00     0.037 C 
HETATM    4  C5  UNL     1     -35.706  15.956  -5.600  1.00 20.00     0.023 C 
HETATM    5  C6  UNL     1     -35.732  15.115  -4.322  1.00 20.00     0.110 C 
HETATM    6  C7  UNL     1     -34.389  16.716  -5.826  1.00 20.00    -0.014 C 
HETATM    7  C8  UNL     1     -33.442  17.347  -2.097  1.00 20.00     0.043 C 
HETATM    8  C9  UNL     1     -33.243  15.790  -6.245  1.00 20.00     0.010 C 
ENDROOT
BRANCH   5   9
HETATM    9  C3  UNL     1     -35.220  13.707  -4.563  1.00 20.00     0.180 C 
HETATM   10  O10 UNL     1     -34.094  13.449  -4.055  1.00 20.00    -0.647 OA
HETATM   11  O11 UNL     1     -35.991  12.972  -5.242  1.00 20.00    -0.647 OA
ENDBRANCH   5   9
TORSDOF 1
ENDMDL
MODEL 5
REMARK VINA RESULT:      -4.7     12.243     13.353
REMARK  1 active torsions:
REMARK  status: ('A' for Active; 'I' for Inactive)
REMARK    1  A    between atoms: C3_3  and  C6_6 
ROOT
HETATM    1  C1  UNL     1     -34.371  15.523  -6.709  1.00 20.00    -0.009 C 
HETATM    2  C2  UNL     1     -33.974  16.713  -6.228  1.00 20.00    -0.086 C 
HETATM    3  C4  UNL     1     -33.469  16.874  -4.816  1.00 20.00     0.037 C 
HETATM    4  C5  UNL     1     -33.660  14.365  -4.552  1.00 20.00     0.023 C 
HETATM    5  C6  UNL     1     -34.316  14.244  -5.928  1.00 20.00     0.110 C 
HETATM    6  C7  UNL     1     -33.873  15.728  -3.872  1.00 20.00    -0.014 C 
HETATM    7  C8  UNL     1     -33.992  17.955  -7.069  1.00 20.00     0.043 C 
HETATM    8  C9  UNL     1     -35.306  15.909  -3.360  1.00 20.00     0.010 C 
ENDROOT
BRANCH   5   9
HETATM    9  C3  UNL     1     -35.738  13.723  -5.831  1.00 20.00     0.180 C 
HETATM   10  O10 UNL     1     -36.605  14.407  -6.441  1.00 20.00    -0.647 OA
HETATM   11  O11 UNL     1     -35.870  12.667  -5.151  1.00 20.00    -0.647 OA
ENDBRANCH   5   9
TORSDOF 1
ENDMDL
MODEL 6
REMARK VINA RESULT:      -4.5     12.383     13.034
REMARK  1 active torsions:
REMARK  status: ('A' for Active; 'I' for Inactive)
REMARK    1  A    between atoms: C3_3  and  C6_6 
ROOT
HETATM    1  C1  UNL     1     -33.599  15.412  -3.783  1.00 20.00    -0.009 C 
HETATM    2  C2  UNL     1     -34.272  16.242  -2.967  1.00 20.00    -0.086 C 
HETATM    3  C4  UNL     1     -35.779  16.284  -2.941  1.00 20.00     0.037 C 
HETATM    4  C5  UNL     1     -35.779  14.352  -4.573  1.00 20.00     0.023 C 
HETATM    5  C6  UNL     1     -34.257  14.429  -4.705  1.00 20.00     0.110 C 
HETATM    6  C7  UNL     1     -36.445  15.684  -4.191  1.00 20.00    -0.014 C 
HETATM    7  C8  UNL     1     -33.567  17.166  -2.019  1.00 20.00     0.043 C 
HETATM    8  C9  UNL     1     -36.456  16.687  -5.350  1.00 20.00     0.010 C 
ENDROOT
BRANCH   5   9
HETATM    9  C3  UNL     1     -33.830  14.791  -6.116  1.00 20.00     0.180 C 
HETATM   10  O10 UNL     1     -33.098  15.815  -6.212  1.00 20.00    -0.647 OA
HETATM   11  O11 UNL     1     -34.263  14.017  -7.015  1.00 20.00    -0.647 OA
ENDBRANCH   5   9
TORSDOF 1
ENDMDL
MODEL 7
REMARK VINA RESULT:      -4.4     12.278     13.286
REMARK  1 active torsions:
REMARK  status: ('A' for Active; 'I' for Inactive)
REMARK    1  A    between atoms: C3_3  and  C6_6 
ROOT
HETATM    1  C1  UNL     1     -36.227  16.076  -5.802  1.00 20.00    -0.009 C 
HETATM    2  C2  UNL     1     -35.323  17.010  -5.460  1.00 20.00    -0.086 C 
HETATM    3  C4  UNL     1     -33.840  16.751  -5.544  1.00 20.00     0.037 C 
HETATM    4  C5  UNL     1     -34.375  14.501  -6.569  1.00 20.00     0.023 C 
HETATM    5  C6  UNL     1     -35.870  14.719  -6.331  1.00 20.00     0.110 C 
HETATM    6  C7  UNL     1     -33.465  15.259  -5.588  1.00 20.00    -0.014 C 
HETATM    7  C8  UNL     1     -35.731  18.375  -4.991  1.00 20.00     0.043 C 
HETATM    8  C9  UNL     1     -33.475  14.643  -4.185  1.00 20.00     0.010 C 
ENDROOT
BRANCH   5   9
HETATM    9  C3  UNL     1     -36.441  13.701  -5.363  1.00 20.00     0.180 C 
HETATM   10  O10 UNL     1     -37.466  14.076  -4.728  1.00 20.00    -0.647 OA
HETATM   11  O11 UNL     1     -35.817  12.604  -5.318  1.00 20.00    -0.647 OA
ENDBRANCH   5   9
TORSDOF 1
ENDMDL
MODEL 8
REMARK VINA RESULT:      -4.4     12.758     13.491
REMARK  1 active torsions:
REMARK  status: ('A' for Active; 'I' for Inactive)
REMARK    1  A    between atoms: C3_3  and  C6_6 
ROOT
HETATM    1  C1  UNL     1     -33.047  17.857  -1.521  1.00 20.00    -0.009 C 
HETATM    2  C2  UNL     1     -33.871  17.969  -0.466  1.00 20.00    -0.086 C 
HETATM    3  C4  UNL     1     -35.244  17.346  -0.458  1.00 20.00     0.037 C 
HETATM    4  C5  UNL     1     -34.699  16.316  -2.703  1.00 20.00     0.023 C 
HETATM    5  C6  UNL     1     -33.377  17.082  -2.762  1.00 20.00     0.110 C 
HETATM    6  C7  UNL     1     -35.785  17.002  -1.857  1.00 20.00    -0.014 C 
HETATM    7  C8  UNL     1     -33.472  18.706   0.778  1.00 20.00     0.043 C 
HETATM    8  C9  UNL     1     -36.370  18.239  -2.546  1.00 20.00     0.010 C 
ENDROOT
BRANCH   5   9
HETATM    9  C3  UNL     1     -33.344  18.063  -3.919  1.00 20.00     0.180 C 
HETATM   10  O10 UNL     1     -33.729  17.601  -5.029  1.00 20.00    -0.647 OA
HETATM   11  O11 UNL     1     -32.937  19.221  -3.621  1.00 20.00    -0.647 OA
ENDBRANCH   5   9
TORSDOF 1
ENDMDL
MODEL 9
REMARK VINA RESULT:      -4.3     11.892     12.785
REMARK  1 active torsions:
REMARK  status: ('A' for Active; 'I' for Inactive)
REMARK    1  A    between atoms: C3_3  and  C6_6 
ROOT
HETATM    1  C1  UNL     1     -36.356  16.609  -3.335  1.00 20.00    -0.009 C 
HETATM    2  C2  UNL     1     -35.291  16.645  -2.516  1.00 20.00    -0.086 C 
HETATM    3  C4  UNL     1     -33.894  16.369  -3.013  1.00 20.00     0.037 C 
HETATM    4  C5  UNL     1     -34.846  16.215  -5.351  1.00 20.00     0.023 C 
HETATM    5  C6  UNL     1     -36.271  16.340  -4.808  1.00 20.00     0.110 C 
HETATM    6  C7  UNL     1     -33.843  15.614  -4.353  1.00 20.00    -0.014 C 
HETATM    7  C8  UNL     1     -35.421  16.977  -1.059  1.00 20.00     0.043 C 
HETATM    8  C9  UNL     1     -34.048  14.110  -4.150  1.00 20.00     0.010 C 
ENDROOT
BRANCH   5   9
HETATM    9  C3  UNL     1     -37.089  15.092  -5.078  1.00 20.00     0.180 C 
HETATM   10  O10 UNL     1     -36.882  14.543  -6.196  1.00 20.00    -0.647 OA
HETATM   11  O11 UNL     1     -37.874  14.760  -4.146  1.00 20.00    -0.647 OA
ENDBRANCH   5   9
TORSDOF 1
ENDMDL
