MODEL 1
REMARK VINA RESULT:      -6.1      0.000      0.000
REMARK  2 active torsions:
REMARK  status: ('A' for Active; 'I' for Inactive)
REMARK    1  A    between atoms: C2_2  and  C5_5 
REMARK    2  A    between atoms: C7_7  and  C10_10 
ROOT
HETATM    1  C1  UNL     1     -33.222   6.566   2.610  1.00 20.00    -0.006 A 
HETATM    2  C2  UNL     1     -33.826   6.456   3.797  1.00 20.00     0.005 A 
HETATM    3  C3  UNL     1     -33.168   7.445   4.672  1.00 20.00     0.159 A 
HETATM    4  C6  UNL     1     -32.067   8.174   3.952  1.00 20.00     0.092 A 
HETATM    5  C7  UNL     1     -32.140   7.603   2.534  1.00 20.00     0.019 A 
HETATM    6  O11 UNL     1     -33.475   7.637   5.838  1.00 20.00    -0.292 OA
ENDROOT
BRANCH   5   7
HETATM    7  C10 UNL     1     -32.459   8.672   1.496  1.00 20.00    -0.015 C 
HETATM    8  C8  UNL     1     -32.503  10.056   2.142  1.00 20.00     0.010 C 
HETATM    9  C9  UNL     1     -31.436   8.644   0.361  1.00 20.00     0.010 C 
ENDBRANCH   5   7
BRANCH   2  10
HETATM   10  C5  UNL     1     -34.878   5.579   4.185  1.00 20.00     0.004 C 
HETATM   11  C4  UNL     1     -34.594   4.363   4.706  1.00 20.00     0.012 C 
ENDBRANCH   2  10
TORSDOF 2
ENDMDL
MODEL 2
REMARK VINA RESULT:      -5.8      1.201      4.257
REMARK  2 active torsions:
REMARK  status: ('A' for Active; 'I' for Inactive)
REMARK    1  A    between atoms: C2_2  and  C5_5 
REMARK    2  A    between atoms: C7_7  and  C10_10 
ROOT
HETATM    1  C1  UNL     1     -33.806   7.156   2.467  1.00 20.00    -0.006 A 
HETATM    2  C2  UNL     1     -32.661   7.841   2.511  1.00 20.00     0.005 A 
HETATM    3  C3  UNL     1     -32.319   7.954   3.942  1.00 20.00     0.159 A 
HETATM    4  C6  UNL     1     -33.363   7.311   4.813  1.00 20.00     0.092 A 
HETATM    5  C7  UNL     1     -34.351   6.729   3.799  1.00 20.00     0.019 A 
HETATM    6  O11 UNL     1     -31.317   8.511   4.364  1.00 20.00    -0.292 OA
ENDROOT
BRANCH   5   7
HETATM    7  C10 UNL     1     -34.457   5.212   3.901  1.00 20.00    -0.015 C 
HETATM    8  C8  UNL     1     -33.312   4.538   3.148  1.00 20.00     0.010 C 
HETATM    9  C9  UNL     1     -34.468   4.771   5.364  1.00 20.00     0.010 C 
ENDBRANCH   5   7
BRANCH   2  10
HETATM   10  C5  UNL     1     -31.899   8.378   1.435  1.00 20.00     0.004 C 
HETATM   11  C4  UNL     1     -32.311   9.499   0.801  1.00 20.00     0.012 C 
ENDBRANCH   2  10
TORSDOF 2
ENDMDL
MODEL 3
REMARK VINA RESULT:      -5.2      1.699      2.480
REMARK  2 active torsions:
REMARK  status: ('A' for Active; 'I' for Inactive)
REMARK    1  A    between atoms: C2_2  and  C5_5 
REMARK    2  A    between atoms: C7_7  and  C10_10 
ROOT
HETATM    1  C1  UNL     1     -33.811   7.439   3.757  1.00 20.00    -0.006 A 
HETATM    2  C2  UNL     1     -34.050   6.318   4.444  1.00 20.00     0.005 A 
HETATM    3  C3  UNL     1     -33.770   5.211   3.509  1.00 20.00     0.159 A 
HETATM    4  C6  UNL     1     -33.364   5.720   2.154  1.00 20.00     0.092 A 
HETATM    5  C7  UNL     1     -33.350   7.239   2.343  1.00 20.00     0.019 A 
HETATM    6  O11 UNL     1     -33.868   4.029   3.801  1.00 20.00    -0.292 OA
ENDROOT
BRANCH   5   7
HETATM    7  C10 UNL     1     -31.966   7.836   2.115  1.00 20.00    -0.015 C 
HETATM    8  C8  UNL     1     -32.029   8.971   1.093  1.00 20.00     0.010 C 
HETATM    9  C9  UNL     1     -31.370   8.334   3.431  1.00 20.00     0.010 C 
ENDBRANCH   5   7
BRANCH   2  10
HETATM   10  C5  UNL     1     -34.491   6.172   5.790  1.00 20.00     0.004 C 
HETATM   11  C4  UNL     1     -34.160   7.098   6.718  1.00 20.00     0.012 C 
ENDBRANCH   2  10
TORSDOF 2
ENDMDL
MODEL 4
REMARK VINA RESULT:      -4.7     11.049     11.972
REMARK  2 active torsions:
REMARK  status: ('A' for Active; 'I' for Inactive)
REMARK    1  A    between atoms: C2_2  and  C5_5 
REMARK    2  A    between atoms: C7_7  and  C10_10 
ROOT
HETATM    1  C1  UNL     1     -34.120  14.947  -3.931  1.00 20.00    -0.006 A 
HETATM    2  C2  UNL     1     -33.938  16.199  -3.505  1.00 20.00     0.005 A 
HETATM    3  C3  UNL     1     -33.491  16.961  -4.687  1.00 20.00     0.159 A 
HETATM    4  C6  UNL     1     -33.368  16.080  -5.899  1.00 20.00     0.092 A 
HETATM    5  C7  UNL     1     -33.842  14.717  -5.388  1.00 20.00     0.019 A 
HETATM    6  O11 UNL     1     -33.241  18.157  -4.676  1.00 20.00    -0.292 OA
ENDROOT
BRANCH   5   7
HETATM    7  C10 UNL     1     -35.083  14.224  -6.124  1.00 20.00    -0.015 C 
HETATM    8  C8  UNL     1     -34.692  13.375  -7.333  1.00 20.00     0.010 C 
HETATM    9  C9  UNL     1     -35.988  13.430  -5.184  1.00 20.00     0.010 C 
ENDBRANCH   5   7
BRANCH   2  10
HETATM   10  C5  UNL     1     -34.116  16.732  -2.197  1.00 20.00     0.004 C 
HETATM   11  C4  UNL     1     -35.354  16.811  -1.657  1.00 20.00     0.012 C 
ENDBRANCH   2  10
TORSDOF 2
ENDMDL
MODEL 5
REMARK VINA RESULT:      -4.7     10.739     11.499
REMARK  2 active torsions:
REMARK  status: ('A' for Active; 'I' for Inactive)
REMARK    1  A    between atoms: C2_2  and  C5_5 
REMARK    2  A    between atoms: C7_7  and  C10_10 
ROOT
HETATM    1  C1  UNL     1     -36.139  16.104  -4.086  1.00 20.00    -0.006 A 
HETATM    2  C2  UNL     1     -36.600  14.948  -4.570  1.00 20.00     0.005 A 
HETATM    3  C3  UNL     1     -35.434  14.047  -4.630  1.00 20.00     0.159 A 
HETATM    4  C6  UNL     1     -34.178  14.737  -4.174  1.00 20.00     0.092 A 
HETATM    5  C7  UNL     1     -34.674  16.126  -3.762  1.00 20.00     0.019 A 
HETATM    6  O11 UNL     1     -35.483  12.888  -5.012  1.00 20.00    -0.292 OA
ENDROOT
BRANCH   5   7
HETATM    7  C10 UNL     1     -34.431  16.410  -2.284  1.00 20.00    -0.015 C 
HETATM    8  C8  UNL     1     -33.260  17.376  -2.106  1.00 20.00     0.010 C 
HETATM    9  C9  UNL     1     -35.691  16.972  -1.629  1.00 20.00     0.010 C 
ENDBRANCH   5   7
BRANCH   2  10
HETATM   10  C5  UNL     1     -37.926  14.612  -4.967  1.00 20.00     0.004 C 
HETATM   11  C4  UNL     1     -38.967  15.389  -4.592  1.00 20.00     0.012 C 
ENDBRANCH   2  10
TORSDOF 2
ENDMDL
MODEL 6
REMARK VINA RESULT:      -4.7      1.284      1.561
REMARK  2 active torsions:
REMARK  status: ('A' for Active; 'I' for Inactive)
REMARK    1  A    between atoms: C2_2  and  C5_5 
REMARK    2  A    between atoms: C7_7  and  C10_10 
ROOT
HETATM    1  C1  UNL     1     -33.255   7.224   2.192  1.00 20.00    -0.006 A 
HETATM    2  C2  UNL     1     -33.183   7.186   3.525  1.00 20.00     0.005 A 
HETATM    3  C3  UNL     1     -32.125   8.146   3.894  1.00 20.00     0.159 A 
HETATM    4  C6  UNL     1     -31.502   8.777   2.680  1.00 20.00     0.092 A 
HETATM    5  C7  UNL     1     -32.309   8.178   1.524  1.00 20.00     0.019 A 
HETATM    6  O11 UNL     1     -31.792   8.387   5.045  1.00 20.00    -0.292 OA
ENDROOT
BRANCH   5   7
HETATM    7  C10 UNL     1     -33.054   9.243   0.728  1.00 20.00    -0.015 C 
HETATM    8  C8  UNL     1     -32.543  10.638   1.081  1.00 20.00     0.010 C 
HETATM    9  C9  UNL     1     -32.917   8.987  -0.772  1.00 20.00     0.010 C 
ENDBRANCH   5   7
BRANCH   2  10
HETATM   10  C5  UNL     1     -33.938   6.396   4.438  1.00 20.00     0.004 C 
HETATM   11  C4  UNL     1     -34.212   6.864   5.677  1.00 20.00     0.012 C 
ENDBRANCH   2  10
TORSDOF 2
ENDMDL
MODEL 7
REMARK VINA RESULT:      -4.6     10.421     11.415
REMARK  2 active torsions:
REMARK  status: ('A' for Active; 'I' for Inactive)
REMARK    1  A    between atoms: C2_2  and  C5_5 
REMARK    2  A    between atoms: C7_7  and  C10_10 
ROOT
HETATM    1  C1  UNL     1     -33.407  17.425  -2.550  1.00 20.00    -0.006 A 
HETATM    2  C2  UNL     1     -33.856  17.622  -1.308  1.00 20.00     0.005 A 
HETATM    3  C3  UNL     1     -35.178  16.968  -1.253  1.00 20.00     0.159 A 
HETATM    4  C6  UNL     1     -35.552  16.365  -2.579  1.00 20.00     0.092 A 
HETATM    5  C7  UNL     1     -34.320  16.640  -3.446  1.00 20.00     0.019 A 
HETATM    6  O11 UNL     1     -35.883  16.933  -0.256  1.00 20.00    -0.292 OA
ENDROOT
BRANCH   5   7
HETATM    7  C10 UNL     1     -33.660  15.357  -3.935  1.00 20.00    -0.015 C 
HETATM    8  C8  UNL     1     -34.692  14.240  -4.084  1.00 20.00     0.010 C 
HETATM    9  C9  UNL     1     -32.934  15.594  -5.259  1.00 20.00     0.010 C 
ENDBRANCH   5   7
BRANCH   2  10
HETATM   10  C5  UNL     1     -33.232  18.317  -0.233  1.00 20.00     0.004 C 
HETATM   11  C4  UNL     1     -31.892  18.495  -0.225  1.00 20.00     0.012 C 
ENDBRANCH   2  10
TORSDOF 2
ENDMDL
MODEL 8
REMARK VINA RESULT:      -4.6     10.820     11.569
REMARK  2 active torsions:
REMARK  status: ('A' for Active; 'I' for Inactive)
REMARK    1  A    between atoms: C2_2  and  C5_5 
REMARK    2  A    between atoms: C7_7  and  C10_10 
ROOT
HETATM    1  C1  UNL     1     -35.182  15.839  -2.979  1.00 20.00    -0.006 A 
HETATM    2  C2  UNL     1     -34.646  15.172  -4.005  1.00 20.00     0.005 A 
HETATM    3  C3  UNL     1     -33.584  16.047  -4.537  1.00 20.00     0.159 A 
HETATM    4  C6  UNL     1     -33.509  17.347  -3.785  1.00 20.00     0.092 A 
HETATM    5  C7  UNL     1     -34.571  17.180  -2.695  1.00 20.00     0.019 A 
HETATM    6  O11 UNL     1     -32.864  15.753  -5.479  1.00 20.00    -0.292 OA
ENDROOT
BRANCH   5   7
HETATM    7  C10 UNL     1     -33.974  17.239  -1.294  1.00 20.00    -0.015 C 
HETATM    8  C8  UNL     1     -32.778  18.188  -1.255  1.00 20.00     0.010 C 
HETATM    9  C9  UNL     1     -35.030  17.668  -0.275  1.00 20.00     0.010 C 
ENDBRANCH   5   7
BRANCH   2  10
HETATM   10  C5  UNL     1     -34.997  13.891  -4.519  1.00 20.00     0.004 C 
HETATM   11  C4  UNL     1     -36.147  13.728  -5.212  1.00 20.00     0.012 C 
ENDBRANCH   2  10
TORSDOF 2
ENDMDL
MODEL 9
REMARK VINA RESULT:      -4.4     10.603     11.818
REMARK  2 active torsions:
REMARK  status: ('A' for Active; 'I' for Inactive)
REMARK    1  A    between atoms: C2_2  and  C5_5 
REMARK    2  A    between atoms: C7_7  and  C10_10 
ROOT
HETATM    1  C1  UNL     1     -36.378  15.587  -3.999  1.00 20.00    -0.006 A 
HETATM    2  C2  UNL     1     -35.089  15.457  -3.678  1.00 20.00     0.005 A 
HETATM    3  C3  UNL     1     -34.637  14.216  -4.335  1.00 20.00     0.159 A 
HETATM    4  C6  UNL     1     -35.758  13.544  -5.078  1.00 20.00     0.092 A 
HETATM    5  C7  UNL     1     -36.932  14.508  -4.883  1.00 20.00     0.019 A 
HETATM    6  O11 UNL     1     -33.495  13.785  -4.273  1.00 20.00    -0.292 OA
ENDROOT
BRANCH   5   7
HETATM    7  C10 UNL     1     -37.442  15.070  -6.204  1.00 20.00    -0.015 C 
HETATM    8  C8  UNL     1     -37.330  16.594  -6.222  1.00 20.00     0.010 C 
HETATM    9  C9  UNL     1     -36.676  14.465  -7.380  1.00 20.00     0.010 C 
ENDBRANCH   5   7
BRANCH   2  10
HETATM   10  C5  UNL     1     -34.280  16.305  -2.868  1.00 20.00     0.004 C 
HETATM   11  C4  UNL     1     -34.775  16.825  -1.721  1.00 20.00     0.012 C 
ENDBRANCH   2  10
TORSDOF 2
ENDMDL
