MODEL 1
REMARK VINA RESULT:      -5.0      0.000      0.000
REMARK  1 active torsions:
REMARK  status: ('A' for Active; 'I' for Inactive)
REMARK    1  A    between atoms: C5_5  and  C10_10 
ROOT
HETATM    1  C1  UNL     1     -32.084   8.135   4.516  1.00 20.00     0.046 C 
HETATM    2  C2  UNL     1     -31.662   8.267   3.254  1.00 20.00    -0.018 C 
HETATM    3  C3  UNL     1     -33.402   7.521   4.801  1.00 20.00     0.149 C 
HETATM    4  C4  UNL     1     -34.283   7.112   3.638  1.00 20.00     0.088 C 
HETATM    5  C5  UNL     1     -32.420   7.790   2.042  1.00 20.00     0.015 C 
HETATM    6  C6  UNL     1     -33.472   6.714   2.399  1.00 20.00    -0.003 C 
HETATM    7  C7  UNL     1     -32.816   5.340   2.600  1.00 20.00     0.011 C 
HETATM    8  O11 UNL     1     -33.782   7.408   5.965  1.00 20.00    -0.293 OA
ENDROOT
BRANCH   5   9
HETATM    9  C10 UNL     1     -33.054   8.990   1.334  1.00 20.00    -0.015 C 
HETATM   10  C8  UNL     1     -32.369  10.284   1.761  1.00 20.00     0.010 C 
HETATM   11  C9  UNL     1     -32.983   8.815  -0.180  1.00 20.00     0.010 C 
ENDBRANCH   5   9
TORSDOF 1
ENDMDL
MODEL 2
REMARK VINA RESULT:      -4.8     10.168     11.066
REMARK  1 active torsions:
REMARK  status: ('A' for Active; 'I' for Inactive)
REMARK    1  A    between atoms: C5_5  and  C10_10 
ROOT
HETATM    1  C1  UNL     1     -33.853  14.320  -4.595  1.00 20.00     0.046 C 
HETATM    2  C2  UNL     1     -33.481  15.512  -4.118  1.00 20.00    -0.018 C 
HETATM    3  C3  UNL     1     -35.290  13.977  -4.709  1.00 20.00     0.149 C 
HETATM    4  C4  UNL     1     -36.318  14.974  -4.212  1.00 20.00     0.088 C 
HETATM    5  C5  UNL     1     -34.432  16.605  -3.704  1.00 20.00     0.015 C 
HETATM    6  C6  UNL     1     -35.835  16.424  -4.329  1.00 20.00    -0.003 C 
HETATM    7  C7  UNL     1     -35.854  16.884  -5.795  1.00 20.00     0.011 C 
HETATM    8  O11 UNL     1     -35.621  12.876  -5.146  1.00 20.00    -0.293 OA
ENDROOT
BRANCH   5   9
HETATM    9  C10 UNL     1     -34.497  16.671  -2.176  1.00 20.00    -0.015 C 
HETATM   10  C8  UNL     1     -33.316  17.466  -1.626  1.00 20.00     0.010 C 
HETATM   11  C9  UNL     1     -35.818  17.284  -1.724  1.00 20.00     0.010 C 
ENDBRANCH   5   9
TORSDOF 1
ENDMDL
MODEL 3
REMARK VINA RESULT:      -4.5      9.840     11.146
REMARK  1 active torsions:
REMARK  status: ('A' for Active; 'I' for Inactive)
REMARK    1  A    between atoms: C5_5  and  C10_10 
ROOT
HETATM    1  C1  UNL     1     -35.429  16.892  -1.336  1.00 20.00     0.046 C 
HETATM    2  C2  UNL     1     -35.534  16.491  -2.607  1.00 20.00    -0.018 C 
HETATM    3  C3  UNL     1     -34.210  17.597  -0.874  1.00 20.00     0.149 C 
HETATM    4  C4  UNL     1     -33.067  17.792  -1.850  1.00 20.00     0.088 C 
HETATM    5  C5  UNL     1     -34.498  16.738  -3.672  1.00 20.00     0.015 C 
HETATM    6  C6  UNL     1     -33.547  17.901  -3.303  1.00 20.00    -0.003 C 
HETATM    7  C7  UNL     1     -34.211  19.263  -3.553  1.00 20.00     0.011 C 
HETATM    8  O11 UNL     1     -34.122  17.958   0.298  1.00 20.00    -0.293 OA
ENDROOT
BRANCH   5   9
HETATM    9  C10 UNL     1     -33.729  15.442  -3.944  1.00 20.00    -0.015 C 
HETATM   10  C8  UNL     1     -34.689  14.259  -4.022  1.00 20.00     0.010 C 
HETATM   11  C9  UNL     1     -32.916  15.564  -5.229  1.00 20.00     0.010 C 
ENDBRANCH   5   9
TORSDOF 1
ENDMDL
MODEL 4
REMARK VINA RESULT:      -4.4     10.501     11.629
REMARK  1 active torsions:
REMARK  status: ('A' for Active; 'I' for Inactive)
REMARK    1  A    between atoms: C5_5  and  C10_10 
ROOT
HETATM    1  C1  UNL     1     -36.058  15.924  -4.974  1.00 20.00     0.046 C 
HETATM    2  C2  UNL     1     -35.841  15.732  -3.669  1.00 20.00    -0.018 C 
HETATM    3  C3  UNL     1     -34.963  16.400  -5.851  1.00 20.00     0.149 C 
HETATM    4  C4  UNL     1     -33.621  16.727  -5.228  1.00 20.00     0.088 C 
HETATM    5  C5  UNL     1     -34.513  15.925  -2.984  1.00 20.00     0.015 C 
HETATM    6  C6  UNL     1     -33.331  15.884  -3.981  1.00 20.00    -0.003 C 
HETATM    7  C7  UNL     1     -32.983  14.440  -4.372  1.00 20.00     0.011 C 
HETATM    8  O11 UNL     1     -35.175  16.576  -7.050  1.00 20.00    -0.293 OA
ENDROOT
BRANCH   5   9
HETATM    9  C10 UNL     1     -34.537  17.232  -2.187  1.00 20.00    -0.015 C 
HETATM   10  C8  UNL     1     -35.522  17.131  -1.026  1.00 20.00     0.010 C 
HETATM   11  C9  UNL     1     -33.139  17.575  -1.681  1.00 20.00     0.010 C 
ENDBRANCH   5   9
TORSDOF 1
ENDMDL
MODEL 5
REMARK VINA RESULT:      -4.3      9.845     11.462
REMARK  1 active torsions:
REMARK  status: ('A' for Active; 'I' for Inactive)
REMARK    1  A    between atoms: C5_5  and  C10_10 
ROOT
HETATM    1  C1  UNL     1     -34.536  13.964  -4.168  1.00 20.00     0.046 C 
HETATM    2  C2  UNL     1     -33.588  14.896  -4.023  1.00 20.00    -0.018 C 
HETATM    3  C3  UNL     1     -35.692  14.208  -5.061  1.00 20.00     0.149 C 
HETATM    4  C4  UNL     1     -35.810  15.554  -5.748  1.00 20.00     0.088 C 
HETATM    5  C5  UNL     1     -33.565  16.216  -4.750  1.00 20.00     0.015 C 
HETATM    6  C6  UNL     1     -34.445  16.196  -6.021  1.00 20.00    -0.003 C 
HETATM    7  C7  UNL     1     -33.733  15.482  -7.180  1.00 20.00     0.011 C 
HETATM    8  O11 UNL     1     -36.560  13.346  -5.184  1.00 20.00    -0.293 OA
ENDROOT
BRANCH   5   9
HETATM    9  C10 UNL     1     -33.982  17.332  -3.789  1.00 20.00    -0.015 C 
HETATM   10  C8  UNL     1     -33.577  16.984  -2.359  1.00 20.00     0.010 C 
HETATM   11  C9  UNL     1     -33.368  18.661  -4.216  1.00 20.00     0.010 C 
ENDBRANCH   5   9
TORSDOF 1
ENDMDL
MODEL 6
REMARK VINA RESULT:      -4.3     10.503     11.547
REMARK  1 active torsions:
REMARK  status: ('A' for Active; 'I' for Inactive)
REMARK    1  A    between atoms: C5_5  and  C10_10 
ROOT
HETATM    1  C1  UNL     1     -33.542  17.589  -4.785  1.00 20.00     0.046 C 
HETATM    2  C2  UNL     1     -34.185  18.098  -3.728  1.00 20.00    -0.018 C 
HETATM    3  C3  UNL     1     -33.430  16.121  -4.954  1.00 20.00     0.149 C 
HETATM    4  C4  UNL     1     -33.995  15.218  -3.877  1.00 20.00     0.088 C 
HETATM    5  C5  UNL     1     -34.871  17.278  -2.667  1.00 20.00     0.015 C 
HETATM    6  C6  UNL     1     -35.193  15.845  -3.153  1.00 20.00    -0.003 C 
HETATM    7  C7  UNL     1     -36.438  15.829  -4.052  1.00 20.00     0.011 C 
HETATM    8  O11 UNL     1     -32.833  15.664  -5.928  1.00 20.00    -0.293 OA
ENDROOT
BRANCH   5   9
HETATM    9  C10 UNL     1     -34.014  17.268  -1.398  1.00 20.00    -0.015 C 
HETATM   10  C8  UNL     1     -32.835  18.225  -1.544  1.00 20.00     0.010 C 
HETATM   11  C9  UNL     1     -34.858  17.631  -0.181  1.00 20.00     0.010 C 
ENDBRANCH   5   9
TORSDOF 1
ENDMDL
MODEL 7
REMARK VINA RESULT:      -4.2     10.511     11.473
REMARK  1 active torsions:
REMARK  status: ('A' for Active; 'I' for Inactive)
REMARK    1  A    between atoms: C5_5  and  C10_10 
ROOT
HETATM    1  C1  UNL     1     -34.442  15.093  -6.480  1.00 20.00     0.046 C 
HETATM    2  C2  UNL     1     -34.745  16.091  -5.643  1.00 20.00    -0.018 C 
HETATM    3  C3  UNL     1     -35.015  13.743  -6.271  1.00 20.00     0.149 C 
HETATM    4  C4  UNL     1     -35.891  13.504  -5.058  1.00 20.00     0.088 C 
HETATM    5  C5  UNL     1     -35.691  15.973  -4.476  1.00 20.00     0.015 C 
HETATM    6  C6  UNL     1     -36.646  14.765  -4.620  1.00 20.00    -0.003 C 
HETATM    7  C7  UNL     1     -37.793  15.074  -5.593  1.00 20.00     0.011 C 
HETATM    8  O11 UNL     1     -34.727  12.832  -7.045  1.00 20.00    -0.293 OA
ENDROOT
BRANCH   5   9
HETATM    9  C10 UNL     1     -34.888  15.911  -3.174  1.00 20.00    -0.015 C 
HETATM   10  C8  UNL     1     -33.483  16.464  -3.387  1.00 20.00     0.010 C 
HETATM   11  C9  UNL     1     -35.607  16.674  -2.067  1.00 20.00     0.010 C 
ENDBRANCH   5   9
TORSDOF 1
ENDMDL
MODEL 8
REMARK VINA RESULT:      -4.0     10.246     11.317
REMARK  1 active torsions:
REMARK  status: ('A' for Active; 'I' for Inactive)
REMARK    1  A    between atoms: C5_5  and  C10_10 
ROOT
HETATM    1  C1  UNL     1     -36.081  18.181  -3.332  1.00 20.00     0.046 C 
HETATM    2  C2  UNL     1     -35.114  17.568  -4.025  1.00 20.00    -0.018 C 
HETATM    3  C3  UNL     1     -36.198  17.971  -1.870  1.00 20.00     0.149 C 
HETATM    4  C4  UNL     1     -35.249  17.003  -1.195  1.00 20.00     0.088 C 
HETATM    5  C5  UNL     1     -34.061  16.677  -3.421  1.00 20.00     0.015 C 
HETATM    6  C6  UNL     1     -33.891  16.919  -1.903  1.00 20.00    -0.003 C 
HETATM    7  C7  UNL     1     -33.060  18.182  -1.631  1.00 20.00     0.011 C 
HETATM    8  O11 UNL     1     -37.093  18.537  -1.244  1.00 20.00    -0.293 OA
ENDROOT
BRANCH   5   9
HETATM    9  C10 UNL     1     -34.395  15.214  -3.728  1.00 20.00    -0.015 C 
HETATM   10  C8  UNL     1     -35.633  15.126  -4.616  1.00 20.00     0.010 C 
HETATM   11  C9  UNL     1     -33.207  14.522  -4.386  1.00 20.00     0.010 C 
ENDBRANCH   5   9
TORSDOF 1
ENDMDL
MODEL 9
REMARK VINA RESULT:      -3.9     10.353     11.351
REMARK  1 active torsions:
REMARK  status: ('A' for Active; 'I' for Inactive)
REMARK    1  A    between atoms: C5_5  and  C10_10 
ROOT
HETATM    1  C1  UNL     1     -36.281  16.236  -3.470  1.00 20.00     0.046 C 
HETATM    2  C2  UNL     1     -36.229  15.896  -4.763  1.00 20.00    -0.018 C 
HETATM    3  C3  UNL     1     -35.033  16.369  -2.683  1.00 20.00     0.149 C 
HETATM    4  C4  UNL     1     -33.712  16.047  -3.351  1.00 20.00     0.088 C 
HETATM    5  C5  UNL     1     -34.957  15.665  -5.537  1.00 20.00     0.015 C 
HETATM    6  C6  UNL     1     -33.733  16.324  -4.859  1.00 20.00    -0.003 C 
HETATM    7  C7  UNL     1     -33.693  17.835  -5.132  1.00 20.00     0.011 C 
HETATM    8  O11 UNL     1     -35.094  16.678  -1.494  1.00 20.00    -0.293 OA
ENDROOT
BRANCH   5   9
HETATM    9  C10 UNL     1     -34.751  14.162  -5.741  1.00 20.00    -0.015 C 
HETATM   10  C8  UNL     1     -36.017  13.395  -5.372  1.00 20.00     0.010 C 
HETATM   11  C9  UNL     1     -34.342  13.869  -7.180  1.00 20.00     0.010 C 
ENDBRANCH   5   9
TORSDOF 1
ENDMDL
