MODEL 1
REMARK VINA RESULT:      -5.8      0.000      0.000
REMARK  1 active torsions:
REMARK  status: ('A' for Active; 'I' for Inactive)
REMARK    1  A    between atoms: C4_4  and  C9_9 
ROOT
HETATM    1  C1  UNL     1     -34.190   6.888   5.917  1.00 20.00     0.007 A 
HETATM    2  C2  UNL     1     -34.609   5.632   5.748  1.00 20.00     0.074 A 
HETATM    3  C3  UNL     1     -33.400   7.546   4.914  1.00 20.00     0.026 A 
HETATM    4  C4  UNL     1     -33.065   6.912   3.777  1.00 20.00     0.018 A 
HETATM    5  C5  UNL     1     -34.258   4.893   4.503  1.00 20.00     0.247 A 
HETATM    6  C8  UNL     1     -33.109   4.926   2.314  1.00 20.00     0.159 C 
HETATM    7  N10 UNL     1     -33.485   5.594   3.559  1.00 20.00    -0.322 N 
HETATM    8  O11 UNL     1     -34.660   3.737   4.378  1.00 20.00    -0.268 OA
ENDROOT
BRANCH   4   9
HETATM    9  C9  UNL     1     -32.238   7.611   2.734  1.00 20.00     0.028 C 
HETATM   10  C6  UNL     1     -33.130   8.477   1.852  1.00 20.00     0.016 C 
HETATM   11  C7  UNL     1     -31.139   8.441   3.386  1.00 20.00     0.016 C 
ENDBRANCH   4   9
TORSDOF 1
ENDMDL
MODEL 2
REMARK VINA RESULT:      -5.0      1.018      2.511
REMARK  1 active torsions:
REMARK  status: ('A' for Active; 'I' for Inactive)
REMARK    1  A    between atoms: C4_4  and  C9_9 
ROOT
HETATM    1  C1  UNL     1     -33.585   4.480   2.854  1.00 20.00     0.007 A 
HETATM    2  C2  UNL     1     -34.182   4.215   4.018  1.00 20.00     0.074 A 
HETATM    3  C3  UNL     1     -33.061   5.787   2.572  1.00 20.00     0.026 A 
HETATM    4  C4  UNL     1     -33.158   6.777   3.477  1.00 20.00     0.018 A 
HETATM    5  C5  UNL     1     -34.311   5.284   5.048  1.00 20.00     0.247 A 
HETATM    6  C8  UNL     1     -33.867   7.632   5.679  1.00 20.00     0.159 C 
HETATM    7  N10 UNL     1     -33.775   6.541   4.712  1.00 20.00    -0.322 N 
HETATM    8  O11 UNL     1     -34.866   5.006   6.110  1.00 20.00    -0.268 OA
ENDROOT
BRANCH   4   9
HETATM    9  C9  UNL     1     -32.605   8.141   3.171  1.00 20.00     0.028 C 
HETATM   10  C6  UNL     1     -31.161   8.241   3.650  1.00 20.00     0.016 C 
HETATM   11  C7  UNL     1     -32.710   8.442   1.680  1.00 20.00     0.016 C 
ENDBRANCH   4   9
TORSDOF 1
ENDMDL
MODEL 3
REMARK VINA RESULT:      -4.7     11.525     12.219
REMARK  1 active torsions:
REMARK  status: ('A' for Active; 'I' for Inactive)
REMARK    1  A    between atoms: C4_4  and  C9_9 
ROOT
HETATM    1  C1  UNL     1     -37.399  15.423  -4.267  1.00 20.00     0.007 A 
HETATM    2  C2  UNL     1     -37.112  14.305  -4.936  1.00 20.00     0.074 A 
HETATM    3  C3  UNL     1     -36.372  16.165  -3.589  1.00 20.00     0.026 A 
HETATM    4  C4  UNL     1     -35.094  15.751  -3.615  1.00 20.00     0.018 A 
HETATM    5  C5  UNL     1     -35.707  13.811  -4.988  1.00 20.00     0.247 A 
HETATM    6  C8  UNL     1     -33.351  14.154  -4.322  1.00 20.00     0.159 C 
HETATM    7  N10 UNL     1     -34.748  14.583  -4.307  1.00 20.00    -0.322 N 
HETATM    8  O11 UNL     1     -35.475  12.777  -5.615  1.00 20.00    -0.268 OA
ENDROOT
BRANCH   4   9
HETATM    9  C9  UNL     1     -34.027  16.536  -2.903  1.00 20.00     0.028 C 
HETATM   10  C6  UNL     1     -33.622  17.745  -3.737  1.00 20.00     0.016 C 
HETATM   11  C7  UNL     1     -34.506  16.960  -1.519  1.00 20.00     0.016 C 
ENDBRANCH   4   9
TORSDOF 1
ENDMDL
MODEL 4
REMARK VINA RESULT:      -4.2     11.791     12.472
REMARK  1 active torsions:
REMARK  status: ('A' for Active; 'I' for Inactive)
REMARK    1  A    between atoms: C4_4  and  C9_9 
ROOT
HETATM    1  C1  UNL     1     -33.134  14.978  -4.180  1.00 20.00     0.007 A 
HETATM    2  C2  UNL     1     -33.736  13.984  -4.835  1.00 20.00     0.074 A 
HETATM    3  C3  UNL     1     -33.898  16.014  -3.542  1.00 20.00     0.026 A 
HETATM    4  C4  UNL     1     -35.241  16.006  -3.589  1.00 20.00     0.018 A 
HETATM    5  C5  UNL     1     -35.224  13.938  -4.912  1.00 20.00     0.247 A 
HETATM    6  C8  UNL     1     -37.374  14.992  -4.301  1.00 20.00     0.159 C 
HETATM    7  N10 UNL     1     -35.913  14.980  -4.265  1.00 20.00    -0.322 N 
HETATM    8  O11 UNL     1     -35.747  13.008  -5.524  1.00 20.00    -0.268 OA
ENDROOT
BRANCH   4   9
HETATM    9  C9  UNL     1     -36.031  17.095  -2.918  1.00 20.00     0.028 C 
HETATM   10  C6  UNL     1     -35.665  17.173  -1.440  1.00 20.00     0.016 C 
HETATM   11  C7  UNL     1     -35.797  18.433  -3.611  1.00 20.00     0.016 C 
ENDBRANCH   4   9
TORSDOF 1
ENDMDL
MODEL 5
REMARK VINA RESULT:      -4.2     11.784     12.639
REMARK  1 active torsions:
REMARK  status: ('A' for Active; 'I' for Inactive)
REMARK    1  A    between atoms: C4_4  and  C9_9 
ROOT
HETATM    1  C1  UNL     1     -34.565  14.091  -4.346  1.00 20.00     0.007 A 
HETATM    2  C2  UNL     1     -35.666  13.649  -4.958  1.00 20.00     0.074 A 
HETATM    3  C3  UNL     1     -34.578  15.312  -3.590  1.00 20.00     0.026 A 
HETATM    4  C4  UNL     1     -35.703  16.040  -3.479  1.00 20.00     0.018 A 
HETATM    5  C5  UNL     1     -36.933  14.427  -4.860  1.00 20.00     0.247 A 
HETATM    6  C8  UNL     1     -38.091  16.420  -3.968  1.00 20.00     0.159 C 
HETATM    7  N10 UNL     1     -36.880  15.612  -4.104  1.00 20.00    -0.322 N 
HETATM    8  O11 UNL     1     -37.930  13.991  -5.436  1.00 20.00    -0.268 OA
ENDROOT
BRANCH   4   9
HETATM    9  C9  UNL     1     -35.705  17.317  -2.685  1.00 20.00     0.028 C 
HETATM   10  C6  UNL     1     -35.375  17.027  -1.225  1.00 20.00     0.016 C 
HETATM   11  C7  UNL     1     -34.724  18.321  -3.280  1.00 20.00     0.016 C 
ENDBRANCH   4   9
TORSDOF 1
ENDMDL
MODEL 6
REMARK VINA RESULT:      -4.0     12.449     13.855
REMARK  1 active torsions:
REMARK  status: ('A' for Active; 'I' for Inactive)
REMARK    1  A    between atoms: C4_4  and  C9_9 
ROOT
HETATM    1  C1  UNL     1     -34.145  14.340  -7.862  1.00 20.00     0.007 A 
HETATM    2  C2  UNL     1     -34.708  13.346  -7.173  1.00 20.00     0.074 A 
HETATM    3  C3  UNL     1     -34.231  15.699  -7.404  1.00 20.00     0.026 A 
HETATM    4  C4  UNL     1     -34.879  16.002  -6.266  1.00 20.00     0.018 A 
HETATM    5  C5  UNL     1     -35.438  13.639  -5.906  1.00 20.00     0.247 A 
HETATM    6  C8  UNL     1     -36.181  15.343  -4.277  1.00 20.00     0.159 C 
HETATM    7  N10 UNL     1     -35.482  14.988  -5.511  1.00 20.00    -0.322 N 
HETATM    8  O11 UNL     1     -35.944  12.699  -5.295  1.00 20.00    -0.268 OA
ENDROOT
BRANCH   4   9
HETATM    9  C9  UNL     1     -34.961  17.428  -5.796  1.00 20.00     0.028 C 
HETATM   10  C6  UNL     1     -33.643  17.844  -5.154  1.00 20.00     0.016 C 
HETATM   11  C7  UNL     1     -35.326  18.354  -6.951  1.00 20.00     0.016 C 
ENDBRANCH   4   9
TORSDOF 1
ENDMDL
MODEL 7
REMARK VINA RESULT:      -4.0     12.519     13.654
REMARK  1 active torsions:
REMARK  status: ('A' for Active; 'I' for Inactive)
REMARK    1  A    between atoms: C4_4  and  C9_9 
ROOT
HETATM    1  C1  UNL     1     -33.392  14.785  -4.647  1.00 20.00     0.007 A 
HETATM    2  C2  UNL     1     -33.415  15.370  -5.847  1.00 20.00     0.074 A 
HETATM    3  C3  UNL     1     -33.656  15.537  -3.452  1.00 20.00     0.026 A 
HETATM    4  C4  UNL     1     -33.937  16.850  -3.513  1.00 20.00     0.018 A 
HETATM    5  C5  UNL     1     -33.721  16.824  -5.959  1.00 20.00     0.247 A 
HETATM    6  C8  UNL     1     -34.283  18.930  -4.793  1.00 20.00     0.159 C 
HETATM    7  N10 UNL     1     -33.974  17.502  -4.752  1.00 20.00    -0.322 N 
HETATM    8  O11 UNL     1     -33.736  17.332  -7.079  1.00 20.00    -0.268 OA
ENDROOT
BRANCH   4   9
HETATM    9  C9  UNL     1     -34.213  17.626  -2.256  1.00 20.00     0.028 C 
HETATM   10  C6  UNL     1     -35.211  16.873  -1.383  1.00 20.00     0.016 C 
HETATM   11  C7  UNL     1     -32.919  17.899  -1.498  1.00 20.00     0.016 C 
ENDBRANCH   4   9
TORSDOF 1
ENDMDL
MODEL 8
REMARK VINA RESULT:      -4.0     11.638     13.611
REMARK  1 active torsions:
REMARK  status: ('A' for Active; 'I' for Inactive)
REMARK    1  A    between atoms: C4_4  and  C9_9 
ROOT
HETATM    1  C1  UNL     1     -34.046  15.444  -4.106  1.00 20.00     0.007 A 
HETATM    2  C2  UNL     1     -34.589  14.225  -4.113  1.00 20.00     0.074 A 
HETATM    3  C3  UNL     1     -34.268  16.359  -5.191  1.00 20.00     0.026 A 
HETATM    4  C4  UNL     1     -35.033  16.009  -6.240  1.00 20.00     0.018 A 
HETATM    5  C5  UNL     1     -35.443  13.797  -5.257  1.00 20.00     0.247 A 
HETATM    6  C8  UNL     1     -36.452  14.384  -7.436  1.00 20.00     0.159 C 
HETATM    7  N10 UNL     1     -35.624  14.740  -6.286  1.00 20.00    -0.322 N 
HETATM    8  O11 UNL     1     -35.929  12.668  -5.231  1.00 20.00    -0.268 OA
ENDROOT
BRANCH   4   9
HETATM    9  C9  UNL     1     -35.259  16.976  -7.370  1.00 20.00     0.028 C 
HETATM   10  C6  UNL     1     -36.135  18.132  -6.902  1.00 20.00     0.016 C 
HETATM   11  C7  UNL     1     -33.930  17.482  -7.918  1.00 20.00     0.016 C 
ENDBRANCH   4   9
TORSDOF 1
ENDMDL
MODEL 9
REMARK VINA RESULT:      -3.9     12.210     13.785
REMARK  1 active torsions:
REMARK  status: ('A' for Active; 'I' for Inactive)
REMARK    1  A    between atoms: C4_4  and  C9_9 
ROOT
HETATM    1  C1  UNL     1     -34.267  18.643  -5.640  1.00 20.00     0.007 A 
HETATM    2  C2  UNL     1     -34.006  17.707  -6.555  1.00 20.00     0.074 A 
HETATM    3  C3  UNL     1     -34.193  18.348  -4.236  1.00 20.00     0.026 A 
HETATM    4  C4  UNL     1     -33.858  17.119  -3.809  1.00 20.00     0.018 A 
HETATM    5  C5  UNL     1     -33.632  16.330  -6.123  1.00 20.00     0.247 A 
HETATM    6  C8  UNL     1     -33.211  14.778  -4.245  1.00 20.00     0.159 C 
HETATM    7  N10 UNL     1     -33.575  16.107  -4.735  1.00 20.00    -0.322 N 
HETATM    8  O11 UNL     1     -33.398  15.491  -6.991  1.00 20.00    -0.268 OA
ENDROOT
BRANCH   4   9
HETATM    9  C9  UNL     1     -33.784  16.821  -2.337  1.00 20.00     0.028 C 
HETATM   10  C6  UNL     1     -32.925  17.866  -1.634  1.00 20.00     0.016 C 
HETATM   11  C7  UNL     1     -35.181  16.761  -1.730  1.00 20.00     0.016 C 
ENDBRANCH   4   9
TORSDOF 1
ENDMDL
