MODEL 1
REMARK VINA RESULT:      -4.6      0.000      0.000
REMARK  1 active torsions:
REMARK  status: ('A' for Active; 'I' for Inactive)
REMARK    1  A    between atoms: C4_4  and  C7_7 
ROOT
HETATM    1  C1  UNL     1     -34.056   6.812   5.224  1.00 20.00     0.268 C 
HETATM    2  C2  UNL     1     -34.977   5.780   4.643  1.00 20.00     0.184 C 
HETATM    3  C3  UNL     1     -32.852   5.537   2.877  1.00 20.00     0.107 C 
HETATM    4  C4  UNL     1     -33.213   7.014   2.965  1.00 20.00     0.144 C 
HETATM    5  O8  UNL     1     -34.085   7.119   6.412  1.00 20.00    -0.264 OA
HETATM    6  O9  UNL     1     -33.219   7.427   4.348  1.00 20.00    -0.314 OA
HETATM    7  S10 UNL     1     -34.060   4.501   3.756  1.00 20.00    -0.157 SA
ENDROOT
BRANCH   4   8
HETATM    8  C7  UNL     1     -32.171   7.866   2.250  1.00 20.00     0.008 C 
HETATM    9  C5  UNL     1     -32.843   8.985   1.456  1.00 20.00     0.012 C 
HETATM   10  C6  UNL     1     -31.171   8.446   3.249  1.00 20.00     0.012 C 
ENDBRANCH   4   8
TORSDOF 1
ENDMDL
MODEL 2
REMARK VINA RESULT:      -4.4     11.736     12.241
REMARK  1 active torsions:
REMARK  status: ('A' for Active; 'I' for Inactive)
REMARK    1  A    between atoms: C4_4  and  C7_7 
ROOT
HETATM    1  C1  UNL     1     -35.460  13.959  -5.162  1.00 20.00     0.268 C 
HETATM    2  C2  UNL     1     -35.406  14.770  -6.424  1.00 20.00     0.184 C 
HETATM    3  C3  UNL     1     -33.379  16.015  -4.998  1.00 20.00     0.107 C 
HETATM    4  C4  UNL     1     -34.608  15.960  -4.101  1.00 20.00     0.144 C 
HETATM    5  O8  UNL     1     -35.861  12.799  -5.147  1.00 20.00    -0.264 OA
HETATM    6  O9  UNL     1     -35.088  14.601  -4.023  1.00 20.00    -0.314 OA
HETATM    7  S10 UNL     1     -33.762  15.468  -6.690  1.00 20.00    -0.157 SA
ENDROOT
BRANCH   4   8
HETATM    8  C7  UNL     1     -34.258  16.390  -2.682  1.00 20.00     0.008 C 
HETATM    9  C5  UNL     1     -33.338  17.610  -2.699  1.00 20.00     0.012 C 
HETATM   10  C6  UNL     1     -35.525  16.688  -1.881  1.00 20.00     0.012 C 
ENDBRANCH   4   8
TORSDOF 1
ENDMDL
MODEL 3
REMARK VINA RESULT:      -4.2     11.745     12.271
REMARK  1 active torsions:
REMARK  status: ('A' for Active; 'I' for Inactive)
REMARK    1  A    between atoms: C4_4  and  C7_7 
ROOT
HETATM    1  C1  UNL     1     -36.057  13.768  -5.012  1.00 20.00     0.268 C 
HETATM    2  C2  UNL     1     -37.260  14.513  -5.512  1.00 20.00     0.184 C 
HETATM    3  C3  UNL     1     -35.568  16.657  -5.028  1.00 20.00     0.107 C 
HETATM    4  C4  UNL     1     -35.592  15.794  -3.773  1.00 20.00     0.144 C 
HETATM    5  O8  UNL     1     -35.817  12.612  -5.348  1.00 20.00    -0.264 OA
HETATM    6  O9  UNL     1     -35.274  14.430  -4.120  1.00 20.00    -0.314 OA
HETATM    7  S10 UNL     1     -36.797  16.097  -6.246  1.00 20.00    -0.157 SA
ENDROOT
BRANCH   4   8
HETATM    8  C7  UNL     1     -34.534  16.260  -2.780  1.00 20.00     0.008 C 
HETATM    9  C5  UNL     1     -33.611  17.296  -3.420  1.00 20.00     0.012 C 
HETATM   10  C6  UNL     1     -35.190  16.832  -1.523  1.00 20.00     0.012 C 
ENDBRANCH   4   8
TORSDOF 1
ENDMDL
MODEL 4
REMARK VINA RESULT:      -4.0     11.584     12.129
REMARK  1 active torsions:
REMARK  status: ('A' for Active; 'I' for Inactive)
REMARK    1  A    between atoms: C4_4  and  C7_7 
ROOT
HETATM    1  C1  UNL     1     -35.434  13.946  -5.043  1.00 20.00     0.268 C 
HETATM    2  C2  UNL     1     -34.565  14.622  -6.062  1.00 20.00     0.184 C 
HETATM    3  C3  UNL     1     -33.684  15.927  -3.778  1.00 20.00     0.107 C 
HETATM    4  C4  UNL     1     -35.204  16.010  -3.801  1.00 20.00     0.144 C 
HETATM    5  O8  UNL     1     -35.869  12.810  -5.204  1.00 20.00    -0.264 OA
HETATM    6  O9  UNL     1     -35.758  14.686  -3.950  1.00 20.00    -0.314 OA
HETATM    7  S10 UNL     1     -33.031  15.227  -5.324  1.00 20.00    -0.157 SA
ENDROOT
BRANCH   4   8
HETATM    8  C7  UNL     1     -35.733  16.569  -2.485  1.00 20.00     0.008 C 
HETATM    9  C5  UNL     1     -34.579  16.954  -1.560  1.00 20.00     0.012 C 
HETATM   10  C6  UNL     1     -36.641  17.773  -2.737  1.00 20.00     0.012 C 
ENDBRANCH   4   8
TORSDOF 1
ENDMDL
MODEL 5
REMARK VINA RESULT:      -3.9     11.529     12.385
REMARK  1 active torsions:
REMARK  status: ('A' for Active; 'I' for Inactive)
REMARK    1  A    between atoms: C4_4  and  C7_7 
ROOT
HETATM    1  C1  UNL     1     -37.120  14.336  -5.496  1.00 20.00     0.268 C 
HETATM    2  C2  UNL     1     -37.068  14.577  -6.976  1.00 20.00     0.184 C 
HETATM    3  C3  UNL     1     -34.363  14.213  -6.481  1.00 20.00     0.107 C 
HETATM    4  C4  UNL     1     -34.878  15.248  -5.491  1.00 20.00     0.144 C 
HETATM    5  O8  UNL     1     -38.110  13.865  -4.945  1.00 20.00    -0.264 OA
HETATM    6  O9  UNL     1     -36.023  14.717  -4.790  1.00 20.00    -0.314 OA
HETATM    7  S10 UNL     1     -35.623  13.791  -7.723  1.00 20.00    -0.157 SA
ENDROOT
BRANCH   4   8
HETATM    8  C7  UNL     1     -33.819  15.563  -4.441  1.00 20.00     0.008 C 
HETATM    9  C5  UNL     1     -34.472  15.987  -3.126  1.00 20.00     0.012 C 
HETATM   10  C6  UNL     1     -32.905  14.358  -4.220  1.00 20.00     0.012 C 
ENDBRANCH   4   8
TORSDOF 1
ENDMDL
MODEL 6
REMARK VINA RESULT:      -3.9     11.449     12.020
REMARK  1 active torsions:
REMARK  status: ('A' for Active; 'I' for Inactive)
REMARK    1  A    between atoms: C4_4  and  C7_7 
ROOT
HETATM    1  C1  UNL     1     -33.592  15.416  -4.379  1.00 20.00     0.268 C 
HETATM    2  C2  UNL     1     -34.657  14.359  -4.353  1.00 20.00     0.184 C 
HETATM    3  C3  UNL     1     -36.094  16.480  -3.289  1.00 20.00     0.107 C 
HETATM    4  C4  UNL     1     -34.794  16.364  -2.506  1.00 20.00     0.144 C 
HETATM    5  O8  UNL     1     -32.669  15.393  -5.188  1.00 20.00    -0.264 OA
HETATM    6  O9  UNL     1     -33.677  16.375  -3.420  1.00 20.00    -0.314 OA
HETATM    7  S10 UNL     1     -36.309  15.085  -4.437  1.00 20.00    -0.157 SA
ENDROOT
BRANCH   4   8
HETATM    8  C7  UNL     1     -34.619  17.558  -1.574  1.00 20.00     0.008 C 
HETATM    9  C5  UNL     1     -35.402  17.351  -0.279  1.00 20.00     0.012 C 
HETATM   10  C6  UNL     1     -33.139  17.793  -1.273  1.00 20.00     0.012 C 
ENDBRANCH   4   8
TORSDOF 1
ENDMDL
MODEL 7
REMARK VINA RESULT:      -3.9     11.563     12.103
REMARK  1 active torsions:
REMARK  status: ('A' for Active; 'I' for Inactive)
REMARK    1  A    between atoms: C4_4  and  C7_7 
ROOT
HETATM    1  C1  UNL     1     -36.921  14.610  -4.894  1.00 20.00     0.268 C 
HETATM    2  C2  UNL     1     -36.108  14.820  -6.138  1.00 20.00     0.184 C 
HETATM    3  C3  UNL     1     -34.078  14.905  -4.250  1.00 20.00     0.107 C 
HETATM    4  C4  UNL     1     -35.168  15.869  -3.801  1.00 20.00     0.144 C 
HETATM    5  O8  UNL     1     -37.987  14.002  -4.905  1.00 20.00    -0.264 OA
HETATM    6  O9  UNL     1     -36.435  15.180  -3.760  1.00 20.00    -0.314 OA
HETATM    7  S10 UNL     1     -34.406  14.257  -5.917  1.00 20.00    -0.157 SA
ENDROOT
BRANCH   4   8
HETATM    8  C7  UNL     1     -34.891  16.376  -2.390  1.00 20.00     0.008 C 
HETATM    9  C5  UNL     1     -33.532  17.073  -2.324  1.00 20.00     0.012 C 
HETATM   10  C6  UNL     1     -36.000  17.321  -1.930  1.00 20.00     0.012 C 
ENDBRANCH   4   8
TORSDOF 1
ENDMDL
MODEL 8
REMARK VINA RESULT:      -3.7     11.983     12.732
REMARK  1 active torsions:
REMARK  status: ('A' for Active; 'I' for Inactive)
REMARK    1  A    between atoms: C4_4  and  C7_7 
ROOT
HETATM    1  C1  UNL     1     -37.491  15.036  -4.765  1.00 20.00     0.268 C 
HETATM    2  C2  UNL     1     -37.774  16.236  -5.621  1.00 20.00     0.184 C 
HETATM    3  C3  UNL     1     -35.121  16.743  -4.990  1.00 20.00     0.107 C 
HETATM    4  C4  UNL     1     -35.860  16.462  -3.688  1.00 20.00     0.144 C 
HETATM    5  O8  UNL     1     -38.099  13.978  -4.901  1.00 20.00    -0.264 OA
HETATM    6  O9  UNL     1     -36.558  15.203  -3.792  1.00 20.00    -0.314 OA
HETATM    7  S10 UNL     1     -36.267  16.862  -6.396  1.00 20.00    -0.157 SA
ENDROOT
BRANCH   4   8
HETATM    8  C7  UNL     1     -34.879  16.334  -2.529  1.00 20.00     0.008 C 
HETATM    9  C5  UNL     1     -33.542  16.986  -2.879  1.00 20.00     0.012 C 
HETATM   10  C6  UNL     1     -35.461  16.955  -1.260  1.00 20.00     0.012 C 
ENDBRANCH   4   8
TORSDOF 1
ENDMDL
MODEL 9
REMARK VINA RESULT:      -3.7     11.923     12.776
REMARK  1 active torsions:
REMARK  status: ('A' for Active; 'I' for Inactive)
REMARK    1  A    between atoms: C4_4  and  C7_7 
ROOT
HETATM    1  C1  UNL     1     -33.683  16.282  -6.026  1.00 20.00     0.268 C 
HETATM    2  C2  UNL     1     -33.876  14.794  -6.043  1.00 20.00     0.184 C 
HETATM    3  C3  UNL     1     -35.119  15.385  -3.635  1.00 20.00     0.107 C 
HETATM    4  C4  UNL     1     -33.746  16.042  -3.619  1.00 20.00     0.144 C 
HETATM    5  O8  UNL     1     -33.570  16.938  -7.057  1.00 20.00    -0.264 OA
HETATM    6  O9  UNL     1     -33.588  16.858  -4.799  1.00 20.00    -0.314 OA
HETATM    7  S10 UNL     1     -35.326  14.305  -5.084  1.00 20.00    -0.157 SA
ENDROOT
BRANCH   4   8
HETATM    8  C7  UNL     1     -33.605  16.966  -2.416  1.00 20.00     0.008 C 
HETATM    9  C5  UNL     1     -33.310  18.396  -2.866  1.00 20.00     0.012 C 
HETATM   10  C6  UNL     1     -34.868  16.926  -1.555  1.00 20.00     0.012 C 
ENDBRANCH   4   8
TORSDOF 1
ENDMDL
