MODEL 1
REMARK VINA RESULT:      -4.8      0.000      0.000
REMARK  1 active torsions:
REMARK  status: ('A' for Active; 'I' for Inactive)
REMARK    1  A    between atoms: C6_6  and  C10_10 
ROOT
HETATM    1  C1  UNL     1     -34.163  13.999  -4.149  1.00 20.00     0.054 A 
HETATM    2  C2  UNL     1     -36.012  15.209  -5.386  1.00 20.00     0.060 A 
HETATM    3  C3  UNL     1     -33.621  15.182  -3.844  1.00 20.00     0.025 A 
HETATM    4  C4  UNL     1     -35.461  16.392  -5.073  1.00 20.00    -0.037 A 
HETATM    5  C5  UNL     1     -35.423  13.935  -4.915  1.00 20.00     0.172 A 
HETATM    6  C6  UNL     1     -34.216  16.517  -4.213  1.00 20.00     0.147 A 
HETATM    7  C7  UNL     1     -36.052  17.667  -5.611  1.00 20.00     0.047 C 
HETATM    8  O11 UNL     1     -35.957  12.860  -5.166  1.00 20.00    -0.289 OA
HETATM    9  F12 UNL     1     -33.270  17.224  -4.905  1.00 20.00    -0.233 F 
ENDROOT
BRANCH   6  10
HETATM   10  C10 UNL     1     -34.501  17.298  -2.927  1.00 20.00     0.026 C 
HETATM   11  C8  UNL     1     -35.585  16.601  -2.110  1.00 20.00     0.014 C 
HETATM   12  C9  UNL     1     -33.224  17.457  -2.107  1.00 20.00     0.014 C 
ENDBRANCH   6  10
TORSDOF 1
ENDMDL
MODEL 2
REMARK VINA RESULT:      -4.5      1.564      2.732
REMARK  1 active torsions:
REMARK  status: ('A' for Active; 'I' for Inactive)
REMARK    1  A    between atoms: C6_6  and  C10_10 
ROOT
HETATM    1  C1  UNL     1     -36.764  15.892  -4.008  1.00 20.00     0.054 A 
HETATM    2  C2  UNL     1     -35.202  13.993  -4.610  1.00 20.00     0.060 A 
HETATM    3  C3  UNL     1     -35.706  16.617  -3.632  1.00 20.00     0.025 A 
HETATM    4  C4  UNL     1     -34.144  14.729  -4.231  1.00 20.00    -0.037 A 
HETATM    5  C5  UNL     1     -36.578  14.537  -4.560  1.00 20.00     0.172 A 
HETATM    6  C6  UNL     1     -34.273  16.160  -3.741  1.00 20.00     0.147 A 
HETATM    7  C7  UNL     1     -32.764  14.130  -4.242  1.00 20.00     0.047 C 
HETATM    8  O11 UNL     1     -37.534  13.875  -4.951  1.00 20.00    -0.289 OA
HETATM    9  F12 UNL     1     -33.704  16.255  -2.499  1.00 20.00    -0.233 F 
ENDROOT
BRANCH   6  10
HETATM   10  C10 UNL     1     -33.516  17.133  -4.650  1.00 20.00     0.026 C 
HETATM   11  C8  UNL     1     -34.127  17.137  -6.049  1.00 20.00     0.014 C 
HETATM   12  C9  UNL     1     -33.525  18.536  -4.053  1.00 20.00     0.014 C 
ENDBRANCH   6  10
TORSDOF 1
ENDMDL
MODEL 3
REMARK VINA RESULT:      -4.5     11.764     13.064
REMARK  1 active torsions:
REMARK  status: ('A' for Active; 'I' for Inactive)
REMARK    1  A    between atoms: C6_6  and  C10_10 
ROOT
HETATM    1  C1  UNL     1     -33.027   7.785   5.090  1.00 20.00     0.054 A 
HETATM    2  C2  UNL     1     -32.693   7.053   2.689  1.00 20.00     0.060 A 
HETATM    3  C3  UNL     1     -34.129   7.031   5.145  1.00 20.00     0.025 A 
HETATM    4  C4  UNL     1     -33.801   6.297   2.754  1.00 20.00    -0.037 A 
HETATM    5  C5  UNL     1     -32.210   7.817   3.861  1.00 20.00     0.172 A 
HETATM    6  C6  UNL     1     -34.627   6.159   4.020  1.00 20.00     0.147 A 
HETATM    7  C7  UNL     1     -34.296   5.575   1.531  1.00 20.00     0.047 C 
HETATM    8  O11 UNL     1     -31.172   8.469   3.808  1.00 20.00    -0.289 OA
HETATM    9  F12 UNL     1     -35.919   6.519   3.746  1.00 20.00    -0.233 F 
ENDROOT
BRANCH   6  10
HETATM   10  C10 UNL     1     -34.665   4.707   4.507  1.00 20.00     0.026 C 
HETATM   11  C8  UNL     1     -33.512   3.913   3.901  1.00 20.00     0.014 C 
HETATM   12  C9  UNL     1     -34.616   4.655   6.031  1.00 20.00     0.014 C 
ENDBRANCH   6  10
TORSDOF 1
ENDMDL
MODEL 4
REMARK VINA RESULT:      -4.4      1.657      3.027
REMARK  1 active torsions:
REMARK  status: ('A' for Active; 'I' for Inactive)
REMARK    1  A    between atoms: C6_6  and  C10_10 
ROOT
HETATM    1  C1  UNL     1     -37.218  14.406  -4.907  1.00 20.00     0.054 A 
HETATM    2  C2  UNL     1     -34.766  14.385  -4.275  1.00 20.00     0.060 A 
HETATM    3  C3  UNL     1     -37.321  15.632  -4.385  1.00 20.00     0.025 A 
HETATM    4  C4  UNL     1     -34.879  15.617  -3.756  1.00 20.00    -0.037 A 
HETATM    5  C5  UNL     1     -35.917  13.711  -4.919  1.00 20.00     0.172 A 
HETATM    6  C6  UNL     1     -36.173  16.411  -3.797  1.00 20.00     0.147 A 
HETATM    7  C7  UNL     1     -33.707  16.254  -3.060  1.00 20.00     0.047 C 
HETATM    8  O11 UNL     1     -35.795  12.603  -5.432  1.00 20.00    -0.289 OA
HETATM    9  F12 UNL     1     -36.514  16.768  -2.520  1.00 20.00    -0.233 F 
ENDROOT
BRANCH   6  10
HETATM   10  C10 UNL     1     -36.006  17.711  -4.590  1.00 20.00     0.026 C 
HETATM   11  C8  UNL     1     -35.669  17.405  -6.047  1.00 20.00     0.014 C 
HETATM   12  C9  UNL     1     -37.270  18.559  -4.494  1.00 20.00     0.014 C 
ENDBRANCH   6  10
TORSDOF 1
ENDMDL
MODEL 5
REMARK VINA RESULT:      -4.4      2.538      3.951
REMARK  1 active torsions:
REMARK  status: ('A' for Active; 'I' for Inactive)
REMARK    1  A    between atoms: C6_6  and  C10_10 
ROOT
HETATM    1  C1  UNL     1     -33.798  15.203  -3.767  1.00 20.00     0.054 A 
HETATM    2  C2  UNL     1     -36.207  15.931  -3.490  1.00 20.00     0.060 A 
HETATM    3  C3  UNL     1     -34.190  14.332  -4.702  1.00 20.00     0.025 A 
HETATM    4  C4  UNL     1     -36.592  15.055  -4.432  1.00 20.00    -0.037 A 
HETATM    5  C5  UNL     1     -34.783  16.091  -3.120  1.00 20.00     0.172 A 
HETATM    6  C6  UNL     1     -35.608  14.181  -5.190  1.00 20.00     0.147 A 
HETATM    7  C7  UNL     1     -38.052  14.875  -4.747  1.00 20.00     0.047 C 
HETATM    8  O11 UNL     1     -34.435  16.926  -2.292  1.00 20.00    -0.289 OA
HETATM    9  F12 UNL     1     -35.971  12.870  -5.035  1.00 20.00    -0.233 F 
ENDROOT
BRANCH   6  10
HETATM   10  C10 UNL     1     -35.643  14.475  -6.693  1.00 20.00     0.026 C 
HETATM   11  C8  UNL     1     -35.263  15.928  -6.959  1.00 20.00     0.014 C 
HETATM   12  C9  UNL     1     -34.712  13.527  -7.442  1.00 20.00     0.014 C 
ENDBRANCH   6  10
TORSDOF 1
ENDMDL
MODEL 6
REMARK VINA RESULT:      -4.4      2.615      3.946
REMARK  1 active torsions:
REMARK  status: ('A' for Active; 'I' for Inactive)
REMARK    1  A    between atoms: C6_6  and  C10_10 
ROOT
HETATM    1  C1  UNL     1     -33.990  16.991  -1.979  1.00 20.00     0.054 A 
HETATM    2  C2  UNL     1     -33.346  18.362  -4.008  1.00 20.00     0.060 A 
HETATM    3  C3  UNL     1     -34.743  16.217  -2.766  1.00 20.00     0.025 A 
HETATM    4  C4  UNL     1     -34.104  17.578  -4.792  1.00 20.00    -0.037 A 
HETATM    5  C5  UNL     1     -33.208  18.101  -2.558  1.00 20.00     0.172 A 
HETATM    6  C6  UNL     1     -34.857  16.371  -4.261  1.00 20.00     0.147 A 
HETATM    7  C7  UNL     1     -34.268  17.901  -6.252  1.00 20.00     0.047 C 
HETATM    8  O11 UNL     1     -32.478  18.794  -1.857  1.00 20.00    -0.289 OA
HETATM    9  F12 UNL     1     -36.184  16.506  -4.572  1.00 20.00    -0.233 F 
ENDROOT
BRANCH   6  10
HETATM   10  C10 UNL     1     -34.377  15.076  -4.925  1.00 20.00     0.026 C 
HETATM   11  C8  UNL     1     -32.989  14.701  -4.415  1.00 20.00     0.014 C 
HETATM   12  C9  UNL     1     -35.371  13.947  -4.670  1.00 20.00     0.014 C 
ENDBRANCH   6  10
TORSDOF 1
ENDMDL
MODEL 7
REMARK VINA RESULT:      -4.3     11.150     12.504
REMARK  1 active torsions:
REMARK  status: ('A' for Active; 'I' for Inactive)
REMARK    1  A    between atoms: C6_6  and  C10_10 
ROOT
HETATM    1  C1  UNL     1     -33.246   8.702   2.948  1.00 20.00     0.054 A 
HETATM    2  C2  UNL     1     -32.324   6.531   2.029  1.00 20.00     0.060 A 
HETATM    3  C3  UNL     1     -34.074   7.998   3.726  1.00 20.00     0.025 A 
HETATM    4  C4  UNL     1     -33.158   5.832   2.815  1.00 20.00    -0.037 A 
HETATM    5  C5  UNL     1     -32.284   8.010   2.069  1.00 20.00     0.172 A 
HETATM    6  C6  UNL     1     -34.104   6.493   3.802  1.00 20.00     0.147 A 
HETATM    7  C7  UNL     1     -33.214   4.332   2.713  1.00 20.00     0.047 C 
HETATM    8  O11 UNL     1     -31.488   8.641   1.381  1.00 20.00    -0.289 OA
HETATM    9  F12 UNL     1     -35.382   6.081   3.533  1.00 20.00    -0.233 F 
ENDROOT
BRANCH   6  10
HETATM   10  C10 UNL     1     -33.796   6.069   5.241  1.00 20.00     0.026 C 
HETATM   11  C8  UNL     1     -33.848   7.275   6.173  1.00 20.00     0.014 C 
HETATM   12  C9  UNL     1     -34.772   4.990   5.699  1.00 20.00     0.014 C 
ENDBRANCH   6  10
TORSDOF 1
ENDMDL
MODEL 8
REMARK VINA RESULT:      -4.3      2.514      3.816
REMARK  1 active torsions:
REMARK  status: ('A' for Active; 'I' for Inactive)
REMARK    1  A    between atoms: C6_6  and  C10_10 
ROOT
HETATM    1  C1  UNL     1     -34.531  16.222  -2.857  1.00 20.00     0.054 A 
HETATM    2  C2  UNL     1     -36.939  16.100  -3.628  1.00 20.00     0.060 A 
HETATM    3  C3  UNL     1     -34.221  15.268  -3.740  1.00 20.00     0.025 A 
HETATM    4  C4  UNL     1     -36.618  15.144  -4.514  1.00 20.00    -0.037 A 
HETATM    5  C5  UNL     1     -35.913  16.730  -2.767  1.00 20.00     0.172 A 
HETATM    6  C6  UNL     1     -35.196  14.649  -4.708  1.00 20.00     0.147 A 
HETATM    7  C7  UNL     1     -37.692  14.485  -5.336  1.00 20.00     0.047 C 
HETATM    8  O11 UNL     1     -36.206  17.636  -1.992  1.00 20.00    -0.289 OA
HETATM    9  F12 UNL     1     -35.171  13.292  -4.524  1.00 20.00    -0.233 F 
ENDROOT
BRANCH   6  10
HETATM   10  C10 UNL     1     -34.703  14.911  -6.135  1.00 20.00     0.026 C 
HETATM   11  C8  UNL     1     -33.390  15.687  -6.109  1.00 20.00     0.014 C 
HETATM   12  C9  UNL     1     -34.540  13.596  -6.891  1.00 20.00     0.014 C 
ENDBRANCH   6  10
TORSDOF 1
ENDMDL
MODEL 9
REMARK VINA RESULT:      -4.2     11.385     12.609
REMARK  1 active torsions:
REMARK  status: ('A' for Active; 'I' for Inactive)
REMARK    1  A    between atoms: C6_6  and  C10_10 
ROOT
HETATM    1  C1  UNL     1     -33.971   4.963   2.750  1.00 20.00     0.054 A 
HETATM    2  C2  UNL     1     -34.039   5.488   5.226  1.00 20.00     0.060 A 
HETATM    3  C3  UNL     1     -33.635   6.234   2.510  1.00 20.00     0.025 A 
HETATM    4  C4  UNL     1     -33.700   6.763   4.975  1.00 20.00    -0.037 A 
HETATM    5  C5  UNL     1     -34.160   4.493   4.136  1.00 20.00     0.172 A 
HETATM    6  C6  UNL     1     -33.407   7.275   3.576  1.00 20.00     0.147 A 
HETATM    7  C7  UNL     1     -33.638   7.762   6.098  1.00 20.00     0.047 C 
HETATM    8  O11 UNL     1     -34.425   3.320   4.376  1.00 20.00    -0.289 OA
HETATM    9  F12 UNL     1     -34.229   8.337   3.313  1.00 20.00    -0.233 F 
ENDROOT
BRANCH   6  10
HETATM   10  C10 UNL     1     -31.969   7.788   3.459  1.00 20.00     0.026 C 
HETATM   11  C8  UNL     1     -31.691   8.271   2.038  1.00 20.00     0.014 C 
HETATM   12  C9  UNL     1     -31.719   8.905   4.468  1.00 20.00     0.014 C 
ENDBRANCH   6  10
TORSDOF 1
ENDMDL
