MODEL 1
REMARK VINA RESULT:      -6.5      0.000      0.000
REMARK  1 active torsions:
REMARK  status: ('A' for Active; 'I' for Inactive)
REMARK    1  A    between atoms: C2_2  and  C9_9 
ROOT
HETATM    1  C1  UNL     1     -33.189   7.490   4.607  1.00 20.00     0.057 A 
HETATM    2  C2  UNL     1     -33.009   7.169   3.323  1.00 20.00    -0.069 A 
HETATM    3  C3  UNL     1     -34.162   6.524   5.130  1.00 20.00     0.189 A 
HETATM    4  C4  UNL     1     -33.793   5.979   2.848  1.00 20.00     0.086 A 
HETATM    5  C5  UNL     1     -34.630   5.570   4.062  1.00 20.00     0.167 A 
HETATM    6  C6  UNL     1     -34.438   4.121   4.469  1.00 20.00     0.061 C 
HETATM    7  O10 UNL     1     -34.557   6.538   6.287  1.00 20.00    -0.290 OA
HETATM    8  F11 UNL     1     -35.946   5.775   3.786  1.00 20.00    -0.234 F 
ENDROOT
BRANCH   2   9
HETATM    9  C9  UNL     1     -32.103   7.880   2.378  1.00 20.00     0.006 C 
HETATM   10  C7  UNL     1     -32.896   8.833   1.484  1.00 20.00     0.014 C 
HETATM   11  C8  UNL     1     -31.007   8.636   3.131  1.00 20.00     0.014 C 
ENDBRANCH   2   9
TORSDOF 1
ENDMDL
MODEL 2
REMARK VINA RESULT:      -4.9      2.232      4.108
REMARK  1 active torsions:
REMARK  status: ('A' for Active; 'I' for Inactive)
REMARK    1  A    between atoms: C2_2  and  C9_9 
ROOT
HETATM    1  C1  UNL     1     -32.889   7.336   4.716  1.00 20.00     0.057 A 
HETATM    2  C2  UNL     1     -33.712   6.591   3.973  1.00 20.00    -0.069 A 
HETATM    3  C3  UNL     1     -32.122   8.153   3.767  1.00 20.00     0.189 A 
HETATM    4  C4  UNL     1     -33.619   6.822   2.492  1.00 20.00     0.086 A 
HETATM    5  C5  UNL     1     -32.492   7.844   2.340  1.00 20.00     0.167 A 
HETATM    6  C6  UNL     1     -32.902   9.090   1.575  1.00 20.00     0.061 C 
HETATM    7  O10 UNL     1     -31.266   8.952   4.119  1.00 20.00    -0.290 OA
HETATM    8  F11 UNL     1     -31.446   7.262   1.695  1.00 20.00    -0.234 F 
ENDROOT
BRANCH   2   9
HETATM    9  C9  UNL     1     -34.688   5.599   4.505  1.00 20.00     0.006 C 
HETATM   10  C7  UNL     1     -34.276   4.179   4.122  1.00 20.00     0.014 C 
HETATM   11  C8  UNL     1     -34.830   5.726   6.023  1.00 20.00     0.014 C 
ENDBRANCH   2   9
TORSDOF 1
ENDMDL
MODEL 3
REMARK VINA RESULT:      -4.9     11.169     12.107
REMARK  1 active torsions:
REMARK  status: ('A' for Active; 'I' for Inactive)
REMARK    1  A    between atoms: C2_2  and  C9_9 
ROOT
HETATM    1  C1  UNL     1     -34.668  14.185  -4.075  1.00 20.00     0.057 A 
HETATM    2  C2  UNL     1     -34.980  15.441  -3.743  1.00 20.00    -0.069 A 
HETATM    3  C3  UNL     1     -35.759  13.715  -4.937  1.00 20.00     0.189 A 
HETATM    4  C4  UNL     1     -36.259  15.957  -4.337  1.00 20.00     0.086 A 
HETATM    5  C5  UNL     1     -36.828  14.763  -5.104  1.00 20.00     0.167 A 
HETATM    6  C6  UNL     1     -37.110  15.062  -6.565  1.00 20.00     0.061 C 
HETATM    7  O10 UNL     1     -35.791  12.591  -5.417  1.00 20.00    -0.290 OA
HETATM    8  F11 UNL     1     -37.984  14.361  -4.511  1.00 20.00    -0.234 F 
ENDROOT
BRANCH   2   9
HETATM    9  C9  UNL     1     -34.160  16.327  -2.871  1.00 20.00     0.006 C 
HETATM   10  C7  UNL     1     -33.621  17.517  -3.664  1.00 20.00     0.014 C 
HETATM   11  C8  UNL     1     -34.966  16.809  -1.662  1.00 20.00     0.014 C 
ENDBRANCH   2   9
TORSDOF 1
ENDMDL
MODEL 4
REMARK VINA RESULT:      -4.8     11.505     12.556
REMARK  1 active torsions:
REMARK  status: ('A' for Active; 'I' for Inactive)
REMARK    1  A    between atoms: C2_2  and  C9_9 
ROOT
HETATM    1  C1  UNL     1     -34.832  14.424  -4.030  1.00 20.00     0.057 A 
HETATM    2  C2  UNL     1     -34.272  15.571  -4.426  1.00 20.00    -0.069 A 
HETATM    3  C3  UNL     1     -35.326  13.776  -5.252  1.00 20.00     0.189 A 
HETATM    4  C4  UNL     1     -34.301  15.815  -5.907  1.00 20.00     0.086 A 
HETATM    5  C5  UNL     1     -35.073  14.622  -6.472  1.00 20.00     0.167 A 
HETATM    6  C6  UNL     1     -34.315  13.863  -7.545  1.00 20.00     0.061 C 
HETATM    7  O10 UNL     1     -35.902  12.699  -5.246  1.00 20.00    -0.290 OA
HETATM    8  F11 UNL     1     -36.249  15.060  -6.997  1.00 20.00    -0.234 F 
ENDROOT
BRANCH   2   9
HETATM    9  C9  UNL     1     -33.634  16.571  -3.525  1.00 20.00     0.006 C 
HETATM   10  C7  UNL     1     -33.526  17.929  -4.217  1.00 20.00     0.014 C 
HETATM   11  C8  UNL     1     -34.405  16.698  -2.209  1.00 20.00     0.014 C 
ENDBRANCH   2   9
TORSDOF 1
ENDMDL
MODEL 5
REMARK VINA RESULT:      -4.7      1.927      2.453
REMARK  1 active torsions:
REMARK  status: ('A' for Active; 'I' for Inactive)
REMARK    1  A    between atoms: C2_2  and  C9_9 
ROOT
HETATM    1  C1  UNL     1     -32.363   6.599   2.136  1.00 20.00     0.057 A 
HETATM    2  C2  UNL     1     -32.719   7.842   2.473  1.00 20.00    -0.069 A 
HETATM    3  C3  UNL     1     -33.162   5.708   2.987  1.00 20.00     0.189 A 
HETATM    4  C4  UNL     1     -33.776   7.935   3.535  1.00 20.00     0.086 A 
HETATM    5  C5  UNL     1     -34.040   6.482   3.934  1.00 20.00     0.167 A 
HETATM    6  C6  UNL     1     -35.498   6.078   3.820  1.00 20.00     0.061 C 
HETATM    7  O10 UNL     1     -33.077   4.490   2.937  1.00 20.00    -0.290 OA
HETATM    8  F11 UNL     1     -33.635   6.292   5.219  1.00 20.00    -0.234 F 
ENDROOT
BRANCH   2   9
HETATM    9  C9  UNL     1     -32.166   9.087   1.871  1.00 20.00     0.006 C 
HETATM   10  C7  UNL     1     -31.282   8.758   0.669  1.00 20.00     0.014 C 
HETATM   11  C8  UNL     1     -33.286  10.049   1.469  1.00 20.00     0.014 C 
ENDBRANCH   2   9
TORSDOF 1
ENDMDL
MODEL 6
REMARK VINA RESULT:      -4.6     11.622     12.217
REMARK  1 active torsions:
REMARK  status: ('A' for Active; 'I' for Inactive)
REMARK    1  A    between atoms: C2_2  and  C9_9 
ROOT
HETATM    1  C1  UNL     1     -33.728  15.038  -4.096  1.00 20.00     0.057 A 
HETATM    2  C2  UNL     1     -34.536  15.823  -3.377  1.00 20.00    -0.069 A 
HETATM    3  C3  UNL     1     -34.568  14.456  -5.150  1.00 20.00     0.189 A 
HETATM    4  C4  UNL     1     -35.958  15.879  -3.854  1.00 20.00     0.086 A 
HETATM    5  C5  UNL     1     -36.002  14.900  -5.028  1.00 20.00     0.167 A 
HETATM    6  C6  UNL     1     -36.518  15.520  -6.314  1.00 20.00     0.061 C 
HETATM    7  O10 UNL     1     -34.139  13.677  -5.989  1.00 20.00    -0.290 OA
HETATM    8  F11 UNL     1     -36.799  13.848  -4.702  1.00 20.00    -0.234 F 
ENDROOT
BRANCH   2   9
HETATM    9  C9  UNL     1     -34.122  16.624  -2.191  1.00 20.00     0.006 C 
HETATM   10  C7  UNL     1     -33.392  17.894  -2.626  1.00 20.00     0.014 C 
HETATM   11  C8  UNL     1     -35.327  16.970  -1.314  1.00 20.00     0.014 C 
ENDBRANCH   2   9
TORSDOF 1
ENDMDL
MODEL 7
REMARK VINA RESULT:      -4.6      2.570      4.334
REMARK  1 active torsions:
REMARK  status: ('A' for Active; 'I' for Inactive)
REMARK    1  A    between atoms: C2_2  and  C9_9 
ROOT
HETATM    1  C1  UNL     1     -32.602   7.513   3.911  1.00 20.00     0.057 A 
HETATM    2  C2  UNL     1     -33.315   6.887   2.970  1.00 20.00    -0.069 A 
HETATM    3  C3  UNL     1     -31.890   8.596   3.222  1.00 20.00     0.189 A 
HETATM    4  C4  UNL     1     -33.191   7.464   1.589  1.00 20.00     0.086 A 
HETATM    5  C5  UNL     1     -32.171   8.594   1.743  1.00 20.00     0.167 A 
HETATM    6  C6  UNL     1     -32.681   9.939   1.258  1.00 20.00     0.061 C 
HETATM    7  O10 UNL     1     -31.136   9.367   3.797  1.00 20.00    -0.290 OA
HETATM    8  F11 UNL     1     -31.047   8.278   1.046  1.00 20.00    -0.234 F 
ENDROOT
BRANCH   2   9
HETATM    9  C9  UNL     1     -34.200   5.712   3.202  1.00 20.00     0.006 C 
HETATM   10  C7  UNL     1     -33.443   4.409   2.953  1.00 20.00     0.014 C 
HETATM   11  C8  UNL     1     -34.784   5.733   4.617  1.00 20.00     0.014 C 
ENDBRANCH   2   9
TORSDOF 1
ENDMDL
MODEL 8
REMARK VINA RESULT:      -4.5     11.751     12.208
REMARK  1 active torsions:
REMARK  status: ('A' for Active; 'I' for Inactive)
REMARK    1  A    between atoms: C2_2  and  C9_9 
ROOT
HETATM    1  C1  UNL     1     -33.594  16.432  -3.022  1.00 20.00     0.057 A 
HETATM    2  C2  UNL     1     -34.810  16.419  -2.469  1.00 20.00    -0.069 A 
HETATM    3  C3  UNL     1     -33.708  15.653  -4.262  1.00 20.00     0.189 A 
HETATM    4  C4  UNL     1     -35.856  15.678  -3.250  1.00 20.00     0.086 A 
HETATM    5  C5  UNL     1     -35.097  15.100  -4.446  1.00 20.00     0.167 A 
HETATM    6  C6  UNL     1     -35.692  15.490  -5.786  1.00 20.00     0.061 C 
HETATM    7  O10 UNL     1     -32.766  15.462  -5.015  1.00 20.00    -0.290 OA
HETATM    8  F11 UNL     1     -35.084  13.743  -4.352  1.00 20.00    -0.234 F 
ENDROOT
BRANCH   2   9
HETATM    9  C9  UNL     1     -35.177  17.082  -1.187  1.00 20.00     0.006 C 
HETATM   10  C7  UNL     1     -33.994  17.871  -0.629  1.00 20.00     0.014 C 
HETATM   11  C8  UNL     1     -36.394  17.993  -1.367  1.00 20.00     0.014 C 
ENDBRANCH   2   9
TORSDOF 1
ENDMDL
MODEL 9
REMARK VINA RESULT:      -4.4     11.654     12.195
REMARK  1 active torsions:
REMARK  status: ('A' for Active; 'I' for Inactive)
REMARK    1  A    between atoms: C2_2  and  C9_9 
ROOT
HETATM    1  C1  UNL     1     -35.916  16.730  -2.387  1.00 20.00     0.057 A 
HETATM    2  C2  UNL     1     -34.585  16.716  -2.277  1.00 20.00    -0.069 A 
HETATM    3  C3  UNL     1     -36.226  15.973  -3.606  1.00 20.00     0.189 A 
HETATM    4  C4  UNL     1     -33.865  15.958  -3.355  1.00 20.00     0.086 A 
HETATM    5  C5  UNL     1     -34.976  15.499  -4.300  1.00 20.00     0.167 A 
HETATM    6  C6  UNL     1     -34.989  14.000  -4.537  1.00 20.00     0.061 C 
HETATM    7  O10 UNL     1     -37.367  15.796  -4.007  1.00 20.00    -0.290 OA
HETATM    8  F11 UNL     1     -34.831  16.128  -5.498  1.00 20.00    -0.234 F 
ENDROOT
BRANCH   2   9
HETATM    9  C9  UNL     1     -33.806  17.366  -1.185  1.00 20.00     0.006 C 
HETATM   10  C7  UNL     1     -32.916  18.475  -1.744  1.00 20.00     0.014 C 
HETATM   11  C8  UNL     1     -34.734  17.916  -0.100  1.00 20.00     0.014 C 
ENDBRANCH   2   9
TORSDOF 1
ENDMDL
