MODEL 1
REMARK VINA RESULT:      -4.9      0.000      0.000
REMARK  1 active torsions:
REMARK  status: ('A' for Active; 'I' for Inactive)
REMARK    1  A    between atoms: C7_7  and  C10_10 
ROOT
HETATM    1  C1  UNL     1     -33.233   7.511   6.009  1.00 20.00    -0.023 C 
HETATM    2  C2  UNL     1     -33.941   8.083   4.975  1.00 20.00    -0.012 C 
HETATM    3  C3  UNL     1     -35.240   5.909   3.828  1.00 20.00     0.140 C 
HETATM    4  C4  UNL     1     -35.193   4.585   4.619  1.00 20.00     0.080 C 
HETATM    5  C5  UNL     1     -34.018   4.813   5.641  1.00 20.00     0.017 C 
HETATM    6  C6  UNL     1     -34.111   6.301   5.878  1.00 20.00     0.028 C 
HETATM    7  C7  UNL     1     -34.004   6.707   4.324  1.00 20.00     0.048 C 
HETATM    8  O11 UNL     1     -36.084   6.190   2.991  1.00 20.00    -0.297 OA
ENDROOT
BRANCH   7   9
HETATM    9  C10 UNL     1     -32.802   6.454   3.391  1.00 20.00    -0.002 C 
HETATM   10  C8  UNL     1     -33.022   5.180   2.590  1.00 20.00     0.011 C 
HETATM   11  C9  UNL     1     -32.593   7.651   2.474  1.00 20.00     0.011 C 
ENDBRANCH   7   9
TORSDOF 1
ENDMDL
MODEL 2
REMARK VINA RESULT:      -4.6     11.955     12.995
REMARK  1 active torsions:
REMARK  status: ('A' for Active; 'I' for Inactive)
REMARK    1  A    between atoms: C7_7  and  C10_10 
ROOT
HETATM    1  C1  UNL     1     -36.914  14.379  -5.109  1.00 20.00    -0.023 C 
HETATM    2  C2  UNL     1     -36.000  13.362  -5.279  1.00 20.00    -0.012 C 
HETATM    3  C3  UNL     1     -33.636  14.481  -4.338  1.00 20.00     0.140 C 
HETATM    4  C4  UNL     1     -33.762  15.824  -3.590  1.00 20.00     0.080 C 
HETATM    5  C5  UNL     1     -35.192  16.338  -4.001  1.00 20.00     0.017 C 
HETATM    6  C6  UNL     1     -35.937  15.037  -4.179  1.00 20.00     0.028 C 
HETATM    7  C7  UNL     1     -34.898  14.413  -5.239  1.00 20.00     0.048 C 
HETATM    8  O11 UNL     1     -32.704  13.701  -4.215  1.00 20.00    -0.297 OA
ENDROOT
BRANCH   7   9
HETATM    9  C10 UNL     1     -34.577  14.966  -6.643  1.00 20.00    -0.002 C 
HETATM   10  C8  UNL     1     -33.389  15.914  -6.571  1.00 20.00     0.011 C 
HETATM   11  C9  UNL     1     -34.309  13.819  -7.606  1.00 20.00     0.011 C 
ENDBRANCH   7   9
TORSDOF 1
ENDMDL
MODEL 3
REMARK VINA RESULT:      -4.5     12.076     13.185
REMARK  1 active torsions:
REMARK  status: ('A' for Active; 'I' for Inactive)
REMARK    1  A    between atoms: C7_7  and  C10_10 
ROOT
HETATM    1  C1  UNL     1     -32.948  15.778  -5.450  1.00 20.00    -0.023 C 
HETATM    2  C2  UNL     1     -33.260  14.770  -4.565  1.00 20.00    -0.012 C 
HETATM    3  C3  UNL     1     -35.593  13.700  -5.631  1.00 20.00     0.140 C 
HETATM    4  C4  UNL     1     -35.978  14.168  -7.050  1.00 20.00     0.080 C 
HETATM    5  C5  UNL     1     -35.113  15.467  -7.253  1.00 20.00     0.017 C 
HETATM    6  C6  UNL     1     -33.888  15.142  -6.433  1.00 20.00     0.028 C 
HETATM    7  C7  UNL     1     -34.695  14.835  -5.073  1.00 20.00     0.048 C 
HETATM    8  O11 UNL     1     -35.971  12.659  -5.116  1.00 20.00    -0.297 OA
ENDROOT
BRANCH   7   9
HETATM    9  C10 UNL     1     -35.546  15.837  -4.267  1.00 20.00    -0.002 C 
HETATM   10  C8  UNL     1     -36.995  15.375  -4.225  1.00 20.00     0.011 C 
HETATM   11  C9  UNL     1     -34.978  15.994  -2.864  1.00 20.00     0.011 C 
ENDBRANCH   7   9
TORSDOF 1
ENDMDL
MODEL 4
REMARK VINA RESULT:      -4.4     11.922     13.547
REMARK  1 active torsions:
REMARK  status: ('A' for Active; 'I' for Inactive)
REMARK    1  A    between atoms: C7_7  and  C10_10 
ROOT
HETATM    1  C1  UNL     1     -34.067  15.572  -4.393  1.00 20.00    -0.023 C 
HETATM    2  C2  UNL     1     -34.651  14.334  -4.241  1.00 20.00    -0.012 C 
HETATM    3  C3  UNL     1     -34.800  13.387  -6.850  1.00 20.00     0.140 C 
HETATM    4  C4  UNL     1     -34.029  14.191  -7.918  1.00 20.00     0.080 C 
HETATM    5  C5  UNL     1     -33.758  15.570  -7.210  1.00 20.00     0.017 C 
HETATM    6  C6  UNL     1     -33.635  15.147  -5.766  1.00 20.00     0.028 C 
HETATM    7  C7  UNL     1     -35.061  14.403  -5.707  1.00 20.00     0.048 C 
HETATM    8  O11 UNL     1     -35.122  12.214  -6.961  1.00 20.00    -0.297 OA
ENDROOT
BRANCH   7   9
HETATM    9  C10 UNL     1     -36.446  15.059  -5.887  1.00 20.00    -0.002 C 
HETATM   10  C8  UNL     1     -36.884  14.961  -7.341  1.00 20.00     0.011 C 
HETATM   11  C9  UNL     1     -37.459  14.401  -4.962  1.00 20.00     0.011 C 
ENDBRANCH   7   9
TORSDOF 1
ENDMDL
MODEL 5
REMARK VINA RESULT:      -4.4      1.033      2.119
REMARK  1 active torsions:
REMARK  status: ('A' for Active; 'I' for Inactive)
REMARK    1  A    between atoms: C7_7  and  C10_10 
ROOT
HETATM    1  C1  UNL     1     -32.127   7.590   3.294  1.00 20.00    -0.023 C 
HETATM    2  C2  UNL     1     -33.135   7.226   2.429  1.00 20.00    -0.012 C 
HETATM    3  C3  UNL     1     -35.067   6.170   4.126  1.00 20.00     0.140 C 
HETATM    4  C4  UNL     1     -34.849   6.391   5.637  1.00 20.00     0.080 C 
HETATM    5  C5  UNL     1     -33.329   6.786   5.732  1.00 20.00     0.017 C 
HETATM    6  C6  UNL     1     -33.121   7.496   4.415  1.00 20.00     0.028 C 
HETATM    7  C7  UNL     1     -33.649   6.277   3.505  1.00 20.00     0.048 C 
HETATM    8  O11 UNL     1     -36.148   5.940   3.605  1.00 20.00    -0.297 OA
ENDROOT
BRANCH   7   9
HETATM    9  C10 UNL     1     -33.014   4.876   3.389  1.00 20.00    -0.002 C 
HETATM   10  C8  UNL     1     -33.826   3.867   4.187  1.00 20.00     0.011 C 
HETATM   11  C9  UNL     1     -32.915   4.468   1.926  1.00 20.00     0.011 C 
ENDBRANCH   7   9
TORSDOF 1
ENDMDL
MODEL 6
REMARK VINA RESULT:      -4.4     12.182     13.309
REMARK  1 active torsions:
REMARK  status: ('A' for Active; 'I' for Inactive)
REMARK    1  A    between atoms: C7_7  and  C10_10 
ROOT
HETATM    1  C1  UNL     1     -33.298  16.120  -4.715  1.00 20.00    -0.023 C 
HETATM    2  C2  UNL     1     -34.033  15.292  -3.895  1.00 20.00    -0.012 C 
HETATM    3  C3  UNL     1     -35.312  13.603  -5.694  1.00 20.00     0.140 C 
HETATM    4  C4  UNL     1     -34.831  13.667  -7.158  1.00 20.00     0.080 C 
HETATM    5  C5  UNL     1     -34.040  15.026  -7.222  1.00 20.00     0.017 C 
HETATM    6  C6  UNL     1     -33.493  15.121  -5.818  1.00 20.00     0.028 C 
HETATM    7  C7  UNL     1     -34.922  14.979  -5.091  1.00 20.00     0.048 C 
HETATM    8  O11 UNL     1     -35.889  12.650  -5.192  1.00 20.00    -0.297 OA
ENDROOT
BRANCH   7   9
HETATM    9  C10 UNL     1     -36.108  15.960  -5.200  1.00 20.00    -0.002 C 
HETATM   10  C8  UNL     1     -37.054  15.514  -6.305  1.00 20.00     0.011 C 
HETATM   11  C9  UNL     1     -36.830  16.056  -3.864  1.00 20.00     0.011 C 
ENDBRANCH   7   9
TORSDOF 1
ENDMDL
MODEL 7
REMARK VINA RESULT:      -4.3     12.090     13.544
REMARK  1 active torsions:
REMARK  status: ('A' for Active; 'I' for Inactive)
REMARK    1  A    between atoms: C7_7  and  C10_10 
ROOT
HETATM    1  C1  UNL     1     -34.360  15.745  -7.735  1.00 20.00    -0.023 C 
HETATM    2  C2  UNL     1     -33.923  14.516  -7.292  1.00 20.00    -0.012 C 
HETATM    3  C3  UNL     1     -35.961  13.705  -5.583  1.00 20.00     0.140 C 
HETATM    4  C4  UNL     1     -37.256  14.541  -5.614  1.00 20.00     0.080 C 
HETATM    5  C5  UNL     1     -36.812  15.876  -6.319  1.00 20.00     0.017 C 
HETATM    6  C6  UNL     1     -35.733  15.378  -7.250  1.00 20.00     0.028 C 
HETATM    7  C7  UNL     1     -34.859  14.669  -6.099  1.00 20.00     0.048 C 
HETATM    8  O11 UNL     1     -35.889  12.547  -5.201  1.00 20.00    -0.297 OA
ENDROOT
BRANCH   7   9
HETATM    9  C10 UNL     1     -34.168  15.368  -4.910  1.00 20.00    -0.002 C 
HETATM   10  C8  UNL     1     -35.159  15.567  -3.774  1.00 20.00     0.011 C 
HETATM   11  C9  UNL     1     -32.966  14.553  -4.454  1.00 20.00     0.011 C 
ENDBRANCH   7   9
TORSDOF 1
ENDMDL
MODEL 8
REMARK VINA RESULT:      -4.2     11.761     13.021
REMARK  1 active torsions:
REMARK  status: ('A' for Active; 'I' for Inactive)
REMARK    1  A    between atoms: C7_7  and  C10_10 
ROOT
HETATM    1  C1  UNL     1     -36.227  16.866  -3.368  1.00 20.00    -0.023 C 
HETATM    2  C2  UNL     1     -37.002  15.855  -3.890  1.00 20.00    -0.012 C 
HETATM    3  C3  UNL     1     -35.117  13.994  -4.734  1.00 20.00     0.140 C 
HETATM    4  C4  UNL     1     -33.663  14.233  -4.279  1.00 20.00     0.080 C 
HETATM    5  C5  UNL     1     -33.666  15.741  -3.827  1.00 20.00     0.017 C 
HETATM    6  C6  UNL     1     -35.080  15.899  -3.321  1.00 20.00     0.028 C 
HETATM    7  C7  UNL     1     -35.782  15.395  -4.679  1.00 20.00     0.048 C 
HETATM    8  O11 UNL     1     -35.571  12.912  -5.074  1.00 20.00    -0.297 OA
ENDROOT
BRANCH   7   9
HETATM    9  C10 UNL     1     -35.700  16.076  -6.061  1.00 20.00    -0.002 C 
HETATM   10  C8  UNL     1     -34.492  15.557  -6.827  1.00 20.00     0.011 C 
HETATM   11  C9  UNL     1     -36.987  15.837  -6.837  1.00 20.00     0.011 C 
ENDBRANCH   7   9
TORSDOF 1
ENDMDL
MODEL 9
REMARK VINA RESULT:      -4.1     12.351     13.448
REMARK  1 active torsions:
REMARK  status: ('A' for Active; 'I' for Inactive)
REMARK    1  A    between atoms: C7_7  and  C10_10 
ROOT
HETATM    1  C1  UNL     1     -37.320  14.365  -5.254  1.00 20.00    -0.023 C 
HETATM    2  C2  UNL     1     -36.847  15.656  -5.172  1.00 20.00    -0.012 C 
HETATM    3  C3  UNL     1     -34.452  15.535  -6.578  1.00 20.00     0.140 C 
HETATM    4  C4  UNL     1     -34.193  14.246  -7.384  1.00 20.00     0.080 C 
HETATM    5  C5  UNL     1     -35.218  13.221  -6.772  1.00 20.00     0.017 C 
HETATM    6  C6  UNL     1     -36.356  14.133  -6.380  1.00 20.00     0.028 C 
HETATM    7  C7  UNL     1     -35.456  15.113  -5.473  1.00 20.00     0.048 C 
HETATM    8  O11 UNL     1     -33.927  16.615  -6.804  1.00 20.00    -0.297 OA
ENDROOT
BRANCH   7   9
HETATM    9  C10 UNL     1     -34.696  14.730  -4.186  1.00 20.00    -0.002 C 
HETATM   10  C8  UNL     1     -33.244  14.412  -4.512  1.00 20.00     0.011 C 
HETATM   11  C9  UNL     1     -34.798  15.855  -3.167  1.00 20.00     0.011 C 
ENDBRANCH   7   9
TORSDOF 1
ENDMDL
