MODEL 1
REMARK VINA RESULT:      -4.6      0.000      0.000
REMARK  1 active torsions:
REMARK  status: ('A' for Active; 'I' for Inactive)
REMARK    1  A    between atoms: C3_3  and  N9_9 
ROOT
HETATM    1  C1  UNL     1     -33.823   6.882   4.843  1.00 20.00     0.079 C 
HETATM    2  C4  UNL     1     -34.838   5.748   5.014  1.00 20.00     0.070 C 
HETATM    3  C5  UNL     1     -34.161   4.377   4.991  1.00 20.00     0.007 C 
HETATM    4  C6  UNL     1     -33.982   3.814   3.584  1.00 20.00     0.002 C 
HETATM    5  C7  UNL     1     -33.071   4.641   2.682  1.00 20.00     0.020 C 
HETATM    6  C8  UNL     1     -33.552   6.076   2.478  1.00 20.00     0.129 C 
HETATM    7  N9  UNL     1     -33.175   6.958   3.599  1.00 20.00    -0.352 N 
HETATM    8  S10 UNL     1     -33.572   7.901   6.173  1.00 20.00    -0.065 SA
ENDROOT
BRANCH   7   9
HETATM    9  C3  UNL     1     -32.146   7.846   3.340  1.00 20.00     0.081 C 
HETATM   10  C2  UNL     1     -31.900   8.338   2.123  1.00 20.00     0.030 C 
ENDBRANCH   7   9
TORSDOF 1
ENDMDL
MODEL 2
REMARK VINA RESULT:      -4.2      1.644      2.904
REMARK  1 active torsions:
REMARK  status: ('A' for Active; 'I' for Inactive)
REMARK    1  A    between atoms: C3_3  and  N9_9 
ROOT
HETATM    1  C1  UNL     1     -33.051   7.367   3.667  1.00 20.00     0.079 C 
HETATM    2  C4  UNL     1     -33.742   8.013   4.870  1.00 20.00     0.070 C 
HETATM    3  C5  UNL     1     -33.614   7.151   6.126  1.00 20.00     0.007 C 
HETATM    4  C6  UNL     1     -34.706   6.092   6.248  1.00 20.00     0.002 C 
HETATM    5  C7  UNL     1     -34.703   5.048   5.135  1.00 20.00     0.020 C 
HETATM    6  C8  UNL     1     -34.878   5.642   3.739  1.00 20.00     0.129 C 
HETATM    7  N9  UNL     1     -33.614   6.170   3.192  1.00 20.00    -0.352 N 
HETATM    8  S10 UNL     1     -31.673   8.143   3.058  1.00 20.00    -0.065 SA
ENDROOT
BRANCH   7   9
HETATM    9  C3  UNL     1     -33.028   5.406   2.197  1.00 20.00     0.081 C 
HETATM   10  C2  UNL     1     -32.829   4.091   2.315  1.00 20.00     0.030 C 
ENDBRANCH   7   9
TORSDOF 1
ENDMDL
MODEL 3
REMARK VINA RESULT:      -3.7     12.596     13.311
REMARK  1 active torsions:
REMARK  status: ('A' for Active; 'I' for Inactive)
REMARK    1  A    between atoms: C3_3  and  N9_9 
ROOT
HETATM    1  C1  UNL     1     -34.972  14.645  -6.137  1.00 20.00     0.079 C 
HETATM    2  C4  UNL     1     -33.707  15.485  -5.938  1.00 20.00     0.070 C 
HETATM    3  C5  UNL     1     -33.085  15.251  -4.561  1.00 20.00     0.007 C 
HETATM    4  C6  UNL     1     -33.675  16.141  -3.471  1.00 20.00     0.002 C 
HETATM    5  C7  UNL     1     -35.159  15.911  -3.200  1.00 20.00     0.020 C 
HETATM    6  C8  UNL     1     -36.046  16.137  -4.422  1.00 20.00     0.129 C 
HETATM    7  N9  UNL     1     -36.070  14.968  -5.322  1.00 20.00    -0.352 N 
HETATM    8  S10 UNL     1     -34.904  13.407  -7.290  1.00 20.00    -0.065 SA
ENDROOT
BRANCH   7   9
HETATM    9  C3  UNL     1     -37.234  14.219  -5.296  1.00 20.00     0.081 C 
HETATM   10  C2  UNL     1     -38.420  14.732  -4.960  1.00 20.00     0.030 C 
ENDBRANCH   7   9
TORSDOF 1
ENDMDL
MODEL 4
REMARK VINA RESULT:      -3.7     12.069     13.177
REMARK  1 active torsions:
REMARK  status: ('A' for Active; 'I' for Inactive)
REMARK    1  A    between atoms: C3_3  and  N9_9 
ROOT
HETATM    1  C1  UNL     1     -33.922  16.588  -4.971  1.00 20.00     0.079 C 
HETATM    2  C4  UNL     1     -33.233  15.801  -6.089  1.00 20.00     0.070 C 
HETATM    3  C5  UNL     1     -34.247  15.147  -7.027  1.00 20.00     0.007 C 
HETATM    4  C6  UNL     1     -34.719  13.777  -6.549  1.00 20.00     0.002 C 
HETATM    5  C7  UNL     1     -35.469  13.794  -5.220  1.00 20.00     0.020 C 
HETATM    6  C8  UNL     1     -34.649  14.360  -4.062  1.00 20.00     0.129 C 
HETATM    7  N9  UNL     1     -34.656  15.835  -4.039  1.00 20.00    -0.352 N 
HETATM    8  S10 UNL     1     -33.750  18.273  -4.992  1.00 20.00    -0.065 SA
ENDROOT
BRANCH   7   9
HETATM    9  C3  UNL     1     -35.435  16.413  -3.051  1.00 20.00     0.081 C 
HETATM   10  C2  UNL     1     -34.976  16.678  -1.826  1.00 20.00     0.030 C 
ENDBRANCH   7   9
TORSDOF 1
ENDMDL
MODEL 5
REMARK VINA RESULT:      -3.6     11.725     12.815
REMARK  1 active torsions:
REMARK  status: ('A' for Active; 'I' for Inactive)
REMARK    1  A    between atoms: C3_3  and  N9_9 
ROOT
HETATM    1  C1  UNL     1     -36.639  15.178  -4.365  1.00 20.00     0.079 C 
HETATM    2  C4  UNL     1     -36.195  16.179  -3.294  1.00 20.00     0.070 C 
HETATM    3  C5  UNL     1     -35.082  17.095  -3.805  1.00 20.00     0.007 C 
HETATM    4  C6  UNL     1     -33.685  16.505  -3.630  1.00 20.00     0.002 C 
HETATM    5  C7  UNL     1     -33.436  15.222  -4.418  1.00 20.00     0.020 C 
HETATM    6  C8  UNL     1     -34.394  14.089  -4.059  1.00 20.00     0.129 C 
HETATM    7  N9  UNL     1     -35.693  14.212  -4.748  1.00 20.00    -0.352 N 
HETATM    8  S10 UNL     1     -38.203  15.359  -4.990  1.00 20.00    -0.065 SA
ENDROOT
BRANCH   7   9
HETATM    9  C3  UNL     1     -35.903  13.326  -5.790  1.00 20.00     0.081 C 
HETATM   10  C2  UNL     1     -35.280  13.428  -6.966  1.00 20.00     0.030 C 
ENDBRANCH   7   9
TORSDOF 1
ENDMDL
MODEL 6
REMARK VINA RESULT:      -3.5     12.207     12.971
REMARK  1 active torsions:
REMARK  status: ('A' for Active; 'I' for Inactive)
REMARK    1  A    between atoms: C3_3  and  N9_9 
ROOT
HETATM    1  C1  UNL     1     -35.012  15.295  -4.003  1.00 20.00     0.079 C 
HETATM    2  C4  UNL     1     -33.651  14.864  -4.557  1.00 20.00     0.070 C 
HETATM    3  C5  UNL     1     -33.435  15.373  -5.982  1.00 20.00     0.007 C 
HETATM    4  C6  UNL     1     -34.004  14.442  -7.050  1.00 20.00     0.002 C 
HETATM    5  C7  UNL     1     -35.518  14.266  -6.994  1.00 20.00     0.020 C 
HETATM    6  C8  UNL     1     -36.019  13.702  -5.666  1.00 20.00     0.129 C 
HETATM    7  N9  UNL     1     -36.143  14.742  -4.626  1.00 20.00    -0.352 N 
HETATM    8  S10 UNL     1     -35.009  16.407  -2.725  1.00 20.00    -0.065 SA
ENDROOT
BRANCH   7   9
HETATM    9  C3  UNL     1     -37.435  15.132  -4.322  1.00 20.00     0.081 C 
HETATM   10  C2  UNL     1     -38.502  14.697  -4.997  1.00 20.00     0.030 C 
ENDBRANCH   7   9
TORSDOF 1
ENDMDL
MODEL 7
REMARK VINA RESULT:      -3.5     12.480     13.275
REMARK  1 active torsions:
REMARK  status: ('A' for Active; 'I' for Inactive)
REMARK    1  A    between atoms: C3_3  and  N9_9 
ROOT
HETATM    1  C1  UNL     1     -34.164  16.962  -3.891  1.00 20.00     0.079 C 
HETATM    2  C4  UNL     1     -33.444  18.091  -3.148  1.00 20.00     0.070 C 
HETATM    3  C5  UNL     1     -33.030  17.665  -1.739  1.00 20.00     0.007 C 
HETATM    4  C6  UNL     1     -34.125  17.871  -0.697  1.00 20.00     0.002 C 
HETATM    5  C7  UNL     1     -35.385  17.041  -0.930  1.00 20.00     0.020 C 
HETATM    6  C8  UNL     1     -36.057  17.314  -2.274  1.00 20.00     0.129 C 
HETATM    7  N9  UNL     1     -35.416  16.578  -3.381  1.00 20.00    -0.352 N 
HETATM    8  S10 UNL     1     -33.368  16.282  -5.223  1.00 20.00    -0.065 SA
ENDROOT
BRANCH   7   9
HETATM    9  C3  UNL     1     -36.125  15.492  -3.866  1.00 20.00     0.081 C 
HETATM   10  C2  UNL     1     -37.371  15.589  -4.333  1.00 20.00     0.030 C 
ENDBRANCH   7   9
TORSDOF 1
ENDMDL
MODEL 8
REMARK VINA RESULT:      -3.5     12.139     12.811
REMARK  1 active torsions:
REMARK  status: ('A' for Active; 'I' for Inactive)
REMARK    1  A    between atoms: C3_3  and  N9_9 
ROOT
HETATM    1  C1  UNL     1     -34.470  18.657   0.990  1.00 20.00     0.079 C 
HETATM    2  C4  UNL     1     -35.539  18.283  -0.040  1.00 20.00     0.070 C 
HETATM    3  C5  UNL     1     -35.178  16.998  -0.786  1.00 20.00     0.007 C 
HETATM    4  C6  UNL     1     -34.290  17.234  -2.004  1.00 20.00     0.002 C 
HETATM    5  C7  UNL     1     -32.918  17.820  -1.683  1.00 20.00     0.020 C 
HETATM    6  C8  UNL     1     -32.981  19.168  -0.969  1.00 20.00     0.129 C 
HETATM    7  N9  UNL     1     -33.213  19.024   0.481  1.00 20.00    -0.352 N 
HETATM    8  S10 UNL     1     -34.906  18.564   2.625  1.00 20.00    -0.065 SA
ENDROOT
BRANCH   7   9
HETATM    9  C3  UNL     1     -32.115  19.263   1.289  1.00 20.00     0.081 C 
HETATM   10  C2  UNL     1     -31.024  18.494   1.277  1.00 20.00     0.030 C 
ENDBRANCH   7   9
TORSDOF 1
ENDMDL
MODEL 9
REMARK VINA RESULT:      -3.5     12.166     12.872
REMARK  1 active torsions:
REMARK  status: ('A' for Active; 'I' for Inactive)
REMARK    1  A    between atoms: C3_3  and  N9_9 
ROOT
HETATM    1  C1  UNL     1     -36.104  16.284  -3.547  1.00 20.00     0.079 C 
HETATM    2  C4  UNL     1     -34.792  16.134  -2.773  1.00 20.00     0.070 C 
HETATM    3  C5  UNL     1     -33.576  16.294  -3.686  1.00 20.00     0.007 C 
HETATM    4  C6  UNL     1     -33.155  14.996  -4.368  1.00 20.00     0.002 C 
HETATM    5  C7  UNL     1     -34.199  14.413  -5.317  1.00 20.00     0.020 C 
HETATM    6  C8  UNL     1     -35.530  14.094  -4.640  1.00 20.00     0.129 C 
HETATM    7  N9  UNL     1     -36.386  15.287  -4.496  1.00 20.00    -0.352 N 
HETATM    8  S10 UNL     1     -37.055  17.642  -3.200  1.00 20.00    -0.065 SA
ENDROOT
BRANCH   7   9
HETATM    9  C3  UNL     1     -37.466  15.355  -5.360  1.00 20.00     0.081 C 
HETATM   10  C2  UNL     1     -38.574  14.628  -5.195  1.00 20.00     0.030 C 
ENDBRANCH   7   9
TORSDOF 1
ENDMDL
