MODEL 1
REMARK VINA RESULT:      -5.0      0.000      0.000
REMARK  1 active torsions:
REMARK  status: ('A' for Active; 'I' for Inactive)
REMARK    1  A    between atoms: C8_8  and  C11_11 
ROOT
HETATM    1  C1  UNL     1     -35.415  16.953  -4.323  1.00 20.00     0.071 C 
HETATM    2  C2  UNL     1     -35.092  14.102  -6.209  1.00 20.00    -0.004 A 
HETATM    3  C3  UNL     1     -34.063  14.955  -6.768  1.00 20.00    -0.004 A 
HETATM    4  C4  UNL     1     -35.237  13.989  -4.877  1.00 20.00    -0.020 A 
HETATM    5  C5  UNL     1     -33.238  15.647  -5.961  1.00 20.00    -0.020 A 
HETATM    6  C6  UNL     1     -34.358  14.664  -3.897  1.00 20.00     0.041 A 
HETATM    7  C7  UNL     1     -33.275  15.561  -4.484  1.00 20.00     0.041 A 
HETATM    8  C8  UNL     1     -34.403  16.165  -3.664  1.00 20.00     0.067 A 
HETATM    9  N12 UNL     1     -36.230  17.588  -4.853  1.00 20.00    -0.196 NA
ENDROOT
BRANCH   8  10
HETATM   10  C11 UNL     1     -34.059  16.654  -2.279  1.00 20.00     0.001 C 
HETATM   11  C9  UNL     1     -33.246  17.954  -2.335  1.00 20.00     0.011 C 
HETATM   12  C10 UNL     1     -35.322  16.866  -1.435  1.00 20.00     0.011 C 
ENDBRANCH   8  10
TORSDOF 1
ENDMDL
MODEL 2
REMARK VINA RESULT:      -4.9      1.919      2.665
REMARK  1 active torsions:
REMARK  status: ('A' for Active; 'I' for Inactive)
REMARK    1  A    between atoms: C8_8  and  C11_11 
ROOT
HETATM    1  C1  UNL     1     -33.392  14.349  -4.195  1.00 20.00     0.071 C 
HETATM    2  C2  UNL     1     -34.419  14.370  -7.471  1.00 20.00    -0.004 A 
HETATM    3  C3  UNL     1     -35.179  13.265  -6.921  1.00 20.00    -0.004 A 
HETATM    4  C4  UNL     1     -34.332  15.536  -6.808  1.00 20.00    -0.020 A 
HETATM    5  C5  UNL     1     -35.807  13.392  -5.737  1.00 20.00    -0.020 A 
HETATM    6  C6  UNL     1     -35.020  15.803  -5.526  1.00 20.00     0.041 A 
HETATM    7  C7  UNL     1     -35.819  14.642  -4.946  1.00 20.00     0.041 A 
HETATM    8  C8  UNL     1     -34.587  15.157  -4.221  1.00 20.00     0.067 A 
HETATM    9  N12 UNL     1     -32.430  13.699  -4.173  1.00 20.00    -0.196 NA
ENDROOT
BRANCH   8  10
HETATM   10  C11 UNL     1     -34.814  15.945  -2.956  1.00 20.00     0.001 C 
HETATM   11  C9  UNL     1     -33.635  16.884  -2.667  1.00 20.00     0.011 C 
HETATM   12  C10 UNL     1     -36.116  16.752  -3.030  1.00 20.00     0.011 C 
ENDBRANCH   8  10
TORSDOF 1
ENDMDL
MODEL 3
REMARK VINA RESULT:      -4.7     11.520     12.584
REMARK  1 active torsions:
REMARK  status: ('A' for Active; 'I' for Inactive)
REMARK    1  A    between atoms: C8_8  and  C11_11 
ROOT
HETATM    1  C1  UNL     1     -33.018   7.360   4.628  1.00 20.00     0.071 C 
HETATM    2  C2  UNL     1     -34.414   4.224   4.536  1.00 20.00    -0.004 A 
HETATM    3  C3  UNL     1     -35.558   5.075   4.276  1.00 20.00    -0.004 A 
HETATM    4  C4  UNL     1     -33.246   4.436   3.903  1.00 20.00    -0.020 A 
HETATM    5  C5  UNL     1     -35.467   6.090   3.397  1.00 20.00    -0.020 A 
HETATM    6  C6  UNL     1     -33.046   5.491   2.885  1.00 20.00     0.041 A 
HETATM    7  C7  UNL     1     -34.249   6.385   2.610  1.00 20.00     0.041 A 
HETATM    8  C8  UNL     1     -32.995   6.967   3.241  1.00 20.00     0.067 A 
HETATM    9  N12 UNL     1     -33.035   7.678   5.745  1.00 20.00    -0.196 NA
ENDROOT
BRANCH   8  10
HETATM   10  C11 UNL     1     -32.137   7.852   2.373  1.00 20.00     0.001 C 
HETATM   11  C9  UNL     1     -32.991   8.848   1.578  1.00 20.00     0.011 C 
HETATM   12  C10 UNL     1     -31.098   8.610   3.210  1.00 20.00     0.011 C 
ENDBRANCH   8  10
TORSDOF 1
ENDMDL
MODEL 4
REMARK VINA RESULT:      -4.7     11.331     12.385
REMARK  1 active torsions:
REMARK  status: ('A' for Active; 'I' for Inactive)
REMARK    1  A    between atoms: C8_8  and  C11_11 
ROOT
HETATM    1  C1  UNL     1     -33.123   5.518   2.869  1.00 20.00     0.071 C 
HETATM    2  C2  UNL     1     -31.253   8.364   2.421  1.00 20.00    -0.004 A 
HETATM    3  C3  UNL     1     -32.346   8.567   1.492  1.00 20.00    -0.004 A 
HETATM    4  C4  UNL     1     -31.492   7.931   3.672  1.00 20.00    -0.020 A 
HETATM    5  C5  UNL     1     -33.616   8.325   1.868  1.00 20.00    -0.020 A 
HETATM    6  C6  UNL     1     -32.848   7.679   4.207  1.00 20.00     0.041 A 
HETATM    7  C7  UNL     1     -33.998   7.894   3.231  1.00 20.00     0.041 A 
HETATM    8  C8  UNL     1     -33.695   6.501   3.757  1.00 20.00     0.067 A 
HETATM    9  N12 UNL     1     -32.664   4.726   2.156  1.00 20.00    -0.196 NA
ENDROOT
BRANCH   8  10
HETATM   10  C11 UNL     1     -34.657   5.923   4.763  1.00 20.00     0.001 C 
HETATM   11  C9  UNL     1     -34.577   4.391   4.793  1.00 20.00     0.011 C 
HETATM   12  C10 UNL     1     -34.397   6.485   6.167  1.00 20.00     0.011 C 
ENDBRANCH   8  10
TORSDOF 1
ENDMDL
MODEL 5
REMARK VINA RESULT:      -4.7      2.260      3.489
REMARK  1 active torsions:
REMARK  status: ('A' for Active; 'I' for Inactive)
REMARK    1  A    between atoms: C8_8  and  C11_11 
ROOT
HETATM    1  C1  UNL     1     -36.046  13.810  -5.061  1.00 20.00     0.071 C 
HETATM    2  C2  UNL     1     -33.010  15.385  -4.764  1.00 20.00    -0.004 A 
HETATM    3  C3  UNL     1     -33.374  15.681  -6.136  1.00 20.00    -0.004 A 
HETATM    4  C4  UNL     1     -33.911  15.516  -3.775  1.00 20.00    -0.020 A 
HETATM    5  C5  UNL     1     -34.620  16.089  -6.438  1.00 20.00    -0.020 A 
HETATM    6  C6  UNL     1     -35.293  16.002  -3.984  1.00 20.00     0.041 A 
HETATM    7  C7  UNL     1     -35.676  16.314  -5.426  1.00 20.00     0.041 A 
HETATM    8  C8  UNL     1     -36.350  15.170  -4.688  1.00 20.00     0.067 A 
HETATM    9  N12 UNL     1     -35.803  12.715  -5.362  1.00 20.00    -0.196 NA
ENDROOT
BRANCH   8  10
HETATM   10  C11 UNL     1     -37.782  15.376  -4.262  1.00 20.00     0.001 C 
HETATM   11  C9  UNL     1     -38.103  16.867  -4.094  1.00 20.00     0.011 C 
HETATM   12  C10 UNL     1     -38.756  14.744  -5.265  1.00 20.00     0.011 C 
ENDBRANCH   8  10
TORSDOF 1
ENDMDL
MODEL 6
REMARK VINA RESULT:      -4.7      1.942      4.082
REMARK  1 active torsions:
REMARK  status: ('A' for Active; 'I' for Inactive)
REMARK    1  A    between atoms: C8_8  and  C11_11 
ROOT
HETATM    1  C1  UNL     1     -33.681  14.299  -4.324  1.00 20.00     0.071 C 
HETATM    2  C2  UNL     1     -33.775  17.263  -2.592  1.00 20.00    -0.004 A 
HETATM    3  C3  UNL     1     -33.411  17.700  -3.925  1.00 20.00    -0.004 A 
HETATM    4  C4  UNL     1     -34.765  16.371  -2.412  1.00 20.00    -0.020 A 
HETATM    5  C5  UNL     1     -34.059  17.219  -5.001  1.00 20.00    -0.020 A 
HETATM    6  C6  UNL     1     -35.576  15.813  -3.517  1.00 20.00     0.041 A 
HETATM    7  C7  UNL     1     -35.194  16.273  -4.919  1.00 20.00     0.041 A 
HETATM    8  C8  UNL     1     -35.012  14.819  -4.518  1.00 20.00     0.067 A 
HETATM    9  N12 UNL     1     -32.609  13.880  -4.169  1.00 20.00    -0.196 NA
ENDROOT
BRANCH   8  10
HETATM   10  C11 UNL     1     -35.974  13.819  -5.107  1.00 20.00     0.001 C 
HETATM   11  C9  UNL     1     -37.414  14.348  -5.079  1.00 20.00     0.011 C 
HETATM   12  C10 UNL     1     -35.583  13.452  -6.545  1.00 20.00     0.011 C 
ENDBRANCH   8  10
TORSDOF 1
ENDMDL
MODEL 7
REMARK VINA RESULT:      -4.6      1.264      4.319
REMARK  1 active torsions:
REMARK  status: ('A' for Active; 'I' for Inactive)
REMARK    1  A    between atoms: C8_8  and  C11_11 
ROOT
HETATM    1  C1  UNL     1     -35.047  18.214  -3.811  1.00 20.00     0.071 C 
HETATM    2  C2  UNL     1     -33.664  18.599  -0.691  1.00 20.00    -0.004 A 
HETATM    3  C3  UNL     1     -35.014  18.176  -0.376  1.00 20.00    -0.004 A 
HETATM    4  C4  UNL     1     -32.956  17.969  -1.645  1.00 20.00    -0.020 A 
HETATM    5  C5  UNL     1     -35.577  17.146  -1.034  1.00 20.00    -0.020 A 
HETATM    6  C6  UNL     1     -33.456  16.797  -2.397  1.00 20.00     0.041 A 
HETATM    7  C7  UNL     1     -34.875  16.351  -2.066  1.00 20.00     0.041 A 
HETATM    8  C8  UNL     1     -34.553  16.910  -3.442  1.00 20.00     0.067 A 
HETATM    9  N12 UNL     1     -35.445  19.263  -4.108  1.00 20.00    -0.196 NA
ENDROOT
BRANCH   8  10
HETATM   10  C11 UNL     1     -34.512  15.931  -4.588  1.00 20.00     0.001 C 
HETATM   11  C9  UNL     1     -33.238  16.106  -5.425  1.00 20.00     0.011 C 
HETATM   12  C10 UNL     1     -34.610  14.484  -4.087  1.00 20.00     0.011 C 
ENDBRANCH   8  10
TORSDOF 1
ENDMDL
MODEL 8
REMARK VINA RESULT:      -4.6      1.821      2.616
REMARK  1 active torsions:
REMARK  status: ('A' for Active; 'I' for Inactive)
REMARK    1  A    between atoms: C8_8  and  C11_11 
ROOT
HETATM    1  C1  UNL     1     -33.978  14.814  -4.023  1.00 20.00     0.071 C 
HETATM    2  C2  UNL     1     -36.060  15.621  -6.632  1.00 20.00    -0.004 A 
HETATM    3  C3  UNL     1     -36.882  14.716  -5.854  1.00 20.00    -0.004 A 
HETATM    4  C4  UNL     1     -35.363  16.599  -6.028  1.00 20.00    -0.020 A 
HETATM    5  C5  UNL     1     -36.958  14.842  -4.516  1.00 20.00    -0.020 A 
HETATM    6  C6  UNL     1     -35.409  16.861  -4.573  1.00 20.00     0.041 A 
HETATM    7  C7  UNL     1     -36.273  15.910  -3.754  1.00 20.00     0.041 A 
HETATM    8  C8  UNL     1     -34.767  15.929  -3.558  1.00 20.00     0.067 A 
HETATM    9  N12 UNL     1     -33.343  13.917  -4.395  1.00 20.00    -0.196 NA
ENDROOT
BRANCH   8  10
HETATM   10  C11 UNL     1     -34.248  16.552  -2.287  1.00 20.00     0.001 C 
HETATM   11  C9  UNL     1     -33.376  17.779  -2.585  1.00 20.00     0.011 C 
HETATM   12  C10 UNL     1     -35.398  16.945  -1.351  1.00 20.00     0.011 C 
ENDBRANCH   8  10
TORSDOF 1
ENDMDL
MODEL 9
REMARK VINA RESULT:      -4.6      2.538      3.545
REMARK  1 active torsions:
REMARK  status: ('A' for Active; 'I' for Inactive)
REMARK    1  A    between atoms: C8_8  and  C11_11 
ROOT
HETATM    1  C1  UNL     1     -35.747  13.695  -4.994  1.00 20.00     0.071 C 
HETATM    2  C2  UNL     1     -38.043  15.540  -6.760  1.00 20.00    -0.004 A 
HETATM    3  C3  UNL     1     -38.810  15.124  -5.603  1.00 20.00    -0.004 A 
HETATM    4  C4  UNL     1     -36.795  16.018  -6.615  1.00 20.00    -0.020 A 
HETATM    5  C5  UNL     1     -38.283  15.211  -4.368  1.00 20.00    -0.020 A 
HETATM    6  C6  UNL     1     -36.134  16.203  -5.304  1.00 20.00     0.041 A 
HETATM    7  C7  UNL     1     -36.941  15.767  -4.087  1.00 20.00     0.041 A 
HETATM    8  C8  UNL     1     -35.664  15.032  -4.459  1.00 20.00     0.067 A 
HETATM    9  N12 UNL     1     -35.812  12.619  -5.424  1.00 20.00    -0.196 NA
ENDROOT
BRANCH   8  10
HETATM   10  C11 UNL     1     -34.460  15.259  -3.580  1.00 20.00     0.001 C 
HETATM   11  C9  UNL     1     -33.176  15.367  -4.413  1.00 20.00     0.011 C 
HETATM   12  C10 UNL     1     -34.630  16.519  -2.720  1.00 20.00     0.011 C 
ENDBRANCH   8  10
TORSDOF 1
ENDMDL
