MODEL 1
REMARK VINA RESULT:      -5.2      0.000      0.000
REMARK  2 active torsions:
REMARK  status: ('A' for Active; 'I' for Inactive)
REMARK    1  A    between atoms: C1_1  and  C3_3 
REMARK    2  A    between atoms: C3_3  and  C5_5 
ROOT
HETATM    1  C1  UNL     1     -33.998   4.731   3.679  1.00 20.00     0.212 C 
HETATM    2  C2  UNL     1     -33.066   5.116   2.804  1.00 20.00     0.228 C 
HETATM    3  F7  UNL     1     -34.182   3.427   3.978  1.00 20.00    -0.198 F 
HETATM    4  F8  UNL     1     -32.279   4.204   2.193  1.00 20.00    -0.189 F 
HETATM    5 CL9  UNL     1     -32.834   6.782   2.426  1.00 20.00    -0.048 Cl
ENDROOT
BRANCH   1   6
HETATM    6  C3  UNL     1     -34.904   5.671   4.394  1.00 20.00     0.191 C 
HETATM    7  O6  UNL     1     -35.908   6.126   3.854  1.00 20.00    -0.290 OA
BRANCH   6   8
HETATM    8  C5  UNL     1     -34.508   6.024   5.817  1.00 20.00     0.082 C 
HETATM    9  C4  UNL     1     -33.700   7.308   5.895  1.00 20.00     0.013 C 
ENDBRANCH   6   8
ENDBRANCH   1   6
TORSDOF 2
ENDMDL
MODEL 2
REMARK VINA RESULT:      -5.1      2.936      3.625
REMARK  2 active torsions:
REMARK  status: ('A' for Active; 'I' for Inactive)
REMARK    1  A    between atoms: C1_1  and  C3_3 
REMARK    2  A    between atoms: C3_3  and  C5_5 
ROOT
HETATM    1  C1  UNL     1     -34.001   6.642   4.747  1.00 20.00     0.212 C 
HETATM    2  C2  UNL     1     -34.424   5.469   5.225  1.00 20.00     0.228 C 
HETATM    3  F7  UNL     1     -34.112   7.776   5.473  1.00 20.00    -0.198 F 
HETATM    4  F8  UNL     1     -34.976   5.389   6.456  1.00 20.00    -0.189 F 
HETATM    5 CL9  UNL     1     -34.280   4.024   4.296  1.00 20.00    -0.048 Cl
ENDROOT
BRANCH   1   6
HETATM    6  C3  UNL     1     -33.382   6.816   3.405  1.00 20.00     0.191 C 
HETATM    7  O6  UNL     1     -33.856   6.278   2.408  1.00 20.00    -0.290 OA
BRANCH   6   8
HETATM    8  C5  UNL     1     -32.144   7.693   3.351  1.00 20.00     0.082 C 
HETATM    9  C4  UNL     1     -32.009   8.430   2.031  1.00 20.00     0.013 C 
ENDBRANCH   6   8
ENDBRANCH   1   6
TORSDOF 2
ENDMDL
MODEL 3
REMARK VINA RESULT:      -4.9      3.210      3.968
REMARK  2 active torsions:
REMARK  status: ('A' for Active; 'I' for Inactive)
REMARK    1  A    between atoms: C1_1  and  C3_3 
REMARK    2  A    between atoms: C3_3  and  C5_5 
ROOT
HETATM    1  C1  UNL     1     -33.489   6.755   3.222  1.00 20.00     0.212 C 
HETATM    2  C2  UNL     1     -34.075   6.538   4.402  1.00 20.00     0.228 C 
HETATM    3  F7  UNL     1     -33.796   6.008   2.139  1.00 20.00    -0.198 F 
HETATM    4  F8  UNL     1     -34.996   5.560   4.541  1.00 20.00    -0.189 F 
HETATM    5 CL9  UNL     1     -33.679   7.494   5.781  1.00 20.00    -0.048 Cl
ENDROOT
BRANCH   1   6
HETATM    6  C3  UNL     1     -32.467   7.810   2.984  1.00 20.00     0.191 C 
HETATM    7  O6  UNL     1     -31.458   7.891   3.680  1.00 20.00    -0.290 OA
BRANCH   6   8
HETATM    8  C5  UNL     1     -32.750   8.767   1.840  1.00 20.00     0.082 C 
HETATM    9  C4  UNL     1     -31.614   8.825   0.834  1.00 20.00     0.013 C 
ENDBRANCH   6   8
ENDBRANCH   1   6
TORSDOF 2
ENDMDL
MODEL 4
REMARK VINA RESULT:      -4.9      2.462      2.952
REMARK  2 active torsions:
REMARK  status: ('A' for Active; 'I' for Inactive)
REMARK    1  A    between atoms: C1_1  and  C3_3 
REMARK    2  A    between atoms: C3_3  and  C5_5 
ROOT
HETATM    1  C1  UNL     1     -33.825   7.005   4.952  1.00 20.00     0.212 C 
HETATM    2  C2  UNL     1     -32.835   7.458   4.178  1.00 20.00     0.228 C 
HETATM    3  F7  UNL     1     -34.011   7.482   6.201  1.00 20.00    -0.198 F 
HETATM    4  F8  UNL     1     -31.992   8.412   4.629  1.00 20.00    -0.189 F 
HETATM    5 CL9  UNL     1     -32.601   6.846   2.583  1.00 20.00    -0.048 Cl
ENDROOT
BRANCH   1   6
HETATM    6  C3  UNL     1     -34.794   5.958   4.530  1.00 20.00     0.191 C 
HETATM    7  O6  UNL     1     -35.691   6.203   3.727  1.00 20.00    -0.290 OA
BRANCH   6   8
HETATM    8  C5  UNL     1     -34.605   4.586   5.152  1.00 20.00     0.082 C 
HETATM    9  C4  UNL     1     -33.845   3.635   4.243  1.00 20.00     0.013 C 
ENDBRANCH   6   8
ENDBRANCH   1   6
TORSDOF 2
ENDMDL
MODEL 5
REMARK VINA RESULT:      -4.8      2.323      2.634
REMARK  2 active torsions:
REMARK  status: ('A' for Active; 'I' for Inactive)
REMARK    1  A    between atoms: C1_1  and  C3_3 
REMARK    2  A    between atoms: C3_3  and  C5_5 
ROOT
HETATM    1  C1  UNL     1     -34.075   6.781   3.718  1.00 20.00     0.212 C 
HETATM    2  C2  UNL     1     -33.069   7.416   3.111  1.00 20.00     0.228 C 
HETATM    3  F7  UNL     1     -35.119   6.290   3.016  1.00 20.00    -0.198 F 
HETATM    4  F8  UNL     1     -33.072   7.582   1.770  1.00 20.00    -0.189 F 
HETATM    5 CL9  UNL     1     -31.739   8.042   4.012  1.00 20.00    -0.048 Cl
ENDROOT
BRANCH   1   6
HETATM    6  C3  UNL     1     -34.148   6.557   5.187  1.00 20.00     0.191 C 
HETATM    7  O6  UNL     1     -33.888   7.454   5.985  1.00 20.00    -0.290 OA
BRANCH   6   8
HETATM    8  C5  UNL     1     -34.560   5.164   5.629  1.00 20.00     0.082 C 
HETATM    9  C4  UNL     1     -34.179   4.096   4.619  1.00 20.00     0.013 C 
ENDBRANCH   6   8
ENDBRANCH   1   6
TORSDOF 2
ENDMDL
MODEL 6
REMARK VINA RESULT:      -4.8      2.308      3.003
REMARK  2 active torsions:
REMARK  status: ('A' for Active; 'I' for Inactive)
REMARK    1  A    between atoms: C1_1  and  C3_3 
REMARK    2  A    between atoms: C3_3  and  C5_5 
ROOT
HETATM    1  C1  UNL     1     -33.613   5.495   3.341  1.00 20.00     0.212 C 
HETATM    2  C2  UNL     1     -34.152   4.715   4.281  1.00 20.00     0.228 C 
HETATM    3  F7  UNL     1     -33.200   4.985   2.161  1.00 20.00    -0.198 F 
HETATM    4  F8  UNL     1     -34.298   3.388   4.072  1.00 20.00    -0.189 F 
HETATM    5 CL9  UNL     1     -34.679   5.370   5.787  1.00 20.00    -0.048 Cl
ENDROOT
BRANCH   1   6
HETATM    6  C3  UNL     1     -33.418   6.962   3.492  1.00 20.00     0.191 C 
HETATM    7  O6  UNL     1     -34.306   7.683   3.940  1.00 20.00    -0.290 OA
BRANCH   6   8
HETATM    8  C5  UNL     1     -32.066   7.502   3.061  1.00 20.00     0.082 C 
HETATM    9  C4  UNL     1     -32.170   8.469   1.895  1.00 20.00     0.013 C 
ENDBRANCH   6   8
ENDBRANCH   1   6
TORSDOF 2
ENDMDL
MODEL 7
REMARK VINA RESULT:      -4.7      2.267      3.198
REMARK  2 active torsions:
REMARK  status: ('A' for Active; 'I' for Inactive)
REMARK    1  A    between atoms: C1_1  and  C3_3 
REMARK    2  A    between atoms: C3_3  and  C5_5 
ROOT
HETATM    1  C1  UNL     1     -34.328   6.270   5.395  1.00 20.00     0.212 C 
HETATM    2  C2  UNL     1     -33.415   7.244   5.391  1.00 20.00     0.228 C 
HETATM    3  F7  UNL     1     -34.914   5.864   6.541  1.00 20.00    -0.198 F 
HETATM    4  F8  UNL     1     -33.054   7.852   6.542  1.00 20.00    -0.189 F 
HETATM    5 CL9  UNL     1     -32.669   7.759   3.924  1.00 20.00    -0.048 Cl
ENDROOT
BRANCH   1   6
HETATM    6  C3  UNL     1     -34.780   5.551   4.172  1.00 20.00     0.191 C 
HETATM    7  O6  UNL     1     -35.749   5.938   3.525  1.00 20.00    -0.290 OA
BRANCH   6   8
HETATM    8  C5  UNL     1     -33.974   4.325   3.785  1.00 20.00     0.082 C 
HETATM    9  C4  UNL     1     -33.045   4.586   2.611  1.00 20.00     0.013 C 
ENDBRANCH   6   8
ENDBRANCH   1   6
TORSDOF 2
ENDMDL
MODEL 8
REMARK VINA RESULT:      -4.7      3.375      3.896
REMARK  2 active torsions:
REMARK  status: ('A' for Active; 'I' for Inactive)
REMARK    1  A    between atoms: C1_1  and  C3_3 
REMARK    2  A    between atoms: C3_3  and  C5_5 
ROOT
HETATM    1  C1  UNL     1     -33.522   7.155   3.635  1.00 20.00     0.212 C 
HETATM    2  C2  UNL     1     -33.842   5.872   3.448  1.00 20.00     0.228 C 
HETATM    3  F7  UNL     1     -34.272   7.956   4.421  1.00 20.00    -0.198 F 
HETATM    4  F8  UNL     1     -34.930   5.342   4.047  1.00 20.00    -0.189 F 
HETATM    5 CL9  UNL     1     -32.882   4.853   2.442  1.00 20.00    -0.048 Cl
ENDROOT
BRANCH   1   6
HETATM    6  C3  UNL     1     -32.343   7.815   3.013  1.00 20.00     0.191 C 
HETATM    7  O6  UNL     1     -31.312   8.015   3.650  1.00 20.00    -0.290 OA
BRANCH   6   8
HETATM    8  C5  UNL     1     -32.496   8.220   1.558  1.00 20.00     0.082 C 
HETATM    9  C4  UNL     1     -32.452   9.725   1.364  1.00 20.00     0.013 C 
ENDBRANCH   6   8
ENDBRANCH   1   6
TORSDOF 2
ENDMDL
MODEL 9
REMARK VINA RESULT:      -4.6      2.371      2.945
REMARK  2 active torsions:
REMARK  status: ('A' for Active; 'I' for Inactive)
REMARK    1  A    between atoms: C1_1  and  C3_3 
REMARK    2  A    between atoms: C3_3  and  C5_5 
ROOT
HETATM    1  C1  UNL     1     -33.283   6.724   3.391  1.00 20.00     0.212 C 
HETATM    2  C2  UNL     1     -32.802   7.525   4.344  1.00 20.00     0.228 C 
HETATM    3  F7  UNL     1     -32.698   6.652   2.176  1.00 20.00    -0.198 F 
HETATM    4  F8  UNL     1     -31.710   8.287   4.114  1.00 20.00    -0.189 F 
HETATM    5 CL9  UNL     1     -33.552   7.614   5.895  1.00 20.00    -0.048 Cl
ENDROOT
BRANCH   1   6
HETATM    6  C3  UNL     1     -34.478   5.854   3.563  1.00 20.00     0.191 C 
HETATM    7  O6  UNL     1     -35.596   6.228   3.219  1.00 20.00    -0.290 OA
BRANCH   6   8
HETATM    8  C5  UNL     1     -34.226   4.492   4.184  1.00 20.00     0.082 C 
HETATM    9  C4  UNL     1     -34.575   4.452   5.661  1.00 20.00     0.013 C 
ENDBRANCH   6   8
ENDBRANCH   1   6
TORSDOF 2
ENDMDL
