MODEL 1
REMARK VINA RESULT:      -6.1      0.000      0.000
REMARK  4 active torsions:
REMARK  status: ('A' for Active; 'I' for Inactive)
REMARK    1  A    between atoms: C1_1  and  C6_6 
REMARK    2  A    between atoms: C1_1  and  C7_7 
REMARK    3  A    between atoms: C6_6  and  C8_8 
REMARK    4  A    between atoms: C7_7  and  C9_9 
ROOT
HETATM    1  C1  UNL     1     -32.401   7.739   2.938  1.00 20.00     0.161 C 
HETATM    2  O10 UNL     1     -31.341   8.218   3.342  1.00 20.00    -0.295 OA
ENDROOT
BRANCH   1   3
HETATM    3  C6  UNL     1     -33.243   8.414   1.867  1.00 20.00     0.085 C 
BRANCH   3   4
HETATM    4  C8  UNL     1     -32.441   9.366   0.968  1.00 20.00    -0.016 C 
HETATM    5  C2  UNL     1     -32.580  10.820   1.428  1.00 20.00     0.010 C 
HETATM    6  C3  UNL     1     -32.910   9.237  -0.483  1.00 20.00     0.010 C 
ENDBRANCH   3   4
ENDBRANCH   1   3
BRANCH   1   7
HETATM    7  C7  UNL     1     -32.913   6.419   3.489  1.00 20.00     0.242 C 
HETATM    8  F11 UNL     1     -33.246   5.579   2.466  1.00 20.00    -0.241 F 
BRANCH   7   9
HETATM    9  C9  UNL     1     -34.131   6.581   4.409  1.00 20.00     0.019 C 
HETATM   10  C4  UNL     1     -34.798   5.236   4.708  1.00 20.00     0.012 C 
HETATM   11  C5  UNL     1     -33.711   7.249   5.721  1.00 20.00     0.012 C 
ENDBRANCH   7   9
ENDBRANCH   1   7
TORSDOF 4
ENDMDL
MODEL 2
REMARK VINA RESULT:      -6.1      0.675      1.279
REMARK  4 active torsions:
REMARK  status: ('A' for Active; 'I' for Inactive)
REMARK    1  A    between atoms: C1_1  and  C6_6 
REMARK    2  A    between atoms: C1_1  and  C7_7 
REMARK    3  A    between atoms: C6_6  and  C8_8 
REMARK    4  A    between atoms: C7_7  and  C9_9 
ROOT
HETATM    1  C1  UNL     1     -31.954   7.989   3.012  1.00 20.00     0.161 C 
HETATM    2  O10 UNL     1     -31.407   8.598   3.931  1.00 20.00    -0.295 OA
ENDROOT
BRANCH   1   3
HETATM    3  C6  UNL     1     -31.813   8.412   1.557  1.00 20.00     0.085 C 
BRANCH   3   4
HETATM    4  C8  UNL     1     -32.918   9.371   1.089  1.00 20.00    -0.016 C 
HETATM    5  C2  UNL     1     -33.116   9.296  -0.427  1.00 20.00     0.010 C 
HETATM    6  C3  UNL     1     -32.573  10.805   1.496  1.00 20.00     0.010 C 
ENDBRANCH   3   4
ENDBRANCH   1   3
BRANCH   1   7
HETATM    7  C7  UNL     1     -32.793   6.754   3.294  1.00 20.00     0.242 C 
HETATM    8  F11 UNL     1     -33.147   6.147   2.123  1.00 20.00    -0.241 F 
BRANCH   7   9
HETATM    9  C9  UNL     1     -34.066   7.060   4.094  1.00 20.00     0.019 C 
HETATM   10  C4  UNL     1     -35.133   5.981   3.896  1.00 20.00     0.012 C 
HETATM   11  C5  UNL     1     -33.732   7.185   5.583  1.00 20.00     0.012 C 
ENDBRANCH   7   9
ENDBRANCH   1   7
TORSDOF 4
ENDMDL
MODEL 3
REMARK VINA RESULT:      -5.9      1.449      4.544
REMARK  4 active torsions:
REMARK  status: ('A' for Active; 'I' for Inactive)
REMARK    1  A    between atoms: C1_1  and  C6_6 
REMARK    2  A    between atoms: C1_1  and  C7_7 
REMARK    3  A    between atoms: C6_6  and  C8_8 
REMARK    4  A    between atoms: C7_7  and  C9_9 
ROOT
HETATM    1  C1  UNL     1     -32.002   7.873   2.746  1.00 20.00     0.161 C 
HETATM    2  O10 UNL     1     -31.367   8.519   3.581  1.00 20.00    -0.295 OA
ENDROOT
BRANCH   1   3
HETATM    3  C6  UNL     1     -32.836   6.657   3.120  1.00 20.00     0.085 C 
BRANCH   3   4
HETATM    4  C8  UNL     1     -34.069   6.999   3.970  1.00 20.00    -0.016 C 
HETATM    5  C2  UNL     1     -33.700   7.176   5.445  1.00 20.00     0.010 C 
HETATM    6  C3  UNL     1     -35.124   5.900   3.829  1.00 20.00     0.010 C 
ENDBRANCH   3   4
ENDBRANCH   1   3
BRANCH   1   7
HETATM    7  C7  UNL     1     -31.993   8.281   1.283  1.00 20.00     0.242 C 
HETATM    8  F11 UNL     1     -30.748   8.707   0.920  1.00 20.00    -0.241 F 
BRANCH   7   9
HETATM    9  C9  UNL     1     -33.007   9.387   0.959  1.00 20.00     0.019 C 
HETATM   10  C4  UNL     1     -32.510  10.761   1.414  1.00 20.00     0.012 C 
HETATM   11  C5  UNL     1     -33.290   9.414  -0.545  1.00 20.00     0.012 C 
ENDBRANCH   7   9
ENDBRANCH   1   7
TORSDOF 4
ENDMDL
MODEL 4
REMARK VINA RESULT:      -5.9      1.344      4.774
REMARK  4 active torsions:
REMARK  status: ('A' for Active; 'I' for Inactive)
REMARK    1  A    between atoms: C1_1  and  C6_6 
REMARK    2  A    between atoms: C1_1  and  C7_7 
REMARK    3  A    between atoms: C6_6  and  C8_8 
REMARK    4  A    between atoms: C7_7  and  C9_9 
ROOT
HETATM    1  C1  UNL     1     -32.382   7.974   2.894  1.00 20.00     0.161 C 
HETATM    2  O10 UNL     1     -31.424   8.137   3.651  1.00 20.00    -0.295 OA
ENDROOT
BRANCH   1   3
HETATM    3  C6  UNL     1     -33.747   7.526   3.392  1.00 20.00     0.085 C 
BRANCH   3   4
HETATM    4  C8  UNL     1     -33.676   6.529   4.558  1.00 20.00    -0.016 C 
HETATM    5  C2  UNL     1     -34.776   5.471   4.456  1.00 20.00     0.010 C 
HETATM    6  C3  UNL     1     -33.795   7.272   5.890  1.00 20.00     0.010 C 
ENDBRANCH   3   4
ENDBRANCH   1   3
BRANCH   1   7
HETATM    7  C7  UNL     1     -32.243   8.238   1.404  1.00 20.00     0.242 C 
HETATM    8  F11 UNL     1     -30.935   8.470   1.086  1.00 20.00    -0.241 F 
BRANCH   7   9
HETATM    9  C9  UNL     1     -33.085   9.427   0.920  1.00 20.00     0.019 C 
HETATM   10  C4  UNL     1     -32.506  10.762   1.394  1.00 20.00     0.012 C 
HETATM   11  C5  UNL     1     -33.175   9.418  -0.607  1.00 20.00     0.012 C 
ENDBRANCH   7   9
ENDBRANCH   1   7
TORSDOF 4
ENDMDL
MODEL 5
REMARK VINA RESULT:      -5.7      1.237      1.504
REMARK  4 active torsions:
REMARK  status: ('A' for Active; 'I' for Inactive)
REMARK    1  A    between atoms: C1_1  and  C6_6 
REMARK    2  A    between atoms: C1_1  and  C7_7 
REMARK    3  A    between atoms: C6_6  and  C8_8 
REMARK    4  A    between atoms: C7_7  and  C9_9 
ROOT
HETATM    1  C1  UNL     1     -32.556   7.882   3.026  1.00 20.00     0.161 C 
HETATM    2  O10 UNL     1     -31.389   8.076   3.366  1.00 20.00    -0.295 OA
ENDROOT
BRANCH   1   3
HETATM    3  C6  UNL     1     -33.033   8.090   1.597  1.00 20.00     0.085 C 
BRANCH   3   4
HETATM    4  C8  UNL     1     -32.408   9.317   0.915  1.00 20.00    -0.016 C 
HETATM    5  C2  UNL     1     -32.843  10.616   1.597  1.00 20.00     0.010 C 
HETATM    6  C3  UNL     1     -32.800   9.352  -0.563  1.00 20.00     0.010 C 
ENDBRANCH   3   4
ENDBRANCH   1   3
BRANCH   1   7
HETATM    7  C7  UNL     1     -33.585   7.398   4.033  1.00 20.00     0.242 C 
HETATM    8  F11 UNL     1     -33.019   7.293   5.271  1.00 20.00    -0.241 F 
BRANCH   7   9
HETATM    9  C9  UNL     1     -34.207   6.046   3.660  1.00 20.00     0.019 C 
HETATM   10  C4  UNL     1     -33.206   5.141   2.938  1.00 20.00     0.012 C 
HETATM   11  C5  UNL     1     -34.724   5.342   4.916  1.00 20.00     0.012 C 
ENDBRANCH   7   9
ENDBRANCH   1   7
TORSDOF 4
ENDMDL
MODEL 6
REMARK VINA RESULT:      -5.6      1.558      4.494
REMARK  4 active torsions:
REMARK  status: ('A' for Active; 'I' for Inactive)
REMARK    1  A    between atoms: C1_1  and  C6_6 
REMARK    2  A    between atoms: C1_1  and  C7_7 
REMARK    3  A    between atoms: C6_6  and  C8_8 
REMARK    4  A    between atoms: C7_7  and  C9_9 
ROOT
HETATM    1  C1  UNL     1     -32.175   7.988   2.873  1.00 20.00     0.161 C 
HETATM    2  O10 UNL     1     -31.126   8.166   3.493  1.00 20.00    -0.295 OA
ENDROOT
BRANCH   1   3
HETATM    3  C6  UNL     1     -33.465   7.566   3.560  1.00 20.00     0.085 C 
BRANCH   3   4
HETATM    4  C8  UNL     1     -34.033   6.240   3.034  1.00 20.00    -0.016 C 
HETATM    5  C2  UNL     1     -35.095   5.673   3.980  1.00 20.00     0.010 C 
HETATM    6  C3  UNL     1     -32.905   5.222   2.854  1.00 20.00     0.010 C 
ENDBRANCH   3   4
ENDBRANCH   1   3
BRANCH   1   7
HETATM    7  C7  UNL     1     -32.232   8.206   1.371  1.00 20.00     0.242 C 
HETATM    8  F11 UNL     1     -30.973   8.373   0.870  1.00 20.00    -0.241 F 
BRANCH   7   9
HETATM    9  C9  UNL     1     -33.088   9.414   0.967  1.00 20.00     0.019 C 
HETATM   10  C4  UNL     1     -32.480  10.729   1.463  1.00 20.00     0.012 C 
HETATM   11  C5  UNL     1     -33.244   9.462  -0.554  1.00 20.00     0.012 C 
ENDBRANCH   7   9
ENDBRANCH   1   7
TORSDOF 4
ENDMDL
MODEL 7
REMARK VINA RESULT:      -5.4      1.723      2.209
REMARK  4 active torsions:
REMARK  status: ('A' for Active; 'I' for Inactive)
REMARK    1  A    between atoms: C1_1  and  C6_6 
REMARK    2  A    between atoms: C1_1  and  C7_7 
REMARK    3  A    between atoms: C6_6  and  C8_8 
REMARK    4  A    between atoms: C7_7  and  C9_9 
ROOT
HETATM    1  C1  UNL     1     -33.658   6.034   2.960  1.00 20.00     0.161 C 
HETATM    2  O10 UNL     1     -32.772   5.203   2.756  1.00 20.00    -0.295 OA
ENDROOT
BRANCH   1   3
HETATM    3  C6  UNL     1     -33.548   7.474   2.482  1.00 20.00     0.085 C 
BRANCH   3   4
HETATM    4  C8  UNL     1     -32.105   7.916   2.198  1.00 20.00    -0.016 C 
HETATM    5  C2  UNL     1     -31.398   8.373   3.476  1.00 20.00     0.010 C 
HETATM    6  C3  UNL     1     -32.097   9.048   1.169  1.00 20.00     0.010 C 
ENDBRANCH   3   4
ENDBRANCH   1   3
BRANCH   1   7
HETATM    7  C7  UNL     1     -34.929   5.645   3.694  1.00 20.00     0.242 C 
HETATM    8  F11 UNL     1     -35.971   6.423   3.279  1.00 20.00    -0.241 F 
BRANCH   7   9
HETATM    9  C9  UNL     1     -34.805   5.762   5.220  1.00 20.00     0.019 C 
HETATM   10  C4  UNL     1     -34.205   4.497   5.838  1.00 20.00     0.012 C 
HETATM   11  C5  UNL     1     -33.943   6.973   5.584  1.00 20.00     0.012 C 
ENDBRANCH   7   9
ENDBRANCH   1   7
TORSDOF 4
ENDMDL
MODEL 8
REMARK VINA RESULT:      -5.3      0.734      4.498
REMARK  4 active torsions:
REMARK  status: ('A' for Active; 'I' for Inactive)
REMARK    1  A    between atoms: C1_1  and  C6_6 
REMARK    2  A    between atoms: C1_1  and  C7_7 
REMARK    3  A    between atoms: C6_6  and  C8_8 
REMARK    4  A    between atoms: C7_7  and  C9_9 
ROOT
HETATM    1  C1  UNL     1     -32.342   7.758   2.974  1.00 20.00     0.161 C 
HETATM    2  O10 UNL     1     -31.301   8.274   3.383  1.00 20.00    -0.295 OA
ENDROOT
BRANCH   1   3
HETATM    3  C6  UNL     1     -32.873   6.446   3.532  1.00 20.00     0.085 C 
BRANCH   3   4
HETATM    4  C8  UNL     1     -34.092   6.621   4.450  1.00 20.00    -0.016 C 
HETATM    5  C2  UNL     1     -33.705   7.288   5.772  1.00 20.00     0.010 C 
HETATM    6  C3  UNL     1     -34.739   5.262   4.726  1.00 20.00     0.010 C 
ENDBRANCH   3   4
ENDBRANCH   1   3
BRANCH   1   7
HETATM    7  C7  UNL     1     -33.164   8.430   1.888  1.00 20.00     0.242 C 
HETATM    8  F11 UNL     1     -33.729   7.491   1.075  1.00 20.00    -0.241 F 
BRANCH   7   9
HETATM    9  C9  UNL     1     -32.346   9.401   1.025  1.00 20.00     0.019 C 
HETATM   10  C4  UNL     1     -32.712   9.287  -0.457  1.00 20.00     0.012 C 
HETATM   11  C5  UNL     1     -32.568  10.839   1.501  1.00 20.00     0.012 C 
ENDBRANCH   7   9
ENDBRANCH   1   7
TORSDOF 4
ENDMDL
MODEL 9
REMARK VINA RESULT:      -4.9      1.530      4.699
REMARK  4 active torsions:
REMARK  status: ('A' for Active; 'I' for Inactive)
REMARK    1  A    between atoms: C1_1  and  C6_6 
REMARK    2  A    between atoms: C1_1  and  C7_7 
REMARK    3  A    between atoms: C6_6  and  C8_8 
REMARK    4  A    between atoms: C7_7  and  C9_9 
ROOT
HETATM    1  C1  UNL     1     -34.024   6.913   3.903  1.00 20.00     0.161 C 
HETATM    2  O10 UNL     1     -33.810   7.582   4.915  1.00 20.00    -0.295 OA
ENDROOT
BRANCH   1   3
HETATM    3  C6  UNL     1     -35.173   5.921   3.812  1.00 20.00     0.085 C 
BRANCH   3   4
HETATM    4  C8  UNL     1     -34.979   4.676   4.690  1.00 20.00    -0.016 C 
HETATM    5  C2  UNL     1     -34.573   5.057   6.116  1.00 20.00     0.010 C 
HETATM    6  C3  UNL     1     -33.916   3.763   4.077  1.00 20.00     0.010 C 
ENDBRANCH   3   4
ENDBRANCH   1   3
BRANCH   1   7
HETATM    7  C7  UNL     1     -33.144   7.066   2.674  1.00 20.00     0.242 C 
HETATM    8  F11 UNL     1     -32.230   6.054   2.620  1.00 20.00    -0.241 F 
BRANCH   7   9
HETATM    9  C9  UNL     1     -32.397   8.406   2.630  1.00 20.00     0.019 C 
HETATM   10  C4  UNL     1     -31.074   8.344   3.397  1.00 20.00     0.012 C 
HETATM   11  C5  UNL     1     -32.131   8.810   1.178  1.00 20.00     0.012 C 
ENDBRANCH   7   9
ENDBRANCH   1   7
TORSDOF 4
ENDMDL
