MODEL 1
REMARK VINA RESULT:      -5.4      0.000      0.000
REMARK  1 active torsions:
REMARK  status: ('A' for Active; 'I' for Inactive)
REMARK    1  A    between atoms: C6_6  and  C8_8 
ROOT
HETATM    1  C1  UNL     1     -34.078   5.690   5.857  1.00 20.00     0.061 C 
HETATM    2  C2  UNL     1     -33.851   7.082   3.014  1.00 20.00     0.066 C 
HETATM    3  C3  UNL     1     -34.004   7.211   5.917  1.00 20.00     0.170 C 
HETATM    4  C4  UNL     1     -34.823   5.219   4.647  1.00 20.00     0.153 A 
HETATM    5  C5  UNL     1     -34.701   5.879   3.294  1.00 20.00     0.153 A 
HETATM    6  C6  UNL     1     -32.617   7.235   3.910  1.00 20.00     0.123 C 
HETATM    7  O9  UNL     1     -32.912   7.777   5.198  1.00 20.00    -0.386 OA
HETATM    8  O10 UNL     1     -33.993   4.676   3.608  1.00 20.00    -0.375 OA
ENDROOT
BRANCH   6   9
HETATM    9  C8  UNL     1     -31.619   8.200   3.269  1.00 20.00     0.027 C 
HETATM   10  C7  UNL     1     -32.011   8.549   1.871  1.00 20.00     0.007 C 
ENDBRANCH   6   9
TORSDOF 1
ENDMDL
MODEL 2
REMARK VINA RESULT:      -4.4      1.362      2.520
REMARK  1 active torsions:
REMARK  status: ('A' for Active; 'I' for Inactive)
REMARK    1  A    between atoms: C6_6  and  C8_8 
ROOT
HETATM    1  C1  UNL     1     -34.624   5.809   3.765  1.00 20.00     0.061 C 
HETATM    2  C2  UNL     1     -32.157   7.786   4.046  1.00 20.00     0.066 C 
HETATM    3  C3  UNL     1     -33.421   5.421   2.915  1.00 20.00     0.170 C 
HETATM    4  C4  UNL     1     -34.209   6.429   5.063  1.00 20.00     0.153 A 
HETATM    5  C5  UNL     1     -33.040   7.379   5.187  1.00 20.00     0.153 A 
HETATM    6  C6  UNL     1     -32.823   7.774   2.665  1.00 20.00     0.123 C 
HETATM    7  O9  UNL     1     -32.919   6.469   2.091  1.00 20.00    -0.386 OA
HETATM    8  O10 UNL     1     -34.389   7.853   5.130  1.00 20.00    -0.375 OA
ENDROOT
BRANCH   6   9
HETATM    9  C8  UNL     1     -32.002   8.605   1.680  1.00 20.00     0.027 C 
HETATM   10  C7  UNL     1     -32.733   9.835   1.252  1.00 20.00     0.007 C 
ENDBRANCH   6   9
TORSDOF 1
ENDMDL
MODEL 3
REMARK VINA RESULT:      -4.1     11.656     12.190
REMARK  1 active torsions:
REMARK  status: ('A' for Active; 'I' for Inactive)
REMARK    1  A    between atoms: C6_6  and  C8_8 
ROOT
HETATM    1  C1  UNL     1     -35.557  13.979  -5.009  1.00 20.00     0.061 C 
HETATM    2  C2  UNL     1     -33.689  16.317  -3.953  1.00 20.00     0.066 C 
HETATM    3  C3  UNL     1     -36.268  15.318  -4.857  1.00 20.00     0.170 C 
HETATM    4  C4  UNL     1     -34.133  14.154  -5.438  1.00 20.00     0.153 A 
HETATM    5  C5  UNL     1     -33.246  15.263  -4.922  1.00 20.00     0.153 A 
HETATM    6  C6  UNL     1     -34.806  15.896  -2.991  1.00 20.00     0.123 C 
HETATM    7  O9  UNL     1     -36.107  15.929  -3.580  1.00 20.00    -0.386 OA
HETATM    8  O10 UNL     1     -33.164  13.933  -4.400  1.00 20.00    -0.375 OA
ENDROOT
BRANCH   6   9
HETATM    9  C8  UNL     1     -34.862  16.854  -1.800  1.00 20.00     0.027 C 
HETATM   10  C7  UNL     1     -33.536  17.490  -1.541  1.00 20.00     0.007 C 
ENDBRANCH   6   9
TORSDOF 1
ENDMDL
MODEL 4
REMARK VINA RESULT:      -4.1     11.565     12.114
REMARK  1 active torsions:
REMARK  status: ('A' for Active; 'I' for Inactive)
REMARK    1  A    between atoms: C6_6  and  C8_8 
ROOT
HETATM    1  C1  UNL     1     -36.507  14.747  -4.607  1.00 20.00     0.061 C 
HETATM    2  C2  UNL     1     -33.628  15.838  -3.838  1.00 20.00     0.066 C 
HETATM    3  C3  UNL     1     -36.415  16.267  -4.559  1.00 20.00     0.170 C 
HETATM    4  C4  UNL     1     -35.234  14.129  -5.097  1.00 20.00     0.153 A 
HETATM    5  C5  UNL     1     -33.866  14.647  -4.717  1.00 20.00     0.153 A 
HETATM    6  C6  UNL     1     -34.725  16.121  -2.805  1.00 20.00     0.123 C 
HETATM    7  O9  UNL     1     -35.865  16.786  -3.352  1.00 20.00    -0.386 OA
HETATM    8  O10 UNL     1     -34.441  13.505  -4.074  1.00 20.00    -0.375 OA
ENDROOT
BRANCH   6   9
HETATM    9  C8  UNL     1     -34.189  17.042  -1.709  1.00 20.00     0.027 C 
HETATM   10  C7  UNL     1     -35.233  17.351  -0.688  1.00 20.00     0.007 C 
ENDBRANCH   6   9
TORSDOF 1
ENDMDL
MODEL 5
REMARK VINA RESULT:      -4.1     11.665     12.779
REMARK  1 active torsions:
REMARK  status: ('A' for Active; 'I' for Inactive)
REMARK    1  A    between atoms: C6_6  and  C8_8 
ROOT
HETATM    1  C1  UNL     1     -36.862  15.622  -6.490  1.00 20.00     0.061 C 
HETATM    2  C2  UNL     1     -34.953  14.187  -4.400  1.00 20.00     0.066 C 
HETATM    3  C3  UNL     1     -35.441  16.173  -6.471  1.00 20.00     0.170 C 
HETATM    4  C4  UNL     1     -36.889  14.149  -6.226  1.00 20.00     0.153 A 
HETATM    5  C5  UNL     1     -35.985  13.474  -5.221  1.00 20.00     0.153 A 
HETATM    6  C6  UNL     1     -35.260  15.657  -4.092  1.00 20.00     0.123 C 
HETATM    7  O9  UNL     1     -34.968  16.539  -5.178  1.00 20.00    -0.386 OA
HETATM    8  O10 UNL     1     -37.347  13.785  -4.913  1.00 20.00    -0.375 OA
ENDROOT
BRANCH   6   9
HETATM    9  C8  UNL     1     -34.404  16.138  -2.921  1.00 20.00     0.027 C 
HETATM   10  C7  UNL     1     -35.240  16.724  -1.831  1.00 20.00     0.007 C 
ENDBRANCH   6   9
TORSDOF 1
ENDMDL
MODEL 6
REMARK VINA RESULT:      -4.0     11.747     12.316
REMARK  1 active torsions:
REMARK  status: ('A' for Active; 'I' for Inactive)
REMARK    1  A    between atoms: C6_6  and  C8_8 
ROOT
HETATM    1  C1  UNL     1     -37.397  14.566  -4.906  1.00 20.00     0.061 C 
HETATM    2  C2  UNL     1     -34.281  15.163  -4.999  1.00 20.00     0.066 C 
HETATM    3  C3  UNL     1     -37.050  16.050  -4.885  1.00 20.00     0.170 C 
HETATM    4  C4  UNL     1     -36.433  13.784  -5.743  1.00 20.00     0.153 A 
HETATM    5  C5  UNL     1     -34.949  14.066  -5.773  1.00 20.00     0.153 A 
HETATM    6  C6  UNL     1     -34.978  15.562  -3.693  1.00 20.00     0.123 C 
HETATM    7  O9  UNL     1     -36.103  16.420  -3.887  1.00 20.00    -0.386 OA
HETATM    8  O10 UNL     1     -35.493  12.997  -4.993  1.00 20.00    -0.375 OA
ENDROOT
BRANCH   6   9
HETATM    9  C8  UNL     1     -34.011  16.336  -2.797  1.00 20.00     0.027 C 
HETATM   10  C7  UNL     1     -34.709  16.942  -1.625  1.00 20.00     0.007 C 
ENDBRANCH   6   9
TORSDOF 1
ENDMDL
MODEL 7
REMARK VINA RESULT:      -3.8     11.699     12.810
REMARK  1 active torsions:
REMARK  status: ('A' for Active; 'I' for Inactive)
REMARK    1  A    between atoms: C6_6  and  C8_8 
ROOT
HETATM    1  C1  UNL     1     -34.806  15.731  -6.818  1.00 20.00     0.061 C 
HETATM    2  C2  UNL     1     -34.469  14.586  -3.878  1.00 20.00     0.066 C 
HETATM    3  C3  UNL     1     -33.386  15.832  -6.275  1.00 20.00     0.170 C 
HETATM    4  C4  UNL     1     -35.500  14.498  -6.330  1.00 20.00     0.153 A 
HETATM    5  C5  UNL     1     -35.344  13.965  -4.924  1.00 20.00     0.153 A 
HETATM    6  C6  UNL     1     -34.258  16.098  -4.011  1.00 20.00     0.123 C 
HETATM    7  O9  UNL     1     -33.287  16.453  -4.997  1.00 20.00    -0.386 OA
HETATM    8  O10 UNL     1     -36.488  14.732  -5.312  1.00 20.00    -0.375 OA
ENDROOT
BRANCH   6   9
HETATM    9  C8  UNL     1     -33.746  16.675  -2.692  1.00 20.00     0.027 C 
HETATM   10  C7  UNL     1     -34.840  16.803  -1.684  1.00 20.00     0.007 C 
ENDBRANCH   6   9
TORSDOF 1
ENDMDL
MODEL 8
REMARK VINA RESULT:      -3.7     11.878     12.689
REMARK  1 active torsions:
REMARK  status: ('A' for Active; 'I' for Inactive)
REMARK    1  A    between atoms: C6_6  and  C8_8 
ROOT
HETATM    1  C1  UNL     1     -34.942  14.893  -4.279  1.00 20.00     0.061 C 
HETATM    2  C2  UNL     1     -33.566  17.736  -3.971  1.00 20.00     0.066 C 
HETATM    3  C3  UNL     1     -35.710  15.859  -3.385  1.00 20.00     0.170 C 
HETATM    4  C4  UNL     1     -34.260  15.605  -5.406  1.00 20.00     0.153 A 
HETATM    5  C5  UNL     1     -33.596  16.954  -5.249  1.00 20.00     0.153 A 
HETATM    6  C6  UNL     1     -33.616  16.899  -2.687  1.00 20.00     0.123 C 
HETATM    7  O9  UNL     1     -34.931  16.452  -2.351  1.00 20.00    -0.386 OA
HETATM    8  O10 UNL     1     -32.837  15.740  -5.253  1.00 20.00    -0.375 OA
ENDROOT
BRANCH   6   9
HETATM    9  C8  UNL     1     -33.141  17.733  -1.498  1.00 20.00     0.027 C 
HETATM   10  C7  UNL     1     -34.197  17.852  -0.450  1.00 20.00     0.007 C 
ENDBRANCH   6   9
TORSDOF 1
ENDMDL
MODEL 9
REMARK VINA RESULT:      -3.7     11.561     13.306
REMARK  1 active torsions:
REMARK  status: ('A' for Active; 'I' for Inactive)
REMARK    1  A    between atoms: C6_6  and  C8_8 
ROOT
HETATM    1  C1  UNL     1     -33.851  15.599  -3.631  1.00 20.00     0.061 C 
HETATM    2  C2  UNL     1     -33.701  15.645  -6.801  1.00 20.00     0.066 C 
HETATM    3  C3  UNL     1     -33.056  14.445  -4.229  1.00 20.00     0.170 C 
HETATM    4  C4  UNL     1     -33.691  16.855  -4.431  1.00 20.00     0.153 A 
HETATM    5  C5  UNL     1     -33.632  16.870  -5.941  1.00 20.00     0.153 A 
HETATM    6  C6  UNL     1     -34.485  14.469  -6.207  1.00 20.00     0.123 C 
HETATM    7  O9  UNL     1     -33.744  13.719  -5.243  1.00 20.00    -0.386 OA
HETATM    8  O10 UNL     1     -34.832  17.201  -5.234  1.00 20.00    -0.375 OA
ENDROOT
BRANCH   6   9
HETATM    9  C8  UNL     1     -34.861  13.479  -7.309  1.00 20.00     0.027 C 
HETATM   10  C7  UNL     1     -36.186  13.806  -7.916  1.00 20.00     0.007 C 
ENDBRANCH   6   9
TORSDOF 1
ENDMDL
