MODEL 1
REMARK VINA RESULT:      -4.0      0.000      0.000
REMARK  1 active torsions:
REMARK  status: ('A' for Active; 'I' for Inactive)
REMARK    1  A    between atoms: C4_4  and  C8_8 
ROOT
HETATM    1  C1  UNL     1     -34.465  14.983  -6.249  1.00 20.00     0.302 C 
HETATM    2  C2  UNL     1     -33.191  15.812  -6.046  1.00 20.00     0.302 C 
HETATM    3  C3  UNL     1     -34.935  15.146  -3.881  1.00 20.00     0.307 C 
HETATM    4  C4  UNL     1     -33.652  15.982  -3.684  1.00 20.00     0.250 C 
HETATM    5  C6  UNL     1     -36.020  13.456  -5.219  1.00 20.00     0.310 C 
HETATM    6  C7  UNL     1     -34.104  17.888  -5.192  1.00 20.00     0.310 C 
HETATM    7  N9  UNL     1     -34.802  14.240  -5.031  1.00 20.00     0.088 N 
HETATM    8  N10 UNL     1     -33.262  16.729  -4.897  1.00 20.00     0.092 N 
ENDROOT
BRANCH   4   9
HETATM    9  C8  UNL     1     -33.773  16.866  -2.439  1.00 20.00     0.033 C 
HETATM   10  C5  UNL     1     -35.100  16.701  -1.781  1.00 20.00     0.007 C 
ENDBRANCH   4   9
TORSDOF 1
ENDMDL
MODEL 2
REMARK VINA RESULT:      -3.7      1.419      2.064
REMARK  1 active torsions:
REMARK  status: ('A' for Active; 'I' for Inactive)
REMARK    1  A    between atoms: C4_4  and  C8_8 
ROOT
HETATM    1  C1  UNL     1     -36.387  14.091  -6.565  1.00 20.00     0.302 C 
HETATM    2  C2  UNL     1     -34.901  13.714  -6.577  1.00 20.00     0.302 C 
HETATM    3  C3  UNL     1     -36.104  15.099  -4.385  1.00 20.00     0.307 C 
HETATM    4  C4  UNL     1     -34.608  14.718  -4.403  1.00 20.00     0.250 C 
HETATM    5  C6  UNL     1     -38.310  14.529  -5.179  1.00 20.00     0.310 C 
HETATM    6  C7  UNL     1     -33.854  15.895  -6.442  1.00 20.00     0.310 C 
HETATM    7  N9  UNL     1     -36.896  14.161  -5.192  1.00 20.00     0.088 N 
HETATM    8  N10 UNL     1     -34.060  14.612  -5.770  1.00 20.00     0.092 N 
ENDROOT
BRANCH   4   9
HETATM    9  C8  UNL     1     -33.803  15.656  -3.497  1.00 20.00     0.033 C 
HETATM   10  C5  UNL     1     -34.693  16.423  -2.580  1.00 20.00     0.007 C 
ENDBRANCH   4   9
TORSDOF 1
ENDMDL
MODEL 3
REMARK VINA RESULT:      -3.6      1.770      2.172
REMARK  1 active torsions:
REMARK  status: ('A' for Active; 'I' for Inactive)
REMARK    1  A    between atoms: C4_4  and  C8_8 
ROOT
HETATM    1  C1  UNL     1     -36.244  14.660  -5.026  1.00 20.00     0.302 C 
HETATM    2  C2  UNL     1     -34.923  14.070  -4.518  1.00 20.00     0.302 C 
HETATM    3  C3  UNL     1     -35.989  16.517  -3.496  1.00 20.00     0.307 C 
HETATM    4  C4  UNL     1     -34.659  15.918  -2.990  1.00 20.00     0.250 C 
HETATM    5  C6  UNL     1     -38.145  16.034  -4.468  1.00 20.00     0.310 C 
HETATM    6  C7  UNL     1     -33.360  15.831  -5.093  1.00 20.00     0.310 C 
HETATM    7  N9  UNL     1     -36.890  15.463  -3.983  1.00 20.00     0.088 N 
HETATM    8  N10 UNL     1     -33.986  15.081  -4.003  1.00 20.00     0.092 N 
ENDROOT
BRANCH   4   9
HETATM    9  C8  UNL     1     -33.760  17.017  -2.415  1.00 20.00     0.033 C 
HETATM   10  C5  UNL     1     -34.211  17.435  -1.058  1.00 20.00     0.007 C 
ENDBRANCH   4   9
TORSDOF 1
ENDMDL
MODEL 4
REMARK VINA RESULT:      -3.6      1.604      2.438
REMARK  1 active torsions:
REMARK  status: ('A' for Active; 'I' for Inactive)
REMARK    1  A    between atoms: C4_4  and  C8_8 
ROOT
HETATM    1  C1  UNL     1     -35.745  14.773  -6.202  1.00 20.00     0.302 C 
HETATM    2  C2  UNL     1     -35.445  13.870  -4.999  1.00 20.00     0.302 C 
HETATM    3  C3  UNL     1     -35.471  16.721  -4.793  1.00 20.00     0.307 C 
HETATM    4  C4  UNL     1     -35.168  15.807  -3.587  1.00 20.00     0.250 C 
HETATM    5  C6  UNL     1     -36.617  16.906  -6.909  1.00 20.00     0.310 C 
HETATM    6  C7  UNL     1     -33.197  14.571  -4.425  1.00 20.00     0.310 C 
HETATM    7  N9  UNL     1     -36.338  16.041  -5.765  1.00 20.00     0.088 N 
HETATM    8  N10 UNL     1     -34.590  14.507  -3.984  1.00 20.00     0.092 N 
ENDROOT
BRANCH   4   9
HETATM    9  C8  UNL     1     -34.327  16.552  -2.546  1.00 20.00     0.033 C 
HETATM   10  C5  UNL     1     -35.138  16.913  -1.349  1.00 20.00     0.007 C 
ENDBRANCH   4   9
TORSDOF 1
ENDMDL
MODEL 5
REMARK VINA RESULT:      -3.3      1.811      4.352
REMARK  1 active torsions:
REMARK  status: ('A' for Active; 'I' for Inactive)
REMARK    1  A    between atoms: C4_4  and  C8_8 
ROOT
HETATM    1  C1  UNL     1     -36.328  15.702  -4.055  1.00 20.00     0.302 C 
HETATM    2  C2  UNL     1     -37.375  14.752  -4.650  1.00 20.00     0.302 C 
HETATM    3  C3  UNL     1     -34.627  14.672  -5.432  1.00 20.00     0.307 C 
HETATM    4  C4  UNL     1     -35.685  13.719  -6.027  1.00 20.00     0.250 C 
HETATM    5  C6  UNL     1     -33.998  15.994  -3.514  1.00 20.00     0.310 C 
HETATM    6  C7  UNL     1     -37.277  15.343  -6.998  1.00 20.00     0.310 C 
HETATM    7  N9  UNL     1     -34.998  15.087  -4.072  1.00 20.00     0.088 N 
HETATM    8  N10 UNL     1     -37.047  14.291  -6.008  1.00 20.00     0.092 N 
ENDROOT
BRANCH   4   9
HETATM    9  C8  UNL     1     -35.251  13.233  -7.414  1.00 20.00     0.033 C 
HETATM   10  C5  UNL     1     -34.075  13.999  -7.915  1.00 20.00     0.007 C 
ENDBRANCH   4   9
TORSDOF 1
ENDMDL
MODEL 6
REMARK VINA RESULT:      -3.3      1.296      1.433
REMARK  1 active torsions:
REMARK  status: ('A' for Active; 'I' for Inactive)
REMARK    1  A    between atoms: C4_4  and  C8_8 
ROOT
HETATM    1  C1  UNL     1     -34.365  15.603  -7.302  1.00 20.00     0.302 C 
HETATM    2  C2  UNL     1     -33.721  16.816  -6.619  1.00 20.00     0.302 C 
HETATM    3  C3  UNL     1     -34.795  14.623  -5.132  1.00 20.00     0.307 C 
HETATM    4  C4  UNL     1     -34.147  15.847  -4.451  1.00 20.00     0.250 C 
HETATM    5  C6  UNL     1     -34.849  13.249  -7.115  1.00 20.00     0.310 C 
HETATM    6  C7  UNL     1     -35.577  17.670  -5.314  1.00 20.00     0.310 C 
HETATM    7  N9  UNL     1     -34.228  14.404  -6.470  1.00 20.00     0.088 N 
HETATM    8  N10 UNL     1     -34.241  17.074  -5.267  1.00 20.00     0.092 N 
ENDROOT
BRANCH   4   9
HETATM    9  C8  UNL     1     -34.690  16.020  -3.028  1.00 20.00     0.033 C 
HETATM   10  C5  UNL     1     -33.792  16.876  -2.203  1.00 20.00     0.007 C 
ENDBRANCH   4   9
TORSDOF 1
ENDMDL
MODEL 7
REMARK VINA RESULT:      -3.2      1.492      3.552
REMARK  1 active torsions:
REMARK  status: ('A' for Active; 'I' for Inactive)
REMARK    1  A    between atoms: C4_4  and  C8_8 
ROOT
HETATM    1  C1  UNL     1     -33.209  15.989  -5.460  1.00 20.00     0.302 C 
HETATM    2  C2  UNL     1     -33.751  15.960  -6.894  1.00 20.00     0.302 C 
HETATM    3  C3  UNL     1     -35.395  15.365  -4.633  1.00 20.00     0.307 C 
HETATM    4  C4  UNL     1     -35.934  15.336  -6.079  1.00 20.00     0.250 C 
HETATM    5  C6  UNL     1     -33.763  16.328  -3.139  1.00 20.00     0.310 C 
HETATM    6  C7  UNL     1     -34.443  13.646  -7.096  1.00 20.00     0.310 C 
HETATM    7  N9  UNL     1     -34.276  16.309  -4.507  1.00 20.00     0.088 N 
HETATM    8  N10 UNL     1     -34.886  15.041  -7.076  1.00 20.00     0.092 N 
ENDROOT
BRANCH   4   9
HETATM    9  C8  UNL     1     -37.148  14.407  -6.182  1.00 20.00     0.033 C 
HETATM   10  C5  UNL     1     -38.062  14.575  -5.016  1.00 20.00     0.007 C 
ENDBRANCH   4   9
TORSDOF 1
ENDMDL
MODEL 8
REMARK VINA RESULT:      -3.2      1.804      4.154
REMARK  1 active torsions:
REMARK  status: ('A' for Active; 'I' for Inactive)
REMARK    1  A    between atoms: C4_4  and  C8_8 
ROOT
HETATM    1  C1  UNL     1     -33.651  16.871  -5.084  1.00 20.00     0.302 C 
HETATM    2  C2  UNL     1     -33.072  15.491  -4.753  1.00 20.00     0.302 C 
HETATM    3  C3  UNL     1     -34.776  15.925  -7.006  1.00 20.00     0.307 C 
HETATM    4  C4  UNL     1     -34.191  14.538  -6.666  1.00 20.00     0.250 C 
HETATM    5  C6  UNL     1     -34.458  18.312  -6.840  1.00 20.00     0.310 C 
HETATM    6  C7  UNL     1     -35.091  14.200  -4.388  1.00 20.00     0.310 C 
HETATM    7  N9  UNL     1     -33.898  17.000  -6.524  1.00 20.00     0.088 N 
HETATM    8  N10 UNL     1     -33.905  14.374  -5.227  1.00 20.00     0.092 N 
ENDROOT
BRANCH   4   9
HETATM    9  C8  UNL     1     -35.075  13.426  -7.240  1.00 20.00     0.033 C 
HETATM   10  C5  UNL     1     -36.286  13.984  -7.907  1.00 20.00     0.007 C 
ENDBRANCH   4   9
TORSDOF 1
ENDMDL
MODEL 9
REMARK VINA RESULT:      -3.2      1.724      3.234
REMARK  1 active torsions:
REMARK  status: ('A' for Active; 'I' for Inactive)
REMARK    1  A    between atoms: C4_4  and  C8_8 
ROOT
HETATM    1  C1  UNL     1     -33.153  15.690  -5.685  1.00 20.00     0.302 C 
HETATM    2  C2  UNL     1     -33.413  14.708  -4.536  1.00 20.00     0.302 C 
HETATM    3  C3  UNL     1     -35.535  15.846  -6.077  1.00 20.00     0.307 C 
HETATM    4  C4  UNL     1     -35.791  14.857  -4.919  1.00 20.00     0.250 C 
HETATM    5  C6  UNL     1     -33.978  16.554  -7.779  1.00 20.00     0.310 C 
HETATM    6  C7  UNL     1     -34.743  16.069  -3.035  1.00 20.00     0.310 C 
HETATM    7  N9  UNL     1     -34.219  15.612  -6.688  1.00 20.00     0.088 N 
HETATM    8  N10 UNL     1     -34.726  14.886  -3.896  1.00 20.00     0.092 N 
ENDROOT
BRANCH   4   9
HETATM    9  C8  UNL     1     -37.195  15.060  -4.340  1.00 20.00     0.033 C 
HETATM   10  C5  UNL     1     -38.245  14.565  -5.275  1.00 20.00     0.007 C 
ENDBRANCH   4   9
TORSDOF 1
ENDMDL
