MODEL 1
REMARK VINA RESULT:      -5.6      0.000      0.000
REMARK  0 active torsions:
REMARK  status: ('A' for Active; 'I' for Inactive)
ROOT
HETATM    1  C1  UNL     1     -33.952   6.850   5.423  1.00 20.00    -0.021 C 
HETATM    2  C2  UNL     1     -34.192   5.660   4.845  1.00 20.00    -0.087 C 
HETATM    3  C3  UNL     1     -33.324   8.004   4.695  1.00 20.00     0.068 C 
HETATM    4  C4  UNL     1     -33.872   5.398   3.393  1.00 20.00     0.036 C 
HETATM    5  C5  UNL     1     -33.691   6.673   2.560  1.00 20.00     0.045 C 
HETATM    6  C6  UNL     1     -31.972   8.679   2.581  1.00 20.00     0.153 A 
HETATM    7  C7  UNL     1     -32.862   7.682   3.298  1.00 20.00     0.090 A 
HETATM    8  C8  UNL     1     -34.777   4.511   5.613  1.00 20.00     0.043 C 
HETATM    9  C9  UNL     1     -31.843   8.747   1.102  1.00 20.00     0.042 C 
HETATM   10  O10 UNL     1     -31.443   7.487   3.174  1.00 20.00    -0.369 OA
ENDROOT
TORSDOF 0
ENDMDL
MODEL 2
REMARK VINA RESULT:      -5.0      1.372      4.076
REMARK  0 active torsions:
REMARK  status: ('A' for Active; 'I' for Inactive)
ROOT
HETATM    1  C1  UNL     1     -31.744   8.686   3.159  1.00 20.00    -0.021 C 
HETATM    2  C2  UNL     1     -32.145   8.285   1.940  1.00 20.00    -0.087 C 
HETATM    3  C3  UNL     1     -32.207   8.037   4.431  1.00 20.00     0.068 C 
HETATM    4  C4  UNL     1     -33.082   7.115   1.754  1.00 20.00     0.036 C 
HETATM    5  C5  UNL     1     -33.165   6.188   2.972  1.00 20.00     0.045 C 
HETATM    6  C6  UNL     1     -33.997   6.463   5.465  1.00 20.00     0.153 A 
HETATM    7  C7  UNL     1     -33.263   6.981   4.243  1.00 20.00     0.090 A 
HETATM    8  C8  UNL     1     -31.702   8.985   0.689  1.00 20.00     0.043 C 
HETATM    9  C9  UNL     1     -34.676   5.141   5.516  1.00 20.00     0.042 C 
HETATM   10  O10 UNL     1     -34.595   7.410   4.571  1.00 20.00    -0.369 OA
ENDROOT
TORSDOF 0
ENDMDL
MODEL 3
REMARK VINA RESULT:      -4.8      1.108      1.913
REMARK  0 active torsions:
REMARK  status: ('A' for Active; 'I' for Inactive)
ROOT
HETATM    1  C1  UNL     1     -33.905   5.136   3.779  1.00 20.00    -0.021 C 
HETATM    2  C2  UNL     1     -34.146   5.719   4.966  1.00 20.00    -0.087 C 
HETATM    3  C3  UNL     1     -33.219   5.839   2.643  1.00 20.00     0.068 C 
HETATM    4  C4  UNL     1     -33.714   7.136   5.262  1.00 20.00     0.036 C 
HETATM    5  C5  UNL     1     -32.630   7.663   4.314  1.00 20.00     0.045 C 
HETATM    6  C6  UNL     1     -32.510   8.163   1.722  1.00 20.00     0.153 A 
HETATM    7  C7  UNL     1     -32.939   7.297   2.891  1.00 20.00     0.090 A 
HETATM    8  C8  UNL     1     -34.876   5.005   6.066  1.00 20.00     0.043 C 
HETATM    9  C9  UNL     1     -31.754   9.434   1.876  1.00 20.00     0.042 C 
HETATM   10  O10 UNL     1     -33.848   8.196   2.234  1.00 20.00    -0.369 OA
ENDROOT
TORSDOF 0
ENDMDL
MODEL 4
REMARK VINA RESULT:      -4.5     11.486     12.035
REMARK  0 active torsions:
REMARK  status: ('A' for Active; 'I' for Inactive)
ROOT
HETATM    1  C1  UNL     1     -33.699  16.180  -3.128  1.00 20.00    -0.021 C 
HETATM    2  C2  UNL     1     -34.948  16.365  -2.666  1.00 20.00    -0.087 C 
HETATM    3  C3  UNL     1     -33.399  15.518  -4.442  1.00 20.00     0.068 C 
HETATM    4  C4  UNL     1     -36.162  15.943  -3.458  1.00 20.00     0.036 C 
HETATM    5  C5  UNL     1     -35.883  15.721  -4.949  1.00 20.00     0.045 C 
HETATM    6  C6  UNL     1     -34.391  14.033  -6.330  1.00 20.00     0.153 A 
HETATM    7  C7  UNL     1     -34.606  14.957  -5.147  1.00 20.00     0.090 A 
HETATM    8  C8  UNL     1     -35.213  16.986  -1.326  1.00 20.00     0.043 C 
HETATM    9  C9  UNL     1     -35.410  13.804  -7.388  1.00 20.00     0.042 C 
HETATM   10  O10 UNL     1     -34.747  13.531  -5.036  1.00 20.00    -0.369 OA
ENDROOT
TORSDOF 0
ENDMDL
MODEL 5
REMARK VINA RESULT:      -4.3     11.483     12.157
REMARK  0 active torsions:
REMARK  status: ('A' for Active; 'I' for Inactive)
ROOT
HETATM    1  C1  UNL     1     -35.965  16.254  -3.039  1.00 20.00    -0.021 C 
HETATM    2  C2  UNL     1     -34.649  16.310  -2.773  1.00 20.00    -0.087 C 
HETATM    3  C3  UNL     1     -36.540  15.456  -4.175  1.00 20.00     0.068 C 
HETATM    4  C4  UNL     1     -33.636  15.541  -3.587  1.00 20.00     0.036 C 
HETATM    5  C5  UNL     1     -34.242  14.393  -4.403  1.00 20.00     0.045 C 
HETATM    6  C6  UNL     1     -35.969  14.238  -6.398  1.00 20.00     0.153 A 
HETATM    7  C7  UNL     1     -35.512  14.825  -5.076  1.00 20.00     0.090 A 
HETATM    8  C8  UNL     1     -34.101  17.156  -1.661  1.00 20.00     0.043 C 
HETATM    9  C9  UNL     1     -35.211  13.194  -7.136  1.00 20.00     0.042 C 
HETATM   10  O10 UNL     1     -35.316  15.512  -6.323  1.00 20.00    -0.369 OA
ENDROOT
TORSDOF 0
ENDMDL
MODEL 6
REMARK VINA RESULT:      -4.2     11.698     12.274
REMARK  0 active torsions:
REMARK  status: ('A' for Active; 'I' for Inactive)
ROOT
HETATM    1  C1  UNL     1     -34.612  17.954   0.073  1.00 20.00    -0.021 C 
HETATM    2  C2  UNL     1     -33.397  18.319  -0.374  1.00 20.00    -0.087 C 
HETATM    3  C3  UNL     1     -35.589  17.169  -0.755  1.00 20.00     0.068 C 
HETATM    4  C4  UNL     1     -32.905  17.937  -1.749  1.00 20.00     0.036 C 
HETATM    5  C5  UNL     1     -33.675  16.772  -2.381  1.00 20.00     0.045 C 
HETATM    6  C6  UNL     1     -36.171  16.402  -3.168  1.00 20.00     0.153 A 
HETATM    7  C7  UNL     1     -35.153  16.933  -2.177  1.00 20.00     0.090 A 
HETATM    8  C8  UNL     1     -32.462  19.145   0.460  1.00 20.00     0.043 C 
HETATM    9  C9  UNL     1     -35.802  15.682  -4.415  1.00 20.00     0.042 C 
HETATM   10  O10 UNL     1     -35.794  17.785  -3.141  1.00 20.00    -0.369 OA
ENDROOT
TORSDOF 0
ENDMDL
MODEL 7
REMARK VINA RESULT:      -4.2      1.333      4.323
REMARK  0 active torsions:
REMARK  status: ('A' for Active; 'I' for Inactive)
ROOT
HETATM    1  C1  UNL     1     -33.527   7.387   1.539  1.00 20.00    -0.021 C 
HETATM    2  C2  UNL     1     -32.449   7.968   2.093  1.00 20.00    -0.087 C 
HETATM    3  C3  UNL     1     -34.442   6.465   2.294  1.00 20.00     0.068 C 
HETATM    4  C4  UNL     1     -32.086   7.759   3.544  1.00 20.00     0.036 C 
HETATM    5  C5  UNL     1     -33.243   7.232   4.402  1.00 20.00     0.045 C 
HETATM    6  C6  UNL     1     -34.671   5.009   4.434  1.00 20.00     0.153 A 
HETATM    7  C7  UNL     1     -33.982   6.136   3.690  1.00 20.00     0.090 A 
HETATM    8  C8  UNL     1     -31.527   8.846   1.299  1.00 20.00     0.043 C 
HETATM    9  C9  UNL     1     -34.679   4.889   5.916  1.00 20.00     0.042 C 
HETATM   10  O10 UNL     1     -33.385   4.836   3.826  1.00 20.00    -0.369 OA
ENDROOT
TORSDOF 0
ENDMDL
MODEL 8
REMARK VINA RESULT:      -4.2     11.391     12.011
REMARK  0 active torsions:
REMARK  status: ('A' for Active; 'I' for Inactive)
ROOT
HETATM    1  C1  UNL     1     -33.305  17.441  -2.839  1.00 20.00    -0.021 C 
HETATM    2  C2  UNL     1     -34.054  17.442  -1.723  1.00 20.00    -0.087 C 
HETATM    3  C3  UNL     1     -33.663  16.654  -4.068  1.00 20.00     0.068 C 
HETATM    4  C4  UNL     1     -35.346  16.667  -1.628  1.00 20.00     0.036 C 
HETATM    5  C5  UNL     1     -35.934  16.274  -2.988  1.00 20.00     0.045 C 
HETATM    6  C6  UNL     1     -35.145  14.722  -4.977  1.00 20.00     0.153 A 
HETATM    7  C7  UNL     1     -34.864  15.759  -3.906  1.00 20.00     0.090 A 
HETATM    8  C8  UNL     1     -33.643  18.201  -0.495  1.00 20.00     0.043 C 
HETATM    9  C9  UNL     1     -36.488  14.131  -5.212  1.00 20.00     0.042 C 
HETATM   10  O10 UNL     1     -34.546  14.369  -3.723  1.00 20.00    -0.369 OA
ENDROOT
TORSDOF 0
ENDMDL
MODEL 9
REMARK VINA RESULT:      -4.2     11.283     12.487
REMARK  0 active torsions:
REMARK  status: ('A' for Active; 'I' for Inactive)
ROOT
HETATM    1  C1  UNL     1     -33.805  15.113  -6.671  1.00 20.00    -0.021 C 
HETATM    2  C2  UNL     1     -34.665  14.140  -6.323  1.00 20.00    -0.087 C 
HETATM    3  C3  UNL     1     -33.290  16.140  -5.704  1.00 20.00     0.068 C 
HETATM    4  C4  UNL     1     -35.163  13.986  -4.906  1.00 20.00     0.036 C 
HETATM    5  C5  UNL     1     -34.297  14.703  -3.863  1.00 20.00     0.045 C 
HETATM    6  C6  UNL     1     -33.680  17.226  -3.375  1.00 20.00     0.153 A 
HETATM    7  C7  UNL     1     -33.916  16.076  -4.336  1.00 20.00     0.090 A 
HETATM    8  C8  UNL     1     -35.199  13.158  -7.324  1.00 20.00     0.043 C 
HETATM    9  C9  UNL     1     -33.802  17.099  -1.899  1.00 20.00     0.042 C 
HETATM   10  O10 UNL     1     -34.913  17.082  -4.093  1.00 20.00    -0.369 OA
ENDROOT
TORSDOF 0
ENDMDL
