MODEL 1
REMARK VINA RESULT:      -4.3      0.000      0.000
REMARK  1 active torsions:
REMARK  status: ('A' for Active; 'I' for Inactive)
REMARK    1  A    between atoms: C3_3  and  C9_9 
ROOT
HETATM    1  C1  UNL     1     -34.554  14.185  -4.780  1.00 20.00     0.178 C 
HETATM    2  C2  UNL     1     -33.573  16.005  -6.265  1.00 20.00     0.087 C 
HETATM    3  C3  UNL     1     -33.676  16.006  -3.527  1.00 20.00     0.185 C 
HETATM    4  C4  UNL     1     -34.649  14.902  -6.144  1.00 20.00    -0.018 C 
HETATM    5  C5  UNL     1     -34.415  13.869  -7.262  1.00 20.00     0.018 C 
HETATM    6  C6  UNL     1     -36.060  15.499  -6.327  1.00 20.00     0.018 C 
HETATM    7  O10 UNL     1     -34.749  15.075  -3.683  1.00 20.00    -0.374 OA
HETATM    8  S11 UNL     1     -33.583  17.201  -4.894  1.00 20.00    -0.136 SA
ENDROOT
BRANCH   3   9
HETATM    9  C9  UNL     1     -33.912  16.763  -2.227  1.00 20.00     0.017 C 
HETATM   10  C7  UNL     1     -33.324  18.172  -2.305  1.00 20.00     0.013 C 
HETATM   11  C8  UNL     1     -35.403  16.825  -1.898  1.00 20.00     0.013 C 
ENDBRANCH   3   9
TORSDOF 1
ENDMDL
MODEL 2
REMARK VINA RESULT:      -4.2      1.080      1.272
REMARK  1 active torsions:
REMARK  status: ('A' for Active; 'I' for Inactive)
REMARK    1  A    between atoms: C3_3  and  C9_9 
ROOT
HETATM    1  C1  UNL     1     -33.633  14.435  -5.084  1.00 20.00     0.178 C 
HETATM    2  C2  UNL     1     -35.550  15.856  -5.968  1.00 20.00     0.087 C 
HETATM    3  C3  UNL     1     -34.141  16.268  -3.654  1.00 20.00     0.185 C 
HETATM    4  C4  UNL     1     -34.949  14.435  -5.891  1.00 20.00    -0.018 C 
HETATM    5  C5  UNL     1     -34.647  13.956  -7.324  1.00 20.00     0.018 C 
HETATM    6  C6  UNL     1     -35.955  13.453  -5.256  1.00 20.00     0.018 C 
HETATM    7  O10 UNL     1     -33.820  14.878  -3.740  1.00 20.00    -0.374 OA
HETATM    8  S11 UNL     1     -35.777  16.651  -4.348  1.00 20.00    -0.136 SA
ENDROOT
BRANCH   3   9
HETATM    9  C9  UNL     1     -34.128  16.651  -2.181  1.00 20.00     0.017 C 
HETATM   10  C7  UNL     1     -33.218  17.857  -1.942  1.00 20.00     0.013 C 
HETATM   11  C8  UNL     1     -35.543  16.945  -1.685  1.00 20.00     0.013 C 
ENDBRANCH   3   9
TORSDOF 1
ENDMDL
MODEL 3
REMARK VINA RESULT:      -4.1      0.485      1.169
REMARK  1 active torsions:
REMARK  status: ('A' for Active; 'I' for Inactive)
REMARK    1  A    between atoms: C3_3  and  C9_9 
ROOT
HETATM    1  C1  UNL     1     -34.981  14.346  -4.562  1.00 20.00     0.178 C 
HETATM    2  C2  UNL     1     -33.571  15.706  -6.186  1.00 20.00     0.087 C 
HETATM    3  C3  UNL     1     -34.010  16.263  -3.540  1.00 20.00     0.185 C 
HETATM    4  C4  UNL     1     -34.802  14.786  -6.031  1.00 20.00    -0.018 C 
HETATM    5  C5  UNL     1     -34.584  13.531  -6.897  1.00 20.00     0.018 C 
HETATM    6  C6  UNL     1     -36.079  15.497  -6.526  1.00 20.00     0.018 C 
HETATM    7  O10 UNL     1     -35.179  15.454  -3.684  1.00 20.00    -0.374 OA
HETATM    8  S11 UNL     1     -33.577  17.143  -5.070  1.00 20.00    -0.136 SA
ENDROOT
BRANCH   3   9
HETATM    9  C9  UNL     1     -34.292  17.284  -2.446  1.00 20.00     0.017 C 
HETATM   10  C7  UNL     1     -35.274  16.722  -1.418  1.00 20.00     0.013 C 
HETATM   11  C8  UNL     1     -32.995  17.718  -1.763  1.00 20.00     0.013 C 
ENDBRANCH   3   9
TORSDOF 1
ENDMDL
MODEL 4
REMARK VINA RESULT:      -4.1      1.116      1.664
REMARK  1 active torsions:
REMARK  status: ('A' for Active; 'I' for Inactive)
REMARK    1  A    between atoms: C3_3  and  C9_9 
ROOT
HETATM    1  C1  UNL     1     -33.513  14.819  -4.684  1.00 20.00     0.178 C 
HETATM    2  C2  UNL     1     -35.280  16.013  -6.073  1.00 20.00     0.087 C 
HETATM    3  C3  UNL     1     -34.164  16.901  -3.734  1.00 20.00     0.185 C 
HETATM    4  C4  UNL     1     -34.717  14.643  -5.634  1.00 20.00    -0.018 C 
HETATM    5  C5  UNL     1     -34.248  13.884  -6.889  1.00 20.00     0.018 C 
HETATM    6  C6  UNL     1     -35.813  13.803  -4.944  1.00 20.00     0.018 C 
HETATM    7  O10 UNL     1     -33.859  15.526  -3.493  1.00 20.00    -0.374 OA
HETATM    8  S11 UNL     1     -35.694  17.120  -4.691  1.00 20.00    -0.136 SA
ENDROOT
BRANCH   3   9
HETATM    9  C9  UNL     1     -34.328  17.577  -2.379  1.00 20.00     0.017 C 
HETATM   10  C7  UNL     1     -35.299  16.794  -1.496  1.00 20.00     0.013 C 
HETATM   11  C8  UNL     1     -32.976  17.728  -1.682  1.00 20.00     0.013 C 
ENDBRANCH   3   9
TORSDOF 1
ENDMDL
MODEL 5
REMARK VINA RESULT:      -3.9     11.502     12.470
REMARK  1 active torsions:
REMARK  status: ('A' for Active; 'I' for Inactive)
REMARK    1  A    between atoms: C3_3  and  C9_9 
ROOT
HETATM    1  C1  UNL     1     -33.821   8.487   3.199  1.00 20.00     0.178 C 
HETATM    2  C2  UNL     1     -32.596   6.905   1.627  1.00 20.00     0.087 C 
HETATM    3  C3  UNL     1     -34.429   6.213   3.542  1.00 20.00     0.185 C 
HETATM    4  C4  UNL     1     -32.518   8.234   2.411  1.00 20.00    -0.018 C 
HETATM    5  C5  UNL     1     -32.319   9.382   1.405  1.00 20.00     0.018 C 
HETATM    6  C6  UNL     1     -31.314   8.225   3.376  1.00 20.00     0.018 C 
HETATM    7  O10 UNL     1     -34.089   7.459   4.152  1.00 20.00    -0.374 OA
HETATM    8  S11 UNL     1     -33.031   5.466   2.651  1.00 20.00    -0.136 SA
ENDROOT
BRANCH   3   9
HETATM    9  C9  UNL     1     -34.871   5.266   4.649  1.00 20.00     0.017 C 
HETATM   10  C7  UNL     1     -34.230   3.889   4.474  1.00 20.00     0.013 C 
HETATM   11  C8  UNL     1     -34.529   5.842   6.023  1.00 20.00     0.013 C 
ENDBRANCH   3   9
TORSDOF 1
ENDMDL
MODEL 6
REMARK VINA RESULT:      -3.9      1.660      4.450
REMARK  1 active torsions:
REMARK  status: ('A' for Active; 'I' for Inactive)
REMARK    1  A    between atoms: C3_3  and  C9_9 
ROOT
HETATM    1  C1  UNL     1     -33.487  15.394  -3.833  1.00 20.00     0.178 C 
HETATM    2  C2  UNL     1     -35.698  16.284  -2.940  1.00 20.00     0.087 C 
HETATM    3  C3  UNL     1     -35.364  14.287  -4.786  1.00 20.00     0.185 C 
HETATM    4  C4  UNL     1     -34.233  16.632  -3.290  1.00 20.00    -0.018 C 
HETATM    5  C5  UNL     1     -33.527  17.110  -2.007  1.00 20.00     0.018 C 
HETATM    6  C6  UNL     1     -34.179  17.775  -4.325  1.00 20.00     0.018 C 
HETATM    7  O10 UNL     1     -34.084  14.877  -5.021  1.00 20.00    -0.374 OA
HETATM    8  S11 UNL     1     -36.619  15.510  -4.304  1.00 20.00    -0.136 SA
ENDROOT
BRANCH   3   9
HETATM    9  C9  UNL     1     -35.802  13.614  -6.080  1.00 20.00     0.017 C 
HETATM   10  C7  UNL     1     -36.927  14.404  -6.748  1.00 20.00     0.013 C 
HETATM   11  C8  UNL     1     -34.621  13.456  -7.036  1.00 20.00     0.013 C 
ENDBRANCH   3   9
TORSDOF 1
ENDMDL
MODEL 7
REMARK VINA RESULT:      -3.9      1.284      1.719
REMARK  1 active torsions:
REMARK  status: ('A' for Active; 'I' for Inactive)
REMARK    1  A    between atoms: C3_3  and  C9_9 
ROOT
HETATM    1  C1  UNL     1     -35.909  16.312  -5.626  1.00 20.00     0.178 C 
HETATM    2  C2  UNL     1     -34.221  14.429  -5.910  1.00 20.00     0.087 C 
HETATM    3  C3  UNL     1     -34.728  15.839  -3.616  1.00 20.00     0.185 C 
HETATM    4  C4  UNL     1     -34.943  15.607  -6.602  1.00 20.00    -0.018 C 
HETATM    5  C5  UNL     1     -35.757  15.052  -7.785  1.00 20.00     0.018 C 
HETATM    6  C6  UNL     1     -33.920  16.622  -7.153  1.00 20.00     0.018 C 
HETATM    7  O10 UNL     1     -35.237  16.850  -4.488  1.00 20.00    -0.374 OA
HETATM    8  S11 UNL     1     -33.374  14.886  -4.366  1.00 20.00    -0.136 SA
ENDROOT
BRANCH   3   9
HETATM    9  C9  UNL     1     -34.208  16.533  -2.364  1.00 20.00     0.017 C 
HETATM   10  C7  UNL     1     -33.411  17.786  -2.730  1.00 20.00     0.013 C 
HETATM   11  C8  UNL     1     -35.359  16.890  -1.425  1.00 20.00     0.013 C 
ENDBRANCH   3   9
TORSDOF 1
ENDMDL
MODEL 8
REMARK VINA RESULT:      -3.8     10.343     11.423
REMARK  1 active torsions:
REMARK  status: ('A' for Active; 'I' for Inactive)
REMARK    1  A    between atoms: C3_3  and  C9_9 
ROOT
HETATM    1  C1  UNL     1     -34.570   6.642   2.297  1.00 20.00     0.178 C 
HETATM    2  C2  UNL     1     -33.039   6.962   4.305  1.00 20.00     0.087 C 
HETATM    3  C3  UNL     1     -33.082   8.478   2.023  1.00 20.00     0.185 C 
HETATM    4  C4  UNL     1     -33.817   5.939   3.448  1.00 20.00    -0.018 C 
HETATM    5  C5  UNL     1     -34.845   5.230   4.349  1.00 20.00     0.018 C 
HETATM    6  C6  UNL     1     -32.861   4.872   2.875  1.00 20.00     0.018 C 
HETATM    7  O10 UNL     1     -33.689   7.336   1.415  1.00 20.00    -0.374 OA
HETATM    8  S11 UNL     1     -31.920   8.030   3.348  1.00 20.00    -0.136 SA
ENDROOT
BRANCH   3   9
HETATM    9  C9  UNL     1     -32.325   9.228   0.936  1.00 20.00     0.017 C 
HETATM   10  C7  UNL     1     -32.923   8.937  -0.441  1.00 20.00     0.013 C 
HETATM   11  C8  UNL     1     -32.330  10.732   1.211  1.00 20.00     0.013 C 
ENDBRANCH   3   9
TORSDOF 1
ENDMDL
MODEL 9
REMARK VINA RESULT:      -3.8     11.183     12.156
REMARK  1 active torsions:
REMARK  status: ('A' for Active; 'I' for Inactive)
REMARK    1  A    between atoms: C3_3  and  C9_9 
ROOT
HETATM    1  C1  UNL     1     -33.686   7.089   4.870  1.00 20.00     0.178 C 
HETATM    2  C2  UNL     1     -33.393   5.143   3.256  1.00 20.00     0.087 C 
HETATM    3  C3  UNL     1     -32.383   7.674   2.967  1.00 20.00     0.185 C 
HETATM    4  C4  UNL     1     -34.325   5.807   4.294  1.00 20.00    -0.018 C 
HETATM    5  C5  UNL     1     -34.558   4.813   5.446  1.00 20.00     0.018 C 
HETATM    6  C6  UNL     1     -35.692   6.141   3.660  1.00 20.00     0.018 C 
HETATM    7  O10 UNL     1     -33.425   8.066   3.863  1.00 20.00    -0.374 OA
HETATM    8  S11 UNL     1     -32.853   6.260   1.925  1.00 20.00    -0.136 SA
ENDROOT
BRANCH   3   9
HETATM    9  C9  UNL     1     -32.077   8.866   2.071  1.00 20.00     0.017 C 
HETATM   10  C7  UNL     1     -31.367   8.416   0.794  1.00 20.00     0.013 C 
HETATM   11  C8  UNL     1     -33.355   9.630   1.729  1.00 20.00     0.013 C 
ENDBRANCH   3   9
TORSDOF 1
ENDMDL
