MODEL 1
REMARK VINA RESULT:      -6.2      0.000      0.000
REMARK  2 active torsions:
REMARK  status: ('A' for Active; 'I' for Inactive)
REMARK    1  A    between atoms: C7_7  and  C10_10 
REMARK    2  A    between atoms: C9_9  and  C10_10 
ROOT
HETATM    1  C1  UNL     1     -32.429   9.612   0.302  1.00 20.00     0.012 C 
HETATM    2  C2  UNL     1     -32.182   9.039   1.328  1.00 20.00    -0.117 C 
HETATM    3  C9  UNL     1     -31.874   8.338   2.582  1.00 20.00     0.093 C 
ENDROOT
BRANCH   3   4
HETATM    4  C10 UNL     1     -33.102   8.293   3.472  1.00 20.00     0.020 C 
BRANCH   4   5
HETATM    5  C7  UNL     1     -33.166   6.981   4.237  1.00 20.00     0.023 C 
HETATM    6  C4  UNL     1     -33.875   7.157   5.594  1.00 20.00     0.008 C 
HETATM    7  C3  UNL     1     -34.440   5.773   5.894  1.00 20.00     0.004 C 
HETATM    8  C5  UNL     1     -34.958   5.300   4.536  1.00 20.00     0.041 C 
HETATM    9  C8  UNL     1     -33.989   5.907   3.563  1.00 20.00     0.086 A 
HETATM   10  C6  UNL     1     -34.111   5.705   2.070  1.00 20.00     0.207 A 
HETATM   11  O11 UNL     1     -33.195   4.938   2.856  1.00 20.00    -0.375 OA
ENDBRANCH   4   5
ENDBRANCH   3   4
TORSDOF 2
ENDMDL
MODEL 2
REMARK VINA RESULT:      -5.4      1.471      2.327
REMARK  2 active torsions:
REMARK  status: ('A' for Active; 'I' for Inactive)
REMARK    1  A    between atoms: C7_7  and  C10_10 
REMARK    2  A    between atoms: C9_9  and  C10_10 
ROOT
HETATM    1  C1  UNL     1     -32.559   9.487   0.331  1.00 20.00     0.012 C 
HETATM    2  C2  UNL     1     -32.316   9.140   1.455  1.00 20.00    -0.117 C 
HETATM    3  C9  UNL     1     -32.019   8.721   2.831  1.00 20.00     0.093 C 
ENDROOT
BRANCH   3   4
HETATM    4  C10 UNL     1     -32.253   7.230   2.988  1.00 20.00     0.020 C 
BRANCH   4   5
HETATM    5  C7  UNL     1     -33.656   6.954   3.503  1.00 20.00     0.023 C 
HETATM    6  C4  UNL     1     -34.169   5.582   3.025  1.00 20.00     0.008 C 
HETATM    7  C3  UNL     1     -35.182   5.179   4.092  1.00 20.00     0.004 C 
HETATM    8  C5  UNL     1     -34.513   5.611   5.397  1.00 20.00     0.041 C 
HETATM    9  C8  UNL     1     -33.757   6.848   5.008  1.00 20.00     0.086 A 
HETATM   10  C6  UNL     1     -32.927   7.632   5.999  1.00 20.00     0.207 A 
HETATM   11  O11 UNL     1     -34.246   8.046   5.634  1.00 20.00    -0.375 OA
ENDBRANCH   4   5
ENDBRANCH   3   4
TORSDOF 2
ENDMDL
MODEL 3
REMARK VINA RESULT:      -4.8     10.922     11.849
REMARK  2 active torsions:
REMARK  status: ('A' for Active; 'I' for Inactive)
REMARK    1  A    between atoms: C7_7  and  C10_10 
REMARK    2  A    between atoms: C9_9  and  C10_10 
ROOT
HETATM    1  C1  UNL     1     -34.020  17.022  -1.703  1.00 20.00     0.012 C 
HETATM    2  C2  UNL     1     -34.187  16.571  -2.803  1.00 20.00    -0.117 C 
HETATM    3  C9  UNL     1     -34.391  16.024  -4.151  1.00 20.00     0.093 C 
ENDROOT
BRANCH   3   4
HETATM    4  C10 UNL     1     -34.340  14.507  -4.115  1.00 20.00     0.020 C 
BRANCH   4   5
HETATM    5  C7  UNL     1     -35.592  13.910  -4.735  1.00 20.00     0.023 C 
HETATM    6  C4  UNL     1     -36.822  14.804  -4.485  1.00 20.00     0.008 C 
HETATM    7  C3  UNL     1     -37.753  14.478  -5.648  1.00 20.00     0.004 C 
HETATM    8  C5  UNL     1     -36.805  14.372  -6.842  1.00 20.00     0.041 C 
HETATM    9  C8  UNL     1     -35.552  13.804  -6.242  1.00 20.00     0.086 A 
HETATM   10  C6  UNL     1     -34.316  13.526  -7.068  1.00 20.00     0.207 A 
HETATM   11  O11 UNL     1     -35.231  12.484  -6.714  1.00 20.00    -0.375 OA
ENDBRANCH   4   5
ENDBRANCH   3   4
TORSDOF 2
ENDMDL
MODEL 4
REMARK VINA RESULT:      -4.7     11.085     11.635
REMARK  2 active torsions:
REMARK  status: ('A' for Active; 'I' for Inactive)
REMARK    1  A    between atoms: C7_7  and  C10_10 
REMARK    2  A    between atoms: C9_9  and  C10_10 
ROOT
HETATM    1  C1  UNL     1     -32.857  18.065  -1.368  1.00 20.00     0.012 C 
HETATM    2  C2  UNL     1     -33.821  17.394  -1.618  1.00 20.00    -0.117 C 
HETATM    3  C9  UNL     1     -35.001  16.573  -1.919  1.00 20.00     0.093 C 
ENDROOT
BRANCH   3   4
HETATM    4  C10 UNL     1     -35.223  16.503  -3.418  1.00 20.00     0.020 C 
BRANCH   4   5
HETATM    5  C7  UNL     1     -35.289  15.058  -3.887  1.00 20.00     0.023 C 
HETATM    6  C4  UNL     1     -36.623  14.759  -4.597  1.00 20.00     0.008 C 
HETATM    7  C3  UNL     1     -36.286  13.608  -5.539  1.00 20.00     0.004 C 
HETATM    8  C5  UNL     1     -34.912  13.990  -6.088  1.00 20.00     0.041 C 
HETATM    9  C8  UNL     1     -34.260  14.696  -4.934  1.00 20.00     0.086 A 
HETATM   10  C6  UNL     1     -32.861  15.263  -5.021  1.00 20.00     0.207 A 
HETATM   11  O11 UNL     1     -33.120  14.001  -4.399  1.00 20.00    -0.375 OA
ENDBRANCH   4   5
ENDBRANCH   3   4
TORSDOF 2
ENDMDL
MODEL 5
REMARK VINA RESULT:      -4.5     11.006     11.549
REMARK  2 active torsions:
REMARK  status: ('A' for Active; 'I' for Inactive)
REMARK    1  A    between atoms: C7_7  and  C10_10 
REMARK    2  A    between atoms: C9_9  and  C10_10 
ROOT
HETATM    1  C1  UNL     1     -35.613  17.453  -0.126  1.00 20.00     0.012 C 
HETATM    2  C2  UNL     1     -34.771  17.273  -0.963  1.00 20.00    -0.117 C 
HETATM    3  C9  UNL     1     -33.738  17.052  -1.983  1.00 20.00     0.093 C 
ENDROOT
BRANCH   3   4
HETATM    4  C10 UNL     1     -34.372  16.946  -3.358  1.00 20.00     0.020 C 
BRANCH   4   5
HETATM    5  C7  UNL     1     -35.319  15.758  -3.426  1.00 20.00     0.023 C 
HETATM    6  C4  UNL     1     -36.742  16.198  -3.819  1.00 20.00     0.008 C 
HETATM    7  C3  UNL     1     -37.339  14.958  -4.476  1.00 20.00     0.004 C 
HETATM    8  C5  UNL     1     -36.183  14.408  -5.311  1.00 20.00     0.041 C 
HETATM    9  C8  UNL     1     -34.971  14.745  -4.492  1.00 20.00     0.086 A 
HETATM   10  C6  UNL     1     -33.571  14.387  -4.937  1.00 20.00     0.207 A 
HETATM   11  O11 UNL     1     -34.279  13.593  -3.982  1.00 20.00    -0.375 OA
ENDBRANCH   4   5
ENDBRANCH   3   4
TORSDOF 2
ENDMDL
MODEL 6
REMARK VINA RESULT:      -4.4     11.145     12.284
REMARK  2 active torsions:
REMARK  status: ('A' for Active; 'I' for Inactive)
REMARK    1  A    between atoms: C7_7  and  C10_10 
REMARK    2  A    between atoms: C9_9  and  C10_10 
ROOT
HETATM    1  C1  UNL     1     -35.443  17.300  -0.603  1.00 20.00     0.012 C 
HETATM    2  C2  UNL     1     -34.759  16.999  -1.543  1.00 20.00    -0.117 C 
HETATM    3  C9  UNL     1     -33.918  16.634  -2.690  1.00 20.00     0.093 C 
ENDROOT
BRANCH   3   4
HETATM    4  C10 UNL     1     -34.510  15.440  -3.415  1.00 20.00     0.020 C 
BRANCH   4   5
HETATM    5  C7  UNL     1     -34.686  15.739  -4.895  1.00 20.00     0.023 C 
HETATM    6  C4  UNL     1     -33.355  16.166  -5.544  1.00 20.00     0.008 C 
HETATM    7  C3  UNL     1     -33.521  15.778  -7.009  1.00 20.00     0.004 C 
HETATM    8  C5  UNL     1     -34.224  14.423  -6.939  1.00 20.00     0.041 C 
HETATM    9  C8  UNL     1     -35.100  14.547  -5.727  1.00 20.00     0.086 A 
HETATM   10  C6  UNL     1     -35.996  13.422  -5.260  1.00 20.00     0.207 A 
HETATM   11  O11 UNL     1     -36.507  14.518  -6.023  1.00 20.00    -0.375 OA
ENDBRANCH   4   5
ENDBRANCH   3   4
TORSDOF 2
ENDMDL
MODEL 7
REMARK VINA RESULT:      -4.4     11.089     12.320
REMARK  2 active torsions:
REMARK  status: ('A' for Active; 'I' for Inactive)
REMARK    1  A    between atoms: C7_7  and  C10_10 
REMARK    2  A    between atoms: C9_9  and  C10_10 
ROOT
HETATM    1  C1  UNL     1     -35.100  17.547  -0.246  1.00 20.00     0.012 C 
HETATM    2  C2  UNL     1     -35.164  16.985  -1.306  1.00 20.00    -0.117 C 
HETATM    3  C9  UNL     1     -35.247  16.297  -2.600  1.00 20.00     0.093 C 
ENDROOT
BRANCH   3   4
HETATM    4  C10 UNL     1     -33.866  16.171  -3.217  1.00 20.00     0.020 C 
BRANCH   4   5
HETATM    5  C7  UNL     1     -33.900  15.262  -4.435  1.00 20.00     0.023 C 
HETATM    6  C4  UNL     1     -34.905  14.109  -4.246  1.00 20.00     0.008 C 
HETATM    7  C3  UNL     1     -35.309  13.741  -5.670  1.00 20.00     0.004 C 
HETATM    8  C5  UNL     1     -35.443  15.097  -6.362  1.00 20.00     0.041 C 
HETATM    9  C8  UNL     1     -34.387  15.932  -5.699  1.00 20.00     0.086 A 
HETATM   10  C6  UNL     1     -34.150  17.378  -6.071  1.00 20.00     0.207 A 
HETATM   11  O11 UNL     1     -33.323  16.329  -6.582  1.00 20.00    -0.375 OA
ENDBRANCH   4   5
ENDBRANCH   3   4
TORSDOF 2
ENDMDL
MODEL 8
REMARK VINA RESULT:      -4.2     10.617     12.533
REMARK  2 active torsions:
REMARK  status: ('A' for Active; 'I' for Inactive)
REMARK    1  A    between atoms: C7_7  and  C10_10 
REMARK    2  A    between atoms: C9_9  and  C10_10 
ROOT
HETATM    1  C1  UNL     1     -37.139  17.701  -4.946  1.00 20.00     0.012 C 
HETATM    2  C2  UNL     1     -36.208  17.495  -5.676  1.00 20.00    -0.117 C 
HETATM    3  C9  UNL     1     -35.067  17.248  -6.568  1.00 20.00     0.093 C 
ENDROOT
BRANCH   3   4
HETATM    4  C10 UNL     1     -35.171  15.863  -7.181  1.00 20.00     0.020 C 
BRANCH   4   5
HETATM    5  C7  UNL     1     -34.345  14.860  -6.393  1.00 20.00     0.023 C 
HETATM    6  C4  UNL     1     -33.204  15.554  -5.624  1.00 20.00     0.008 C 
HETATM    7  C3  UNL     1     -32.939  14.624  -4.445  1.00 20.00     0.004 C 
HETATM    8  C5  UNL     1     -34.340  14.197  -4.009  1.00 20.00     0.041 C 
HETATM    9  C8  UNL     1     -35.107  14.149  -5.298  1.00 20.00     0.086 A 
HETATM   10  C6  UNL     1     -36.569  13.769  -5.354  1.00 20.00     0.207 A 
HETATM   11  O11 UNL     1     -35.538  12.828  -5.667  1.00 20.00    -0.375 OA
ENDBRANCH   4   5
ENDBRANCH   3   4
TORSDOF 2
ENDMDL
MODEL 9
REMARK VINA RESULT:      -4.2     11.087     11.932
REMARK  2 active torsions:
REMARK  status: ('A' for Active; 'I' for Inactive)
REMARK    1  A    between atoms: C7_7  and  C10_10 
REMARK    2  A    between atoms: C9_9  and  C10_10 
ROOT
HETATM    1  C1  UNL     1     -35.891  13.622  -4.967  1.00 20.00     0.012 C 
HETATM    2  C2  UNL     1     -34.884  14.127  -4.552  1.00 20.00    -0.117 C 
HETATM    3  C9  UNL     1     -33.650  14.741  -4.045  1.00 20.00     0.093 C 
ENDROOT
BRANCH   3   4
HETATM    4  C10 UNL     1     -33.892  16.198  -3.698  1.00 20.00     0.020 C 
BRANCH   4   5
HETATM    5  C7  UNL     1     -35.001  16.331  -2.667  1.00 20.00     0.023 C 
HETATM    6  C4  UNL     1     -34.479  16.961  -1.361  1.00 20.00     0.008 C 
HETATM    7  C3  UNL     1     -35.714  17.620  -0.755  1.00 20.00     0.004 C 
HETATM    8  C5  UNL     1     -36.418  18.234  -1.964  1.00 20.00     0.041 C 
HETATM    9  C8  UNL     1     -36.118  17.266  -3.071  1.00 20.00     0.086 A 
HETATM   10  C6  UNL     1     -36.620  17.471  -4.482  1.00 20.00     0.207 A 
HETATM   11  O11 UNL     1     -37.280  16.583  -3.574  1.00 20.00    -0.375 OA
ENDBRANCH   4   5
ENDBRANCH   3   4
TORSDOF 2
ENDMDL
