MODEL 1
REMARK VINA RESULT:      -5.2      0.000      0.000
REMARK  0 active torsions:
REMARK  status: ('A' for Active; 'I' for Inactive)
ROOT
HETATM    1  C1  UNL     1     -32.935   4.885   2.809  1.00 20.00     0.050 C 
HETATM    2  C2  UNL     1     -32.449   6.093   2.507  1.00 20.00    -0.014 C 
HETATM    3  C3  UNL     1     -33.936   4.721   3.888  1.00 20.00     0.188 C 
HETATM    4  C4  UNL     1     -33.585   7.113   4.521  1.00 20.00     0.064 C 
HETATM    5  C5  UNL     1     -32.787   7.383   3.222  1.00 20.00    -0.026 C 
HETATM    6  C6  UNL     1     -34.595   5.964   4.456  1.00 20.00     0.164 C 
HETATM    7  C7  UNL     1     -33.554   8.313   2.266  1.00 20.00     0.019 C 
HETATM    8  C8  UNL     1     -31.472   8.092   3.609  1.00 20.00     0.019 C 
HETATM    9  C9  UNL     1     -35.862   6.272   3.668  1.00 20.00     0.060 C 
HETATM   10  O10 UNL     1     -34.248   3.593   4.265  1.00 20.00    -0.290 OA
HETATM   11  F11 UNL     1     -34.994   5.723   5.744  1.00 20.00    -0.235 F 
ENDROOT
TORSDOF 0
ENDMDL
MODEL 2
REMARK VINA RESULT:      -5.1      2.467      3.853
REMARK  0 active torsions:
REMARK  status: ('A' for Active; 'I' for Inactive)
ROOT
HETATM    1  C1  UNL     1     -33.152   7.586   5.342  1.00 20.00     0.050 C 
HETATM    2  C2  UNL     1     -34.090   6.635   5.285  1.00 20.00    -0.014 C 
HETATM    3  C3  UNL     1     -32.305   7.882   4.163  1.00 20.00     0.188 C 
HETATM    4  C4  UNL     1     -33.262   5.877   3.021  1.00 20.00     0.064 C 
HETATM    5  C5  UNL     1     -34.365   5.738   4.098  1.00 20.00    -0.026 C 
HETATM    6  C6  UNL     1     -32.696   7.285   2.824  1.00 20.00     0.164 C 
HETATM    7  C7  UNL     1     -35.759   6.054   3.529  1.00 20.00     0.019 C 
HETATM    8  C8  UNL     1     -34.379   4.272   4.581  1.00 20.00     0.019 C 
HETATM    9  C9  UNL     1     -33.620   8.248   2.090  1.00 20.00     0.060 C 
HETATM   10  O10 UNL     1     -31.341   8.637   4.279  1.00 20.00    -0.290 OA
HETATM   11  F11 UNL     1     -31.581   7.151   2.039  1.00 20.00    -0.235 F 
ENDROOT
TORSDOF 0
ENDMDL
MODEL 3
REMARK VINA RESULT:      -5.0     11.571     12.367
REMARK  0 active torsions:
REMARK  status: ('A' for Active; 'I' for Inactive)
ROOT
HETATM    1  C1  UNL     1     -34.328  14.164  -4.326  1.00 20.00     0.050 C 
HETATM    2  C2  UNL     1     -34.143  15.332  -3.703  1.00 20.00    -0.014 C 
HETATM    3  C3  UNL     1     -35.664  13.786  -4.843  1.00 20.00     0.188 C 
HETATM    4  C4  UNL     1     -36.631  15.775  -3.679  1.00 20.00     0.064 C 
HETATM    5  C5  UNL     1     -35.221  16.349  -3.400  1.00 20.00    -0.026 C 
HETATM    6  C6  UNL     1     -36.745  14.850  -4.893  1.00 20.00     0.164 C 
HETATM    7  C7  UNL     1     -34.958  17.631  -4.210  1.00 20.00     0.019 C 
HETATM    8  C8  UNL     1     -35.144  16.719  -1.904  1.00 20.00     0.019 C 
HETATM    9  C9  UNL     1     -36.700  15.557  -6.241  1.00 20.00     0.060 C 
HETATM   10  O10 UNL     1     -35.856  12.646  -5.262  1.00 20.00    -0.290 OA
HETATM   11  F11 UNL     1     -37.977  14.254  -4.814  1.00 20.00    -0.235 F 
ENDROOT
TORSDOF 0
ENDMDL
MODEL 4
REMARK VINA RESULT:      -4.4     11.978     12.765
REMARK  0 active torsions:
REMARK  status: ('A' for Active; 'I' for Inactive)
ROOT
HETATM    1  C1  UNL     1     -33.509  15.323  -6.274  1.00 20.00     0.050 C 
HETATM    2  C2  UNL     1     -33.580  16.287  -5.350  1.00 20.00    -0.014 C 
HETATM    3  C3  UNL     1     -34.431  14.165  -6.230  1.00 20.00     0.188 C 
HETATM    4  C4  UNL     1     -35.231  14.939  -3.993  1.00 20.00     0.064 C 
HETATM    5  C5  UNL     1     -34.517  16.302  -4.163  1.00 20.00    -0.026 C 
HETATM    6  C6  UNL     1     -35.621  14.225  -5.290  1.00 20.00     0.164 C 
HETATM    7  C7  UNL     1     -35.522  17.456  -4.318  1.00 20.00     0.019 C 
HETATM    8  C8  UNL     1     -33.691  16.571  -2.887  1.00 20.00     0.019 C 
HETATM    9  C9  UNL     1     -36.814  14.829  -6.018  1.00 20.00     0.060 C 
HETATM   10  O10 UNL     1     -34.247  13.210  -6.982  1.00 20.00    -0.290 OA
HETATM   11  F11 UNL     1     -35.990  12.953  -4.938  1.00 20.00    -0.235 F 
ENDROOT
TORSDOF 0
ENDMDL
MODEL 5
REMARK VINA RESULT:      -4.4     11.736     13.212
REMARK  0 active torsions:
REMARK  status: ('A' for Active; 'I' for Inactive)
ROOT
HETATM    1  C1  UNL     1     -34.758  14.316  -4.067  1.00 20.00     0.050 C 
HETATM    2  C2  UNL     1     -34.494  15.622  -3.961  1.00 20.00    -0.014 C 
HETATM    3  C3  UNL     1     -35.488  13.786  -5.242  1.00 20.00     0.188 C 
HETATM    4  C4  UNL     1     -35.939  16.133  -5.970  1.00 20.00     0.064 C 
HETATM    5  C5  UNL     1     -34.928  16.691  -4.939  1.00 20.00    -0.026 C 
HETATM    6  C6  UNL     1     -35.689  14.697  -6.438  1.00 20.00     0.164 C 
HETATM    7  C7  UNL     1     -33.689  17.292  -5.625  1.00 20.00     0.019 C 
HETATM    8  C8  UNL     1     -35.623  17.824  -4.154  1.00 20.00     0.019 C 
HETATM    9  C9  UNL     1     -34.521  14.534  -7.403  1.00 20.00     0.060 C 
HETATM   10  O10 UNL     1     -35.869  12.616  -5.247  1.00 20.00    -0.290 OA
HETATM   11  F11 UNL     1     -36.810  14.311  -7.125  1.00 20.00    -0.235 F 
ENDROOT
TORSDOF 0
ENDMDL
MODEL 6
REMARK VINA RESULT:      -4.3     11.758     12.580
REMARK  0 active torsions:
REMARK  status: ('A' for Active; 'I' for Inactive)
ROOT
HETATM    1  C1  UNL     1     -35.911  13.541  -5.963  1.00 20.00     0.050 C 
HETATM    2  C2  UNL     1     -34.614  13.866  -5.959  1.00 20.00    -0.014 C 
HETATM    3  C3  UNL     1     -36.876  14.273  -5.110  1.00 20.00     0.188 C 
HETATM    4  C4  UNL     1     -34.957  15.436  -4.009  1.00 20.00     0.064 C 
HETATM    5  C5  UNL     1     -33.974  14.925  -5.089  1.00 20.00    -0.026 C 
HETATM    6  C6  UNL     1     -36.420  15.558  -4.444  1.00 20.00     0.164 C 
HETATM    7  C7  UNL     1     -33.457  16.072  -5.975  1.00 20.00     0.019 C 
HETATM    8  C8  UNL     1     -32.757  14.304  -4.372  1.00 20.00     0.019 C 
HETATM    9  C9  UNL     1     -36.717  16.738  -5.359  1.00 20.00     0.060 C 
HETATM   10  O10 UNL     1     -38.028  13.858  -4.997  1.00 20.00    -0.290 OA
HETATM   11  F11 UNL     1     -37.150  15.765  -3.302  1.00 20.00    -0.235 F 
ENDROOT
TORSDOF 0
ENDMDL
MODEL 7
REMARK VINA RESULT:      -4.3     12.248     13.064
REMARK  0 active torsions:
REMARK  status: ('A' for Active; 'I' for Inactive)
ROOT
HETATM    1  C1  UNL     1     -36.073  13.803  -5.307  1.00 20.00     0.050 C 
HETATM    2  C2  UNL     1     -36.571  14.781  -4.543  1.00 20.00    -0.014 C 
HETATM    3  C3  UNL     1     -34.764  13.964  -5.981  1.00 20.00     0.188 C 
HETATM    4  C4  UNL     1     -34.743  16.362  -5.280  1.00 20.00     0.064 C 
HETATM    5  C5  UNL     1     -35.935  16.135  -4.319  1.00 20.00    -0.026 C 
HETATM    6  C6  UNL     1     -33.883  15.131  -5.578  1.00 20.00     0.164 C 
HETATM    7  C7  UNL     1     -35.510  16.264  -2.846  1.00 20.00     0.019 C 
HETATM    8  C8  UNL     1     -36.989  17.227  -4.598  1.00 20.00     0.019 C 
HETATM    9  C9  UNL     1     -32.964  14.705  -4.441  1.00 20.00     0.060 C 
HETATM   10  O10 UNL     1     -34.398  13.131  -6.809  1.00 20.00    -0.290 OA
HETATM   11  F11 UNL     1     -33.066  15.471  -6.624  1.00 20.00    -0.235 F 
ENDROOT
TORSDOF 0
ENDMDL
MODEL 8
REMARK VINA RESULT:      -4.2     11.862     12.838
REMARK  0 active torsions:
REMARK  status: ('A' for Active; 'I' for Inactive)
ROOT
HETATM    1  C1  UNL     1     -35.173  13.987  -4.486  1.00 20.00     0.050 C 
HETATM    2  C2  UNL     1     -34.203  14.824  -4.105  1.00 20.00    -0.014 C 
HETATM    3  C3  UNL     1     -36.529  14.494  -4.797  1.00 20.00     0.188 C 
HETATM    4  C4  UNL     1     -35.847  16.735  -3.926  1.00 20.00     0.064 C 
HETATM    5  C5  UNL     1     -34.358  16.314  -3.891  1.00 20.00    -0.026 C 
HETATM    6  C6  UNL     1     -36.726  15.992  -4.936  1.00 20.00     0.164 C 
HETATM    7  C7  UNL     1     -33.528  17.072  -4.942  1.00 20.00     0.019 C 
HETATM    8  C8  UNL     1     -33.793  16.674  -2.501  1.00 20.00     0.019 C 
HETATM    9  C9  UNL     1     -36.513  16.399  -6.388  1.00 20.00     0.060 C 
HETATM   10  O10 UNL     1     -37.450  13.700  -4.982  1.00 20.00    -0.290 OA
HETATM   11  F11 UNL     1     -38.024  16.313  -4.634  1.00 20.00    -0.235 F 
ENDROOT
TORSDOF 0
ENDMDL
MODEL 9
REMARK VINA RESULT:      -4.2     12.124     13.356
REMARK  0 active torsions:
REMARK  status: ('A' for Active; 'I' for Inactive)
ROOT
HETATM    1  C1  UNL     1     -36.094  14.072  -7.026  1.00 20.00     0.050 C 
HETATM    2  C2  UNL     1     -35.816  15.272  -7.547  1.00 20.00    -0.014 C 
HETATM    3  C3  UNL     1     -35.787  13.775  -5.608  1.00 20.00     0.188 C 
HETATM    4  C4  UNL     1     -34.560  15.947  -5.461  1.00 20.00     0.064 C 
HETATM    5  C5  UNL     1     -35.132  16.410  -6.822  1.00 20.00    -0.026 C 
HETATM    6  C6  UNL     1     -35.405  14.926  -4.695  1.00 20.00     0.164 C 
HETATM    7  C7  UNL     1     -36.119  17.578  -6.657  1.00 20.00     0.019 C 
HETATM    8  C8  UNL     1     -33.957  16.911  -7.689  1.00 20.00     0.019 C 
HETATM    9  C9  UNL     1     -36.659  15.495  -4.044  1.00 20.00     0.060 C 
HETATM   10  O10 UNL     1     -35.893  12.624  -5.189  1.00 20.00    -0.290 OA
HETATM   11  F11 UNL     1     -34.621  14.459  -3.673  1.00 20.00    -0.235 F 
ENDROOT
TORSDOF 0
ENDMDL
