MODEL 1
REMARK VINA RESULT:      -5.4      0.000      0.000
REMARK  0 active torsions:
REMARK  status: ('A' for Active; 'I' for Inactive)
ROOT
HETATM    1  C1  UNL     1     -35.451  17.808   1.164  1.00 20.00     0.154 A 
HETATM    2  C2  UNL     1     -34.437  18.011   0.260  1.00 20.00     0.005 A 
HETATM    3  C3  UNL     1     -33.387  18.574   0.974  1.00 20.00     0.013 A 
HETATM    4  C4  UNL     1     -33.733  18.573   2.289  1.00 20.00     0.062 A 
HETATM    5  C5  UNL     1     -32.918  17.764  -1.548  1.00 20.00     0.143 C 
HETATM    6  C6  UNL     1     -34.193  17.687  -1.099  1.00 20.00    -0.027 C 
HETATM    7  C7  UNL     1     -32.818  18.808   3.422  1.00 20.00     0.066 C 
HETATM    8  C8  UNL     1     -31.430  19.261   2.872  1.00 20.00     0.009 C 
HETATM    9  C9  UNL     1     -31.018  18.614   1.513  1.00 20.00     0.038 C 
HETATM   10  C10 UNL     1     -32.068  18.894   0.412  1.00 20.00     0.164 C 
HETATM   11  C11 UNL     1     -35.353  17.218  -1.913  1.00 20.00     0.051 C 
HETATM   12  O12 UNL     1     -35.017  18.139   2.435  1.00 20.00    -0.326 OA
HETATM   13  O13 UNL     1     -31.801  18.168  -0.815  1.00 20.00    -0.352 OA
ENDROOT
TORSDOF 0
ENDMDL
MODEL 2
REMARK VINA RESULT:      -5.0     11.742     12.291
REMARK  0 active torsions:
REMARK  status: ('A' for Active; 'I' for Inactive)
ROOT
HETATM    1  C1  UNL     1     -33.222   5.953   1.724  1.00 20.00     0.154 A 
HETATM    2  C2  UNL     1     -32.932   6.986   2.581  1.00 20.00     0.005 A 
HETATM    3  C3  UNL     1     -33.605   6.711   3.764  1.00 20.00     0.013 A 
HETATM    4  C4  UNL     1     -34.165   5.478   3.644  1.00 20.00     0.062 A 
HETATM    5  C5  UNL     1     -31.815   8.718   3.759  1.00 20.00     0.143 C 
HETATM    6  C6  UNL     1     -32.070   8.113   2.575  1.00 20.00    -0.027 C 
HETATM    7  C7  UNL     1     -34.721   4.672   4.748  1.00 20.00     0.066 C 
HETATM    8  C8  UNL     1     -34.755   5.538   6.046  1.00 20.00     0.009 C 
HETATM    9  C9  UNL     1     -33.580   6.555   6.189  1.00 20.00     0.038 C 
HETATM   10  C10 UNL     1     -33.521   7.524   4.985  1.00 20.00     0.164 C 
HETATM   11  C11 UNL     1     -31.456   8.502   1.273  1.00 20.00     0.051 C 
HETATM   12  O12 UNL     1     -33.977   4.998   2.382  1.00 20.00    -0.326 OA
HETATM   13  O13 UNL     1     -32.343   8.370   5.003  1.00 20.00    -0.352 OA
ENDROOT
TORSDOF 0
ENDMDL
MODEL 3
REMARK VINA RESULT:      -4.9      3.938      7.253
REMARK  0 active torsions:
REMARK  status: ('A' for Active; 'I' for Inactive)
ROOT
HETATM    1  C1  UNL     1     -33.307  14.934  -3.816  1.00 20.00     0.154 A 
HETATM    2  C2  UNL     1     -34.281  15.854  -3.512  1.00 20.00     0.005 A 
HETATM    3  C3  UNL     1     -35.391  15.512  -4.273  1.00 20.00     0.013 A 
HETATM    4  C4  UNL     1     -35.114  14.338  -4.902  1.00 20.00     0.062 A 
HETATM    5  C5  UNL     1     -35.690  17.379  -2.360  1.00 20.00     0.143 C 
HETATM    6  C6  UNL     1     -34.437  16.913  -2.581  1.00 20.00    -0.027 C 
HETATM    7  C7  UNL     1     -36.098  13.468  -5.575  1.00 20.00     0.066 C 
HETATM    8  C8  UNL     1     -37.474  14.201  -5.632  1.00 20.00     0.009 C 
HETATM    9  C9  UNL     1     -37.784  15.114  -4.405  1.00 20.00     0.038 C 
HETATM   10  C10 UNL     1     -36.691  16.191  -4.211  1.00 20.00     0.164 C 
HETATM   11  C11 UNL     1     -33.217  17.386  -1.865  1.00 20.00     0.051 C 
HETATM   12  O12 UNL     1     -33.822  13.974  -4.669  1.00 20.00    -0.326 OA
HETATM   13  O13 UNL     1     -36.861  16.947  -2.984  1.00 20.00    -0.352 OA
ENDROOT
TORSDOF 0
ENDMDL
MODEL 4
REMARK VINA RESULT:      -4.7      1.293      4.100
REMARK  0 active torsions:
REMARK  status: ('A' for Active; 'I' for Inactive)
ROOT
HETATM    1  C1  UNL     1     -35.771  18.247   0.762  1.00 20.00     0.154 A 
HETATM    2  C2  UNL     1     -34.456  18.206   0.367  1.00 20.00     0.005 A 
HETATM    3  C3  UNL     1     -34.442  17.585  -0.875  1.00 20.00     0.013 A 
HETATM    4  C4  UNL     1     -35.734  17.391  -1.254  1.00 20.00     0.062 A 
HETATM    5  C5  UNL     1     -32.177  18.754  -0.016  1.00 20.00     0.143 C 
HETATM    6  C6  UNL     1     -33.224  18.725   0.843  1.00 20.00    -0.027 C 
HETATM    7  C7  UNL     1     -36.190  17.031  -2.611  1.00 20.00     0.066 C 
HETATM    8  C8  UNL     1     -34.947  16.706  -3.497  1.00 20.00     0.009 C 
HETATM    9  C9  UNL     1     -33.673  17.549  -3.180  1.00 20.00     0.038 C 
HETATM   10  C10 UNL     1     -33.244  17.391  -1.702  1.00 20.00     0.164 C 
HETATM   11  C11 UNL     1     -33.197  19.263   2.234  1.00 20.00     0.051 C 
HETATM   12  O12 UNL     1     -36.578  17.757  -0.249  1.00 20.00    -0.326 OA
HETATM   13  O13 UNL     1     -32.167  18.289  -1.332  1.00 20.00    -0.352 OA
ENDROOT
TORSDOF 0
ENDMDL
MODEL 5
REMARK VINA RESULT:      -4.7      4.589      6.964
REMARK  0 active torsions:
REMARK  status: ('A' for Active; 'I' for Inactive)
ROOT
HETATM    1  C1  UNL     1     -33.370  14.422  -5.081  1.00 20.00     0.154 A 
HETATM    2  C2  UNL     1     -34.735  14.426  -5.233  1.00 20.00     0.005 A 
HETATM    3  C3  UNL     1     -35.244  15.140  -4.155  1.00 20.00     0.013 A 
HETATM    4  C4  UNL     1     -34.191  15.655  -3.467  1.00 20.00     0.062 A 
HETATM    5  C5  UNL     1     -36.921  14.494  -6.157  1.00 20.00     0.143 C 
HETATM    6  C6  UNL     1     -35.658  14.008  -6.225  1.00 20.00    -0.027 C 
HETATM    7  C7  UNL     1     -34.267  16.706  -2.433  1.00 20.00     0.066 C 
HETATM    8  C8  UNL     1     -35.766  16.991  -2.105  1.00 20.00     0.009 C 
HETATM    9  C9  UNL     1     -36.741  16.859  -3.316  1.00 20.00     0.038 C 
HETATM   10  C10 UNL     1     -36.664  15.452  -3.953  1.00 20.00     0.164 C 
HETATM   11  C11 UNL     1     -35.148  13.118  -7.308  1.00 20.00     0.051 C 
HETATM   12  O12 UNL     1     -33.019  15.200  -3.992  1.00 20.00    -0.326 OA
HETATM   13  O13 UNL     1     -37.432  15.350  -5.180  1.00 20.00    -0.352 OA
ENDROOT
TORSDOF 0
ENDMDL
MODEL 6
REMARK VINA RESULT:      -4.5      4.516      6.729
REMARK  0 active torsions:
REMARK  status: ('A' for Active; 'I' for Inactive)
ROOT
HETATM    1  C1  UNL     1     -33.865  17.082  -7.071  1.00 20.00     0.154 A 
HETATM    2  C2  UNL     1     -33.906  15.967  -6.269  1.00 20.00     0.005 A 
HETATM    3  C3  UNL     1     -33.625  16.404  -4.981  1.00 20.00     0.013 A 
HETATM    4  C4  UNL     1     -33.556  17.762  -5.011  1.00 20.00     0.062 A 
HETATM    5  C5  UNL     1     -34.497  13.880  -5.303  1.00 20.00     0.143 C 
HETATM    6  C6  UNL     1     -34.264  14.604  -6.424  1.00 20.00    -0.027 C 
HETATM    7  C7  UNL     1     -33.566  18.653  -3.834  1.00 20.00     0.066 C 
HETATM    8  C8  UNL     1     -33.460  17.789  -2.540  1.00 20.00     0.009 C 
HETATM    9  C9  UNL     1     -34.172  16.402  -2.614  1.00 20.00     0.038 C 
HETATM   10  C10 UNL     1     -33.631  15.551  -3.786  1.00 20.00     0.164 C 
HETATM   11  C11 UNL     1     -34.425  14.089  -7.815  1.00 20.00     0.051 C 
HETATM   12  O12 UNL     1     -33.664  18.209  -6.294  1.00 20.00    -0.326 OA
HETATM   13  O13 UNL     1     -34.387  14.328  -3.986  1.00 20.00    -0.352 OA
ENDROOT
TORSDOF 0
ENDMDL
MODEL 7
REMARK VINA RESULT:      -4.4      4.982      6.844
REMARK  0 active torsions:
REMARK  status: ('A' for Active; 'I' for Inactive)
ROOT
HETATM    1  C1  UNL     1     -36.360  13.652  -5.300  1.00 20.00     0.154 A 
HETATM    2  C2  UNL     1     -36.947  14.733  -4.688  1.00 20.00     0.005 A 
HETATM    3  C3  UNL     1     -35.949  15.350  -3.945  1.00 20.00     0.013 A 
HETATM    4  C4  UNL     1     -34.776  14.721  -4.228  1.00 20.00     0.062 A 
HETATM    5  C5  UNL     1     -38.295  16.633  -4.230  1.00 20.00     0.143 C 
HETATM    6  C6  UNL     1     -38.209  15.380  -4.737  1.00 20.00    -0.027 C 
HETATM    7  C7  UNL     1     -33.428  15.220  -3.893  1.00 20.00     0.066 C 
HETATM    8  C8  UNL     1     -33.561  16.480  -2.984  1.00 20.00     0.009 C 
HETATM    9  C9  UNL     1     -34.795  17.385  -3.290  1.00 20.00     0.038 C 
HETATM   10  C10 UNL     1     -36.119  16.592  -3.181  1.00 20.00     0.164 C 
HETATM   11  C11 UNL     1     -39.328  14.656  -5.407  1.00 20.00     0.051 C 
HETATM   12  O12 UNL     1     -35.003  13.645  -5.033  1.00 20.00    -0.326 OA
HETATM   13  O13 UNL     1     -37.269  17.357  -3.622  1.00 20.00    -0.352 OA
ENDROOT
TORSDOF 0
ENDMDL
MODEL 8
REMARK VINA RESULT:      -4.4      4.961      8.086
REMARK  0 active torsions:
REMARK  status: ('A' for Active; 'I' for Inactive)
ROOT
HETATM    1  C1  UNL     1     -36.377  17.099  -4.602  1.00 20.00     0.154 A 
HETATM    2  C2  UNL     1     -35.506  16.057  -4.396  1.00 20.00     0.005 A 
HETATM    3  C3  UNL     1     -35.713  15.165  -5.440  1.00 20.00     0.013 A 
HETATM    4  C4  UNL     1     -36.588  15.740  -6.308  1.00 20.00     0.062 A 
HETATM    5  C5  UNL     1     -33.593  14.769  -3.833  1.00 20.00     0.143 C 
HETATM    6  C6  UNL     1     -34.444  15.770  -3.502  1.00 20.00    -0.027 C 
HETATM    7  C7  UNL     1     -36.868  15.281  -7.683  1.00 20.00     0.066 C 
HETATM    8  C8  UNL     1     -36.156  13.913  -7.918  1.00 20.00     0.009 C 
HETATM    9  C9  UNL     1     -34.790  13.746  -7.183  1.00 20.00     0.038 C 
HETATM   10  C10 UNL     1     -34.943  13.934  -5.655  1.00 20.00     0.164 C 
HETATM   11  C11 UNL     1     -34.305  16.638  -2.297  1.00 20.00     0.051 C 
HETATM   12  O12 UNL     1     -37.045  16.920  -5.801  1.00 20.00    -0.326 OA
HETATM   13  O13 UNL     1     -33.669  13.952  -4.963  1.00 20.00    -0.352 OA
ENDROOT
TORSDOF 0
ENDMDL
MODEL 9
REMARK VINA RESULT:      -4.4      5.191      7.273
REMARK  0 active torsions:
REMARK  status: ('A' for Active; 'I' for Inactive)
ROOT
HETATM    1  C1  UNL     1     -35.902  13.517  -4.932  1.00 20.00     0.154 A 
HETATM    2  C2  UNL     1     -35.357  14.717  -4.545  1.00 20.00     0.005 A 
HETATM    3  C3  UNL     1     -36.405  15.627  -4.508  1.00 20.00     0.013 A 
HETATM    4  C4  UNL     1     -37.556  14.940  -4.736  1.00 20.00     0.062 A 
HETATM    5  C5  UNL     1     -34.036  16.377  -3.479  1.00 20.00     0.143 C 
HETATM    6  C6  UNL     1     -34.091  15.171  -4.092  1.00 20.00    -0.027 C 
HETATM    7  C7  UNL     1     -38.923  15.446  -4.504  1.00 20.00     0.066 C 
HETATM    8  C8  UNL     1     -38.852  16.964  -4.150  1.00 20.00     0.009 C 
HETATM    9  C9  UNL     1     -37.593  17.391  -3.334  1.00 20.00     0.038 C 
HETATM   10  C10 UNL     1     -36.286  17.026  -4.077  1.00 20.00     0.164 C 
HETATM   11  C11 UNL     1     -32.929  14.251  -4.263  1.00 20.00     0.051 C 
HETATM   12  O12 UNL     1     -37.276  13.641  -5.037  1.00 20.00    -0.326 OA
HETATM   13  O13 UNL     1     -35.101  17.255  -3.272  1.00 20.00    -0.352 OA
ENDROOT
TORSDOF 0
ENDMDL
