MODEL 1
REMARK VINA RESULT:      -4.0      0.000      0.000
REMARK  1 active torsions:
REMARK  status: ('A' for Active; 'I' for Inactive)
REMARK    1  A    between atoms: C9_9  and  N10_10 
ROOT
HETATM    1  C1  UNL     1     -34.137  17.171  -1.712  1.00 20.00     0.004 A 
HETATM    2  C2  UNL     1     -33.391  16.716  -2.723  1.00 20.00     0.042 A 
HETATM    3  C3  UNL     1     -35.561  17.001  -1.711  1.00 20.00     0.017 A 
HETATM    4  C4  UNL     1     -36.155  16.371  -2.728  1.00 20.00     0.093 A 
HETATM    5  C5  UNL     1     -34.034  16.014  -3.887  1.00 20.00     0.103 A 
HETATM    6  N10 UNL     1     -35.447  15.858  -3.818  1.00 20.00    -0.339 N 
HETATM    7  S11 UNL     1     -33.076  15.471  -5.174  1.00 20.00    -0.060 SA
ENDROOT
BRANCH   6   8
HETATM    8  C9  UNL     1     -36.213  15.198  -4.860  1.00 20.00     0.027 C 
HETATM    9  C6  UNL     1     -37.693  15.172  -4.459  1.00 20.00     0.038 C 
HETATM   10  C7  UNL     1     -36.044  15.972  -6.171  1.00 20.00     0.038 C 
HETATM   11  C8  UNL     1     -35.703  13.764  -5.033  1.00 20.00     0.038 C 
ENDBRANCH   6   8
TORSDOF 1
ENDMDL
MODEL 2
REMARK VINA RESULT:      -4.0      0.011      1.313
REMARK  1 active torsions:
REMARK  status: ('A' for Active; 'I' for Inactive)
REMARK    1  A    between atoms: C9_9  and  N10_10 
ROOT
HETATM    1  C1  UNL     1     -34.134  17.178  -1.710  1.00 20.00     0.004 A 
HETATM    2  C2  UNL     1     -33.388  16.722  -2.721  1.00 20.00     0.042 A 
HETATM    3  C3  UNL     1     -35.558  17.008  -1.709  1.00 20.00     0.017 A 
HETATM    4  C4  UNL     1     -36.153  16.377  -2.726  1.00 20.00     0.093 A 
HETATM    5  C5  UNL     1     -34.032  16.019  -3.885  1.00 20.00     0.103 A 
HETATM    6  N10 UNL     1     -35.444  15.863  -3.815  1.00 20.00    -0.339 N 
HETATM    7  S11 UNL     1     -33.074  15.475  -5.171  1.00 20.00    -0.060 SA
ENDROOT
BRANCH   6   8
HETATM    8  C9  UNL     1     -36.211  15.203  -4.856  1.00 20.00     0.027 C 
HETATM    9  C6  UNL     1     -36.034  15.964  -6.174  1.00 20.00     0.038 C 
HETATM   10  C7  UNL     1     -35.705  13.766  -5.015  1.00 20.00     0.038 C 
HETATM   11  C8  UNL     1     -37.693  15.192  -4.464  1.00 20.00     0.038 C 
ENDBRANCH   6   8
TORSDOF 1
ENDMDL
MODEL 3
REMARK VINA RESULT:      -3.8      1.494      3.679
REMARK  1 active torsions:
REMARK  status: ('A' for Active; 'I' for Inactive)
REMARK    1  A    between atoms: C9_9  and  N10_10 
ROOT
HETATM    1  C1  UNL     1     -38.019  14.638  -5.385  1.00 20.00     0.004 A 
HETATM    2  C2  UNL     1     -37.079  14.209  -6.234  1.00 20.00     0.042 A 
HETATM    3  C3  UNL     1     -37.668  15.388  -4.214  1.00 20.00     0.017 A 
HETATM    4  C4  UNL     1     -36.386  15.674  -3.968  1.00 20.00     0.093 A 
HETATM    5  C5  UNL     1     -35.627  14.506  -5.976  1.00 20.00     0.103 A 
HETATM    6  N10 UNL     1     -35.346  15.271  -4.810  1.00 20.00    -0.339 N 
HETATM    7  S11 UNL     1     -34.449  13.929  -7.047  1.00 20.00    -0.060 SA
ENDROOT
BRANCH   6   8
HETATM    8  C9  UNL     1     -33.996  15.644  -4.426  1.00 20.00     0.027 C 
HETATM    9  C6  UNL     1     -33.417  16.599  -5.475  1.00 20.00     0.038 C 
HETATM   10  C7  UNL     1     -34.038  16.338  -3.061  1.00 20.00     0.038 C 
HETATM   11  C8  UNL     1     -33.127  14.384  -4.343  1.00 20.00     0.038 C 
ENDBRANCH   6   8
TORSDOF 1
ENDMDL
MODEL 4
REMARK VINA RESULT:      -3.8      1.489      3.701
REMARK  1 active torsions:
REMARK  status: ('A' for Active; 'I' for Inactive)
REMARK    1  A    between atoms: C9_9  and  N10_10 
ROOT
HETATM    1  C1  UNL     1     -38.012  14.629  -5.388  1.00 20.00     0.004 A 
HETATM    2  C2  UNL     1     -37.070  14.205  -6.236  1.00 20.00     0.042 A 
HETATM    3  C3  UNL     1     -37.666  15.380  -4.216  1.00 20.00     0.017 A 
HETATM    4  C4  UNL     1     -36.386  15.671  -3.968  1.00 20.00     0.093 A 
HETATM    5  C5  UNL     1     -35.619  14.508  -5.975  1.00 20.00     0.103 A 
HETATM    6  N10 UNL     1     -35.343  15.273  -4.808  1.00 20.00    -0.339 N 
HETATM    7  S11 UNL     1     -34.437  13.936  -7.044  1.00 20.00    -0.060 SA
ENDROOT
BRANCH   6   8
HETATM    8  C9  UNL     1     -33.995  15.651  -4.421  1.00 20.00     0.027 C 
HETATM    9  C6  UNL     1     -34.037  16.346  -3.056  1.00 20.00     0.038 C 
HETATM   10  C7  UNL     1     -33.128  14.392  -4.336  1.00 20.00     0.038 C 
HETATM   11  C8  UNL     1     -33.418  16.610  -5.468  1.00 20.00     0.038 C 
ENDBRANCH   6   8
TORSDOF 1
ENDMDL
MODEL 5
REMARK VINA RESULT:      -3.8      2.210      3.355
REMARK  1 active torsions:
REMARK  status: ('A' for Active; 'I' for Inactive)
REMARK    1  A    between atoms: C9_9  and  N10_10 
ROOT
HETATM    1  C1  UNL     1     -34.408  15.917  -3.179  1.00 20.00     0.004 A 
HETATM    2  C2  UNL     1     -35.654  15.524  -3.465  1.00 20.00     0.042 A 
HETATM    3  C3  UNL     1     -33.364  15.830  -4.158  1.00 20.00     0.017 A 
HETATM    4  C4  UNL     1     -33.636  15.360  -5.379  1.00 20.00     0.093 A 
HETATM    5  C5  UNL     1     -35.986  14.980  -4.827  1.00 20.00     0.103 A 
HETATM    6  N10 UNL     1     -34.913  14.939  -5.760  1.00 20.00    -0.339 N 
HETATM    7  S11 UNL     1     -37.562  14.460  -5.161  1.00 20.00    -0.060 SA
ENDROOT
BRANCH   6   8
HETATM    8  C9  UNL     1     -35.074  14.445  -7.117  1.00 20.00     0.027 C 
HETATM    9  C6  UNL     1     -33.801  14.742  -7.917  1.00 20.00     0.038 C 
HETATM   10  C7  UNL     1     -35.319  12.934  -7.073  1.00 20.00     0.038 C 
HETATM   11  C8  UNL     1     -36.268  15.147  -7.772  1.00 20.00     0.038 C 
ENDBRANCH   6   8
TORSDOF 1
ENDMDL
MODEL 6
REMARK VINA RESULT:      -3.8      1.735      2.779
REMARK  1 active torsions:
REMARK  status: ('A' for Active; 'I' for Inactive)
REMARK    1  A    between atoms: C9_9  and  N10_10 
ROOT
HETATM    1  C1  UNL     1     -34.934  17.363  -1.336  1.00 20.00     0.004 A 
HETATM    2  C2  UNL     1     -36.066  17.061  -1.979  1.00 20.00     0.042 A 
HETATM    3  C3  UNL     1     -33.655  17.083  -1.923  1.00 20.00     0.017 A 
HETATM    4  C4  UNL     1     -33.589  16.520  -3.134  1.00 20.00     0.093 A 
HETATM    5  C5  UNL     1     -36.022  16.416  -3.337  1.00 20.00     0.103 A 
HETATM    6  N10 UNL     1     -34.725  16.183  -3.874  1.00 20.00    -0.339 N 
HETATM    7  S11 UNL     1     -37.467  16.013  -4.123  1.00 20.00    -0.060 SA
ENDROOT
BRANCH   6   8
HETATM    8  C9  UNL     1     -34.515  15.573  -5.175  1.00 20.00     0.027 C 
HETATM    9  C6  UNL     1     -33.015  15.559  -5.490  1.00 20.00     0.038 C 
HETATM   10  C7  UNL     1     -35.052  14.139  -5.148  1.00 20.00     0.038 C 
HETATM   11  C8  UNL     1     -35.256  16.386  -6.241  1.00 20.00     0.038 C 
ENDBRANCH   6   8
TORSDOF 1
ENDMDL
MODEL 7
REMARK VINA RESULT:      -3.8      1.737      2.508
REMARK  1 active torsions:
REMARK  status: ('A' for Active; 'I' for Inactive)
REMARK    1  A    between atoms: C9_9  and  N10_10 
ROOT
HETATM    1  C1  UNL     1     -34.912  17.361  -1.323  1.00 20.00     0.004 A 
HETATM    2  C2  UNL     1     -36.046  17.065  -1.967  1.00 20.00     0.042 A 
HETATM    3  C3  UNL     1     -33.635  17.080  -1.912  1.00 20.00     0.017 A 
HETATM    4  C4  UNL     1     -33.570  16.525  -3.126  1.00 20.00     0.093 A 
HETATM    5  C5  UNL     1     -36.003  16.428  -3.329  1.00 20.00     0.103 A 
HETATM    6  N10 UNL     1     -34.707  16.195  -3.867  1.00 20.00    -0.339 N 
HETATM    7  S11 UNL     1     -37.450  16.033  -4.117  1.00 20.00    -0.060 SA
ENDROOT
BRANCH   6   8
HETATM    8  C9  UNL     1     -34.499  15.592  -5.172  1.00 20.00     0.027 C 
HETATM    9  C6  UNL     1     -35.235  16.416  -6.234  1.00 20.00     0.038 C 
HETATM   10  C7  UNL     1     -32.998  15.572  -5.480  1.00 20.00     0.038 C 
HETATM   11  C8  UNL     1     -35.046  14.160  -5.162  1.00 20.00     0.038 C 
ENDBRANCH   6   8
TORSDOF 1
ENDMDL
MODEL 8
REMARK VINA RESULT:      -3.7      1.789      2.507
REMARK  1 active torsions:
REMARK  status: ('A' for Active; 'I' for Inactive)
REMARK    1  A    between atoms: C9_9  and  N10_10 
ROOT
HETATM    1  C1  UNL     1     -33.635  17.262  -3.487  1.00 20.00     0.004 A 
HETATM    2  C2  UNL     1     -33.534  17.549  -4.788  1.00 20.00     0.042 A 
HETATM    3  C3  UNL     1     -34.320  16.082  -3.042  1.00 20.00     0.017 A 
HETATM    4  C4  UNL     1     -34.858  15.249  -3.939  1.00 20.00     0.093 A 
HETATM    5  C5  UNL     1     -34.141  16.636  -5.818  1.00 20.00     0.103 A 
HETATM    6  N10 UNL     1     -34.788  15.473  -5.316  1.00 20.00    -0.339 N 
HETATM    7  S11 UNL     1     -34.029  17.032  -7.461  1.00 20.00    -0.060 SA
ENDROOT
BRANCH   6   8
HETATM    8  C9  UNL     1     -35.418  14.492  -6.182  1.00 20.00     0.027 C 
HETATM    9  C6  UNL     1     -34.368  13.910  -7.135  1.00 20.00     0.038 C 
HETATM   10  C7  UNL     1     -36.014  13.374  -5.321  1.00 20.00     0.038 C 
HETATM   11  C8  UNL     1     -36.527  15.171  -6.993  1.00 20.00     0.038 C 
ENDBRANCH   6   8
TORSDOF 1
ENDMDL
MODEL 9
REMARK VINA RESULT:      -3.7      1.914      4.066
REMARK  1 active torsions:
REMARK  status: ('A' for Active; 'I' for Inactive)
REMARK    1  A    between atoms: C9_9  and  N10_10 
ROOT
HETATM    1  C1  UNL     1     -36.005  13.870  -4.988  1.00 20.00     0.004 A 
HETATM    2  C2  UNL     1     -36.957  14.789  -4.796  1.00 20.00     0.042 A 
HETATM    3  C3  UNL     1     -34.698  14.032  -4.421  1.00 20.00     0.017 A 
HETATM    4  C4  UNL     1     -34.425  15.110  -3.678  1.00 20.00     0.093 A 
HETATM    5  C5  UNL     1     -36.674  16.018  -3.975  1.00 20.00     0.103 A 
HETATM    6  N10 UNL     1     -35.367  16.110  -3.422  1.00 20.00    -0.339 N 
HETATM    7  S11 UNL     1     -37.884  17.185  -3.768  1.00 20.00    -0.060 SA
ENDROOT
BRANCH   6   8
HETATM    8  C9  UNL     1     -34.941  17.231  -2.604  1.00 20.00     0.027 C 
HETATM    9  C6  UNL     1     -33.450  17.085  -2.283  1.00 20.00     0.038 C 
HETATM   10  C7  UNL     1     -35.180  18.533  -3.375  1.00 20.00     0.038 C 
HETATM   11  C8  UNL     1     -35.748  17.243  -1.301  1.00 20.00     0.038 C 
ENDBRANCH   6   8
TORSDOF 1
ENDMDL
