MODEL 1
REMARK VINA RESULT:      -4.5      0.000      0.000
REMARK  1 active torsions:
REMARK  status: ('A' for Active; 'I' for Inactive)
REMARK    1  A    between atoms: C6_6  and  C7_7 
ROOT
HETATM    1  C1  UNL     1     -35.736  13.956  -4.923  1.00 20.00     0.146 C 
HETATM    2  C2  UNL     1     -36.707  15.038  -4.424  1.00 20.00     0.091 C 
HETATM    3  C5  UNL     1     -34.561  14.953  -4.993  1.00 20.00     0.160 C 
HETATM    4  C7  UNL     1     -35.445  15.923  -4.102  1.00 20.00    -0.010 C 
HETATM    5  C8  UNL     1     -35.556  17.313  -4.747  1.00 20.00     0.018 C 
HETATM    6  O9  UNL     1     -35.857  12.774  -5.165  1.00 20.00    -0.296 OA
HETATM    7 CL10 UNL     1     -33.014  14.314  -4.377  1.00 20.00    -0.116 Cl
ENDROOT
BRANCH   4   8
HETATM    8  C6  UNL     1     -35.095  16.038  -2.613  1.00 20.00    -0.004 A 
HETATM    9  C3  UNL     1     -33.993  16.919  -2.092  1.00 20.00     0.006 A 
HETATM   10  C4  UNL     1     -35.427  17.248  -1.783  1.00 20.00     0.006 A 
ENDBRANCH   4   8
TORSDOF 1
ENDMDL
MODEL 2
REMARK VINA RESULT:      -4.5     11.997     12.668
REMARK  1 active torsions:
REMARK  status: ('A' for Active; 'I' for Inactive)
REMARK    1  A    between atoms: C6_6  and  C7_7 
ROOT
HETATM    1  C1  UNL     1     -32.292   7.709   3.435  1.00 20.00     0.146 C 
HETATM    2  C2  UNL     1     -32.809   6.569   2.543  1.00 20.00     0.091 C 
HETATM    3  C5  UNL     1     -33.573   7.701   4.294  1.00 20.00     0.160 C 
HETATM    4  C7  UNL     1     -33.893   6.288   3.649  1.00 20.00    -0.010 C 
HETATM    5  C8  UNL     1     -35.309   6.265   3.052  1.00 20.00     0.018 C 
HETATM    6  O9  UNL     1     -31.268   8.359   3.450  1.00 20.00    -0.296 OA
HETATM    7 CL10 UNL     1     -33.286   7.853   6.048  1.00 20.00    -0.116 Cl
ENDROOT
BRANCH   4   8
HETATM    8  C6  UNL     1     -33.641   5.041   4.505  1.00 20.00    -0.004 A 
HETATM    9  C3  UNL     1     -34.550   4.613   5.625  1.00 20.00     0.006 A 
HETATM   10  C4  UNL     1     -34.451   3.780   4.378  1.00 20.00     0.006 A 
ENDBRANCH   4   8
TORSDOF 1
ENDMDL
MODEL 3
REMARK VINA RESULT:      -4.1      1.441      1.596
REMARK  1 active torsions:
REMARK  status: ('A' for Active; 'I' for Inactive)
REMARK    1  A    between atoms: C6_6  and  C7_7 
ROOT
HETATM    1  C1  UNL     1     -35.044  13.778  -6.157  1.00 20.00     0.146 C 
HETATM    2  C2  UNL     1     -35.959  13.798  -4.923  1.00 20.00     0.091 C 
HETATM    3  C5  UNL     1     -34.927  15.316  -6.173  1.00 20.00     0.160 C 
HETATM    4  C7  UNL     1     -35.505  15.289  -4.697  1.00 20.00    -0.010 C 
HETATM    5  C8  UNL     1     -36.713  16.228  -4.563  1.00 20.00     0.018 C 
HETATM    6  O9  UNL     1     -34.593  12.888  -6.846  1.00 20.00    -0.296 OA
HETATM    7 CL10 UNL     1     -33.281  15.927  -6.492  1.00 20.00    -0.116 Cl
ENDROOT
BRANCH   4   8
HETATM    8  C6  UNL     1     -34.518  15.500  -3.541  1.00 20.00    -0.004 A 
HETATM    9  C3  UNL     1     -33.760  16.782  -3.331  1.00 20.00     0.006 A 
HETATM   10  C4  UNL     1     -34.822  16.368  -2.351  1.00 20.00     0.006 A 
ENDBRANCH   4   8
TORSDOF 1
ENDMDL
MODEL 4
REMARK VINA RESULT:      -4.0      1.805      2.681
REMARK  1 active torsions:
REMARK  status: ('A' for Active; 'I' for Inactive)
REMARK    1  A    between atoms: C6_6  and  C7_7 
ROOT
HETATM    1  C1  UNL     1     -35.600  13.731  -4.784  1.00 20.00     0.146 C 
HETATM    2  C2  UNL     1     -34.317  14.241  -4.108  1.00 20.00     0.091 C 
HETATM    3  C5  UNL     1     -36.376  15.013  -4.420  1.00 20.00     0.160 C 
HETATM    4  C7  UNL     1     -34.968  15.674  -4.113  1.00 20.00    -0.010 C 
HETATM    5  C8  UNL     1     -34.950  16.302  -2.711  1.00 20.00     0.018 C 
HETATM    6  O9  UNL     1     -35.882  12.710  -5.374  1.00 20.00    -0.296 OA
HETATM    7 CL10 UNL     1     -37.410  15.645  -5.729  1.00 20.00    -0.116 Cl
ENDROOT
BRANCH   4   8
HETATM    8  C6  UNL     1     -34.396  16.646  -5.153  1.00 20.00    -0.004 A 
HETATM    9  C3  UNL     1     -34.901  18.051  -5.333  1.00 20.00     0.006 A 
HETATM   10  C4  UNL     1     -33.520  17.813  -4.791  1.00 20.00     0.006 A 
ENDBRANCH   4   8
TORSDOF 1
ENDMDL
MODEL 5
REMARK VINA RESULT:      -3.9      2.825      3.536
REMARK  1 active torsions:
REMARK  status: ('A' for Active; 'I' for Inactive)
REMARK    1  A    between atoms: C6_6  and  C7_7 
ROOT
HETATM    1  C1  UNL     1     -36.995  14.045  -5.536  1.00 20.00     0.146 C 
HETATM    2  C2  UNL     1     -36.814  14.359  -7.029  1.00 20.00     0.091 C 
HETATM    3  C5  UNL     1     -35.474  13.907  -5.316  1.00 20.00     0.160 C 
HETATM    4  C7  UNL     1     -35.294  14.629  -6.717  1.00 20.00    -0.010 C 
HETATM    5  C8  UNL     1     -34.379  13.812  -7.641  1.00 20.00     0.018 C 
HETATM    6  O9  UNL     1     -37.966  13.945  -4.816  1.00 20.00    -0.296 OA
HETATM    7 CL10 UNL     1     -34.873  14.669  -3.819  1.00 20.00    -0.116 Cl
ENDROOT
BRANCH   4   8
HETATM    8  C6  UNL     1     -34.884  16.107  -6.709  1.00 20.00    -0.004 A 
HETATM    9  C3  UNL     1     -33.501  16.575  -6.351  1.00 20.00     0.006 A 
HETATM   10  C4  UNL     1     -34.001  16.719  -7.760  1.00 20.00     0.006 A 
ENDBRANCH   4   8
TORSDOF 1
ENDMDL
MODEL 6
REMARK VINA RESULT:      -3.8      1.831      2.086
REMARK  1 active torsions:
REMARK  status: ('A' for Active; 'I' for Inactive)
REMARK    1  A    between atoms: C6_6  and  C7_7 
ROOT
HETATM    1  C1  UNL     1     -37.561  14.674  -5.025  1.00 20.00     0.146 C 
HETATM    2  C2  UNL     1     -37.257  15.895  -4.143  1.00 20.00     0.091 C 
HETATM    3  C5  UNL     1     -36.308  14.912  -5.894  1.00 20.00     0.160 C 
HETATM    4  C7  UNL     1     -35.803  15.883  -4.746  1.00 20.00    -0.010 C 
HETATM    5  C8  UNL     1     -35.421  17.257  -5.317  1.00 20.00     0.018 C 
HETATM    6  O9  UNL     1     -38.447  13.847  -5.029  1.00 20.00    -0.296 OA
HETATM    7 CL10 UNL     1     -35.398  13.432  -6.296  1.00 20.00    -0.116 Cl
ENDROOT
BRANCH   4   8
HETATM    8  C6  UNL     1     -34.712  15.361  -3.801  1.00 20.00    -0.004 A 
HETATM    9  C3  UNL     1     -33.268  15.239  -4.201  1.00 20.00     0.006 A 
HETATM   10  C4  UNL     1     -33.679  16.253  -3.170  1.00 20.00     0.006 A 
ENDBRANCH   4   8
TORSDOF 1
ENDMDL
MODEL 7
REMARK VINA RESULT:      -3.7      2.094      2.510
REMARK  1 active torsions:
REMARK  status: ('A' for Active; 'I' for Inactive)
REMARK    1  A    between atoms: C6_6  and  C7_7 
ROOT
HETATM    1  C1  UNL     1     -35.499  13.716  -5.773  1.00 20.00     0.146 C 
HETATM    2  C2  UNL     1     -36.111  14.818  -6.651  1.00 20.00     0.091 C 
HETATM    3  C5  UNL     1     -34.083  14.314  -5.898  1.00 20.00     0.160 C 
HETATM    4  C7  UNL     1     -34.782  15.634  -6.431  1.00 20.00    -0.010 C 
HETATM    5  C8  UNL     1     -34.170  16.078  -7.768  1.00 20.00     0.018 C 
HETATM    6  O9  UNL     1     -35.961  12.750  -5.203  1.00 20.00    -0.296 OA
HETATM    7 CL10 UNL     1     -33.152  14.332  -4.377  1.00 20.00    -0.116 Cl
ENDROOT
BRANCH   4   8
HETATM    8  C6  UNL     1     -34.899  16.819  -5.464  1.00 20.00    -0.004 A 
HETATM    9  C3  UNL     1     -33.733  17.689  -5.085  1.00 20.00     0.006 A 
HETATM   10  C4  UNL     1     -34.853  18.253  -5.913  1.00 20.00     0.006 A 
ENDBRANCH   4   8
TORSDOF 1
ENDMDL
MODEL 8
REMARK VINA RESULT:      -3.7      2.042      2.771
REMARK  1 active torsions:
REMARK  status: ('A' for Active; 'I' for Inactive)
REMARK    1  A    between atoms: C6_6  and  C7_7 
ROOT
HETATM    1  C1  UNL     1     -34.850  15.074  -6.837  1.00 20.00     0.146 C 
HETATM    2  C2  UNL     1     -33.507  15.638  -6.346  1.00 20.00     0.091 C 
HETATM    3  C5  UNL     1     -35.091  14.324  -5.511  1.00 20.00     0.160 C 
HETATM    4  C7  UNL     1     -33.947  15.231  -4.891  1.00 20.00    -0.010 C 
HETATM    5  C8  UNL     1     -32.877  14.371  -4.202  1.00 20.00     0.018 C 
HETATM    6  O9  UNL     1     -35.473  15.183  -7.872  1.00 20.00    -0.296 OA
HETATM    7 CL10 UNL     1     -36.763  14.427  -4.898  1.00 20.00    -0.116 Cl
ENDROOT
BRANCH   4   8
HETATM    8  C6  UNL     1     -34.373  16.398  -3.990  1.00 20.00    -0.004 A 
HETATM    9  C3  UNL     1     -34.999  16.206  -2.636  1.00 20.00     0.006 A 
HETATM   10  C4  UNL     1     -33.621  16.794  -2.750  1.00 20.00     0.006 A 
ENDBRANCH   4   8
TORSDOF 1
ENDMDL
MODEL 9
REMARK VINA RESULT:      -3.6      2.136      3.825
REMARK  1 active torsions:
REMARK  status: ('A' for Active; 'I' for Inactive)
REMARK    1  A    between atoms: C6_6  and  C7_7 
ROOT
HETATM    1  C1  UNL     1     -34.637  15.696  -3.395  1.00 20.00     0.146 C 
HETATM    2  C2  UNL     1     -35.892  15.796  -4.277  1.00 20.00     0.091 C 
HETATM    3  C5  UNL     1     -34.240  14.336  -4.004  1.00 20.00     0.160 C 
HETATM    4  C7  UNL     1     -35.272  14.653  -5.166  1.00 20.00    -0.010 C 
HETATM    5  C8  UNL     1     -36.261  13.492  -5.355  1.00 20.00     0.018 C 
HETATM    6  O9  UNL     1     -34.154  16.416  -2.547  1.00 20.00    -0.296 OA
HETATM    7 CL10 UNL     1     -32.500  14.166  -4.359  1.00 20.00    -0.116 Cl
ENDROOT
BRANCH   4   8
HETATM    8  C6  UNL     1     -34.706  15.114  -6.516  1.00 20.00    -0.004 A 
HETATM    9  C3  UNL     1     -34.134  14.166  -7.534  1.00 20.00     0.006 A 
HETATM   10  C4  UNL     1     -35.418  14.893  -7.822  1.00 20.00     0.006 A 
ENDBRANCH   4   8
TORSDOF 1
ENDMDL
