MODEL 1
REMARK VINA RESULT:      -4.5      0.000      0.000
REMARK  0 active torsions:
REMARK  status: ('A' for Active; 'I' for Inactive)
ROOT
HETATM    1  C1  UNL     1     -33.669   6.195   2.856  1.00 20.00     0.098 A 
HETATM    2  C2  UNL     1     -32.922   7.247   3.343  1.00 20.00     0.136 A 
HETATM    3  C3  UNL     1     -34.012   6.739   5.177  1.00 20.00     0.253 A 
HETATM    4  N4  UNL     1     -33.118   7.560   4.673  1.00 20.00    -0.201 NA
HETATM    5  F5  UNL     1     -34.399   6.814   6.458  1.00 20.00    -0.176 F 
HETATM    6  S6  UNL     1     -34.658   5.564   4.106  1.00 20.00    -0.048 SA
HETATM    7 CL7  UNL     1     -31.807   8.145   2.401  1.00 20.00    -0.062 Cl
ENDROOT
TORSDOF 0
ENDMDL
MODEL 2
REMARK VINA RESULT:      -4.2      2.071      2.232
REMARK  0 active torsions:
REMARK  status: ('A' for Active; 'I' for Inactive)
ROOT
HETATM    1  C1  UNL     1     -33.733   7.210   4.633  1.00 20.00     0.098 A 
HETATM    2  C2  UNL     1     -33.290   6.815   3.388  1.00 20.00     0.136 A 
HETATM    3  C3  UNL     1     -34.105   4.897   4.073  1.00 20.00     0.253 A 
HETATM    4  N4  UNL     1     -33.503   5.489   3.065  1.00 20.00    -0.201 NA
HETATM    5  F5  UNL     1     -34.434   3.599   4.036  1.00 20.00    -0.176 F 
HETATM    6  S6  UNL     1     -34.446   5.876   5.440  1.00 20.00    -0.048 SA
HETATM    7 CL7  UNL     1     -32.519   7.860   2.270  1.00 20.00    -0.062 Cl
ENDROOT
TORSDOF 0
ENDMDL
MODEL 3
REMARK VINA RESULT:      -3.9      1.761      1.928
REMARK  0 active torsions:
REMARK  status: ('A' for Active; 'I' for Inactive)
ROOT
HETATM    1  C1  UNL     1     -32.903   7.760   4.700  1.00 20.00     0.098 A 
HETATM    2  C2  UNL     1     -32.989   7.335   3.391  1.00 20.00     0.136 A 
HETATM    3  C3  UNL     1     -34.433   5.947   4.285  1.00 20.00     0.253 A 
HETATM    4  N4  UNL     1     -33.866   6.295   3.151  1.00 20.00    -0.201 NA
HETATM    5  F5  UNL     1     -35.334   4.957   4.350  1.00 20.00    -0.176 F 
HETATM    6  S6  UNL     1     -33.959   6.829   5.678  1.00 20.00    -0.048 SA
HETATM    7 CL7  UNL     1     -32.088   8.017   2.102  1.00 20.00    -0.062 Cl
ENDROOT
TORSDOF 0
ENDMDL
MODEL 4
REMARK VINA RESULT:      -3.7      3.360      3.623
REMARK  0 active torsions:
REMARK  status: ('A' for Active; 'I' for Inactive)
ROOT
HETATM    1  C1  UNL     1     -33.672   7.107   4.218  1.00 20.00     0.098 A 
HETATM    2  C2  UNL     1     -34.137   5.895   4.685  1.00 20.00     0.136 A 
HETATM    3  C3  UNL     1     -33.237   5.203   2.809  1.00 20.00     0.253 A 
HETATM    4  N4  UNL     1     -33.888   4.803   3.878  1.00 20.00    -0.201 NA
HETATM    5  F5  UNL     1     -32.864   4.347   1.847  1.00 20.00    -0.176 F 
HETATM    6  S6  UNL     1     -32.890   6.880   2.709  1.00 20.00    -0.048 SA
HETATM    7 CL7  UNL     1     -34.976   5.700   6.167  1.00 20.00    -0.062 Cl
ENDROOT
TORSDOF 0
ENDMDL
MODEL 5
REMARK VINA RESULT:      -3.7      2.845      3.076
REMARK  0 active torsions:
REMARK  status: ('A' for Active; 'I' for Inactive)
ROOT
HETATM    1  C1  UNL     1     -34.241   5.876   4.032  1.00 20.00     0.098 A 
HETATM    2  C2  UNL     1     -33.668   6.926   4.718  1.00 20.00     0.136 A 
HETATM    3  C3  UNL     1     -32.648   7.191   2.795  1.00 20.00     0.253 A 
HETATM    4  N4  UNL     1     -32.753   7.681   4.010  1.00 20.00    -0.201 NA
HETATM    5  F5  UNL     1     -31.825   7.730   1.885  1.00 20.00    -0.176 F 
HETATM    6  S6  UNL     1     -33.619   5.824   2.435  1.00 20.00    -0.048 SA
HETATM    7 CL7  UNL     1     -34.029   7.315   6.348  1.00 20.00    -0.062 Cl
ENDROOT
TORSDOF 0
ENDMDL
MODEL 6
REMARK VINA RESULT:      -3.7      2.720      2.885
REMARK  0 active torsions:
REMARK  status: ('A' for Active; 'I' for Inactive)
ROOT
HETATM    1  C1  UNL     1     -33.505   7.047   3.834  1.00 20.00     0.098 A 
HETATM    2  C2  UNL     1     -33.907   6.712   5.110  1.00 20.00     0.136 A 
HETATM    3  C3  UNL     1     -34.186   4.759   4.153  1.00 20.00     0.253 A 
HETATM    4  N4  UNL     1     -34.298   5.400   5.294  1.00 20.00    -0.201 NA
HETATM    5  F5  UNL     1     -34.501   3.461   4.037  1.00 20.00    -0.176 F 
HETATM    6  S6  UNL     1     -33.616   5.671   2.816  1.00 20.00    -0.048 SA
HETATM    7 CL7  UNL     1     -33.940   7.813   6.423  1.00 20.00    -0.062 Cl
ENDROOT
TORSDOF 0
ENDMDL
MODEL 7
REMARK VINA RESULT:      -3.5      2.830      3.013
REMARK  0 active torsions:
REMARK  status: ('A' for Active; 'I' for Inactive)
ROOT
HETATM    1  C1  UNL     1     -34.034   6.015   3.287  1.00 20.00     0.098 A 
HETATM    2  C2  UNL     1     -33.948   6.323   4.628  1.00 20.00     0.136 A 
HETATM    3  C3  UNL     1     -32.448   7.732   3.869  1.00 20.00     0.253 A 
HETATM    4  N4  UNL     1     -33.039   7.307   4.964  1.00 20.00    -0.201 NA
HETATM    5  F5  UNL     1     -31.513   8.691   3.897  1.00 20.00    -0.176 F 
HETATM    6  S6  UNL     1     -32.939   6.992   2.401  1.00 20.00    -0.048 SA
HETATM    7 CL7  UNL     1     -34.886   5.563   5.846  1.00 20.00    -0.062 Cl
ENDROOT
TORSDOF 0
ENDMDL
MODEL 8
REMARK VINA RESULT:      -3.4      3.316      3.601
REMARK  0 active torsions:
REMARK  status: ('A' for Active; 'I' for Inactive)
ROOT
HETATM    1  C1  UNL     1     -33.245   7.353   4.873  1.00 20.00     0.098 A 
HETATM    2  C2  UNL     1     -33.873   6.601   3.903  1.00 20.00     0.136 A 
HETATM    3  C3  UNL     1     -32.389   7.603   2.636  1.00 20.00     0.253 A 
HETATM    4  N4  UNL     1     -33.383   6.743   2.619  1.00 20.00    -0.201 NA
HETATM    5  F5  UNL     1     -31.723   7.935   1.521  1.00 20.00    -0.176 F 
HETATM    6  S6  UNL     1     -31.990   8.279   4.161  1.00 20.00    -0.048 SA
HETATM    7 CL7  UNL     1     -35.182   5.539   4.213  1.00 20.00    -0.062 Cl
ENDROOT
TORSDOF 0
ENDMDL
MODEL 9
REMARK VINA RESULT:      -3.3      2.553      2.636
REMARK  0 active torsions:
REMARK  status: ('A' for Active; 'I' for Inactive)
ROOT
HETATM    1  C1  UNL     1     -33.463   5.997   3.082  1.00 20.00     0.098 A 
HETATM    2  C2  UNL     1     -33.947   5.270   4.148  1.00 20.00     0.136 A 
HETATM    3  C3  UNL     1     -33.763   7.220   5.135  1.00 20.00     0.253 A 
HETATM    4  N4  UNL     1     -34.120   5.969   5.327  1.00 20.00    -0.201 NA
HETATM    5  F5  UNL     1     -33.826   8.131   6.116  1.00 20.00    -0.176 F 
HETATM    6  S6  UNL     1     -33.211   7.624   3.562  1.00 20.00    -0.048 SA
HETATM    7 CL7  UNL     1     -34.328   3.600   4.074  1.00 20.00    -0.062 Cl
ENDROOT
TORSDOF 0
ENDMDL
