MODEL 1
REMARK VINA RESULT:      -6.2      0.000      0.000
REMARK  5 active torsions:
REMARK  status: ('A' for Active; 'I' for Inactive)
REMARK    1  A    between atoms: C1_1  and  C3_3 
REMARK    2  A    between atoms: C2_2  and  C5_5 
REMARK    3  A    between atoms: C3_3  and  C8_8 
REMARK    4  A    between atoms: C5_5  and  C7_7 
REMARK    5  A    between atoms: C6_6  and  C7_7 
ROOT
HETATM    1  C1  UNL     1     -33.503   7.013   3.729  1.00 20.00    -0.023 C 
HETATM    2  C2  UNL     1     -32.593   7.655   3.281  1.00 20.00    -0.098 C 
ENDROOT
BRANCH   1   3
HETATM    3  C3  UNL     1     -34.598   6.248   4.276  1.00 20.00     0.266 C 
HETATM    4  O9  UNL     1     -35.451   5.789   3.528  1.00 20.00    -0.277 OA
BRANCH   3   5
HETATM    5  C8  UNL     1     -34.579   6.021   5.756  1.00 20.00     0.435 C 
HETATM    6  F10 UNL     1     -33.789   6.929   6.387  1.00 20.00    -0.205 F 
HETATM    7  F11 UNL     1     -34.088   4.795   6.078  1.00 20.00    -0.205 F 
ENDBRANCH   3   5
ENDBRANCH   1   3
BRANCH   2   8
HETATM    8  C5  UNL     1     -31.482   8.446   2.734  1.00 20.00     0.094 C 
BRANCH   8   9
HETATM    9  C7  UNL     1     -31.587   8.623   1.219  1.00 20.00     0.012 C 
BRANCH   9  10
HETATM   10  C6  UNL     1     -32.529   9.761   0.815  1.00 20.00    -0.004 C 
HETATM   11  C4  UNL     1     -33.222   9.466  -0.507  1.00 20.00     0.005 C 
ENDBRANCH   9  10
ENDBRANCH   8   9
ENDBRANCH   2   8
TORSDOF 5
ENDMDL
MODEL 2
REMARK VINA RESULT:      -6.1      1.677      1.863
REMARK  5 active torsions:
REMARK  status: ('A' for Active; 'I' for Inactive)
REMARK    1  A    between atoms: C1_1  and  C3_3 
REMARK    2  A    between atoms: C2_2  and  C5_5 
REMARK    3  A    between atoms: C3_3  and  C8_8 
REMARK    4  A    between atoms: C5_5  and  C7_7 
REMARK    5  A    between atoms: C6_6  and  C7_7 
ROOT
HETATM    1  C1  UNL     1     -33.321   7.194   3.937  1.00 20.00    -0.023 C 
HETATM    2  C2  UNL     1     -32.722   7.698   3.027  1.00 20.00    -0.098 C 
ENDROOT
BRANCH   1   3
HETATM    3  C3  UNL     1     -34.052   6.592   5.027  1.00 20.00     0.266 C 
HETATM    4  O9  UNL     1     -33.986   7.082   6.146  1.00 20.00    -0.277 OA
BRANCH   3   5
HETATM    5  C8  UNL     1     -34.904   5.409   4.685  1.00 20.00     0.435 C 
HETATM    6  F10 UNL     1     -34.171   4.420   4.109  1.00 20.00    -0.205 F 
HETATM    7  F11 UNL     1     -35.885   5.725   3.799  1.00 20.00    -0.205 F 
ENDBRANCH   3   5
ENDBRANCH   1   3
BRANCH   2   8
HETATM    8  C5  UNL     1     -31.992   8.313   1.910  1.00 20.00     0.094 C 
BRANCH   8   9
HETATM    9  C7  UNL     1     -32.295   9.805   1.771  1.00 20.00     0.012 C 
BRANCH   9  10
HETATM   10  C6  UNL     1     -32.503  10.238   0.316  1.00 20.00    -0.004 C 
HETATM   11  C4  UNL     1     -33.115   9.120  -0.514  1.00 20.00     0.005 C 
ENDBRANCH   9  10
ENDBRANCH   8   9
ENDBRANCH   2   8
TORSDOF 5
ENDMDL
MODEL 3
REMARK VINA RESULT:      -6.0      3.705      5.643
REMARK  5 active torsions:
REMARK  status: ('A' for Active; 'I' for Inactive)
REMARK    1  A    between atoms: C1_1  and  C3_3 
REMARK    2  A    between atoms: C2_2  and  C5_5 
REMARK    3  A    between atoms: C3_3  and  C8_8 
REMARK    4  A    between atoms: C5_5  and  C7_7 
REMARK    5  A    between atoms: C6_6  and  C7_7 
ROOT
HETATM    1  C1  UNL     1     -32.648   7.663   1.985  1.00 20.00    -0.023 C 
HETATM    2  C2  UNL     1     -33.097   6.711   2.561  1.00 20.00    -0.098 C 
ENDROOT
BRANCH   1   3
HETATM    3  C3  UNL     1     -32.110   8.803   1.283  1.00 20.00     0.266 C 
HETATM    4  O9  UNL     1     -30.956   8.778   0.878  1.00 20.00    -0.277 OA
BRANCH   3   5
HETATM    5  C8  UNL     1     -33.050   9.946   1.048  1.00 20.00     0.435 C 
HETATM    6  F10 UNL     1     -33.264  10.147  -0.279  1.00 20.00    -0.205 F 
HETATM    7  F11 UNL     1     -32.563  11.116   1.540  1.00 20.00    -0.205 F 
ENDBRANCH   3   5
ENDBRANCH   1   3
BRANCH   2   8
HETATM    8  C5  UNL     1     -33.650   5.544   3.263  1.00 20.00     0.094 C 
BRANCH   8   9
HETATM    9  C7  UNL     1     -34.862   5.906   4.123  1.00 20.00     0.012 C 
BRANCH   9  10
HETATM   10  C6  UNL     1     -34.535   5.963   5.618  1.00 20.00    -0.004 C 
HETATM   11  C4  UNL     1     -33.772   7.231   5.972  1.00 20.00     0.005 C 
ENDBRANCH   9  10
ENDBRANCH   8   9
ENDBRANCH   2   8
TORSDOF 5
ENDMDL
MODEL 4
REMARK VINA RESULT:      -6.0      3.584      5.771
REMARK  5 active torsions:
REMARK  status: ('A' for Active; 'I' for Inactive)
REMARK    1  A    between atoms: C1_1  and  C3_3 
REMARK    2  A    between atoms: C2_2  and  C5_5 
REMARK    3  A    between atoms: C3_3  and  C8_8 
REMARK    4  A    between atoms: C5_5  and  C7_7 
REMARK    5  A    between atoms: C6_6  and  C7_7 
ROOT
HETATM    1  C1  UNL     1     -32.561   8.245   2.069  1.00 20.00    -0.023 C 
HETATM    2  C2  UNL     1     -33.079   7.662   2.981  1.00 20.00    -0.098 C 
ENDROOT
BRANCH   1   3
HETATM    3  C3  UNL     1     -31.936   8.955   0.979  1.00 20.00     0.266 C 
HETATM    4  O9  UNL     1     -30.868   8.561   0.530  1.00 20.00    -0.277 OA
BRANCH   3   5
HETATM    5  C8  UNL     1     -32.690  10.126   0.426  1.00 20.00     0.435 C 
HETATM    6  F10 UNL     1     -33.413  10.750   1.392  1.00 20.00    -0.205 F 
HETATM    7  F11 UNL     1     -33.575   9.754  -0.536  1.00 20.00    -0.205 F 
ENDBRANCH   3   5
ENDBRANCH   1   3
BRANCH   2   8
HETATM    8  C5  UNL     1     -33.709   6.950   4.102  1.00 20.00     0.094 C 
BRANCH   8   9
HETATM    9  C7  UNL     1     -34.680   5.867   3.628  1.00 20.00     0.012 C 
BRANCH   9  10
HETATM   10  C6  UNL     1     -34.640   4.608   4.500  1.00 20.00    -0.004 C 
HETATM   11  C4  UNL     1     -34.577   4.959   5.979  1.00 20.00     0.005 C 
ENDBRANCH   9  10
ENDBRANCH   8   9
ENDBRANCH   2   8
TORSDOF 5
ENDMDL
MODEL 5
REMARK VINA RESULT:      -5.9      3.717      5.753
REMARK  5 active torsions:
REMARK  status: ('A' for Active; 'I' for Inactive)
REMARK    1  A    between atoms: C1_1  and  C3_3 
REMARK    2  A    between atoms: C2_2  and  C5_5 
REMARK    3  A    between atoms: C3_3  and  C8_8 
REMARK    4  A    between atoms: C5_5  and  C7_7 
REMARK    5  A    between atoms: C6_6  and  C7_7 
ROOT
HETATM    1  C1  UNL     1     -32.466   8.262   2.565  1.00 20.00    -0.023 C 
HETATM    2  C2  UNL     1     -32.772   7.737   3.600  1.00 20.00    -0.098 C 
ENDROOT
BRANCH   1   3
HETATM    3  C3  UNL     1     -32.094   8.901   1.325  1.00 20.00     0.266 C 
HETATM    4  O9  UNL     1     -31.137   8.480   0.689  1.00 20.00    -0.277 OA
BRANCH   3   5
HETATM    5  C8  UNL     1     -32.965  10.031   0.870  1.00 20.00     0.435 C 
HETATM    6  F10 UNL     1     -32.969  10.138  -0.485  1.00 20.00    -0.205 F 
HETATM    7  F11 UNL     1     -32.539  11.229   1.349  1.00 20.00    -0.205 F 
ENDBRANCH   3   5
ENDBRANCH   1   3
BRANCH   2   8
HETATM    8  C5  UNL     1     -33.143   7.098   4.871  1.00 20.00     0.094 C 
BRANCH   8   9
HETATM    9  C7  UNL     1     -34.558   6.520   4.837  1.00 20.00     0.012 C 
BRANCH   9  10
HETATM   10  C6  UNL     1     -34.637   5.106   5.422  1.00 20.00    -0.004 C 
HETATM   11  C4  UNL     1     -34.227   4.058   4.398  1.00 20.00     0.005 C 
ENDBRANCH   9  10
ENDBRANCH   8   9
ENDBRANCH   2   8
TORSDOF 5
ENDMDL
MODEL 6
REMARK VINA RESULT:      -5.8      3.618      5.631
REMARK  5 active torsions:
REMARK  status: ('A' for Active; 'I' for Inactive)
REMARK    1  A    between atoms: C1_1  and  C3_3 
REMARK    2  A    between atoms: C2_2  and  C5_5 
REMARK    3  A    between atoms: C3_3  and  C8_8 
REMARK    4  A    between atoms: C5_5  and  C7_7 
REMARK    5  A    between atoms: C6_6  and  C7_7 
ROOT
HETATM    1  C1  UNL     1     -32.764   7.434   2.538  1.00 20.00    -0.023 C 
HETATM    2  C2  UNL     1     -33.259   6.390   2.864  1.00 20.00    -0.098 C 
ENDROOT
BRANCH   1   3
HETATM    3  C3  UNL     1     -32.177   8.693   2.147  1.00 20.00     0.266 C 
HETATM    4  O9  UNL     1     -31.373   9.244   2.888  1.00 20.00    -0.277 OA
BRANCH   3   5
HETATM    5  C8  UNL     1     -32.567   9.222   0.801  1.00 20.00     0.435 C 
HETATM    6  F10 UNL     1     -31.696   8.819  -0.160  1.00 20.00    -0.205 F 
HETATM    7  F11 UNL     1     -32.572  10.581   0.769  1.00 20.00    -0.205 F 
ENDBRANCH   3   5
ENDBRANCH   1   3
BRANCH   2   8
HETATM    8  C5  UNL     1     -33.870   5.116   3.267  1.00 20.00     0.094 C 
BRANCH   8   9
HETATM    9  C7  UNL     1     -34.992   5.308   4.288  1.00 20.00     0.012 C 
BRANCH   9  10
HETATM   10  C6  UNL     1     -34.474   5.452   5.723  1.00 20.00    -0.004 C 
HETATM   11  C4  UNL     1     -34.063   6.886   6.023  1.00 20.00     0.005 C 
ENDBRANCH   9  10
ENDBRANCH   8   9
ENDBRANCH   2   8
TORSDOF 5
ENDMDL
MODEL 7
REMARK VINA RESULT:      -4.5     11.440     11.940
REMARK  5 active torsions:
REMARK  status: ('A' for Active; 'I' for Inactive)
REMARK    1  A    between atoms: C1_1  and  C3_3 
REMARK    2  A    between atoms: C2_2  and  C5_5 
REMARK    3  A    between atoms: C3_3  and  C8_8 
REMARK    4  A    between atoms: C5_5  and  C7_7 
REMARK    5  A    between atoms: C6_6  and  C7_7 
ROOT
HETATM    1  C1  UNL     1     -34.875  14.714  -4.432  1.00 20.00    -0.023 C 
HETATM    2  C2  UNL     1     -34.541  15.512  -3.600  1.00 20.00    -0.098 C 
ENDROOT
BRANCH   1   3
HETATM    3  C3  UNL     1     -35.282  13.749  -5.425  1.00 20.00     0.266 C 
HETATM    4  O9  UNL     1     -35.968  12.791  -5.095  1.00 20.00    -0.277 OA
BRANCH   3   5
HETATM    5  C8  UNL     1     -34.867  14.029  -6.837  1.00 20.00     0.435 C 
HETATM    6  F10 UNL     1     -34.641  12.879  -7.524  1.00 20.00    -0.205 F 
HETATM    7  F11 UNL     1     -33.712  14.744  -6.896  1.00 20.00    -0.205 F 
ENDBRANCH   3   5
ENDBRANCH   1   3
BRANCH   2   8
HETATM    8  C5  UNL     1     -34.137  16.489  -2.579  1.00 20.00     0.094 C 
BRANCH   8   9
HETATM    9  C7  UNL     1     -35.255  16.772  -1.574  1.00 20.00     0.012 C 
BRANCH   9  10
HETATM   10  C6  UNL     1     -34.805  17.674  -0.421  1.00 20.00    -0.004 C 
HETATM   11  C4  UNL     1     -33.395  18.199  -0.645  1.00 20.00     0.005 C 
ENDBRANCH   9  10
ENDBRANCH   8   9
ENDBRANCH   2   8
TORSDOF 5
ENDMDL
MODEL 8
REMARK VINA RESULT:      -4.3     10.989     11.798
REMARK  5 active torsions:
REMARK  status: ('A' for Active; 'I' for Inactive)
REMARK    1  A    between atoms: C1_1  and  C3_3 
REMARK    2  A    between atoms: C2_2  and  C5_5 
REMARK    3  A    between atoms: C3_3  and  C8_8 
REMARK    4  A    between atoms: C5_5  and  C7_7 
REMARK    5  A    between atoms: C6_6  and  C7_7 
ROOT
HETATM    1  C1  UNL     1     -33.529  16.475  -3.310  1.00 20.00    -0.023 C 
HETATM    2  C2  UNL     1     -33.635  17.038  -2.255  1.00 20.00    -0.098 C 
ENDROOT
BRANCH   1   3
HETATM    3  C3  UNL     1     -33.392  15.802  -4.579  1.00 20.00     0.266 C 
HETATM    4  O9  UNL     1     -33.246  16.458  -5.601  1.00 20.00    -0.277 OA
BRANCH   3   5
HETATM    5  C8  UNL     1     -33.386  14.304  -4.543  1.00 20.00     0.435 C 
HETATM    6  F10 UNL     1     -34.383  13.823  -3.756  1.00 20.00    -0.205 F 
HETATM    7  F11 UNL     1     -32.224  13.811  -4.037  1.00 20.00    -0.205 F 
ENDBRANCH   3   5
ENDBRANCH   1   3
BRANCH   2   8
HETATM    8  C5  UNL     1     -33.759  17.728  -0.964  1.00 20.00     0.094 C 
BRANCH   8   9
HETATM    9  C7  UNL     1     -32.480  18.474  -0.580  1.00 20.00     0.012 C 
BRANCH   9  10
HETATM   10  C6  UNL     1     -32.434  18.855   0.903  1.00 20.00    -0.004 C 
HETATM   11  C4  UNL     1     -31.011  18.831   1.438  1.00 20.00     0.005 C 
ENDBRANCH   9  10
ENDBRANCH   8   9
ENDBRANCH   2   8
TORSDOF 5
ENDMDL
MODEL 9
REMARK VINA RESULT:      -4.3     10.886     11.653
REMARK  5 active torsions:
REMARK  status: ('A' for Active; 'I' for Inactive)
REMARK    1  A    between atoms: C1_1  and  C3_3 
REMARK    2  A    between atoms: C2_2  and  C5_5 
REMARK    3  A    between atoms: C3_3  and  C8_8 
REMARK    4  A    between atoms: C5_5  and  C7_7 
REMARK    5  A    between atoms: C6_6  and  C7_7 
ROOT
HETATM    1  C1  UNL     1     -33.664  16.403  -3.245  1.00 20.00    -0.023 C 
HETATM    2  C2  UNL     1     -33.884  16.928  -2.188  1.00 20.00    -0.098 C 
ENDROOT
BRANCH   1   3
HETATM    3  C3  UNL     1     -33.398  15.781  -4.520  1.00 20.00     0.266 C 
HETATM    4  O9  UNL     1     -33.176  16.478  -5.501  1.00 20.00    -0.277 OA
BRANCH   3   5
HETATM    5  C8  UNL     1     -33.360  14.284  -4.537  1.00 20.00     0.435 C 
HETATM    6  F10 UNL     1     -34.365  13.754  -3.790  1.00 20.00    -0.205 F 
HETATM    7  F11 UNL     1     -32.201  13.797  -4.021  1.00 20.00    -0.205 F 
ENDBRANCH   3   5
ENDBRANCH   1   3
BRANCH   2   8
HETATM    8  C5  UNL     1     -34.152  17.576  -0.897  1.00 20.00     0.094 C 
BRANCH   8   9
HETATM    9  C7  UNL     1     -35.579  17.326  -0.407  1.00 20.00     0.012 C 
BRANCH   9  10
HETATM   10  C6  UNL     1     -35.761  17.638   1.081  1.00 20.00    -0.004 C 
HETATM   11  C4  UNL     1     -34.547  18.357   1.650  1.00 20.00     0.005 C 
ENDBRANCH   9  10
ENDBRANCH   8   9
ENDBRANCH   2   8
TORSDOF 5
ENDMDL
