MODEL 1
REMARK VINA RESULT:      -4.2      0.000      0.000
REMARK  1 active torsions:
REMARK  status: ('A' for Active; 'I' for Inactive)
REMARK    1  A    between atoms: C2_2  and  C4_4 
ROOT
HETATM    1  C1  UNL     1     -34.437   5.066   4.890  1.00 20.00     0.171 A 
HETATM    2  C2  UNL     1     -33.985   6.444   4.448  1.00 20.00     0.175 A 
HETATM    3  C3  UNL     1     -34.139   3.826   4.125  1.00 20.00     0.044 C 
HETATM    4  O5  UNL     1     -35.327   5.976   4.233  1.00 20.00    -0.352 OA
HETATM    5 CL6  UNL     1     -33.732   7.648   5.715  1.00 20.00    -0.084 Cl
ENDROOT
BRANCH   2   6
HETATM    6  C4  UNL     1     -33.208   6.657   3.190  1.00 20.00     0.172 C 
HETATM    7 CL7  UNL     1     -31.961   7.914   3.411  1.00 20.00    -0.126 Cl
ENDBRANCH   2   6
TORSDOF 1
ENDMDL
MODEL 2
REMARK VINA RESULT:      -4.0      1.841      2.951
REMARK  1 active torsions:
REMARK  status: ('A' for Active; 'I' for Inactive)
REMARK    1  A    between atoms: C2_2  and  C4_4 
ROOT
HETATM    1  C1  UNL     1     -32.924   6.055   2.829  1.00 20.00     0.171 A 
HETATM    2  C2  UNL     1     -34.077   5.724   3.756  1.00 20.00     0.175 A 
HETATM    3  C3  UNL     1     -32.339   7.417   2.710  1.00 20.00     0.044 C 
HETATM    4  O5  UNL     1     -34.267   5.936   2.348  1.00 20.00    -0.352 OA
HETATM    5 CL6  UNL     1     -34.171   4.065   4.355  1.00 20.00    -0.084 Cl
ENDROOT
BRANCH   2   6
HETATM    6  C4  UNL     1     -34.721   6.759   4.619  1.00 20.00     0.172 C 
HETATM    7 CL7  UNL     1     -33.692   7.159   6.020  1.00 20.00    -0.126 Cl
ENDBRANCH   2   6
TORSDOF 1
ENDMDL
MODEL 3
REMARK VINA RESULT:      -4.0      2.171      3.333
REMARK  1 active torsions:
REMARK  status: ('A' for Active; 'I' for Inactive)
REMARK    1  A    between atoms: C2_2  and  C4_4 
ROOT
HETATM    1  C1  UNL     1     -33.072   7.226   4.431  1.00 20.00     0.171 A 
HETATM    2  C2  UNL     1     -33.846   6.189   3.639  1.00 20.00     0.175 A 
HETATM    3  C3  UNL     1     -33.477   7.685   5.786  1.00 20.00     0.044 C 
HETATM    4  O5  UNL     1     -33.971   7.597   3.380  1.00 20.00    -0.352 OA
HETATM    5 CL6  UNL     1     -32.932   5.221   2.480  1.00 20.00    -0.084 Cl
ENDROOT
BRANCH   2   6
HETATM    6  C4  UNL     1     -35.092   5.557   4.169  1.00 20.00     0.172 C 
HETATM    7 CL7  UNL     1     -34.717   4.373   5.450  1.00 20.00    -0.126 Cl
ENDBRANCH   2   6
TORSDOF 1
ENDMDL
MODEL 4
REMARK VINA RESULT:      -3.9      2.342      3.534
REMARK  1 active torsions:
REMARK  status: ('A' for Active; 'I' for Inactive)
REMARK    1  A    between atoms: C2_2  and  C4_4 
ROOT
HETATM    1  C1  UNL     1     -32.255   7.251   2.857  1.00 20.00     0.171 A 
HETATM    2  C2  UNL     1     -33.394   6.522   3.544  1.00 20.00     0.175 A 
HETATM    3  C3  UNL     1     -31.526   8.389   3.476  1.00 20.00     0.044 C 
HETATM    4  O5  UNL     1     -33.624   7.520   2.536  1.00 20.00    -0.352 OA
HETATM    5 CL6  UNL     1     -33.649   4.833   3.097  1.00 20.00    -0.084 Cl
ENDROOT
BRANCH   2   6
HETATM    6  C4  UNL     1     -33.877   6.910   4.903  1.00 20.00     0.172 C 
HETATM    7 CL7  UNL     1     -34.572   5.509   5.762  1.00 20.00    -0.126 Cl
ENDBRANCH   2   6
TORSDOF 1
ENDMDL
MODEL 5
REMARK VINA RESULT:      -3.9      1.746      2.307
REMARK  1 active torsions:
REMARK  status: ('A' for Active; 'I' for Inactive)
REMARK    1  A    between atoms: C2_2  and  C4_4 
ROOT
HETATM    1  C1  UNL     1     -33.721   6.794   5.225  1.00 20.00     0.171 A 
HETATM    2  C2  UNL     1     -33.423   6.973   3.749  1.00 20.00     0.175 A 
HETATM    3  C3  UNL     1     -34.519   5.661   5.764  1.00 20.00     0.044 C 
HETATM    4  O5  UNL     1     -34.458   7.714   4.414  1.00 20.00    -0.352 OA
HETATM    5 CL6  UNL     1     -31.939   7.834   3.329  1.00 20.00    -0.084 Cl
ENDROOT
BRANCH   2   6
HETATM    6  C4  UNL     1     -33.928   6.017   2.718  1.00 20.00     0.172 C 
HETATM    7 CL7  UNL     1     -32.851   4.601   2.572  1.00 20.00    -0.126 Cl
ENDBRANCH   2   6
TORSDOF 1
ENDMDL
MODEL 6
REMARK VINA RESULT:      -3.7      2.481      3.649
REMARK  1 active torsions:
REMARK  status: ('A' for Active; 'I' for Inactive)
REMARK    1  A    between atoms: C2_2  and  C4_4 
ROOT
HETATM    1  C1  UNL     1     -32.300   8.641   2.850  1.00 20.00     0.171 A 
HETATM    2  C2  UNL     1     -32.800   7.411   3.584  1.00 20.00     0.175 A 
HETATM    3  C3  UNL     1     -32.447   8.829   1.383  1.00 20.00     0.044 C 
HETATM    4  O5  UNL     1     -31.417   7.580   3.233  1.00 20.00    -0.352 OA
HETATM    5 CL6  UNL     1     -33.244   7.617   5.281  1.00 20.00    -0.084 Cl
ENDROOT
BRANCH   2   6
HETATM    6  C4  UNL     1     -33.474   6.284   2.873  1.00 20.00     0.172 C 
HETATM    7 CL7  UNL     1     -35.041   5.892   3.630  1.00 20.00    -0.126 Cl
ENDBRANCH   2   6
TORSDOF 1
ENDMDL
MODEL 7
REMARK VINA RESULT:      -3.4     12.577     12.913
REMARK  1 active torsions:
REMARK  status: ('A' for Active; 'I' for Inactive)
REMARK    1  A    between atoms: C2_2  and  C4_4 
ROOT
HETATM    1  C1  UNL     1     -36.605  13.949  -5.724  1.00 20.00     0.171 A 
HETATM    2  C2  UNL     1     -35.095  13.815  -5.751  1.00 20.00     0.175 A 
HETATM    3  C3  UNL     1     -37.336  14.725  -4.687  1.00 20.00     0.044 C 
HETATM    4  O5  UNL     1     -35.944  12.775  -5.239  1.00 20.00    -0.352 OA
HETATM    5 CL6  UNL     1     -34.342  13.555  -7.327  1.00 20.00    -0.084 Cl
ENDROOT
BRANCH   2   6
HETATM    6  C4  UNL     1     -34.225  14.452  -4.717  1.00 20.00     0.172 C 
HETATM    7 CL7  UNL     1     -33.058  15.577  -5.464  1.00 20.00    -0.126 Cl
ENDBRANCH   2   6
TORSDOF 1
ENDMDL
MODEL 8
REMARK VINA RESULT:      -3.3      3.230      4.561
REMARK  1 active torsions:
REMARK  status: ('A' for Active; 'I' for Inactive)
REMARK    1  A    between atoms: C2_2  and  C4_4 
ROOT
HETATM    1  C1  UNL     1     -32.125   9.456   1.353  1.00 20.00     0.171 A 
HETATM    2  C2  UNL     1     -32.126   8.269   2.296  1.00 20.00     0.175 A 
HETATM    3  C3  UNL     1     -33.161   9.668   0.308  1.00 20.00     0.044 C 
HETATM    4  O5  UNL     1     -31.279   8.322   1.137  1.00 20.00    -0.352 OA
HETATM    5 CL6  UNL     1     -31.369   8.499   3.875  1.00 20.00    -0.084 Cl
ENDROOT
BRANCH   2   6
HETATM    6  C4  UNL     1     -33.177   7.209   2.232  1.00 20.00     0.172 C 
HETATM    7 CL7  UNL     1     -33.961   6.984   3.819  1.00 20.00    -0.126 Cl
ENDBRANCH   2   6
TORSDOF 1
ENDMDL
MODEL 9
REMARK VINA RESULT:      -3.3      2.446      3.276
REMARK  1 active torsions:
REMARK  status: ('A' for Active; 'I' for Inactive)
REMARK    1  A    between atoms: C2_2  and  C4_4 
ROOT
HETATM    1  C1  UNL     1     -33.394   7.643   3.244  1.00 20.00     0.171 A 
HETATM    2  C2  UNL     1     -33.986   6.283   3.563  1.00 20.00     0.175 A 
HETATM    3  C3  UNL     1     -32.080   7.822   2.572  1.00 20.00     0.044 C 
HETATM    4  O5  UNL     1     -33.323   7.079   4.558  1.00 20.00    -0.352 OA
HETATM    5 CL6  UNL     1     -35.747   6.174   3.640  1.00 20.00    -0.084 Cl
ENDROOT
BRANCH   2   6
HETATM    6  C4  UNL     1     -33.275   5.013   3.228  1.00 20.00     0.172 C 
HETATM    7 CL7  UNL     1     -33.928   3.644   4.169  1.00 20.00    -0.126 Cl
ENDBRANCH   2   6
TORSDOF 1
ENDMDL
