MODEL 1
REMARK VINA RESULT:      -4.1      0.000      0.000
REMARK  1 active torsions:
REMARK  status: ('A' for Active; 'I' for Inactive)
REMARK    1  A    between atoms: C6_6  and  C9_9 
ROOT
HETATM    1  C1  UNL     1     -33.069  15.614  -5.452  1.00 20.00     0.302 C 
HETATM    2  C2  UNL     1     -33.474  14.724  -4.267  1.00 20.00     0.303 C 
HETATM    3  C3  UNL     1     -35.350  15.721  -6.153  1.00 20.00     0.307 C 
HETATM    4  C4  UNL     1     -34.474  17.361  -4.623  1.00 20.00     0.308 C 
HETATM    5  C5  UNL     1     -35.791  14.852  -4.952  1.00 20.00     0.247 C 
HETATM    6  C6  UNL     1     -34.921  16.476  -3.436  1.00 20.00     0.251 C 
HETATM    7  C7  UNL     1     -35.979  13.383  -5.340  1.00 20.00     0.045 C 
HETATM    8  N10 UNL     1     -34.163  16.540  -5.817  1.00 20.00     0.094 N 
HETATM    9  N11 UNL     1     -34.849  15.034  -3.809  1.00 20.00     0.102 N 
ENDROOT
BRANCH   6  10
HETATM   10  C9  UNL     1     -34.146  16.799  -2.156  1.00 20.00     0.033 C 
HETATM   11  C8  UNL     1     -35.064  17.139  -1.030  1.00 20.00     0.007 C 
ENDBRANCH   6  10
TORSDOF 1
ENDMDL
MODEL 2
REMARK VINA RESULT:      -4.1      1.073      1.262
REMARK  1 active torsions:
REMARK  status: ('A' for Active; 'I' for Inactive)
REMARK    1  A    between atoms: C6_6  and  C9_9 
ROOT
HETATM    1  C1  UNL     1     -33.018  14.492  -4.487  1.00 20.00     0.302 C 
HETATM    2  C2  UNL     1     -34.453  14.132  -4.076  1.00 20.00     0.303 C 
HETATM    3  C3  UNL     1     -33.854  15.640  -6.408  1.00 20.00     0.307 C 
HETATM    4  C4  UNL     1     -33.552  16.816  -4.328  1.00 20.00     0.308 C 
HETATM    5  C5  UNL     1     -35.311  15.319  -6.002  1.00 20.00     0.247 C 
HETATM    6  C6  UNL     1     -35.011  16.482  -3.940  1.00 20.00     0.251 C 
HETATM    7  C7  UNL     1     -35.870  14.114  -6.762  1.00 20.00     0.045 C 
HETATM    8  N10 UNL     1     -32.982  15.777  -5.218  1.00 20.00     0.094 N 
HETATM    9  N11 UNL     1     -35.414  15.169  -4.521  1.00 20.00     0.102 N 
ENDROOT
BRANCH   6  10
HETATM   10  C9  UNL     1     -35.235  16.558  -2.428  1.00 20.00     0.033 C 
HETATM   11  C8  UNL     1     -34.024  17.062  -1.718  1.00 20.00     0.007 C 
ENDBRANCH   6  10
TORSDOF 1
ENDMDL
MODEL 3
REMARK VINA RESULT:      -3.9      1.351      2.680
REMARK  1 active torsions:
REMARK  status: ('A' for Active; 'I' for Inactive)
REMARK    1  A    between atoms: C6_6  and  C9_9 
ROOT
HETATM    1  C1  UNL     1     -36.342  14.779  -5.575  1.00 20.00     0.302 C 
HETATM    2  C2  UNL     1     -36.008  16.270  -5.413  1.00 20.00     0.303 C 
HETATM    3  C3  UNL     1     -34.179  14.395  -6.512  1.00 20.00     0.307 C 
HETATM    4  C4  UNL     1     -34.521  14.212  -4.135  1.00 20.00     0.308 C 
HETATM    5  C5  UNL     1     -33.803  15.884  -6.332  1.00 20.00     0.247 C 
HETATM    6  C6  UNL     1     -34.145  15.703  -3.977  1.00 20.00     0.251 C 
HETATM    7  C7  UNL     1     -33.971  16.681  -7.628  1.00 20.00     0.045 C 
HETATM    8  N10 UNL     1     -35.124  13.948  -5.463  1.00 20.00     0.094 N 
HETATM    9  N11 UNL     1     -34.557  16.472  -5.187  1.00 20.00     0.102 N 
ENDROOT
BRANCH   6  10
HETATM   10  C9  UNL     1     -34.692  16.299  -2.678  1.00 20.00     0.033 C 
HETATM   11  C8  UNL     1     -33.656  17.100  -1.962  1.00 20.00     0.007 C 
ENDBRANCH   6  10
TORSDOF 1
ENDMDL
MODEL 4
REMARK VINA RESULT:      -3.9      1.165      3.653
REMARK  1 active torsions:
REMARK  status: ('A' for Active; 'I' for Inactive)
REMARK    1  A    between atoms: C6_6  and  C9_9 
ROOT
HETATM    1  C1  UNL     1     -34.388  16.761  -5.619  1.00 20.00     0.302 C 
HETATM    2  C2  UNL     1     -35.806  16.444  -5.122  1.00 20.00     0.303 C 
HETATM    3  C3  UNL     1     -33.518  16.293  -3.444  1.00 20.00     0.307 C 
HETATM    4  C4  UNL     1     -33.700  14.537  -5.081  1.00 20.00     0.308 C 
HETATM    5  C5  UNL     1     -34.930  15.939  -2.923  1.00 20.00     0.247 C 
HETATM    6  C6  UNL     1     -35.111  14.199  -4.547  1.00 20.00     0.251 C 
HETATM    7  C7  UNL     1     -35.575  17.102  -2.166  1.00 20.00     0.045 C 
HETATM    8  N10 UNL     1     -33.379  15.969  -4.883  1.00 20.00     0.094 N 
HETATM    9  N11 UNL     1     -35.781  15.432  -4.039  1.00 20.00     0.102 N 
ENDROOT
BRANCH   6  10
HETATM   10  C9  UNL     1     -35.953  13.447  -5.581  1.00 20.00     0.033 C 
HETATM   11  C8  UNL     1     -35.212  13.262  -6.862  1.00 20.00     0.007 C 
ENDBRANCH   6  10
TORSDOF 1
ENDMDL
MODEL 5
REMARK VINA RESULT:      -3.8      1.222      3.733
REMARK  1 active torsions:
REMARK  status: ('A' for Active; 'I' for Inactive)
REMARK    1  A    between atoms: C6_6  and  C9_9 
ROOT
HETATM    1  C1  UNL     1     -34.504  14.080  -4.172  1.00 20.00     0.302 C 
HETATM    2  C2  UNL     1     -33.202  14.878  -4.343  1.00 20.00     0.303 C 
HETATM    3  C3  UNL     1     -35.599  16.040  -3.356  1.00 20.00     0.307 C 
HETATM    4  C4  UNL     1     -35.604  15.540  -5.711  1.00 20.00     0.308 C 
HETATM    5  C5  UNL     1     -34.312  16.876  -3.547  1.00 20.00     0.247 C 
HETATM    6  C6  UNL     1     -34.315  16.378  -5.881  1.00 20.00     0.251 C 
HETATM    7  C7  UNL     1     -33.533  17.043  -2.240  1.00 20.00     0.045 C 
HETATM    8  N10 UNL     1     -35.686  14.950  -4.355  1.00 20.00     0.094 N 
HETATM    9  N11 UNL     1     -33.481  16.301  -4.646  1.00 20.00     0.102 N 
ENDROOT
BRANCH   6  10
HETATM   10  C9  UNL     1     -33.543  15.994  -7.146  1.00 20.00     0.033 C 
HETATM   11  C8  UNL     1     -34.205  14.873  -7.874  1.00 20.00     0.007 C 
ENDBRANCH   6  10
TORSDOF 1
ENDMDL
MODEL 6
REMARK VINA RESULT:      -3.8      1.138      2.090
REMARK  1 active torsions:
REMARK  status: ('A' for Active; 'I' for Inactive)
REMARK    1  A    between atoms: C6_6  and  C9_9 
ROOT
HETATM    1  C1  UNL     1     -34.368  14.227  -4.187  1.00 20.00     0.302 C 
HETATM    2  C2  UNL     1     -35.710  14.857  -4.591  1.00 20.00     0.303 C 
HETATM    3  C3  UNL     1     -33.214  15.794  -5.571  1.00 20.00     0.307 C 
HETATM    4  C4  UNL     1     -33.663  16.315  -3.264  1.00 20.00     0.308 C 
HETATM    5  C5  UNL     1     -34.547  16.469  -5.971  1.00 20.00     0.247 C 
HETATM    6  C6  UNL     1     -34.993  16.983  -3.684  1.00 20.00     0.251 C 
HETATM    7  C7  UNL     1     -35.052  15.985  -7.333  1.00 20.00     0.045 C 
HETATM    8  N10 UNL     1     -33.285  15.233  -4.202  1.00 20.00     0.094 N 
HETATM    9  N11 UNL     1     -35.557  16.301  -4.886  1.00 20.00     0.102 N 
ENDROOT
BRANCH   6  10
HETATM   10  C9  UNL     1     -35.988  17.063  -2.524  1.00 20.00     0.033 C 
HETATM   11  C8  UNL     1     -35.303  16.950  -1.204  1.00 20.00     0.007 C 
ENDBRANCH   6  10
TORSDOF 1
ENDMDL
MODEL 7
REMARK VINA RESULT:      -3.8      1.546      2.387
REMARK  1 active torsions:
REMARK  status: ('A' for Active; 'I' for Inactive)
REMARK    1  A    between atoms: C6_6  and  C9_9 
ROOT
HETATM    1  C1  UNL     1     -36.054  16.564  -6.134  1.00 20.00     0.302 C 
HETATM    2  C2  UNL     1     -34.522  16.550  -6.246  1.00 20.00     0.303 C 
HETATM    3  C3  UNL     1     -36.095  14.189  -6.387  1.00 20.00     0.307 C 
HETATM    4  C4  UNL     1     -35.927  15.172  -4.196  1.00 20.00     0.308 C 
HETATM    5  C5  UNL     1     -34.551  14.141  -6.472  1.00 20.00     0.247 C 
HETATM    6  C6  UNL     1     -34.385  15.118  -4.301  1.00 20.00     0.251 C 
HETATM    7  C7  UNL     1     -34.056  14.058  -7.918  1.00 20.00     0.045 C 
HETATM    8  N10 UNL     1     -36.552  15.308  -5.532  1.00 20.00     0.094 N 
HETATM    9  N11 UNL     1     -33.957  15.285  -5.721  1.00 20.00     0.102 N 
ENDROOT
BRANCH   6  10
HETATM   10  C9  UNL     1     -33.708  16.113  -3.355  1.00 20.00     0.033 C 
HETATM   11  C8  UNL     1     -34.640  16.572  -2.284  1.00 20.00     0.007 C 
ENDBRANCH   6  10
TORSDOF 1
ENDMDL
MODEL 8
REMARK VINA RESULT:      -3.7      1.412      3.476
REMARK  1 active torsions:
REMARK  status: ('A' for Active; 'I' for Inactive)
REMARK    1  A    between atoms: C6_6  and  C9_9 
ROOT
HETATM    1  C1  UNL     1     -34.156  16.490  -6.217  1.00 20.00     0.302 C 
HETATM    2  C2  UNL     1     -35.399  16.766  -5.358  1.00 20.00     0.303 C 
HETATM    3  C3  UNL     1     -33.212  15.203  -4.441  1.00 20.00     0.307 C 
HETATM    4  C4  UNL     1     -34.595  14.143  -6.103  1.00 20.00     0.308 C 
HETATM    5  C5  UNL     1     -34.464  15.438  -3.564  1.00 20.00     0.247 C 
HETATM    6  C6  UNL     1     -35.836  14.390  -5.212  1.00 20.00     0.251 C 
HETATM    7  C7  UNL     1     -34.255  16.567  -2.552  1.00 20.00     0.045 C 
HETATM    8  N10 UNL     1     -33.560  15.179  -5.880  1.00 20.00     0.094 N 
HETATM    9  N11 UNL     1     -35.665  15.646  -4.424  1.00 20.00     0.102 N 
ENDROOT
BRANCH   6  10
HETATM   10  C9  UNL     1     -37.136  14.366  -6.018  1.00 20.00     0.033 C 
HETATM   11  C8  UNL     1     -38.330  14.543  -5.141  1.00 20.00     0.007 C 
ENDBRANCH   6  10
TORSDOF 1
ENDMDL
MODEL 9
REMARK VINA RESULT:      -3.7      1.163      3.661
REMARK  1 active torsions:
REMARK  status: ('A' for Active; 'I' for Inactive)
REMARK    1  A    between atoms: C6_6  and  C9_9 
ROOT
HETATM    1  C1  UNL     1     -35.181  17.708  -4.704  1.00 20.00     0.302 C 
HETATM    2  C2  UNL     1     -35.950  16.713  -3.823  1.00 20.00     0.303 C 
HETATM    3  C3  UNL     1     -33.423  17.784  -3.090  1.00 20.00     0.307 C 
HETATM    4  C4  UNL     1     -33.366  16.164  -4.870  1.00 20.00     0.308 C 
HETATM    5  C5  UNL     1     -34.159  16.759  -2.196  1.00 20.00     0.247 C 
HETATM    6  C6  UNL     1     -34.105  15.154  -3.962  1.00 20.00     0.251 C 
HETATM    7  C7  UNL     1     -34.926  17.434  -1.056  1.00 20.00     0.045 C 
HETATM    8  N10 UNL     1     -33.721  17.559  -4.523  1.00 20.00     0.094 N 
HETATM    9  N11 UNL     1     -35.022  15.872  -3.030  1.00 20.00     0.102 N 
ENDROOT
BRANCH   6  10
HETATM   10  C9  UNL     1     -34.811  14.063  -4.770  1.00 20.00     0.033 C 
HETATM   11  C8  UNL     1     -34.477  14.151  -6.221  1.00 20.00     0.007 C 
ENDBRANCH   6  10
TORSDOF 1
ENDMDL
