MODEL 1
REMARK VINA RESULT:      -4.4      0.000      0.000
REMARK  1 active torsions:
REMARK  status: ('A' for Active; 'I' for Inactive)
REMARK    1  A    between atoms: C8_8  and  C11_11 
ROOT
HETATM    1  C1  UNL     1     -33.491  14.747  -4.539  1.00 20.00    -0.081 C 
HETATM    2  C2  UNL     1     -32.428  14.039  -4.128  1.00 20.00     0.015 C 
HETATM    3  C3  UNL     1     -34.837  14.101  -4.787  1.00 20.00     0.061 C 
HETATM    4  C4  UNL     1     -33.906  16.625  -6.168  1.00 20.00     0.039 C 
HETATM    5  C5  UNL     1     -36.022  14.975  -4.355  1.00 20.00     0.239 C 
HETATM    6  C6  UNL     1     -35.435  16.725  -6.071  1.00 20.00     0.236 C 
HETATM    7  C7  UNL     1     -33.427  16.250  -4.752  1.00 20.00     0.046 C 
HETATM    8  C8  UNL     1     -34.487  16.939  -3.894  1.00 20.00     0.199 C 
HETATM    9  N12 UNL     1     -35.737  16.446  -4.601  1.00 20.00    -0.066 N 
HETATM   10  H32 UNL     1     -36.554  16.996  -4.302  1.00 20.00     0.280 HD
ENDROOT
BRANCH   8  11
HETATM   11  C11 UNL     1     -34.488  16.671  -2.398  1.00 20.00     0.009 C 
HETATM   12  C9  UNL     1     -33.290  17.339  -1.723  1.00 20.00     0.011 C 
HETATM   13  C10 UNL     1     -35.794  17.153  -1.762  1.00 20.00     0.011 C 
ENDBRANCH   8  11
TORSDOF 1
ENDMDL
MODEL 2
REMARK VINA RESULT:      -4.4      1.282      2.968
REMARK  1 active torsions:
REMARK  status: ('A' for Active; 'I' for Inactive)
REMARK    1  A    between atoms: C8_8  and  C11_11 
ROOT
HETATM    1  C1  UNL     1     -36.100  16.406  -4.421  1.00 20.00    -0.081 C 
HETATM    2  C2  UNL     1     -37.399  16.617  -4.162  1.00 20.00     0.015 C 
HETATM    3  C3  UNL     1     -35.365  17.162  -5.508  1.00 20.00     0.061 C 
HETATM    4  C4  UNL     1     -34.573  14.404  -4.551  1.00 20.00     0.039 C 
HETATM    5  C5  UNL     1     -33.922  17.523  -5.131  1.00 20.00     0.239 C 
HETATM    6  C6  UNL     1     -33.278  15.089  -5.012  1.00 20.00     0.236 C 
HETATM    7  C7  UNL     1     -35.267  15.419  -3.621  1.00 20.00     0.046 C 
HETATM    8  C8  UNL     1     -34.060  16.132  -3.015  1.00 20.00     0.199 C 
HETATM    9  N12 UNL     1     -33.285  16.433  -4.287  1.00 20.00    -0.066 N 
HETATM   10  H32 UNL     1     -32.321  16.710  -4.058  1.00 20.00     0.280 HD
ENDROOT
BRANCH   8  11
HETATM   11  C11 UNL     1     -34.306  17.356  -2.150  1.00 20.00     0.009 C 
HETATM   12  C9  UNL     1     -35.300  17.043  -1.031  1.00 20.00     0.011 C 
HETATM   13  C10 UNL     1     -32.993  17.879  -1.562  1.00 20.00     0.011 C 
ENDBRANCH   8  11
TORSDOF 1
ENDMDL
MODEL 3
REMARK VINA RESULT:      -4.3      1.495      3.778
REMARK  1 active torsions:
REMARK  status: ('A' for Active; 'I' for Inactive)
REMARK    1  A    between atoms: C8_8  and  C11_11 
ROOT
HETATM    1  C1  UNL     1     -34.042  18.397  -3.509  1.00 20.00    -0.081 C 
HETATM    2  C2  UNL     1     -33.167  19.040  -4.297  1.00 20.00     0.015 C 
HETATM    3  C3  UNL     1     -35.509  18.768  -3.469  1.00 20.00     0.061 C 
HETATM    4  C4  UNL     1     -34.041  17.479  -1.161  1.00 20.00     0.039 C 
HETATM    5  C5  UNL     1     -36.442  17.555  -3.334  1.00 20.00     0.239 C 
HETATM    6  C6  UNL     1     -35.499  17.009  -1.061  1.00 20.00     0.236 C 
HETATM    7  C7  UNL     1     -33.629  17.232  -2.626  1.00 20.00     0.046 C 
HETATM    8  C8  UNL     1     -34.471  16.003  -2.962  1.00 20.00     0.199 C 
HETATM    9  N12 UNL     1     -35.821  16.482  -2.457  1.00 20.00    -0.066 N 
HETATM   10  H32 UNL     1     -36.476  15.691  -2.388  1.00 20.00     0.280 HD
ENDROOT
BRANCH   8  11
HETATM   11  C11 UNL     1     -34.498  15.521  -4.403  1.00 20.00     0.009 C 
HETATM   12  C9  UNL     1     -33.080  15.326  -4.939  1.00 20.00     0.011 C 
HETATM   13  C10 UNL     1     -35.296  14.220  -4.525  1.00 20.00     0.011 C 
ENDBRANCH   8  11
TORSDOF 1
ENDMDL
MODEL 4
REMARK VINA RESULT:      -4.2      1.449      2.905
REMARK  1 active torsions:
REMARK  status: ('A' for Active; 'I' for Inactive)
REMARK    1  A    between atoms: C8_8  and  C11_11 
ROOT
HETATM    1  C1  UNL     1     -34.920  16.189  -3.046  1.00 20.00    -0.081 C 
HETATM    2  C2  UNL     1     -35.032  16.686  -1.805  1.00 20.00     0.015 C 
HETATM    3  C3  UNL     1     -36.127  15.738  -3.841  1.00 20.00     0.061 C 
HETATM    4  C4  UNL     1     -33.340  14.636  -4.247  1.00 20.00     0.039 C 
HETATM    5  C5  UNL     1     -36.031  16.071  -5.337  1.00 20.00     0.239 C 
HETATM    6  C6  UNL     1     -34.041  14.548  -5.610  1.00 20.00     0.236 C 
HETATM    7  C7  UNL     1     -33.580  16.076  -3.753  1.00 20.00     0.046 C 
HETATM    8  C8  UNL     1     -33.627  16.835  -5.077  1.00 20.00     0.199 C 
HETATM    9  N12 UNL     1     -34.602  15.950  -5.835  1.00 20.00    -0.066 N 
HETATM   10  H32 UNL     1     -34.580  16.178  -6.839  1.00 20.00     0.280 HD
ENDROOT
BRANCH   8  11
HETATM   11  C11 UNL     1     -34.029  18.300  -5.053  1.00 20.00     0.009 C 
HETATM   12  C9  UNL     1     -33.096  19.107  -4.149  1.00 20.00     0.011 C 
HETATM   13  C10 UNL     1     -34.034  18.884  -6.468  1.00 20.00     0.011 C 
ENDBRANCH   8  11
TORSDOF 1
ENDMDL
MODEL 5
REMARK VINA RESULT:      -4.2      1.308      3.426
REMARK  1 active torsions:
REMARK  status: ('A' for Active; 'I' for Inactive)
REMARK    1  A    between atoms: C8_8  and  C11_11 
ROOT
HETATM    1  C1  UNL     1     -34.012  16.247  -4.646  1.00 20.00    -0.081 C 
HETATM    2  C2  UNL     1     -32.995  15.650  -5.286  1.00 20.00     0.015 C 
HETATM    3  C3  UNL     1     -34.539  17.603  -5.065  1.00 20.00     0.061 C 
HETATM    4  C4  UNL     1     -34.742  16.521  -2.249  1.00 20.00     0.039 C 
HETATM    5  C5  UNL     1     -36.064  17.728  -4.947  1.00 20.00     0.239 C 
HETATM    6  C6  UNL     1     -35.955  17.441  -2.445  1.00 20.00     0.236 C 
HETATM    7  C7  UNL     1     -34.728  15.590  -3.478  1.00 20.00     0.046 C 
HETATM    8  C8  UNL     1     -36.221  15.483  -3.780  1.00 20.00     0.199 C 
HETATM    9  N12 UNL     1     -36.587  16.956  -3.748  1.00 20.00    -0.066 N 
HETATM   10  H32 UNL     1     -37.609  17.067  -3.703  1.00 20.00     0.280 HD
ENDROOT
BRANCH   8  11
HETATM   11  C11 UNL     1     -36.649  14.777  -5.056  1.00 20.00     0.009 C 
HETATM   12  C9  UNL     1     -35.966  13.415  -5.181  1.00 20.00     0.011 C 
HETATM   13  C10 UNL     1     -38.170  14.615  -5.103  1.00 20.00     0.011 C 
ENDBRANCH   8  11
TORSDOF 1
ENDMDL
MODEL 6
REMARK VINA RESULT:      -4.1      1.217      3.589
REMARK  1 active torsions:
REMARK  status: ('A' for Active; 'I' for Inactive)
REMARK    1  A    between atoms: C8_8  and  C11_11 
ROOT
HETATM    1  C1  UNL     1     -35.306  14.527  -4.571  1.00 20.00    -0.081 C 
HETATM    2  C2  UNL     1     -36.211  13.646  -5.023  1.00 20.00     0.015 C 
HETATM    3  C3  UNL     1     -33.833  14.190  -4.484  1.00 20.00     0.061 C 
HETATM    4  C4  UNL     1     -35.196  16.231  -2.718  1.00 20.00     0.039 C 
HETATM    5  C5  UNL     1     -32.916  15.365  -4.848  1.00 20.00     0.239 C 
HETATM    6  C6  UNL     1     -33.743  16.700  -2.876  1.00 20.00     0.236 C 
HETATM    7  C7  UNL     1     -35.691  15.934  -4.147  1.00 20.00     0.046 C 
HETATM    8  C8  UNL     1     -34.889  16.954  -4.952  1.00 20.00     0.199 C 
HETATM    9  N12 UNL     1     -33.506  16.686  -4.384  1.00 20.00    -0.066 N 
HETATM   10  H32 UNL     1     -32.862  17.446  -4.644  1.00 20.00     0.280 HD
ENDROOT
BRANCH   8  11
HETATM   11  C11 UNL     1     -34.948  16.883  -6.468  1.00 20.00     0.009 C 
HETATM   12  C9  UNL     1     -36.389  17.003  -6.964  1.00 20.00     0.011 C 
HETATM   13  C10 UNL     1     -34.078  17.973  -7.097  1.00 20.00     0.011 C 
ENDBRANCH   8  11
TORSDOF 1
ENDMDL
MODEL 7
REMARK VINA RESULT:      -4.0      1.834      3.714
REMARK  1 active torsions:
REMARK  status: ('A' for Active; 'I' for Inactive)
REMARK    1  A    between atoms: C8_8  and  C11_11 
ROOT
HETATM    1  C1  UNL     1     -35.406  16.250  -6.553  1.00 20.00    -0.081 C 
HETATM    2  C2  UNL     1     -35.720  17.522  -6.261  1.00 20.00     0.015 C 
HETATM    3  C3  UNL     1     -34.643  15.879  -7.806  1.00 20.00     0.061 C 
HETATM    4  C4  UNL     1     -36.553  14.011  -6.389  1.00 20.00     0.039 C 
HETATM    5  C5  UNL     1     -33.636  14.740  -7.593  1.00 20.00     0.239 C 
HETATM    6  C6  UNL     1     -35.490  13.121  -7.049  1.00 20.00     0.236 C 
HETATM    7  C7  UNL     1     -35.766  15.098  -5.630  1.00 20.00     0.046 C 
HETATM    8  C8  UNL     1     -34.503  14.329  -5.246  1.00 20.00     0.199 C 
HETATM    9  N12 UNL     1     -34.162  13.723  -6.596  1.00 20.00    -0.066 N 
HETATM   10  H32 UNL     1     -33.462  12.977  -6.483  1.00 20.00     0.280 HD
ENDROOT
BRANCH   8  11
HETATM   11  C11 UNL     1     -33.354  15.099  -4.617  1.00 20.00     0.009 C 
HETATM   12  C9  UNL     1     -33.834  15.908  -3.412  1.00 20.00     0.011 C 
HETATM   13  C10 UNL     1     -32.226  14.151  -4.206  1.00 20.00     0.011 C 
ENDBRANCH   8  11
TORSDOF 1
ENDMDL
MODEL 8
REMARK VINA RESULT:      -4.0      1.666      3.463
REMARK  1 active torsions:
REMARK  status: ('A' for Active; 'I' for Inactive)
REMARK    1  A    between atoms: C8_8  and  C11_11 
ROOT
HETATM    1  C1  UNL     1     -34.790  13.994  -6.447  1.00 20.00    -0.081 C 
HETATM    2  C2  UNL     1     -35.225  12.952  -7.171  1.00 20.00     0.015 C 
HETATM    3  C3  UNL     1     -34.037  15.147  -7.074  1.00 20.00     0.061 C 
HETATM    4  C4  UNL     1     -33.737  14.320  -4.181  1.00 20.00     0.039 C 
HETATM    5  C5  UNL     1     -34.399  16.512  -6.471  1.00 20.00     0.239 C 
HETATM    6  C6  UNL     1     -33.477  15.833  -4.225  1.00 20.00     0.236 C 
HETATM    7  C7  UNL     1     -35.053  14.106  -4.955  1.00 20.00     0.046 C 
HETATM    8  C8  UNL     1     -35.785  15.412  -4.655  1.00 20.00     0.199 C 
HETATM    9  N12 UNL     1     -34.677  16.398  -4.982  1.00 20.00    -0.066 N 
HETATM   10  H32 UNL     1     -34.912  17.331  -4.617  1.00 20.00     0.280 HD
ENDROOT
BRANCH   8  11
HETATM   11  C11 UNL     1     -37.085  15.694  -5.388  1.00 20.00     0.009 C 
HETATM   12  C9  UNL     1     -38.104  14.581  -5.139  1.00 20.00     0.011 C 
HETATM   13  C10 UNL     1     -37.664  17.047  -4.966  1.00 20.00     0.011 C 
ENDBRANCH   8  11
TORSDOF 1
ENDMDL
MODEL 9
REMARK VINA RESULT:      -4.0      1.240      2.647
REMARK  1 active torsions:
REMARK  status: ('A' for Active; 'I' for Inactive)
REMARK    1  A    between atoms: C8_8  and  C11_11 
ROOT
HETATM    1  C1  UNL     1     -34.293  16.517  -5.990  1.00 20.00    -0.081 C 
HETATM    2  C2  UNL     1     -34.102  17.640  -6.699  1.00 20.00     0.015 C 
HETATM    3  C3  UNL     1     -33.158  15.568  -5.670  1.00 20.00     0.061 C 
HETATM    4  C4  UNL     1     -36.052  14.715  -5.878  1.00 20.00     0.039 C 
HETATM    5  C5  UNL     1     -33.253  14.956  -4.265  1.00 20.00     0.239 C 
HETATM    6  C6  UNL     1     -35.396  13.769  -4.863  1.00 20.00     0.236 C 
HETATM    7  C7  UNL     1     -35.654  16.136  -5.432  1.00 20.00     0.046 C 
HETATM    8  C8  UNL     1     -35.559  15.952  -3.919  1.00 20.00     0.199 C 
HETATM    9  N12 UNL     1     -34.699  14.701  -3.875  1.00 20.00    -0.066 N 
HETATM   10  H32 UNL     1     -34.720  14.289  -2.932  1.00 20.00     0.280 HD
ENDROOT
BRANCH   8  11
HETATM   11  C11 UNL     1     -35.009  17.098  -3.087  1.00 20.00     0.009 C 
HETATM   12  C9  UNL     1     -35.783  18.389  -3.356  1.00 20.00     0.011 C 
HETATM   13  C10 UNL     1     -35.050  16.755  -1.596  1.00 20.00     0.011 C 
ENDBRANCH   8  11
TORSDOF 1
ENDMDL
