MODEL 1
REMARK VINA RESULT:      -5.1      0.000      0.000
REMARK  0 active torsions:
REMARK  status: ('A' for Active; 'I' for Inactive)
ROOT
HETATM    1  C1  UNL     1     -34.140   4.961   4.180  1.00 20.00     0.218 C 
HETATM    2  C2  UNL     1     -34.394   5.986   5.265  1.00 20.00     0.105 C 
HETATM    3  C3  UNL     1     -34.060   7.339   4.623  1.00 20.00     0.040 C 
HETATM    4  C4  UNL     1     -33.015   7.982   2.326  1.00 20.00     0.033 A 
HETATM    5  C5  UNL     1     -31.871   7.630   3.233  1.00 20.00     0.033 A 
HETATM    6  C6  UNL     1     -33.217   6.980   3.431  1.00 20.00     0.033 A 
HETATM    7  N7  UNL     1     -33.423   5.594   3.176  1.00 20.00    -0.352 N 
HETATM    8  O8  UNL     1     -34.478   3.788   4.224  1.00 20.00    -0.274 OA
HETATM    9  H17 UNL     1     -33.081   5.118   2.348  1.00 20.00     0.163 HD
ENDROOT
TORSDOF 0
ENDMDL
MODEL 2
REMARK VINA RESULT:      -4.9      2.181      3.263
REMARK  0 active torsions:
REMARK  status: ('A' for Active; 'I' for Inactive)
ROOT
HETATM    1  C1  UNL     1     -32.383   7.625   3.704  1.00 20.00     0.218 C 
HETATM    2  C2  UNL     1     -32.927   8.046   5.052  1.00 20.00     0.105 C 
HETATM    3  C3  UNL     1     -33.791   6.867   5.521  1.00 20.00     0.040 C 
HETATM    4  C4  UNL     1     -34.539   4.665   4.348  1.00 20.00     0.033 A 
HETATM    5  C5  UNL     1     -35.478   5.740   3.880  1.00 20.00     0.033 A 
HETATM    6  C6  UNL     1     -34.062   6.090   4.262  1.00 20.00     0.033 A 
HETATM    7  N7  UNL     1     -33.111   6.519   3.293  1.00 20.00    -0.352 N 
HETATM    8  O8  UNL     1     -31.493   8.198   3.093  1.00 20.00    -0.274 OA
HETATM    9  H17 UNL     1     -32.978   6.064   2.396  1.00 20.00     0.163 HD
ENDROOT
TORSDOF 0
ENDMDL
MODEL 3
REMARK VINA RESULT:      -4.8      1.383      1.909
REMARK  0 active torsions:
REMARK  status: ('A' for Active; 'I' for Inactive)
ROOT
HETATM    1  C1  UNL     1     -34.201   6.147   4.878  1.00 20.00     0.218 C 
HETATM    2  C2  UNL     1     -34.168   5.236   3.669  1.00 20.00     0.105 C 
HETATM    3  C3  UNL     1     -33.051   5.797   2.777  1.00 20.00     0.040 C 
HETATM    4  C4  UNL     1     -31.595   7.950   2.933  1.00 20.00     0.033 A 
HETATM    5  C5  UNL     1     -32.899   8.360   2.314  1.00 20.00     0.033 A 
HETATM    6  C6  UNL     1     -32.854   7.201   3.277  1.00 20.00     0.033 A 
HETATM    7  N7  UNL     1     -33.458   7.275   4.565  1.00 20.00    -0.352 N 
HETATM    8  O8  UNL     1     -34.812   5.924   5.912  1.00 20.00    -0.274 OA
HETATM    9  H17 UNL     1     -33.356   8.068   5.189  1.00 20.00     0.163 HD
ENDROOT
TORSDOF 0
ENDMDL
MODEL 4
REMARK VINA RESULT:      -4.5      2.302      2.693
REMARK  0 active torsions:
REMARK  status: ('A' for Active; 'I' for Inactive)
ROOT
HETATM    1  C1  UNL     1     -33.901   6.891   5.597  1.00 20.00     0.218 C 
HETATM    2  C2  UNL     1     -34.790   5.678   5.774  1.00 20.00     0.105 C 
HETATM    3  C3  UNL     1     -34.473   4.772   4.577  1.00 20.00     0.040 C 
HETATM    4  C4  UNL     1     -33.007   5.118   2.453  1.00 20.00     0.033 A 
HETATM    5  C5  UNL     1     -34.328   5.773   2.172  1.00 20.00     0.033 A 
HETATM    6  C6  UNL     1     -33.814   5.691   3.587  1.00 20.00     0.033 A 
HETATM    7  N7  UNL     1     -33.407   6.854   4.302  1.00 20.00    -0.352 N 
HETATM    8  O8  UNL     1     -33.704   7.751   6.442  1.00 20.00    -0.274 OA
HETATM    9  H17 UNL     1     -32.817   7.578   3.907  1.00 20.00     0.163 HD
ENDROOT
TORSDOF 0
ENDMDL
MODEL 5
REMARK VINA RESULT:      -4.2      2.306      3.505
REMARK  0 active torsions:
REMARK  status: ('A' for Active; 'I' for Inactive)
ROOT
HETATM    1  C1  UNL     1     -32.394   7.623   3.755  1.00 20.00     0.218 C 
HETATM    2  C2  UNL     1     -32.387   6.909   2.419  1.00 20.00     0.105 C 
HETATM    3  C3  UNL     1     -33.671   6.068   2.408  1.00 20.00     0.040 C 
HETATM    4  C4  UNL     1     -35.466   5.582   4.231  1.00 20.00     0.033 A 
HETATM    5  C5  UNL     1     -34.326   4.641   4.491  1.00 20.00     0.033 A 
HETATM    6  C6  UNL     1     -34.064   5.984   3.857  1.00 20.00     0.033 A 
HETATM    7  N7  UNL     1     -33.356   7.010   4.543  1.00 20.00    -0.352 N 
HETATM    8  O8  UNL     1     -31.651   8.541   4.068  1.00 20.00    -0.274 OA
HETATM    9  H17 UNL     1     -33.535   7.267   5.508  1.00 20.00     0.163 HD
ENDROOT
TORSDOF 0
ENDMDL
MODEL 6
REMARK VINA RESULT:      -3.9     11.701     12.195
REMARK  0 active torsions:
REMARK  status: ('A' for Active; 'I' for Inactive)
ROOT
HETATM    1  C1  UNL     1     -35.682  13.805  -4.929  1.00 20.00     0.218 C 
HETATM    2  C2  UNL     1     -36.496  14.988  -5.409  1.00 20.00     0.105 C 
HETATM    3  C3  UNL     1     -35.726  16.225  -4.926  1.00 20.00     0.040 C 
HETATM    4  C4  UNL     1     -33.645  16.506  -3.386  1.00 20.00     0.033 A 
HETATM    5  C5  UNL     1     -34.829  16.341  -2.478  1.00 20.00     0.033 A 
HETATM    6  C6  UNL     1     -34.829  15.696  -3.841  1.00 20.00     0.033 A 
HETATM    7  N7  UNL     1     -34.772  14.282  -3.999  1.00 20.00    -0.352 N 
HETATM    8  O8  UNL     1     -35.846  12.647  -5.281  1.00 20.00    -0.274 OA
HETATM    9  H17 UNL     1     -34.132  13.685  -3.485  1.00 20.00     0.163 HD
ENDROOT
TORSDOF 0
ENDMDL
MODEL 7
REMARK VINA RESULT:      -3.9      2.026      2.898
REMARK  0 active torsions:
REMARK  status: ('A' for Active; 'I' for Inactive)
ROOT
HETATM    1  C1  UNL     1     -33.129   7.112   3.076  1.00 20.00     0.218 C 
HETATM    2  C2  UNL     1     -31.883   7.682   3.721  1.00 20.00     0.105 C 
HETATM    3  C3  UNL     1     -31.628   9.009   2.994  1.00 20.00     0.040 C 
HETATM    4  C4  UNL     1     -32.748  10.118   0.921  1.00 20.00     0.033 A 
HETATM    5  C5  UNL     1     -31.754   9.127   0.390  1.00 20.00     0.033 A 
HETATM    6  C6  UNL     1     -32.420   8.887   1.721  1.00 20.00     0.033 A 
HETATM    7  N7  UNL     1     -33.353   7.828   1.910  1.00 20.00    -0.352 N 
HETATM    8  O8  UNL     1     -33.776   6.168   3.504  1.00 20.00    -0.274 OA
HETATM    9  H17 UNL     1     -34.103   7.618   1.260  1.00 20.00     0.163 HD
ENDROOT
TORSDOF 0
ENDMDL
MODEL 8
REMARK VINA RESULT:      -3.9      2.078      2.677
REMARK  0 active torsions:
REMARK  status: ('A' for Active; 'I' for Inactive)
ROOT
HETATM    1  C1  UNL     1     -33.651   7.246   5.315  1.00 20.00     0.218 C 
HETATM    2  C2  UNL     1     -32.522   7.925   4.568  1.00 20.00     0.105 C 
HETATM    3  C3  UNL     1     -32.652   7.437   3.118  1.00 20.00     0.040 C 
HETATM    4  C4  UNL     1     -34.182   5.653   1.997  1.00 20.00     0.033 A 
HETATM    5  C5  UNL     1     -33.033   4.907   2.611  1.00 20.00     0.033 A 
HETATM    6  C6  UNL     1     -33.503   6.202   3.223  1.00 20.00     0.033 A 
HETATM    7  N7  UNL     1     -34.140   6.240   4.496  1.00 20.00    -0.352 N 
HETATM    8  O8  UNL     1     -34.017   7.526   6.446  1.00 20.00    -0.274 OA
HETATM    9  H17 UNL     1     -34.875   5.599   4.775  1.00 20.00     0.163 HD
ENDROOT
TORSDOF 0
ENDMDL
MODEL 9
REMARK VINA RESULT:      -3.8     12.070     12.386
REMARK  0 active torsions:
REMARK  status: ('A' for Active; 'I' for Inactive)
ROOT
HETATM    1  C1  UNL     1     -35.107  12.997  -6.381  1.00 20.00     0.218 C 
HETATM    2  C2  UNL     1     -36.083  13.515  -5.345  1.00 20.00     0.105 C 
HETATM    3  C3  UNL     1     -35.498  14.855  -4.878  1.00 20.00     0.040 C 
HETATM    4  C4  UNL     1     -33.238  16.051  -5.375  1.00 20.00     0.033 A 
HETATM    5  C5  UNL     1     -32.962  15.048  -4.293  1.00 20.00     0.033 A 
HETATM    6  C6  UNL     1     -34.055  14.789  -5.298  1.00 20.00     0.033 A 
HETATM    7  N7  UNL     1     -33.949  13.751  -6.267  1.00 20.00    -0.352 N 
HETATM    8  O8  UNL     1     -35.312  12.060  -7.136  1.00 20.00    -0.274 OA
HETATM    9  H17 UNL     1     -33.114  13.580  -6.818  1.00 20.00     0.163 HD
ENDROOT
TORSDOF 0
ENDMDL
