MODEL 1
REMARK VINA RESULT:      -5.6      0.000      0.000
REMARK  1 active torsions:
REMARK  status: ('A' for Active; 'I' for Inactive)
REMARK    1  A    between atoms: C7_7  and  C10_10 
ROOT
HETATM    1  C1  UNL     1     -34.586   5.074   5.706  1.00 20.00     0.003 C 
HETATM    2  C2  UNL     1     -34.166   6.332   5.848  1.00 20.00     0.004 C 
HETATM    3  C3  UNL     1     -33.766   4.388   3.448  1.00 20.00     0.036 C 
HETATM    4  C4  UNL     1     -32.956   5.556   2.852  1.00 20.00     0.010 C 
HETATM    5  C5  UNL     1     -34.965   4.872   4.274  1.00 20.00     0.145 C 
HETATM    6  C6  UNL     1     -34.251   7.009   4.517  1.00 20.00     0.149 C 
HETATM    7  C7  UNL     1     -32.938   6.841   3.720  1.00 20.00     0.022 C 
HETATM    8  O11 UNL     1     -35.269   6.222   3.850  1.00 20.00    -0.373 OA
ENDROOT
BRANCH   7   9
HETATM    9  C10 UNL     1     -32.694   8.060   2.826  1.00 20.00    -0.016 C 
HETATM   10  C8  UNL     1     -31.312   8.647   3.095  1.00 20.00     0.010 C 
HETATM   11  C9  UNL     1     -32.845   7.681   1.357  1.00 20.00     0.010 C 
ENDBRANCH   7   9
TORSDOF 1
ENDMDL
MODEL 2
REMARK VINA RESULT:      -4.9      1.211      2.250
REMARK  1 active torsions:
REMARK  status: ('A' for Active; 'I' for Inactive)
REMARK    1  A    between atoms: C7_7  and  C10_10 
ROOT
HETATM    1  C1  UNL     1     -35.528   5.520   4.291  1.00 20.00     0.003 C 
HETATM    2  C2  UNL     1     -35.213   5.918   3.058  1.00 20.00     0.004 C 
HETATM    3  C3  UNL     1     -33.951   6.764   5.776  1.00 20.00     0.036 C 
HETATM    4  C4  UNL     1     -33.087   7.689   4.898  1.00 20.00     0.010 C 
HETATM    5  C5  UNL     1     -34.265   5.430   5.085  1.00 20.00     0.145 C 
HETATM    6  C6  UNL     1     -33.730   6.106   2.990  1.00 20.00     0.149 C 
HETATM    7  C7  UNL     1     -33.332   7.549   3.373  1.00 20.00     0.022 C 
HETATM    8  O11 UNL     1     -33.273   5.232   4.052  1.00 20.00    -0.373 OA
ENDROOT
BRANCH   7   9
HETATM    9  C10 UNL     1     -32.077   7.979   2.610  1.00 20.00    -0.016 C 
HETATM   10  C8  UNL     1     -32.419   9.065   1.593  1.00 20.00     0.010 C 
HETATM   11  C9  UNL     1     -31.005   8.465   3.579  1.00 20.00     0.010 C 
ENDBRANCH   7   9
TORSDOF 1
ENDMDL
MODEL 3
REMARK VINA RESULT:      -4.7     11.750     12.408
REMARK  1 active torsions:
REMARK  status: ('A' for Active; 'I' for Inactive)
REMARK    1  A    between atoms: C7_7  and  C10_10 
ROOT
HETATM    1  C1  UNL     1     -34.139  14.769  -6.245  1.00 20.00     0.003 C 
HETATM    2  C2  UNL     1     -33.258  15.537  -5.604  1.00 20.00     0.004 C 
HETATM    3  C3  UNL     1     -36.178  14.812  -4.803  1.00 20.00     0.036 C 
HETATM    4  C4  UNL     1     -35.906  15.742  -3.606  1.00 20.00     0.010 C 
HETATM    5  C5  UNL     1     -34.932  14.021  -5.223  1.00 20.00     0.145 C 
HETATM    6  C6  UNL     1     -33.434  15.326  -4.133  1.00 20.00     0.149 C 
HETATM    7  C7  UNL     1     -34.466  16.315  -3.546  1.00 20.00     0.022 C 
HETATM    8  O11 UNL     1     -34.027  14.004  -4.094  1.00 20.00    -0.373 OA
ENDROOT
BRANCH   7   9
HETATM    9  C10 UNL     1     -34.111  16.662  -2.098  1.00 20.00    -0.016 C 
HETATM   10  C8  UNL     1     -33.150  17.846  -2.055  1.00 20.00     0.010 C 
HETATM   11  C9  UNL     1     -35.374  16.962  -1.298  1.00 20.00     0.010 C 
ENDBRANCH   7   9
TORSDOF 1
ENDMDL
MODEL 4
REMARK VINA RESULT:      -4.5     11.507     12.792
REMARK  1 active torsions:
REMARK  status: ('A' for Active; 'I' for Inactive)
REMARK    1  A    between atoms: C7_7  and  C10_10 
ROOT
HETATM    1  C1  UNL     1     -34.573  14.117  -5.503  1.00 20.00     0.003 C 
HETATM    2  C2  UNL     1     -34.721  14.121  -4.178  1.00 20.00     0.004 C 
HETATM    3  C3  UNL     1     -33.617  16.362  -6.037  1.00 20.00     0.036 C 
HETATM    4  C4  UNL     1     -33.400  17.122  -4.715  1.00 20.00     0.010 C 
HETATM    5  C5  UNL     1     -34.879  15.490  -6.008  1.00 20.00     0.145 C 
HETATM    6  C6  UNL     1     -35.132  15.497  -3.756  1.00 20.00     0.149 C 
HETATM    7  C7  UNL     1     -33.899  16.377  -3.450  1.00 20.00     0.022 C 
HETATM    8  O11 UNL     1     -35.741  16.007  -4.968  1.00 20.00    -0.373 OA
ENDROOT
BRANCH   7   9
HETATM    9  C10 UNL     1     -34.226  17.393  -2.352  1.00 20.00    -0.016 C 
HETATM   10  C8  UNL     1     -35.263  16.820  -1.390  1.00 20.00     0.010 C 
HETATM   11  C9  UNL     1     -32.960  17.794  -1.605  1.00 20.00     0.010 C 
ENDBRANCH   7   9
TORSDOF 1
ENDMDL
MODEL 5
REMARK VINA RESULT:      -4.4     11.813     12.789
REMARK  1 active torsions:
REMARK  status: ('A' for Active; 'I' for Inactive)
REMARK    1  A    between atoms: C7_7  and  C10_10 
ROOT
HETATM    1  C1  UNL     1     -35.442  13.726  -6.148  1.00 20.00     0.003 C 
HETATM    2  C2  UNL     1     -35.584  13.732  -4.822  1.00 20.00     0.004 C 
HETATM    3  C3  UNL     1     -33.663  15.421  -6.598  1.00 20.00     0.036 C 
HETATM    4  C4  UNL     1     -33.167  15.973  -5.248  1.00 20.00     0.010 C 
HETATM    5  C5  UNL     1     -35.169  15.127  -6.590  1.00 20.00     0.145 C 
HETATM    6  C6  UNL     1     -35.411  15.138  -4.338  1.00 20.00     0.149 C 
HETATM    7  C7  UNL     1     -33.931  15.437  -4.009  1.00 20.00     0.022 C 
HETATM    8  O11 UNL     1     -35.758  15.901  -5.520  1.00 20.00    -0.373 OA
ENDROOT
BRANCH   7   9
HETATM    9  C10 UNL     1     -33.831  16.450  -2.866  1.00 20.00    -0.016 C 
HETATM   10  C8  UNL     1     -33.463  17.828  -3.408  1.00 20.00     0.010 C 
HETATM   11  C9  UNL     1     -35.141  16.507  -2.089  1.00 20.00     0.010 C 
ENDBRANCH   7   9
TORSDOF 1
ENDMDL
MODEL 6
REMARK VINA RESULT:      -4.4     12.062     12.840
REMARK  1 active torsions:
REMARK  status: ('A' for Active; 'I' for Inactive)
REMARK    1  A    between atoms: C7_7  and  C10_10 
ROOT
HETATM    1  C1  UNL     1     -33.259  18.598   0.176  1.00 20.00     0.003 C 
HETATM    2  C2  UNL     1     -32.390  18.313  -0.795  1.00 20.00     0.004 C 
HETATM    3  C3  UNL     1     -35.360  17.428  -0.498  1.00 20.00     0.036 C 
HETATM    4  C4  UNL     1     -35.086  16.653  -1.801  1.00 20.00     0.010 C 
HETATM    5  C5  UNL     1     -34.608  18.764  -0.445  1.00 20.00     0.145 C 
HETATM    6  C6  UNL     1     -33.131  18.281  -2.094  1.00 20.00     0.149 C 
HETATM    7  C7  UNL     1     -33.669  16.865  -2.395  1.00 20.00     0.022 C 
HETATM    8  O11 UNL     1     -34.271  19.128  -1.804  1.00 20.00    -0.373 OA
ENDROOT
BRANCH   7   9
HETATM    9  C10 UNL     1     -33.702  16.614  -3.905  1.00 20.00    -0.016 C 
HETATM   10  C8  UNL     1     -33.347  15.161  -4.210  1.00 20.00     0.010 C 
HETATM   11  C9  UNL     1     -35.072  16.966  -4.473  1.00 20.00     0.010 C 
ENDBRANCH   7   9
TORSDOF 1
ENDMDL
MODEL 7
REMARK VINA RESULT:      -4.2     11.740     12.868
REMARK  1 active torsions:
REMARK  status: ('A' for Active; 'I' for Inactive)
REMARK    1  A    between atoms: C7_7  and  C10_10 
ROOT
HETATM    1  C1  UNL     1     -34.005  15.878  -3.365  1.00 20.00     0.003 C 
HETATM    2  C2  UNL     1     -35.291  15.589  -3.570  1.00 20.00     0.004 C 
HETATM    3  C3  UNL     1     -32.922  15.540  -5.590  1.00 20.00     0.036 C 
HETATM    4  C4  UNL     1     -34.012  15.151  -6.605  1.00 20.00     0.010 C 
HETATM    5  C5  UNL     1     -33.183  14.949  -4.198  1.00 20.00     0.145 C 
HETATM    6  C6  UNL     1     -35.368  14.457  -4.546  1.00 20.00     0.149 C 
HETATM    7  C7  UNL     1     -35.429  14.978  -5.999  1.00 20.00     0.022 C 
HETATM    8  O11 UNL     1     -34.077  13.823  -4.364  1.00 20.00    -0.373 OA
ENDROOT
BRANCH   7   9
HETATM    9  C10 UNL     1     -36.249  14.025  -6.874  1.00 20.00    -0.016 C 
HETATM   10  C8  UNL     1     -37.038  14.810  -7.918  1.00 20.00     0.010 C 
HETATM   11  C9  UNL     1     -35.339  13.001  -7.542  1.00 20.00     0.010 C 
ENDBRANCH   7   9
TORSDOF 1
ENDMDL
MODEL 8
REMARK VINA RESULT:      -4.1     11.917     12.948
REMARK  1 active torsions:
REMARK  status: ('A' for Active; 'I' for Inactive)
REMARK    1  A    between atoms: C7_7  and  C10_10 
ROOT
HETATM    1  C1  UNL     1     -33.738  16.125  -3.215  1.00 20.00     0.003 C 
HETATM    2  C2  UNL     1     -35.071  16.150  -3.189  1.00 20.00     0.004 C 
HETATM    3  C3  UNL     1     -33.161  15.740  -5.614  1.00 20.00     0.036 C 
HETATM    4  C4  UNL     1     -34.470  15.692  -6.425  1.00 20.00     0.010 C 
HETATM    5  C5  UNL     1     -33.313  15.109  -4.224  1.00 20.00     0.145 C 
HETATM    6  C6  UNL     1     -35.578  15.150  -4.180  1.00 20.00     0.149 C 
HETATM    7  C7  UNL     1     -35.763  15.790  -5.574  1.00 20.00     0.022 C 
HETATM    8  O11 UNL     1     -34.461  14.230  -4.268  1.00 20.00    -0.373 OA
ENDROOT
BRANCH   7   9
HETATM    9  C10 UNL     1     -36.921  15.122  -6.321  1.00 20.00    -0.016 C 
HETATM   10  C8  UNL     1     -36.386  14.136  -7.356  1.00 20.00     0.010 C 
HETATM   11  C9  UNL     1     -37.854  14.423  -5.339  1.00 20.00     0.010 C 
ENDBRANCH   7   9
TORSDOF 1
ENDMDL
MODEL 9
REMARK VINA RESULT:      -4.1     11.596     12.557
REMARK  1 active torsions:
REMARK  status: ('A' for Active; 'I' for Inactive)
REMARK    1  A    between atoms: C7_7  and  C10_10 
ROOT
HETATM    1  C1  UNL     1     -37.794  14.782  -4.881  1.00 20.00     0.003 C 
HETATM    2  C2  UNL     1     -37.424  15.840  -4.159  1.00 20.00     0.004 C 
HETATM    3  C3  UNL     1     -35.721  13.404  -5.089  1.00 20.00     0.036 C 
HETATM    4  C4  UNL     1     -34.598  14.097  -4.295  1.00 20.00     0.010 C 
HETATM    5  C5  UNL     1     -36.656  14.409  -5.775  1.00 20.00     0.145 C 
HETATM    6  C6  UNL     1     -36.026  16.208  -4.549  1.00 20.00     0.149 C 
HETATM    7  C7  UNL     1     -34.990  15.464  -3.677  1.00 20.00     0.022 C 
HETATM    8  O11 UNL     1     -35.941  15.661  -5.889  1.00 20.00    -0.373 OA
ENDROOT
BRANCH   7   9
HETATM    9  C10 UNL     1     -33.735  16.321  -3.488  1.00 20.00    -0.016 C 
HETATM   10  C8  UNL     1     -33.620  17.347  -4.612  1.00 20.00     0.010 C 
HETATM   11  C9  UNL     1     -33.760  17.009  -2.128  1.00 20.00     0.010 C 
ENDBRANCH   7   9
TORSDOF 1
ENDMDL
