MODEL 1
REMARK VINA RESULT:      -4.5      0.000      0.000
REMARK  1 active torsions:
REMARK  status: ('A' for Active; 'I' for Inactive)
REMARK    1  A    between atoms: C3_3  and  C7_7 
ROOT
HETATM    1  C1  UNL     1     -32.706   7.831   2.636  1.00 20.00     0.255 C 
HETATM    2  C2  UNL     1     -33.856   7.500   4.503  1.00 20.00     0.157 C 
HETATM    3  C3  UNL     1     -34.169   6.394   3.512  1.00 20.00     0.164 C 
HETATM    4  C4  UNL     1     -33.639   7.079   5.943  1.00 20.00     0.043 C 
HETATM    5  O8  UNL     1     -32.669   8.083   3.969  1.00 20.00    -0.314 OA
HETATM    6  O9  UNL     1     -33.672   6.943   2.288  1.00 20.00    -0.313 OA
HETATM    7  S10 UNL     1     -31.682   8.524   1.554  1.00 20.00    -0.025 SA
ENDROOT
BRANCH   3   8
HETATM    8  C7  UNL     1     -33.483   5.056   3.755  1.00 20.00     0.010 C 
HETATM    9  C5  UNL     1     -34.419   4.083   4.476  1.00 20.00     0.012 C 
HETATM   10  C6  UNL     1     -32.999   4.442   2.438  1.00 20.00     0.012 C 
ENDBRANCH   3   8
TORSDOF 1
ENDMDL
MODEL 2
REMARK VINA RESULT:      -3.7     11.799     12.540
REMARK  1 active torsions:
REMARK  status: ('A' for Active; 'I' for Inactive)
REMARK    1  A    between atoms: C3_3  and  C7_7 
ROOT
HETATM    1  C1  UNL     1     -36.510  15.562  -4.484  1.00 20.00     0.255 C 
HETATM    2  C2  UNL     1     -34.320  15.539  -4.827  1.00 20.00     0.157 C 
HETATM    3  C3  UNL     1     -34.681  16.717  -3.942  1.00 20.00     0.164 C 
HETATM    4  C4  UNL     1     -33.089  14.747  -4.432  1.00 20.00     0.043 C 
HETATM    5  O8  UNL     1     -35.485  14.719  -4.762  1.00 20.00    -0.314 OA
HETATM    6  O9  UNL     1     -36.096  16.806  -4.130  1.00 20.00    -0.313 OA
HETATM    7  S10 UNL     1     -38.091  15.123  -4.563  1.00 20.00    -0.025 SA
ENDROOT
BRANCH   3   8
HETATM    8  C7  UNL     1     -34.401  16.555  -2.453  1.00 20.00     0.010 C 
HETATM    9  C5  UNL     1     -33.209  17.413  -2.023  1.00 20.00     0.012 C 
HETATM   10  C6  UNL     1     -35.635  16.914  -1.621  1.00 20.00     0.012 C 
ENDBRANCH   3   8
TORSDOF 1
ENDMDL
MODEL 3
REMARK VINA RESULT:      -3.6     11.454     12.693
REMARK  1 active torsions:
REMARK  status: ('A' for Active; 'I' for Inactive)
REMARK    1  A    between atoms: C3_3  and  C7_7 
ROOT
HETATM    1  C1  UNL     1     -34.312  16.105  -3.747  1.00 20.00     0.255 C 
HETATM    2  C2  UNL     1     -33.425  16.189  -5.777  1.00 20.00     0.157 C 
HETATM    3  C3  UNL     1     -33.803  14.757  -5.448  1.00 20.00     0.164 C 
HETATM    4  C4  UNL     1     -33.759  16.676  -7.173  1.00 20.00     0.043 C 
HETATM    5  O8  UNL     1     -34.140  16.943  -4.800  1.00 20.00    -0.314 OA
HETATM    6  O9  UNL     1     -33.990  14.817  -4.032  1.00 20.00    -0.313 OA
HETATM    7  S10 UNL     1     -34.859  16.597  -2.277  1.00 20.00    -0.025 SA
ENDROOT
BRANCH   3   8
HETATM    8  C7  UNL     1     -35.086  14.235  -6.083  1.00 20.00     0.010 C 
HETATM    9  C5  UNL     1     -34.776  13.339  -7.285  1.00 20.00     0.012 C 
HETATM   10  C6  UNL     1     -35.931  13.470  -5.060  1.00 20.00     0.012 C 
ENDBRANCH   3   8
TORSDOF 1
ENDMDL
MODEL 4
REMARK VINA RESULT:      -3.6     11.702     12.465
REMARK  1 active torsions:
REMARK  status: ('A' for Active; 'I' for Inactive)
REMARK    1  A    between atoms: C3_3  and  C7_7 
ROOT
HETATM    1  C1  UNL     1     -34.861  14.199  -6.450  1.00 20.00     0.255 C 
HETATM    2  C2  UNL     1     -36.438  14.281  -4.894  1.00 20.00     0.157 C 
HETATM    3  C3  UNL     1     -35.091  14.586  -4.267  1.00 20.00     0.164 C 
HETATM    4  C4  UNL     1     -37.601  15.152  -4.462  1.00 20.00     0.043 C 
HETATM    5  O8  UNL     1     -36.186  14.440  -6.289  1.00 20.00    -0.314 OA
HETATM    6  O9  UNL     1     -34.184  14.132  -5.275  1.00 20.00    -0.313 OA
HETATM    7  S10 UNL     1     -34.145  14.012  -7.918  1.00 20.00    -0.025 SA
ENDROOT
BRANCH   3   8
HETATM    8  C7  UNL     1     -34.797  16.052  -3.977  1.00 20.00     0.010 C 
HETATM    9  C5  UNL     1     -34.836  16.332  -2.472  1.00 20.00     0.012 C 
HETATM   10  C6  UNL     1     -33.439  16.463  -4.554  1.00 20.00     0.012 C 
ENDBRANCH   3   8
TORSDOF 1
ENDMDL
MODEL 5
REMARK VINA RESULT:      -3.5     11.831     12.720
REMARK  1 active torsions:
REMARK  status: ('A' for Active; 'I' for Inactive)
REMARK    1  A    between atoms: C3_3  and  C7_7 
ROOT
HETATM    1  C1  UNL     1     -37.625  14.908  -4.697  1.00 20.00     0.255 C 
HETATM    2  C2  UNL     1     -35.508  14.378  -4.304  1.00 20.00     0.157 C 
HETATM    3  C3  UNL     1     -35.969  13.709  -5.585  1.00 20.00     0.164 C 
HETATM    4  C4  UNL     1     -34.129  15.007  -4.326  1.00 20.00     0.043 C 
HETATM    5  O8  UNL     1     -36.507  15.373  -4.084  1.00 20.00    -0.314 OA
HETATM    6  O9  UNL     1     -37.390  13.831  -5.489  1.00 20.00    -0.313 OA
HETATM    7  S10 UNL     1     -39.110  15.583  -4.503  1.00 20.00    -0.025 SA
ENDROOT
BRANCH   3   8
HETATM    8  C7  UNL     1     -35.516  14.356  -6.888  1.00 20.00     0.010 C 
HETATM    9  C5  UNL     1     -34.361  13.572  -7.516  1.00 20.00     0.012 C 
HETATM   10  C6  UNL     1     -36.678  14.466  -7.878  1.00 20.00     0.012 C 
ENDBRANCH   3   8
TORSDOF 1
ENDMDL
MODEL 6
REMARK VINA RESULT:      -3.5     11.716     12.536
REMARK  1 active torsions:
REMARK  status: ('A' for Active; 'I' for Inactive)
REMARK    1  A    between atoms: C3_3  and  C7_7 
ROOT
HETATM    1  C1  UNL     1     -34.485  16.023  -4.678  1.00 20.00     0.255 C 
HETATM    2  C2  UNL     1     -36.459  16.389  -3.736  1.00 20.00     0.157 C 
HETATM    3  C3  UNL     1     -35.429  16.101  -2.660  1.00 20.00     0.164 C 
HETATM    4  C4  UNL     1     -37.425  17.525  -3.464  1.00 20.00     0.043 C 
HETATM    5  O8  UNL     1     -35.656  16.678  -4.880  1.00 20.00    -0.314 OA
HETATM    6  O9  UNL     1     -34.358  15.534  -3.418  1.00 20.00    -0.313 OA
HETATM    7  S10 UNL     1     -33.336  15.844  -5.839  1.00 20.00    -0.025 SA
ENDROOT
BRANCH   3   8
HETATM    8  C7  UNL     1     -34.895  17.305  -1.896  1.00 20.00     0.010 C 
HETATM    9  C5  UNL     1     -35.432  17.327  -0.462  1.00 20.00     0.012 C 
HETATM   10  C6  UNL     1     -33.364  17.312  -1.885  1.00 20.00     0.012 C 
ENDBRANCH   3   8
TORSDOF 1
ENDMDL
MODEL 7
REMARK VINA RESULT:      -3.4     11.889     12.317
REMARK  1 active torsions:
REMARK  status: ('A' for Active; 'I' for Inactive)
REMARK    1  A    between atoms: C3_3  and  C7_7 
ROOT
HETATM    1  C1  UNL     1     -32.671  18.849   0.977  1.00 20.00     0.255 C 
HETATM    2  C2  UNL     1     -34.885  18.737   1.016  1.00 20.00     0.157 C 
HETATM    3  C3  UNL     1     -34.400  18.693  -0.421  1.00 20.00     0.164 C 
HETATM    4  C4  UNL     1     -35.994  17.773   1.387  1.00 20.00     0.043 C 
HETATM    5  O8  UNL     1     -33.703  18.451   1.762  1.00 20.00    -0.314 OA
HETATM    6  O9  UNL     1     -33.049  19.144  -0.293  1.00 20.00    -0.313 OA
HETATM    7  S10 UNL     1     -31.119  18.959   1.508  1.00 20.00    -0.025 SA
ENDROOT
BRANCH   3   8
HETATM    8  C7  UNL     1     -34.390  17.324  -1.090  1.00 20.00     0.010 C 
HETATM    9  C5  UNL     1     -35.719  17.051  -1.799  1.00 20.00     0.012 C 
HETATM   10  C6  UNL     1     -33.230  17.208  -2.082  1.00 20.00     0.012 C 
ENDBRANCH   3   8
TORSDOF 1
ENDMDL
MODEL 8
REMARK VINA RESULT:      -3.4     11.549     12.474
REMARK  1 active torsions:
REMARK  status: ('A' for Active; 'I' for Inactive)
REMARK    1  A    between atoms: C3_3  and  C7_7 
ROOT
HETATM    1  C1  UNL     1     -34.099  14.173  -5.150  1.00 20.00     0.255 C 
HETATM    2  C2  UNL     1     -35.543  13.485  -6.685  1.00 20.00     0.157 C 
HETATM    3  C3  UNL     1     -36.255  13.643  -5.354  1.00 20.00     0.164 C 
HETATM    4  C4  UNL     1     -36.272  14.000  -7.910  1.00 20.00     0.043 C 
HETATM    5  O8  UNL     1     -34.327  14.204  -6.487  1.00 20.00    -0.314 OA
HETATM    6  O9  UNL     1     -35.159  13.712  -4.438  1.00 20.00    -0.313 OA
HETATM    7  S10 UNL     1     -32.684  14.649  -4.461  1.00 20.00    -0.025 SA
ENDROOT
BRANCH   3   8
HETATM    8  C7  UNL     1     -37.103  14.897  -5.187  1.00 20.00     0.010 C 
HETATM    9  C5  UNL     1     -38.594  14.551  -5.171  1.00 20.00     0.012 C 
HETATM   10  C6  UNL     1     -36.723  15.650  -3.910  1.00 20.00     0.012 C 
ENDBRANCH   3   8
TORSDOF 1
ENDMDL
MODEL 9
REMARK VINA RESULT:      -3.4     11.843     13.343
REMARK  1 active torsions:
REMARK  status: ('A' for Active; 'I' for Inactive)
REMARK    1  A    between atoms: C3_3  and  C7_7 
ROOT
HETATM    1  C1  UNL     1     -34.210  14.553  -6.028  1.00 20.00     0.255 C 
HETATM    2  C2  UNL     1     -33.903  15.413  -4.008  1.00 20.00     0.157 C 
HETATM    3  C3  UNL     1     -33.257  16.312  -5.045  1.00 20.00     0.164 C 
HETATM    4  C4  UNL     1     -34.685  16.101  -2.906  1.00 20.00     0.043 C 
HETATM    5  O8  UNL     1     -34.764  14.587  -4.790  1.00 20.00    -0.314 OA
HETATM    6  O9  UNL     1     -33.211  15.458  -6.191  1.00 20.00    -0.313 OA
HETATM    7  S10 UNL     1     -34.700  13.523  -7.212  1.00 20.00    -0.025 SA
ENDROOT
BRANCH   3   8
HETATM    8  C7  UNL     1     -34.022  17.576  -5.414  1.00 20.00     0.010 C 
HETATM    9  C5  UNL     1     -33.395  18.808  -4.756  1.00 20.00     0.012 C 
HETATM   10  C6  UNL     1     -34.075  17.760  -6.933  1.00 20.00     0.012 C 
ENDBRANCH   3   8
TORSDOF 1
ENDMDL
