MODEL 1
REMARK VINA RESULT:      -6.0      0.000      0.000
REMARK  0 active torsions:
REMARK  status: ('A' for Active; 'I' for Inactive)
ROOT
HETATM    1  C1  UNL     1     -32.734   7.799   4.096  1.00 20.00     0.086 C 
HETATM    2  C2  UNL     1     -33.603   6.932   4.623  1.00 20.00    -0.064 C 
HETATM    3  C3  UNL     1     -32.402   7.714   2.660  1.00 20.00     0.283 C 
HETATM    4  C4  UNL     1     -33.968   6.821   6.073  1.00 20.00     0.035 C 
HETATM    5  C5  UNL     1     -34.810   5.546   6.141  1.00 20.00     0.005 C 
HETATM    6  C6  UNL     1     -34.419   4.744   4.899  1.00 20.00     0.016 C 
HETATM    7  C7  UNL     1     -33.177   5.407   2.767  1.00 20.00     0.192 C 
HETATM    8  C8  UNL     1     -34.200   5.811   3.821  1.00 20.00     0.002 C 
HETATM    9  C9  UNL     1     -35.525   6.244   3.172  1.00 20.00     0.022 C 
HETATM   10  O10 UNL     1     -31.844   8.645   2.089  1.00 20.00    -0.260 OA
HETATM   11  O11 UNL     1     -32.748   6.565   2.012  1.00 20.00    -0.317 OA
ENDROOT
TORSDOF 0
ENDMDL
MODEL 2
REMARK VINA RESULT:      -5.1      2.025      3.655
REMARK  0 active torsions:
REMARK  status: ('A' for Active; 'I' for Inactive)
ROOT
HETATM    1  C1  UNL     1     -33.587   6.835   5.388  1.00 20.00     0.086 C 
HETATM    2  C2  UNL     1     -33.010   7.149   4.224  1.00 20.00    -0.064 C 
HETATM    3  C3  UNL     1     -34.664   5.826   5.417  1.00 20.00     0.283 C 
HETATM    4  C4  UNL     1     -31.980   8.218   4.011  1.00 20.00     0.035 C 
HETATM    5  C5  UNL     1     -31.843   8.294   2.490  1.00 20.00     0.005 C 
HETATM    6  C6  UNL     1     -33.143   7.702   1.943  1.00 20.00     0.016 C 
HETATM    7  C7  UNL     1     -34.968   6.295   3.046  1.00 20.00     0.192 C 
HETATM    8  C8  UNL     1     -33.474   6.569   2.919  1.00 20.00     0.002 C 
HETATM    9  C9  UNL     1     -32.701   5.283   2.583  1.00 20.00     0.022 C 
HETATM   10  O10 UNL     1     -35.014   5.313   6.475  1.00 20.00    -0.260 OA
HETATM   11  O11 UNL     1     -35.236   5.497   4.224  1.00 20.00    -0.317 OA
ENDROOT
TORSDOF 0
ENDMDL
MODEL 3
REMARK VINA RESULT:      -4.7     11.560     13.024
REMARK  0 active torsions:
REMARK  status: ('A' for Active; 'I' for Inactive)
ROOT
HETATM    1  C1  UNL     1     -35.813  15.007  -5.585  1.00 20.00     0.086 C 
HETATM    2  C2  UNL     1     -35.310  16.159  -5.133  1.00 20.00    -0.064 C 
HETATM    3  C3  UNL     1     -35.337  13.731  -5.013  1.00 20.00     0.283 C 
HETATM    4  C4  UNL     1     -35.612  17.525  -5.674  1.00 20.00     0.035 C 
HETATM    5  C5  UNL     1     -34.616  18.432  -4.950  1.00 20.00     0.005 C 
HETATM    6  C6  UNL     1     -33.491  17.503  -4.493  1.00 20.00     0.016 C 
HETATM    7  C7  UNL     1     -33.357  14.959  -4.300  1.00 20.00     0.192 C 
HETATM    8  C8  UNL     1     -34.211  16.207  -4.110  1.00 20.00     0.002 C 
HETATM    9  C9  UNL     1     -34.787  16.274  -2.686  1.00 20.00     0.022 C 
HETATM   10  O10 UNL     1     -35.961  12.692  -5.192  1.00 20.00    -0.260 OA
HETATM   11  O11 UNL     1     -34.186  13.773  -4.282  1.00 20.00    -0.317 OA
ENDROOT
TORSDOF 0
ENDMDL
MODEL 4
REMARK VINA RESULT:      -4.6     11.472     12.485
REMARK  0 active torsions:
REMARK  status: ('A' for Active; 'I' for Inactive)
ROOT
HETATM    1  C1  UNL     1     -34.713  14.231  -4.269  1.00 20.00     0.086 C 
HETATM    2  C2  UNL     1     -34.887  15.473  -3.807  1.00 20.00    -0.064 C 
HETATM    3  C3  UNL     1     -35.747  13.623  -5.130  1.00 20.00     0.283 C 
HETATM    4  C4  UNL     1     -33.986  16.191  -2.847  1.00 20.00     0.035 C 
HETATM    5  C5  UNL     1     -34.765  17.460  -2.496  1.00 20.00     0.005 C 
HETATM    6  C6  UNL     1     -36.224  17.132  -2.813  1.00 20.00     0.016 C 
HETATM    7  C7  UNL     1     -37.288  15.253  -4.179  1.00 20.00     0.192 C 
HETATM    8  C8  UNL     1     -36.144  16.253  -4.066  1.00 20.00     0.002 C 
HETATM    9  C9  UNL     1     -36.015  17.096  -5.345  1.00 20.00     0.022 C 
HETATM   10  O10 UNL     1     -35.501  12.621  -5.792  1.00 20.00    -0.260 OA
HETATM   11  O11 UNL     1     -36.968  14.230  -5.152  1.00 20.00    -0.317 OA
ENDROOT
TORSDOF 0
ENDMDL
MODEL 5
REMARK VINA RESULT:      -4.5     11.797     12.656
REMARK  0 active torsions:
REMARK  status: ('A' for Active; 'I' for Inactive)
ROOT
HETATM    1  C1  UNL     1     -36.681  15.313  -3.874  1.00 20.00     0.086 C 
HETATM    2  C2  UNL     1     -35.465  15.765  -3.555  1.00 20.00    -0.064 C 
HETATM    3  C3  UNL     1     -36.889  14.641  -5.172  1.00 20.00     0.283 C 
HETATM    4  C4  UNL     1     -35.112  16.553  -2.328  1.00 20.00     0.035 C 
HETATM    5  C5  UNL     1     -33.668  16.991  -2.580  1.00 20.00     0.005 C 
HETATM    6  C6  UNL     1     -33.487  16.916  -4.096  1.00 20.00     0.016 C 
HETATM    7  C7  UNL     1     -34.870  15.781  -5.920  1.00 20.00     0.192 C 
HETATM    8  C8  UNL     1     -34.307  15.688  -4.507  1.00 20.00     0.002 C 
HETATM    9  C9  UNL     1     -33.518  14.384  -4.309  1.00 20.00     0.022 C 
HETATM   10  O10 UNL     1     -37.897  13.973  -5.378  1.00 20.00    -0.260 OA
HETATM   11  O11 UNL     1     -35.913  14.796  -6.112  1.00 20.00    -0.317 OA
ENDROOT
TORSDOF 0
ENDMDL
MODEL 6
REMARK VINA RESULT:      -4.4     12.163     13.281
REMARK  0 active torsions:
REMARK  status: ('A' for Active; 'I' for Inactive)
ROOT
HETATM    1  C1  UNL     1     -36.321  14.607  -4.538  1.00 20.00     0.086 C 
HETATM    2  C2  UNL     1     -35.099  14.820  -5.034  1.00 20.00    -0.064 C 
HETATM    3  C3  UNL     1     -37.454  14.392  -5.461  1.00 20.00     0.283 C 
HETATM    4  C4  UNL     1     -33.871  15.154  -4.240  1.00 20.00     0.035 C 
HETATM    5  C5  UNL     1     -32.833  15.506  -5.306  1.00 20.00     0.005 C 
HETATM    6  C6  UNL     1     -33.645  15.885  -6.545  1.00 20.00     0.016 C 
HETATM    7  C7  UNL     1     -36.098  15.506  -7.151  1.00 20.00     0.192 C 
HETATM    8  C8  UNL     1     -34.842  14.929  -6.510  1.00 20.00     0.002 C 
HETATM    9  C9  UNL     1     -34.493  13.557  -7.110  1.00 20.00     0.022 C 
HETATM   10  O10 UNL     1     -38.511  13.921  -5.056  1.00 20.00    -0.260 OA
HETATM   11  O11 UNL     1     -37.260  14.734  -6.767  1.00 20.00    -0.317 OA
ENDROOT
TORSDOF 0
ENDMDL
MODEL 7
REMARK VINA RESULT:      -4.4     11.215     12.806
REMARK  0 active torsions:
REMARK  status: ('A' for Active; 'I' for Inactive)
ROOT
HETATM    1  C1  UNL     1     -33.795  15.518  -6.351  1.00 20.00     0.086 C 
HETATM    2  C2  UNL     1     -34.022  16.183  -5.215  1.00 20.00    -0.064 C 
HETATM    3  C3  UNL     1     -34.286  14.132  -6.493  1.00 20.00     0.283 C 
HETATM    4  C4  UNL     1     -33.507  17.550  -4.877  1.00 20.00     0.035 C 
HETATM    5  C5  UNL     1     -33.872  17.722  -3.401  1.00 20.00     0.005 C 
HETATM    6  C6  UNL     1     -34.052  16.301  -2.867  1.00 20.00     0.016 C 
HETATM    7  C7  UNL     1     -34.348  14.060  -4.059  1.00 20.00     0.192 C 
HETATM    8  C8  UNL     1     -34.695  15.544  -4.034  1.00 20.00     0.002 C 
HETATM    9  C9  UNL     1     -36.216  15.759  -4.084  1.00 20.00     0.022 C 
HETATM   10  O10 UNL     1     -34.348  13.599  -7.596  1.00 20.00    -0.260 OA
HETATM   11  O11 UNL     1     -34.665  13.490  -5.351  1.00 20.00    -0.317 OA
ENDROOT
TORSDOF 0
ENDMDL
MODEL 8
REMARK VINA RESULT:      -4.4     11.690     12.456
REMARK  0 active torsions:
REMARK  status: ('A' for Active; 'I' for Inactive)
ROOT
HETATM    1  C1  UNL     1     -35.590  14.035  -4.854  1.00 20.00     0.086 C 
HETATM    2  C2  UNL     1     -34.839  14.932  -4.209  1.00 20.00    -0.064 C 
HETATM    3  C3  UNL     1     -35.099  13.446  -6.115  1.00 20.00     0.283 C 
HETATM    4  C4  UNL     1     -35.235  15.693  -2.979  1.00 20.00     0.035 C 
HETATM    5  C5  UNL     1     -34.113  16.719  -2.808  1.00 20.00     0.005 C 
HETATM    6  C6  UNL     1     -33.479  16.850  -4.193  1.00 20.00     0.016 C 
HETATM    7  C7  UNL     1     -33.638  15.389  -6.283  1.00 20.00     0.192 C 
HETATM    8  C8  UNL     1     -33.534  15.429  -4.763  1.00 20.00     0.002 C 
HETATM    9  C9  UNL     1     -32.361  14.569  -4.264  1.00 20.00     0.022 C 
HETATM   10  O10 UNL     1     -35.615  12.434  -6.577  1.00 20.00    -0.260 OA
HETATM   11  O11 UNL     1     -34.053  14.074  -6.725  1.00 20.00    -0.317 OA
ENDROOT
TORSDOF 0
ENDMDL
MODEL 9
REMARK VINA RESULT:      -4.3     11.650     12.901
REMARK  0 active torsions:
REMARK  status: ('A' for Active; 'I' for Inactive)
ROOT
HETATM    1  C1  UNL     1     -34.795  14.917  -3.790  1.00 20.00     0.086 C 
HETATM    2  C2  UNL     1     -35.046  14.551  -5.050  1.00 20.00    -0.064 C 
HETATM    3  C3  UNL     1     -33.929  16.085  -3.531  1.00 20.00     0.283 C 
HETATM    4  C4  UNL     1     -35.817  13.338  -5.479  1.00 20.00     0.035 C 
HETATM    5  C5  UNL     1     -35.606  13.288  -6.993  1.00 20.00     0.005 C 
HETATM    6  C6  UNL     1     -34.334  14.098  -7.245  1.00 20.00     0.016 C 
HETATM    7  C7  UNL     1     -33.046  15.744  -5.776  1.00 20.00     0.192 C 
HETATM    8  C8  UNL     1     -34.411  15.239  -6.225  1.00 20.00     0.002 C 
HETATM    9  C9  UNL     1     -35.292  16.393  -6.728  1.00 20.00     0.022 C 
HETATM   10  O10 UNL     1     -33.905  16.614  -2.425  1.00 20.00    -0.260 OA
HETATM   11  O11 UNL     1     -33.174  16.537  -4.572  1.00 20.00    -0.317 OA
ENDROOT
TORSDOF 0
ENDMDL
