MODEL 1
REMARK VINA RESULT:      -5.1      0.000      0.000
REMARK  0 active torsions:
REMARK  status: ('A' for Active; 'I' for Inactive)
ROOT
HETATM    1  C1  UNL     1     -34.281   6.592   4.501  1.00 20.00     0.051 C 
HETATM    2  C2  UNL     1     -35.141   5.448   4.133  1.00 20.00     0.058 C 
HETATM    3  C3  UNL     1     -34.069   4.659   3.342  1.00 20.00     0.007 C 
HETATM    4  C4  UNL     1     -31.971   8.269   2.029  1.00 20.00     0.004 C 
HETATM    5  C5  UNL     1     -31.419   8.332   3.480  1.00 20.00     0.036 C 
HETATM    6  C6  UNL     1     -32.756   5.496   3.396  1.00 20.00     0.018 C 
HETATM    7  C7  UNL     1     -33.364   7.574   2.118  1.00 20.00     0.018 C 
HETATM    8  C8  UNL     1     -32.678   8.070   4.259  1.00 20.00     0.169 C 
HETATM    9  C9  UNL     1     -33.281   6.934   3.478  1.00 20.00     0.031 C 
HETATM   10  N10 UNL     1     -34.021   7.002   5.706  1.00 20.00    -0.142 NA
HETATM   11  O11 UNL     1     -32.743   7.668   5.605  1.00 20.00    -0.250 OA
ENDROOT
TORSDOF 0
ENDMDL
MODEL 2
REMARK VINA RESULT:      -4.9     11.263     12.180
REMARK  0 active torsions:
REMARK  status: ('A' for Active; 'I' for Inactive)
ROOT
HETATM    1  C1  UNL     1     -36.625  14.080  -4.872  1.00 20.00     0.051 C 
HETATM    2  C2  UNL     1     -38.003  14.476  -5.229  1.00 20.00     0.058 C 
HETATM    3  C3  UNL     1     -37.656  15.884  -5.770  1.00 20.00     0.007 C 
HETATM    4  C4  UNL     1     -34.254  16.397  -3.063  1.00 20.00     0.004 C 
HETATM    5  C5  UNL     1     -33.505  15.419  -4.010  1.00 20.00     0.036 C 
HETATM    6  C6  UNL     1     -36.113  16.056  -5.633  1.00 20.00     0.018 C 
HETATM    7  C7  UNL     1     -35.765  16.018  -3.143  1.00 20.00     0.018 C 
HETATM    8  C8  UNL     1     -34.558  14.360  -4.191  1.00 20.00     0.169 C 
HETATM    9  C9  UNL     1     -35.789  15.198  -4.405  1.00 20.00     0.031 C 
HETATM   10  N10 UNL     1     -35.983  13.042  -5.318  1.00 20.00    -0.142 NA
HETATM   11  O11 UNL     1     -34.586  13.395  -5.212  1.00 20.00    -0.250 OA
ENDROOT
TORSDOF 0
ENDMDL
MODEL 3
REMARK VINA RESULT:      -4.9     12.078     13.113
REMARK  0 active torsions:
REMARK  status: ('A' for Active; 'I' for Inactive)
ROOT
HETATM    1  C1  UNL     1     -36.270  14.099  -5.294  1.00 20.00     0.051 C 
HETATM    2  C2  UNL     1     -37.495  14.737  -4.768  1.00 20.00     0.058 C 
HETATM    3  C3  UNL     1     -37.988  15.326  -6.112  1.00 20.00     0.007 C 
HETATM    4  C4  UNL     1     -33.941  15.852  -7.694  1.00 20.00     0.004 C 
HETATM    5  C5  UNL     1     -33.954  14.314  -7.912  1.00 20.00     0.036 C 
HETATM    6  C6  UNL     1     -36.949  14.914  -7.198  1.00 20.00     0.018 C 
HETATM    7  C7  UNL     1     -34.872  16.133  -6.475  1.00 20.00     0.018 C 
HETATM    8  C8  UNL     1     -34.520  13.860  -6.595  1.00 20.00     0.169 C 
HETATM    9  C9  UNL     1     -35.643  14.842  -6.399  1.00 20.00     0.031 C 
HETATM   10  N10 UNL     1     -35.966  12.839  -5.216  1.00 20.00    -0.142 NA
HETATM   11  O11 UNL     1     -35.082  12.599  -6.333  1.00 20.00    -0.250 OA
ENDROOT
TORSDOF 0
ENDMDL
MODEL 4
REMARK VINA RESULT:      -4.8     12.279     13.221
REMARK  0 active torsions:
REMARK  status: ('A' for Active; 'I' for Inactive)
ROOT
HETATM    1  C1  UNL     1     -35.107  13.767  -7.025  1.00 20.00     0.051 C 
HETATM    2  C2  UNL     1     -34.033  14.250  -7.918  1.00 20.00     0.058 C 
HETATM    3  C3  UNL     1     -33.617  15.471  -7.063  1.00 20.00     0.007 C 
HETATM    4  C4  UNL     1     -37.648  16.087  -5.470  1.00 20.00     0.004 C 
HETATM    5  C5  UNL     1     -37.350  14.858  -4.567  1.00 20.00     0.036 C 
HETATM    6  C6  UNL     1     -34.535  15.478  -5.803  1.00 20.00     0.018 C 
HETATM    7  C7  UNL     1     -36.817  15.887  -6.774  1.00 20.00     0.018 C 
HETATM    8  C8  UNL     1     -36.748  13.921  -5.577  1.00 20.00     0.169 C 
HETATM    9  C9  UNL     1     -35.828  14.844  -6.329  1.00 20.00     0.031 C 
HETATM   10  N10 UNL     1     -35.179  12.591  -6.476  1.00 20.00    -0.142 NA
HETATM   11  O11 UNL     1     -35.974  12.785  -5.285  1.00 20.00    -0.250 OA
ENDROOT
TORSDOF 0
ENDMDL
MODEL 5
REMARK VINA RESULT:      -4.7      0.931      3.196
REMARK  0 active torsions:
REMARK  status: ('A' for Active; 'I' for Inactive)
ROOT
HETATM    1  C1  UNL     1     -32.490   7.507   4.260  1.00 20.00     0.051 C 
HETATM    2  C2  UNL     1     -31.763   8.140   3.140  1.00 20.00     0.058 C 
HETATM    3  C3  UNL     1     -32.855   7.923   2.064  1.00 20.00     0.007 C 
HETATM    4  C4  UNL     1     -34.321   4.225   3.892  1.00 20.00     0.004 C 
HETATM    5  C5  UNL     1     -34.988   5.151   4.946  1.00 20.00     0.036 C 
HETATM    6  C6  UNL     1     -34.043   7.195   2.763  1.00 20.00     0.018 C 
HETATM    7  C7  UNL     1     -33.048   4.974   3.391  1.00 20.00     0.018 C 
HETATM    8  C8  UNL     1     -33.852   6.092   5.237  1.00 20.00     0.169 C 
HETATM    9  C9  UNL     1     -33.339   6.377   3.851  1.00 20.00     0.031 C 
HETATM   10  N10 UNL     1     -32.801   8.069   5.389  1.00 20.00    -0.142 NA
HETATM   11  O11 UNL     1     -33.963   7.349   5.856  1.00 20.00    -0.250 OA
ENDROOT
TORSDOF 0
ENDMDL
MODEL 6
REMARK VINA RESULT:      -4.7     11.400     12.547
REMARK  0 active torsions:
REMARK  status: ('A' for Active; 'I' for Inactive)
ROOT
HETATM    1  C1  UNL     1     -35.544  13.914  -6.132  1.00 20.00     0.051 C 
HETATM    2  C2  UNL     1     -35.665  13.876  -7.604  1.00 20.00     0.058 C 
HETATM    3  C3  UNL     1     -34.338  14.608  -7.918  1.00 20.00     0.007 C 
HETATM    4  C4  UNL     1     -34.473  17.017  -4.266  1.00 20.00     0.004 C 
HETATM    5  C5  UNL     1     -34.039  15.717  -3.534  1.00 20.00     0.036 C 
HETATM    6  C6  UNL     1     -33.669  14.942  -6.550  1.00 20.00     0.018 C 
HETATM    7  C7  UNL     1     -35.285  16.568  -5.519  1.00 20.00     0.018 C 
HETATM    8  C8  UNL     1     -34.968  14.724  -4.176  1.00 20.00     0.169 C 
HETATM    9  C9  UNL     1     -34.876  15.123  -5.624  1.00 20.00     0.031 C 
HETATM   10  N10 UNL     1     -35.542  12.889  -5.334  1.00 20.00    -0.142 NA
HETATM   11  O11 UNL     1     -34.811  13.327  -4.167  1.00 20.00    -0.250 OA
ENDROOT
TORSDOF 0
ENDMDL
MODEL 7
REMARK VINA RESULT:      -4.5     11.415     12.511
REMARK  0 active torsions:
REMARK  status: ('A' for Active; 'I' for Inactive)
ROOT
HETATM    1  C1  UNL     1     -34.493  14.874  -4.201  1.00 20.00     0.051 C 
HETATM    2  C2  UNL     1     -34.000  15.843  -3.200  1.00 20.00     0.058 C 
HETATM    3  C3  UNL     1     -35.369  16.487  -2.875  1.00 20.00     0.007 C 
HETATM    4  C4  UNL     1     -36.955  15.824  -6.901  1.00 20.00     0.004 C 
HETATM    5  C5  UNL     1     -37.108  14.340  -6.468  1.00 20.00     0.036 C 
HETATM    6  C6  UNL     1     -36.432  15.762  -3.756  1.00 20.00     0.018 C 
HETATM    7  C7  UNL     1     -35.753  16.398  -6.091  1.00 20.00     0.018 C 
HETATM    8  C8  UNL     1     -35.775  14.113  -5.810  1.00 20.00     0.169 C 
HETATM    9  C9  UNL     1     -35.625  15.371  -4.998  1.00 20.00     0.031 C 
HETATM   10  N10 UNL     1     -34.360  13.583  -4.150  1.00 20.00    -0.142 NA
HETATM   11  O11 UNL     1     -35.462  13.064  -4.927  1.00 20.00    -0.250 OA
ENDROOT
TORSDOF 0
ENDMDL
MODEL 8
REMARK VINA RESULT:      -4.3     11.862     12.729
REMARK  0 active torsions:
REMARK  status: ('A' for Active; 'I' for Inactive)
ROOT
HETATM    1  C1  UNL     1     -34.023  16.607  -5.016  1.00 20.00     0.051 C 
HETATM    2  C2  UNL     1     -32.951  15.703  -5.483  1.00 20.00     0.058 C 
HETATM    3  C3  UNL     1     -33.302  14.509  -4.563  1.00 20.00     0.007 C 
HETATM    4  C4  UNL     1     -34.839  17.063  -1.358  1.00 20.00     0.004 C 
HETATM    5  C5  UNL     1     -36.090  17.242  -2.261  1.00 20.00     0.036 C 
HETATM    6  C6  UNL     1     -34.538  14.936  -3.716  1.00 20.00     0.018 C 
HETATM    7  C7  UNL     1     -33.634  16.819  -2.317  1.00 20.00     0.018 C 
HETATM    8  C8  UNL     1     -35.430  17.498  -3.588  1.00 20.00     0.169 C 
HETATM    9  C9  UNL     1     -34.348  16.452  -3.590  1.00 20.00     0.031 C 
HETATM   10  N10 UNL     1     -34.947  17.147  -5.752  1.00 20.00    -0.142 NA
HETATM   11  O11 UNL     1     -36.046  17.394  -4.847  1.00 20.00    -0.250 OA
ENDROOT
TORSDOF 0
ENDMDL
MODEL 9
REMARK VINA RESULT:      -4.3     11.369     12.049
REMARK  0 active torsions:
REMARK  status: ('A' for Active; 'I' for Inactive)
ROOT
HETATM    1  C1  UNL     1     -34.874  14.207  -4.487  1.00 20.00     0.051 C 
HETATM    2  C2  UNL     1     -36.095  13.610  -5.065  1.00 20.00     0.058 C 
HETATM    3  C3  UNL     1     -36.671  14.914  -5.669  1.00 20.00     0.007 C 
HETATM    4  C4  UNL     1     -34.918  17.458  -2.567  1.00 20.00     0.004 C 
HETATM    5  C5  UNL     1     -33.574  17.241  -3.315  1.00 20.00     0.036 C 
HETATM    6  C6  UNL     1     -35.662  16.054  -5.333  1.00 20.00     0.018 C 
HETATM    7  C7  UNL     1     -35.778  16.183  -2.825  1.00 20.00     0.018 C 
HETATM    8  C8  UNL     1     -33.634  15.757  -3.551  1.00 20.00     0.169 C 
HETATM    9  C9  UNL     1     -35.059  15.584  -4.004  1.00 20.00     0.031 C 
HETATM   10  N10 UNL     1     -33.650  13.860  -4.751  1.00 20.00    -0.142 NA
HETATM   11  O11 UNL     1     -32.862  15.041  -4.482  1.00 20.00    -0.250 OA
ENDROOT
TORSDOF 0
ENDMDL
