MODEL 1
REMARK VINA RESULT:      -5.7      0.000      0.000
REMARK  4 active torsions:
REMARK  status: ('A' for Active; 'I' for Inactive)
REMARK    1  A    between atoms: C1_1  and  C3_3 
REMARK    2  A    between atoms: C2_2  and  C7_7 
REMARK    3  A    between atoms: C2_2  and  C8_8 
REMARK    4  A    between atoms: C3_3  and  C9_9 
ROOT
HETATM    1  C1  UNL     1     -32.929   6.747   2.890  1.00 20.00     0.164 C 
HETATM    2  C2  UNL     1     -33.928   6.616   3.782  1.00 20.00    -0.038 C 
HETATM    3  F11 UNL     1     -32.718   5.770   1.977  1.00 20.00    -0.202 F 
ENDROOT
BRANCH   1   4
HETATM    4  C3  UNL     1     -31.979   7.890   2.751  1.00 20.00     0.187 C 
HETATM    5  O10 UNL     1     -31.273   8.267   3.682  1.00 20.00    -0.290 OA
BRANCH   4   6
HETATM    6  C9  UNL     1     -31.917   8.532   1.376  1.00 20.00     0.082 C 
HETATM    7  C6  UNL     1     -32.617   9.880   1.332  1.00 20.00     0.013 C 
ENDBRANCH   4   6
ENDBRANCH   1   4
BRANCH   2   8
HETATM    8  C7  UNL     1     -34.863   5.429   3.874  1.00 20.00     0.033 C 
HETATM    9  C4  UNL     1     -34.176   4.200   4.449  1.00 20.00     0.010 C 
ENDBRANCH   2   8
BRANCH   2  10
HETATM   10  C8  UNL     1     -34.173   7.714   4.799  1.00 20.00     0.033 C 
HETATM   11  C5  UNL     1     -33.660   7.346   6.185  1.00 20.00     0.010 C 
ENDBRANCH   2  10
TORSDOF 4
ENDMDL
MODEL 2
REMARK VINA RESULT:      -5.5      1.631      2.309
REMARK  4 active torsions:
REMARK  status: ('A' for Active; 'I' for Inactive)
REMARK    1  A    between atoms: C1_1  and  C3_3 
REMARK    2  A    between atoms: C2_2  and  C7_7 
REMARK    3  A    between atoms: C2_2  and  C8_8 
REMARK    4  A    between atoms: C3_3  and  C9_9 
ROOT
HETATM    1  C1  UNL     1     -33.288   7.368   4.023  1.00 20.00     0.164 C 
HETATM    2  C2  UNL     1     -33.993   6.286   3.645  1.00 20.00    -0.038 C 
HETATM    3  F11 UNL     1     -33.530   7.934   5.229  1.00 20.00    -0.202 F 
ENDROOT
BRANCH   1   4
HETATM    4  C3  UNL     1     -32.207   8.059   3.261  1.00 20.00     0.187 C 
HETATM    5  O10 UNL     1     -31.036   8.041   3.629  1.00 20.00    -0.290 OA
BRANCH   4   6
HETATM    6  C9  UNL     1     -32.643   8.758   1.984  1.00 20.00     0.082 C 
HETATM    7  C6  UNL     1     -31.568   8.730   0.910  1.00 20.00     0.013 C 
ENDBRANCH   4   6
ENDBRANCH   1   4
BRANCH   2   8
HETATM    8  C7  UNL     1     -35.082   5.627   4.464  1.00 20.00     0.033 C 
HETATM    9  C4  UNL     1     -34.526   4.890   5.674  1.00 20.00     0.010 C 
ENDBRANCH   2   8
BRANCH   2  10
HETATM   10  C8  UNL     1     -33.718   5.643   2.299  1.00 20.00     0.033 C 
HETATM   11  C5  UNL     1     -32.831   4.411   2.415  1.00 20.00     0.010 C 
ENDBRANCH   2  10
TORSDOF 4
ENDMDL
MODEL 3
REMARK VINA RESULT:      -5.2      1.786      2.429
REMARK  4 active torsions:
REMARK  status: ('A' for Active; 'I' for Inactive)
REMARK    1  A    between atoms: C1_1  and  C3_3 
REMARK    2  A    between atoms: C2_2  and  C7_7 
REMARK    3  A    between atoms: C2_2  and  C8_8 
REMARK    4  A    between atoms: C3_3  and  C9_9 
ROOT
HETATM    1  C1  UNL     1     -32.321   8.193   3.572  1.00 20.00     0.164 C 
HETATM    2  C2  UNL     1     -33.187   7.282   4.052  1.00 20.00    -0.038 C 
HETATM    3  F11 UNL     1     -31.583   8.930   4.436  1.00 20.00    -0.202 F 
ENDROOT
BRANCH   1   4
HETATM    4  C3  UNL     1     -32.035   8.510   2.142  1.00 20.00     0.187 C 
HETATM    5  O10 UNL     1     -31.270   7.831   1.464  1.00 20.00    -0.290 OA
BRANCH   4   6
HETATM    6  C9  UNL     1     -32.777   9.707   1.571  1.00 20.00     0.082 C 
HETATM    7  C6  UNL     1     -32.886   9.654   0.057  1.00 20.00     0.013 C 
ENDBRANCH   4   6
ENDBRANCH   1   4
BRANCH   2   8
HETATM    8  C7  UNL     1     -33.435   7.004   5.519  1.00 20.00     0.033 C 
HETATM    9  C4  UNL     1     -34.511   5.949   5.731  1.00 20.00     0.010 C 
ENDBRANCH   2   8
BRANCH   2  10
HETATM   10  C8  UNL     1     -34.009   6.447   3.087  1.00 20.00     0.033 C 
HETATM   11  C5  UNL     1     -33.292   5.170   2.670  1.00 20.00     0.010 C 
ENDBRANCH   2  10
TORSDOF 4
ENDMDL
MODEL 4
REMARK VINA RESULT:      -4.8      1.690      4.064
REMARK  4 active torsions:
REMARK  status: ('A' for Active; 'I' for Inactive)
REMARK    1  A    between atoms: C1_1  and  C3_3 
REMARK    2  A    between atoms: C2_2  and  C7_7 
REMARK    3  A    between atoms: C2_2  and  C8_8 
REMARK    4  A    between atoms: C3_3  and  C9_9 
ROOT
HETATM    1  C1  UNL     1     -33.439   6.183   3.130  1.00 20.00     0.164 C 
HETATM    2  C2  UNL     1     -32.893   7.354   3.504  1.00 20.00    -0.038 C 
HETATM    3  F11 UNL     1     -32.837   5.443   2.170  1.00 20.00    -0.202 F 
ENDROOT
BRANCH   1   4
HETATM    4  C3  UNL     1     -34.677   5.545   3.668  1.00 20.00     0.187 C 
HETATM    5  O10 UNL     1     -35.797   5.977   3.411  1.00 20.00    -0.290 OA
BRANCH   4   6
HETATM    6  C9  UNL     1     -34.463   4.309   4.525  1.00 20.00     0.082 C 
HETATM    7  C6  UNL     1     -34.587   4.603   6.010  1.00 20.00     0.013 C 
ENDBRANCH   4   6
ENDBRANCH   1   4
BRANCH   2   8
HETATM    8  C7  UNL     1     -31.631   7.952   2.920  1.00 20.00     0.033 C 
HETATM    9  C4  UNL     1     -31.889   8.667   1.602  1.00 20.00     0.010 C 
ENDBRANCH   2   8
BRANCH   2  10
HETATM   10  C8  UNL     1     -33.560   8.182   4.587  1.00 20.00     0.033 C 
HETATM   11  C5  UNL     1     -33.292   7.634   5.983  1.00 20.00     0.010 C 
ENDBRANCH   2  10
TORSDOF 4
ENDMDL
MODEL 5
REMARK VINA RESULT:      -4.6      2.001      4.370
REMARK  4 active torsions:
REMARK  status: ('A' for Active; 'I' for Inactive)
REMARK    1  A    between atoms: C1_1  and  C3_3 
REMARK    2  A    between atoms: C2_2  and  C7_7 
REMARK    3  A    between atoms: C2_2  and  C8_8 
REMARK    4  A    between atoms: C3_3  and  C9_9 
ROOT
HETATM    1  C1  UNL     1     -32.875   7.612   4.365  1.00 20.00     0.164 C 
HETATM    2  C2  UNL     1     -32.750   7.295   3.063  1.00 20.00    -0.038 C 
HETATM    3  F11 UNL     1     -32.078   8.567   4.898  1.00 20.00    -0.202 F 
ENDROOT
BRANCH   1   4
HETATM    4  C3  UNL     1     -33.834   7.034   5.353  1.00 20.00     0.187 C 
HETATM    5  O10 UNL     1     -33.906   7.445   6.507  1.00 20.00    -0.290 OA
BRANCH   4   6
HETATM    6  C9  UNL     1     -34.736   5.930   4.828  1.00 20.00     0.082 C 
HETATM    7  C6  UNL     1     -34.602   4.643   5.625  1.00 20.00     0.013 C 
ENDBRANCH   4   6
ENDBRANCH   1   4
BRANCH   2   8
HETATM    8  C7  UNL     1     -31.755   7.917   2.107  1.00 20.00     0.033 C 
HETATM    9  C4  UNL     1     -32.355   9.079   1.328  1.00 20.00     0.010 C 
ENDBRANCH   2   8
BRANCH   2  10
HETATM   10  C8  UNL     1     -33.649   6.231   2.460  1.00 20.00     0.033 C 
HETATM   11  C5  UNL     1     -32.954   4.881   2.346  1.00 20.00     0.010 C 
ENDBRANCH   2  10
TORSDOF 4
ENDMDL
MODEL 6
REMARK VINA RESULT:      -4.6      1.760      4.049
REMARK  4 active torsions:
REMARK  status: ('A' for Active; 'I' for Inactive)
REMARK    1  A    between atoms: C1_1  and  C3_3 
REMARK    2  A    between atoms: C2_2  and  C7_7 
REMARK    3  A    between atoms: C2_2  and  C8_8 
REMARK    4  A    between atoms: C3_3  and  C9_9 
ROOT
HETATM    1  C1  UNL     1     -33.637   6.589   2.379  1.00 20.00     0.164 C 
HETATM    2  C2  UNL     1     -32.841   7.646   2.624  1.00 20.00    -0.038 C 
HETATM    3  F11 UNL     1     -34.367   6.555   1.240  1.00 20.00    -0.202 F 
ENDROOT
BRANCH   1   4
HETATM    4  C3  UNL     1     -33.826   5.378   3.230  1.00 20.00     0.187 C 
HETATM    5  O10 UNL     1     -33.078   4.407   3.156  1.00 20.00    -0.290 OA
BRANCH   4   6
HETATM    6  C9  UNL     1     -34.981   5.437   4.215  1.00 20.00     0.082 C 
HETATM    7  C6  UNL     1     -34.598   4.919   5.591  1.00 20.00     0.013 C 
ENDBRANCH   4   6
ENDBRANCH   1   4
BRANCH   2   8
HETATM    8  C7  UNL     1     -32.690   8.851   1.720  1.00 20.00     0.033 C 
HETATM    9  C4  UNL     1     -31.494   8.726   0.788  1.00 20.00     0.010 C 
ENDBRANCH   2   8
BRANCH   2  10
HETATM   10  C8  UNL     1     -32.014   7.684   3.895  1.00 20.00     0.033 C 
HETATM   11  C5  UNL     1     -32.838   8.085   5.112  1.00 20.00     0.010 C 
ENDBRANCH   2  10
TORSDOF 4
ENDMDL
MODEL 7
REMARK VINA RESULT:      -4.5     11.255     11.973
REMARK  4 active torsions:
REMARK  status: ('A' for Active; 'I' for Inactive)
REMARK    1  A    between atoms: C1_1  and  C3_3 
REMARK    2  A    between atoms: C2_2  and  C7_7 
REMARK    3  A    between atoms: C2_2  and  C8_8 
REMARK    4  A    between atoms: C3_3  and  C9_9 
ROOT
HETATM    1  C1  UNL     1     -36.305  14.837  -4.506  1.00 20.00     0.164 C 
HETATM    2  C2  UNL     1     -35.459  15.591  -3.780  1.00 20.00    -0.038 C 
HETATM    3  F11 UNL     1     -37.639  15.031  -4.387  1.00 20.00    -0.202 F 
ENDROOT
BRANCH   1   4
HETATM    4  C3  UNL     1     -35.956  13.768  -5.488  1.00 20.00     0.187 C 
HETATM    5  O10 UNL     1     -35.865  12.588  -5.162  1.00 20.00    -0.290 OA
BRANCH   4   6
HETATM    6  C9  UNL     1     -35.753  14.231  -6.921  1.00 20.00     0.082 C 
HETATM    7  C6  UNL     1     -34.432  13.756  -7.503  1.00 20.00     0.013 C 
ENDBRANCH   4   6
ENDBRANCH   1   4
BRANCH   2   8
HETATM    8  C7  UNL     1     -35.874  16.663  -2.796  1.00 20.00     0.033 C 
HETATM    9  C4  UNL     1     -34.918  16.762  -1.616  1.00 20.00     0.010 C 
ENDBRANCH   2   8
BRANCH   2  10
HETATM   10  C8  UNL     1     -33.962  15.383  -3.918  1.00 20.00     0.033 C 
HETATM   11  C5  UNL     1     -33.337  16.328  -4.936  1.00 20.00     0.010 C 
ENDBRANCH   2  10
TORSDOF 4
ENDMDL
MODEL 8
REMARK VINA RESULT:      -4.5     10.946     11.791
REMARK  4 active torsions:
REMARK  status: ('A' for Active; 'I' for Inactive)
REMARK    1  A    between atoms: C1_1  and  C3_3 
REMARK    2  A    between atoms: C2_2  and  C7_7 
REMARK    3  A    between atoms: C2_2  and  C8_8 
REMARK    4  A    between atoms: C3_3  and  C9_9 
ROOT
HETATM    1  C1  UNL     1     -34.424  14.467  -4.421  1.00 20.00     0.164 C 
HETATM    2  C2  UNL     1     -34.989  15.486  -3.748  1.00 20.00    -0.038 C 
HETATM    3  F11 UNL     1     -33.134  14.139  -4.173  1.00 20.00    -0.202 F 
ENDROOT
BRANCH   1   4
HETATM    4  C3  UNL     1     -35.061  13.591  -5.447  1.00 20.00     0.187 C 
HETATM    5  O10 UNL     1     -35.984  12.829  -5.172  1.00 20.00    -0.290 OA
BRANCH   4   6
HETATM    6  C9  UNL     1     -34.518  13.727  -6.860  1.00 20.00     0.082 C 
HETATM    7  C6  UNL     1     -34.086  15.148  -7.181  1.00 20.00     0.013 C 
ENDBRANCH   4   6
ENDBRANCH   1   4
BRANCH   2   8
HETATM    8  C7  UNL     1     -34.289  16.342  -2.714  1.00 20.00     0.033 C 
HETATM    9  C4  UNL     1     -35.226  16.776  -1.597  1.00 20.00     0.010 C 
ENDBRANCH   2   8
BRANCH   2  10
HETATM   10  C8  UNL     1     -36.438  15.849  -4.016  1.00 20.00     0.033 C 
HETATM   11  C5  UNL     1     -36.575  16.965  -5.044  1.00 20.00     0.010 C 
ENDBRANCH   2  10
TORSDOF 4
ENDMDL
MODEL 9
REMARK VINA RESULT:      -4.2     10.995     11.671
REMARK  4 active torsions:
REMARK  status: ('A' for Active; 'I' for Inactive)
REMARK    1  A    between atoms: C1_1  and  C3_3 
REMARK    2  A    between atoms: C2_2  and  C7_7 
REMARK    3  A    between atoms: C2_2  and  C8_8 
REMARK    4  A    between atoms: C3_3  and  C9_9 
ROOT
HETATM    1  C1  UNL     1     -34.726  15.534  -3.574  1.00 20.00     0.164 C 
HETATM    2  C2  UNL     1     -34.661  16.475  -2.614  1.00 20.00    -0.038 C 
HETATM    3  F11 UNL     1     -35.924  14.992  -3.895  1.00 20.00    -0.202 F 
ENDROOT
BRANCH   1   4
HETATM    4  C3  UNL     1     -33.601  14.987  -4.388  1.00 20.00     0.187 C 
HETATM    5  O10 UNL     1     -33.134  13.870  -4.186  1.00 20.00    -0.290 OA
BRANCH   4   6
HETATM    6  C9  UNL     1     -33.096  15.887  -5.503  1.00 20.00     0.082 C 
HETATM    7  C6  UNL     1     -33.712  15.545  -6.849  1.00 20.00     0.013 C 
ENDBRANCH   4   6
ENDBRANCH   1   4
BRANCH   2   8
HETATM    8  C7  UNL     1     -35.841  16.992  -1.819  1.00 20.00     0.033 C 
HETATM    9  C4  UNL     1     -35.507  17.173  -0.346  1.00 20.00     0.010 C 
ENDBRANCH   2   8
BRANCH   2  10
HETATM   10  C8  UNL     1     -33.321  17.092  -2.258  1.00 20.00     0.033 C 
HETATM   11  C5  UNL     1     -33.186  18.520  -2.771  1.00 20.00     0.010 C 
ENDBRANCH   2  10
TORSDOF 4
ENDMDL
