MODEL 1
REMARK VINA RESULT:      -5.8      0.000      0.000
REMARK  1 active torsions:
REMARK  status: ('A' for Active; 'I' for Inactive)
REMARK    1  A    between atoms: C7_7  and  N8_8 
ROOT
HETATM    1  C1  UNL     1     -33.935   5.084   5.502  1.00 20.00     0.005 C 
HETATM    2  C2  UNL     1     -34.024   6.617   5.509  1.00 20.00     0.007 C 
HETATM    3  C3  UNL     1     -35.493   5.785   3.843  1.00 20.00     0.011 C 
HETATM    4  C4  UNL     1     -33.335   5.109   3.074  1.00 20.00     0.027 C 
HETATM    5  C5  UNL     1     -34.425   4.719   4.091  1.00 20.00    -0.013 C 
HETATM    6  C6  UNL     1     -34.523   6.945   4.087  1.00 20.00     0.006 C 
HETATM    7  C7  UNL     1     -33.440   6.644   3.029  1.00 20.00     0.097 C 
ENDROOT
BRANCH   7   8
HETATM    8  N8  UNL     1     -32.166   7.317   3.220  1.00 20.00    -0.131 NA
HETATM    9 CL9  UNL     1     -31.713   8.295   1.821  1.00 20.00    -0.005 Cl
HETATM   10 CL10 UNL     1     -32.150   8.310   4.680  1.00 20.00    -0.005 Cl
ENDBRANCH   7   8
TORSDOF 1
ENDMDL
MODEL 2
REMARK VINA RESULT:      -4.8     11.844     12.715
REMARK  1 active torsions:
REMARK  status: ('A' for Active; 'I' for Inactive)
REMARK    1  A    between atoms: C7_7  and  N8_8 
ROOT
HETATM    1  C1  UNL     1     -33.838  16.702  -5.263  1.00 20.00     0.005 C 
HETATM    2  C2  UNL     1     -35.351  16.445  -5.221  1.00 20.00     0.007 C 
HETATM    3  C3  UNL     1     -34.459  16.052  -3.059  1.00 20.00     0.011 C 
HETATM    4  C4  UNL     1     -33.399  14.392  -4.410  1.00 20.00     0.027 C 
HETATM    5  C5  UNL     1     -33.318  15.892  -4.065  1.00 20.00    -0.013 C 
HETATM    6  C6  UNL     1     -35.509  15.489  -4.021  1.00 20.00     0.006 C 
HETATM    7  C7  UNL     1     -34.908  14.101  -4.325  1.00 20.00     0.097 C 
ENDROOT
BRANCH   7   8
HETATM    8  N8  UNL     1     -35.434  13.429  -5.502  1.00 20.00    -0.131 NA
HETATM    9 CL9  UNL     1     -37.070  13.962  -5.898  1.00 20.00    -0.005 Cl
HETATM   10 CL10 UNL     1     -34.381  13.622  -6.906  1.00 20.00    -0.005 Cl
ENDBRANCH   7   8
TORSDOF 1
ENDMDL
MODEL 3
REMARK VINA RESULT:      -4.8     11.606     12.625
REMARK  1 active torsions:
REMARK  status: ('A' for Active; 'I' for Inactive)
REMARK    1  A    between atoms: C7_7  and  N8_8 
ROOT
HETATM    1  C1  UNL     1     -33.235  15.565  -5.798  1.00 20.00     0.005 C 
HETATM    2  C2  UNL     1     -33.082  14.677  -4.556  1.00 20.00     0.007 C 
HETATM    3  C3  UNL     1     -35.291  14.439  -5.384  1.00 20.00     0.011 C 
HETATM    4  C4  UNL     1     -35.178  16.738  -4.746  1.00 20.00     0.027 C 
HETATM    5  C5  UNL     1     -34.755  15.783  -5.879  1.00 20.00    -0.013 C 
HETATM    6  C6  UNL     1     -34.532  14.522  -4.057  1.00 20.00     0.006 C 
HETATM    7  C7  UNL     1     -35.078  15.850  -3.493  1.00 20.00     0.097 C 
ENDROOT
BRANCH   7   8
HETATM    8  N8  UNL     1     -34.300  16.448  -2.421  1.00 20.00    -0.131 NA
HETATM    9 CL9  UNL     1     -33.363  17.840  -2.973  1.00 20.00    -0.005 Cl
HETATM   10 CL10 UNL     1     -35.306  16.908  -1.044  1.00 20.00    -0.005 Cl
ENDBRANCH   7   8
TORSDOF 1
ENDMDL
MODEL 4
REMARK VINA RESULT:      -4.8     11.616     12.727
REMARK  1 active torsions:
REMARK  status: ('A' for Active; 'I' for Inactive)
REMARK    1  A    between atoms: C7_7  and  N8_8 
ROOT
HETATM    1  C1  UNL     1     -32.937  15.167  -4.936  1.00 20.00     0.005 C 
HETATM    2  C2  UNL     1     -33.982  14.565  -3.986  1.00 20.00     0.007 C 
HETATM    3  C3  UNL     1     -35.078  16.068  -5.457  1.00 20.00     0.011 C 
HETATM    4  C4  UNL     1     -33.591  17.475  -4.227  1.00 20.00     0.027 C 
HETATM    5  C5  UNL     1     -33.605  16.473  -5.397  1.00 20.00    -0.013 C 
HETATM    6  C6  UNL     1     -35.108  15.617  -3.993  1.00 20.00     0.006 C 
HETATM    7  C7  UNL     1     -34.669  16.915  -3.282  1.00 20.00     0.097 C 
ENDROOT
BRANCH   7   8
HETATM    8  N8  UNL     1     -34.214  16.761  -1.911  1.00 20.00    -0.131 NA
HETATM    9 CL9  UNL     1     -32.809  17.771  -1.557  1.00 20.00    -0.005 Cl
HETATM   10 CL10 UNL     1     -35.498  17.084  -0.742  1.00 20.00    -0.005 Cl
ENDBRANCH   7   8
TORSDOF 1
ENDMDL
MODEL 5
REMARK VINA RESULT:      -4.7     11.964     12.908
REMARK  1 active torsions:
REMARK  status: ('A' for Active; 'I' for Inactive)
REMARK    1  A    between atoms: C7_7  and  N8_8 
ROOT
HETATM    1  C1  UNL     1     -33.051  15.690  -5.445  1.00 20.00     0.005 C 
HETATM    2  C2  UNL     1     -34.183  16.716  -5.593  1.00 20.00     0.007 C 
HETATM    3  C3  UNL     1     -33.919  16.212  -3.291  1.00 20.00     0.011 C 
HETATM    4  C4  UNL     1     -34.594  14.129  -4.245  1.00 20.00     0.027 C 
HETATM    5  C5  UNL     1     -33.357  15.035  -4.089  1.00 20.00    -0.013 C 
HETATM    6  C6  UNL     1     -35.020  16.500  -4.316  1.00 20.00     0.006 C 
HETATM    7  C7  UNL     1     -35.750  15.140  -4.346  1.00 20.00     0.097 C 
ENDROOT
BRANCH   7   8
HETATM    8  N8  UNL     1     -36.617  14.914  -5.490  1.00 20.00    -0.131 NA
HETATM    9 CL9  UNL     1     -35.977  13.681  -6.579  1.00 20.00    -0.005 Cl
HETATM   10 CL10 UNL     1     -38.263  14.494  -5.005  1.00 20.00    -0.005 Cl
ENDBRANCH   7   8
TORSDOF 1
ENDMDL
MODEL 6
REMARK VINA RESULT:      -4.7      0.889      2.277
REMARK  1 active torsions:
REMARK  status: ('A' for Active; 'I' for Inactive)
REMARK    1  A    between atoms: C7_7  and  N8_8 
ROOT
HETATM    1  C1  UNL     1     -35.705   6.087   3.646  1.00 20.00     0.005 C 
HETATM    2  C2  UNL     1     -34.805   6.105   2.402  1.00 20.00     0.007 C 
HETATM    3  C3  UNL     1     -33.916   4.548   3.955  1.00 20.00     0.011 C 
HETATM    4  C4  UNL     1     -33.746   6.638   5.100  1.00 20.00     0.027 C 
HETATM    5  C5  UNL     1     -34.770   5.545   4.739  1.00 20.00    -0.013 C 
HETATM    6  C6  UNL     1     -33.452   5.601   2.944  1.00 20.00     0.006 C 
HETATM    7  C7  UNL     1     -32.802   6.638   3.884  1.00 20.00     0.097 C 
ENDROOT
BRANCH   7   8
HETATM    8  N8  UNL     1     -32.589   7.959   3.317  1.00 20.00    -0.131 NA
HETATM    9 CL9  UNL     1     -31.430   8.908   4.252  1.00 20.00    -0.005 Cl
HETATM   10 CL10 UNL     1     -32.083   7.885   1.627  1.00 20.00    -0.005 Cl
ENDBRANCH   7   8
TORSDOF 1
ENDMDL
MODEL 7
REMARK VINA RESULT:      -4.7     12.386     13.219
REMARK  1 active torsions:
REMARK  status: ('A' for Active; 'I' for Inactive)
REMARK    1  A    between atoms: C7_7  and  N8_8 
ROOT
HETATM    1  C1  UNL     1     -34.413  13.637  -7.455  1.00 20.00     0.005 C 
HETATM    2  C2  UNL     1     -35.557  13.537  -6.437  1.00 20.00     0.007 C 
HETATM    3  C3  UNL     1     -35.691  15.644  -7.518  1.00 20.00     0.011 C 
HETATM    4  C4  UNL     1     -33.600  15.738  -6.368  1.00 20.00     0.027 C 
HETATM    5  C5  UNL     1     -34.248  15.154  -7.638  1.00 20.00    -0.013 C 
HETATM    6  C6  UNL     1     -35.886  15.013  -6.136  1.00 20.00     0.006 C 
HETATM    7  C7  UNL     1     -34.748  15.692  -5.345  1.00 20.00     0.097 C 
ENDROOT
BRANCH   7   8
HETATM    8  N8  UNL     1     -34.381  15.053  -4.092  1.00 20.00    -0.131 NA
HETATM    9 CL9  UNL     1     -32.799  14.274  -4.179  1.00 20.00    -0.005 Cl
HETATM   10 CL10 UNL     1     -34.425  16.179  -2.732  1.00 20.00    -0.005 Cl
ENDBRANCH   7   8
TORSDOF 1
ENDMDL
MODEL 8
REMARK VINA RESULT:      -4.6     11.696     12.767
REMARK  1 active torsions:
REMARK  status: ('A' for Active; 'I' for Inactive)
REMARK    1  A    between atoms: C7_7  and  N8_8 
ROOT
HETATM    1  C1  UNL     1     -34.863  15.837  -5.835  1.00 20.00     0.005 C 
HETATM    2  C2  UNL     1     -33.365  15.879  -5.502  1.00 20.00     0.007 C 
HETATM    3  C3  UNL     1     -34.380  14.181  -4.195  1.00 20.00     0.011 C 
HETATM    4  C4  UNL     1     -35.431  16.182  -3.424  1.00 20.00     0.027 C 
HETATM    5  C5  UNL     1     -35.473  15.175  -4.589  1.00 20.00    -0.013 C 
HETATM    6  C6  UNL     1     -33.304  15.266  -4.088  1.00 20.00     0.006 C 
HETATM    7  C7  UNL     1     -33.941  16.203  -3.041  1.00 20.00     0.097 C 
ENDROOT
BRANCH   7   8
HETATM    8  N8  UNL     1     -33.381  17.542  -2.968  1.00 20.00    -0.131 NA
HETATM    9 CL9  UNL     1     -34.518  18.772  -3.527  1.00 20.00    -0.005 Cl
HETATM   10 CL10 UNL     1     -32.814  17.940  -1.344  1.00 20.00    -0.005 Cl
ENDBRANCH   7   8
TORSDOF 1
ENDMDL
MODEL 9
REMARK VINA RESULT:      -4.6     12.029     12.783
REMARK  1 active torsions:
REMARK  status: ('A' for Active; 'I' for Inactive)
REMARK    1  A    between atoms: C7_7  and  N8_8 
ROOT
HETATM    1  C1  UNL     1     -34.156  18.046  -3.699  1.00 20.00     0.005 C 
HETATM    2  C2  UNL     1     -35.635  17.695  -3.919  1.00 20.00     0.007 C 
HETATM    3  C3  UNL     1     -34.907  16.668  -1.909  1.00 20.00     0.011 C 
HETATM    4  C4  UNL     1     -33.574  15.616  -3.589  1.00 20.00     0.027 C 
HETATM    5  C5  UNL     1     -33.670  16.919  -2.773  1.00 20.00    -0.013 C 
HETATM    6  C6  UNL     1     -35.807  16.390  -3.117  1.00 20.00     0.006 C 
HETATM    7  C7  UNL     1     -35.049  15.219  -3.778  1.00 20.00     0.097 C 
ENDROOT
BRANCH   7   8
HETATM    8  N8  UNL     1     -35.400  14.941  -5.161  1.00 20.00    -0.131 NA
HETATM    9 CL9  UNL     1     -34.052  15.236  -6.263  1.00 20.00    -0.005 Cl
HETATM   10 CL10 UNL     1     -36.005  13.297  -5.377  1.00 20.00    -0.005 Cl
ENDBRANCH   7   8
TORSDOF 1
ENDMDL
