MODEL 1
REMARK VINA RESULT:      -5.1      0.000      0.000
REMARK  1 active torsions:
REMARK  status: ('A' for Active; 'I' for Inactive)
REMARK    1  A    between atoms: C4_4  and  C9_9 
ROOT
HETATM    1  C1  UNL     1     -33.991  15.229  -3.533  1.00 20.00     0.014 A 
HETATM    2  C2  UNL     1     -34.183  14.168  -4.324  1.00 20.00     0.075 A 
HETATM    3  C3  UNL     1     -36.307  15.845  -3.659  1.00 20.00     0.101 A 
HETATM    4  C4  UNL     1     -35.083  16.108  -3.178  1.00 20.00    -0.039 A 
HETATM    5  C5  UNL     1     -35.542  13.871  -4.863  1.00 20.00     0.246 A 
HETATM    6  C8  UNL     1     -37.910  14.536  -4.969  1.00 20.00     0.159 C 
HETATM    7  N10 UNL     1     -36.553  14.759  -4.483  1.00 20.00    -0.329 N 
HETATM    8  O11 UNL     1     -35.690  12.889  -5.589  1.00 20.00    -0.268 OA
ENDROOT
BRANCH   4   9
HETATM    9  C9  UNL     1     -34.780  17.270  -2.287  1.00 20.00     0.012 C 
HETATM   10  C6  UNL     1     -35.507  17.121  -0.953  1.00 20.00     0.015 C 
HETATM   11  C7  UNL     1     -33.274  17.412  -2.071  1.00 20.00     0.015 C 
ENDBRANCH   4   9
TORSDOF 1
ENDMDL
MODEL 2
REMARK VINA RESULT:      -5.1     10.468     11.152
REMARK  1 active torsions:
REMARK  status: ('A' for Active; 'I' for Inactive)
REMARK    1  A    between atoms: C4_4  and  C9_9 
ROOT
HETATM    1  C1  UNL     1     -33.186   6.761   1.906  1.00 20.00     0.014 A 
HETATM    2  C2  UNL     1     -33.850   5.777   2.522  1.00 20.00     0.075 A 
HETATM    3  C3  UNL     1     -32.956   7.997   3.950  1.00 20.00     0.101 A 
HETATM    4  C4  UNL     1     -32.715   7.918   2.633  1.00 20.00    -0.039 A 
HETATM    5  C5  UNL     1     -34.122   5.858   3.987  1.00 20.00     0.246 A 
HETATM    6  C8  UNL     1     -33.867   7.157   6.063  1.00 20.00     0.159 C 
HETATM    7  N10 UNL     1     -33.640   7.004   4.630  1.00 20.00    -0.329 N 
HETATM    8  O11 UNL     1     -34.736   4.940   4.528  1.00 20.00    -0.268 OA
ENDROOT
BRANCH   4   9
HETATM    9  C9  UNL     1     -31.979   8.970   1.865  1.00 20.00     0.012 C 
HETATM   10  C6  UNL     1     -31.349   8.371   0.610  1.00 20.00     0.015 C 
HETATM   11  C7  UNL     1     -32.906  10.130   1.506  1.00 20.00     0.015 C 
ENDBRANCH   4   9
TORSDOF 1
ENDMDL
MODEL 3
REMARK VINA RESULT:      -4.6      1.030      1.410
REMARK  1 active torsions:
REMARK  status: ('A' for Active; 'I' for Inactive)
REMARK    1  A    between atoms: C4_4  and  C9_9 
ROOT
HETATM    1  C1  UNL     1     -33.486  15.553  -3.641  1.00 20.00     0.014 A 
HETATM    2  C2  UNL     1     -33.306  14.780  -4.717  1.00 20.00     0.075 A 
HETATM    3  C3  UNL     1     -35.873  15.376  -3.810  1.00 20.00     0.101 A 
HETATM    4  C4  UNL     1     -34.810  15.871  -3.158  1.00 20.00    -0.039 A 
HETATM    5  C5  UNL     1     -34.483  14.227  -5.448  1.00 20.00     0.246 A 
HETATM    6  C8  UNL     1     -36.936  14.071  -5.589  1.00 20.00     0.159 C 
HETATM    7  N10 UNL     1     -35.736  14.572  -4.929  1.00 20.00    -0.329 N 
HETATM    8  O11 UNL     1     -34.289  13.519  -6.435  1.00 20.00    -0.268 OA
ENDROOT
BRANCH   4   9
HETATM    9  C9  UNL     1     -34.920  16.741  -1.946  1.00 20.00     0.012 C 
HETATM   10  C6  UNL     1     -33.593  17.445  -1.674  1.00 20.00     0.015 C 
HETATM   11  C7  UNL     1     -36.050  17.757  -2.106  1.00 20.00     0.015 C 
ENDBRANCH   4   9
TORSDOF 1
ENDMDL
MODEL 4
REMARK VINA RESULT:      -4.4      3.692      5.511
REMARK  1 active torsions:
REMARK  status: ('A' for Active; 'I' for Inactive)
REMARK    1  A    between atoms: C4_4  and  C9_9 
ROOT
HETATM    1  C1  UNL     1     -35.221  16.811  -1.539  1.00 20.00     0.014 A 
HETATM    2  C2  UNL     1     -35.538  17.347  -0.355  1.00 20.00     0.075 A 
HETATM    3  C3  UNL     1     -33.007  17.734  -1.456  1.00 20.00     0.101 A 
HETATM    4  C4  UNL     1     -33.913  17.002  -2.122  1.00 20.00    -0.039 A 
HETATM    5  C5  UNL     1     -34.536  18.163   0.391  1.00 20.00     0.246 A 
HETATM    6  C8  UNL     1     -32.258  19.093   0.438  1.00 20.00     0.159 C 
HETATM    7  N10 UNL     1     -33.291  18.309  -0.229  1.00 20.00    -0.329 N 
HETATM    8  O11 UNL     1     -34.855  18.645   1.477  1.00 20.00    -0.268 OA
ENDROOT
BRANCH   4   9
HETATM    9  C9  UNL     1     -33.642  16.365  -3.448  1.00 20.00     0.012 C 
HETATM   10  C6  UNL     1     -34.674  15.278  -3.738  1.00 20.00     0.015 C 
HETATM   11  C7  UNL     1     -33.631  17.411  -4.562  1.00 20.00     0.015 C 
ENDBRANCH   4   9
TORSDOF 1
ENDMDL
MODEL 5
REMARK VINA RESULT:      -4.3      1.211      1.628
REMARK  1 active torsions:
REMARK  status: ('A' for Active; 'I' for Inactive)
REMARK    1  A    between atoms: C4_4  and  C9_9 
ROOT
HETATM    1  C1  UNL     1     -34.632  14.881  -3.897  1.00 20.00     0.014 A 
HETATM    2  C2  UNL     1     -35.477  14.164  -4.645  1.00 20.00     0.075 A 
HETATM    3  C3  UNL     1     -36.340  16.474  -3.346  1.00 20.00     0.101 A 
HETATM    4  C4  UNL     1     -35.064  16.080  -3.217  1.00 20.00    -0.039 A 
HETATM    5  C5  UNL     1     -36.898  14.596  -4.794  1.00 20.00     0.246 A 
HETATM    6  C8  UNL     1     -38.622  16.253  -4.207  1.00 20.00     0.159 C 
HETATM    7  N10 UNL     1     -37.251  15.765  -4.110  1.00 20.00    -0.329 N 
HETATM    8  O11 UNL     1     -37.654  13.918  -5.488  1.00 20.00    -0.268 OA
ENDROOT
BRANCH   4   9
HETATM    9  C9  UNL     1     -34.052  16.820  -2.400  1.00 20.00     0.012 C 
HETATM   10  C6  UNL     1     -33.544  18.042  -3.160  1.00 20.00     0.015 C 
HETATM   11  C7  UNL     1     -34.637  17.227  -1.048  1.00 20.00     0.015 C 
ENDBRANCH   4   9
TORSDOF 1
ENDMDL
MODEL 6
REMARK VINA RESULT:      -4.3     11.521     12.089
REMARK  1 active torsions:
REMARK  status: ('A' for Active; 'I' for Inactive)
REMARK    1  A    between atoms: C4_4  and  C9_9 
ROOT
HETATM    1  C1  UNL     1     -33.234   7.810   4.598  1.00 20.00     0.014 A 
HETATM    2  C2  UNL     1     -33.885   7.178   5.581  1.00 20.00     0.075 A 
HETATM    3  C3  UNL     1     -33.308   5.870   3.189  1.00 20.00     0.101 A 
HETATM    4  C4  UNL     1     -32.928   7.146   3.352  1.00 20.00    -0.039 A 
HETATM    5  C5  UNL     1     -34.310   5.758   5.406  1.00 20.00     0.246 A 
HETATM    6  C8  UNL     1     -34.364   3.788   3.931  1.00 20.00     0.159 C 
HETATM    7  N10 UNL     1     -33.983   5.174   4.178  1.00 20.00    -0.329 N 
HETATM    8  O11 UNL     1     -34.906   5.201   6.326  1.00 20.00    -0.268 OA
ENDROOT
BRANCH   4   9
HETATM    9  C9  UNL     1     -32.199   7.928   2.306  1.00 20.00     0.012 C 
HETATM   10  C6  UNL     1     -33.165   8.836   1.550  1.00 20.00     0.015 C 
HETATM   11  C7  UNL     1     -31.065   8.742   2.928  1.00 20.00     0.015 C 
ENDBRANCH   4   9
TORSDOF 1
ENDMDL
MODEL 7
REMARK VINA RESULT:      -4.3     10.182     10.799
REMARK  1 active torsions:
REMARK  status: ('A' for Active; 'I' for Inactive)
REMARK    1  A    between atoms: C4_4  and  C9_9 
ROOT
HETATM    1  C1  UNL     1     -31.962   8.712   3.405  1.00 20.00     0.014 A 
HETATM    2  C2  UNL     1     -32.197   8.247   4.637  1.00 20.00     0.075 A 
HETATM    3  C3  UNL     1     -33.690   7.337   2.467  1.00 20.00     0.101 A 
HETATM    4  C4  UNL     1     -32.727   8.250   2.270  1.00 20.00    -0.039 A 
HETATM    5  C5  UNL     1     -33.266   7.231   4.863  1.00 20.00     0.246 A 
HETATM    6  C8  UNL     1     -35.030   5.835   3.862  1.00 20.00     0.159 C 
HETATM    7  N10 UNL     1     -33.969   6.826   3.723  1.00 20.00    -0.329 N 
HETATM    8  O11 UNL     1     -33.461   6.821   6.006  1.00 20.00    -0.268 OA
ENDROOT
BRANCH   4   9
HETATM    9  C9  UNL     1     -32.398   8.824   0.929  1.00 20.00     0.012 C 
HETATM   10  C6  UNL     1     -32.683  10.324   0.906  1.00 20.00     0.015 C 
HETATM   11  C7  UNL     1     -30.943   8.543   0.559  1.00 20.00     0.015 C 
ENDBRANCH   4   9
TORSDOF 1
ENDMDL
MODEL 8
REMARK VINA RESULT:      -4.3      3.602      5.133
REMARK  1 active torsions:
REMARK  status: ('A' for Active; 'I' for Inactive)
REMARK    1  A    between atoms: C4_4  and  C9_9 
ROOT
HETATM    1  C1  UNL     1     -33.239  17.461  -2.026  1.00 20.00     0.014 A 
HETATM    2  C2  UNL     1     -32.882  18.209  -0.976  1.00 20.00     0.075 A 
HETATM    3  C3  UNL     1     -35.359  16.933  -1.033  1.00 20.00     0.101 A 
HETATM    4  C4  UNL     1     -34.521  16.794  -2.071  1.00 20.00    -0.039 A 
HETATM    5  C5  UNL     1     -33.809  18.367   0.182  1.00 20.00     0.246 A 
HETATM    6  C8  UNL     1     -35.993  17.800   1.168  1.00 20.00     0.159 C 
HETATM    7  N10 UNL     1     -35.032  17.695   0.076  1.00 20.00    -0.329 N 
HETATM    8  O11 UNL     1     -33.455  19.059   1.135  1.00 20.00    -0.268 OA
ENDROOT
BRANCH   4   9
HETATM    9  C9  UNL     1     -34.840  15.980  -3.284  1.00 20.00     0.012 C 
HETATM   10  C6  UNL     1     -35.680  16.793  -4.266  1.00 20.00     0.015 C 
HETATM   11  C7  UNL     1     -33.561  15.476  -3.953  1.00 20.00     0.015 C 
ENDBRANCH   4   9
TORSDOF 1
ENDMDL
MODEL 9
REMARK VINA RESULT:      -4.2      1.949      2.564
REMARK  1 active torsions:
REMARK  status: ('A' for Active; 'I' for Inactive)
REMARK    1  A    between atoms: C4_4  and  C9_9 
ROOT
HETATM    1  C1  UNL     1     -34.852  15.058  -3.873  1.00 20.00     0.014 A 
HETATM    2  C2  UNL     1     -35.289  13.952  -4.484  1.00 20.00     0.075 A 
HETATM    3  C3  UNL     1     -33.711  15.799  -5.850  1.00 20.00     0.101 A 
HETATM    4  C4  UNL     1     -34.033  16.026  -4.568  1.00 20.00    -0.039 A 
HETATM    5  C5  UNL     1     -34.933  13.693  -5.910  1.00 20.00     0.246 A 
HETATM    6  C8  UNL     1     -33.749  14.486  -7.917  1.00 20.00     0.159 C 
HETATM    7  N10 UNL     1     -34.139  14.668  -6.524  1.00 20.00    -0.329 N 
HETATM    8  O11 UNL     1     -35.349  12.667  -6.448  1.00 20.00    -0.268 OA
ENDROOT
BRANCH   4   9
HETATM    9  C9  UNL     1     -33.590  17.235  -3.808  1.00 20.00     0.012 C 
HETATM   10  C6  UNL     1     -34.472  18.433  -4.151  1.00 20.00     0.015 C 
HETATM   11  C7  UNL     1     -33.600  16.968  -2.304  1.00 20.00     0.015 C 
ENDBRANCH   4   9
TORSDOF 1
ENDMDL
