MODEL 1
REMARK VINA RESULT:      -4.9      0.000      0.000
REMARK  3 active torsions:
REMARK  status: ('A' for Active; 'I' for Inactive)
REMARK    1  A    between atoms: C1_1  and  C9_9 
REMARK    2  A    between atoms: C1_1  and  O11_11 
REMARK    3  A    between atoms: C8_8  and  C9_9 
ROOT
HETATM    1  C2  UNL     1     -34.007  16.502  -2.940  1.00 20.00     0.005 C 
HETATM    2  C3  UNL     1     -33.771  17.528  -4.062  1.00 20.00     0.005 C 
HETATM    3  C4  UNL     1     -33.148  14.689  -4.417  1.00 20.00     0.005 C 
HETATM    4  C5  UNL     1     -32.911  15.712  -5.538  1.00 20.00     0.005 C 
HETATM    5  C6  UNL     1     -34.408  15.231  -3.716  1.00 20.00    -0.010 C 
HETATM    6  C7  UNL     1     -34.066  16.714  -5.339  1.00 20.00    -0.010 C 
HETATM    7  C8  UNL     1     -35.231  15.832  -4.864  1.00 20.00     0.003 C 
ENDROOT
BRANCH   7   8
HETATM    8  C9  UNL     1     -35.789  14.848  -5.881  1.00 20.00     0.115 C 
BRANCH   8   9
HETATM    9  C1  UNL     1     -36.654  13.798  -5.231  1.00 20.00     0.139 C 
HETATM   10  O10 UNL     1     -37.810  13.941  -4.864  1.00 20.00    -0.650 OA
BRANCH   9  11
HETATM   11  O11 UNL     1     -35.958  12.639  -5.105  1.00 20.00    -0.776 OA
HETATM   12  H25 UNL     1     -35.392  12.638  -4.304  1.00 20.00     0.167 HD
ENDBRANCH   9  11
ENDBRANCH   8   9
ENDBRANCH   7   8
TORSDOF 3
ENDMDL
MODEL 2
REMARK VINA RESULT:      -4.8      1.133      2.064
REMARK  3 active torsions:
REMARK  status: ('A' for Active; 'I' for Inactive)
REMARK    1  A    between atoms: C1_1  and  C9_9 
REMARK    2  A    between atoms: C1_1  and  O11_11 
REMARK    3  A    between atoms: C8_8  and  C9_9 
ROOT
HETATM    1  C2  UNL     1     -33.687  16.744  -2.291  1.00 20.00     0.005 C 
HETATM    2  C3  UNL     1     -35.142  16.735  -1.793  1.00 20.00     0.005 C 
HETATM    3  C4  UNL     1     -34.439  17.696  -4.468  1.00 20.00     0.005 C 
HETATM    4  C5  UNL     1     -35.893  17.687  -3.970  1.00 20.00     0.005 C 
HETATM    5  C6  UNL     1     -33.838  16.446  -3.797  1.00 20.00    -0.010 C 
HETATM    6  C7  UNL     1     -35.944  16.433  -3.075  1.00 20.00    -0.010 C 
HETATM    7  C8  UNL     1     -35.004  15.446  -3.784  1.00 20.00     0.003 C 
ENDROOT
BRANCH   7   8
HETATM    8  C9  UNL     1     -35.466  14.931  -5.139  1.00 20.00     0.115 C 
BRANCH   8   9
HETATM    9  C1  UNL     1     -36.491  13.835  -5.004  1.00 20.00     0.139 C 
HETATM   10  O10 UNL     1     -37.693  13.985  -4.849  1.00 20.00    -0.650 OA
BRANCH   9  11
HETATM   11  O11 UNL     1     -35.885  12.622  -5.081  1.00 20.00    -0.776 OA
HETATM   12  H25 UNL     1     -35.601  12.412  -5.996  1.00 20.00     0.167 HD
ENDBRANCH   9  11
ENDBRANCH   8   9
ENDBRANCH   7   8
TORSDOF 3
ENDMDL
MODEL 3
REMARK VINA RESULT:      -4.8      1.984      3.319
REMARK  3 active torsions:
REMARK  status: ('A' for Active; 'I' for Inactive)
REMARK    1  A    between atoms: C1_1  and  C9_9 
REMARK    2  A    between atoms: C1_1  and  O11_11 
REMARK    3  A    between atoms: C8_8  and  C9_9 
ROOT
HETATM    1  C2  UNL     1     -33.932  17.771  -0.894  1.00 20.00     0.005 C 
HETATM    2  C3  UNL     1     -35.304  17.082  -0.996  1.00 20.00     0.005 C 
HETATM    3  C4  UNL     1     -34.180  18.609  -3.228  1.00 20.00     0.005 C 
HETATM    4  C5  UNL     1     -35.551  17.922  -3.330  1.00 20.00     0.005 C 
HETATM    5  C6  UNL     1     -33.379  17.648  -2.329  1.00 20.00    -0.010 C 
HETATM    6  C7  UNL     1     -35.364  16.653  -2.476  1.00 20.00    -0.010 C 
HETATM    7  C8  UNL     1     -33.901  16.260  -2.729  1.00 20.00     0.003 C 
ENDROOT
BRANCH   7   8
HETATM    8  C9  UNL     1     -33.562  15.791  -4.136  1.00 20.00     0.115 C 
BRANCH   8   9
HETATM    9  C1  UNL     1     -33.655  14.293  -4.268  1.00 20.00     0.139 C 
HETATM   10  O10 UNL     1     -34.680  13.629  -4.250  1.00 20.00    -0.650 OA
BRANCH   9  11
HETATM   11  O11 UNL     1     -32.414  13.763  -4.413  1.00 20.00    -0.776 OA
HETATM   12  H25 UNL     1     -31.791  14.098  -3.734  1.00 20.00     0.167 HD
ENDBRANCH   9  11
ENDBRANCH   8   9
ENDBRANCH   7   8
TORSDOF 3
ENDMDL
MODEL 4
REMARK VINA RESULT:      -4.7      1.693      2.913
REMARK  3 active torsions:
REMARK  status: ('A' for Active; 'I' for Inactive)
REMARK    1  A    between atoms: C1_1  and  C9_9 
REMARK    2  A    between atoms: C1_1  and  O11_11 
REMARK    3  A    between atoms: C8_8  and  C9_9 
ROOT
HETATM    1  C2  UNL     1     -33.299  17.405  -1.899  1.00 20.00     0.005 C 
HETATM    2  C3  UNL     1     -34.577  17.276  -1.052  1.00 20.00     0.005 C 
HETATM    3  C4  UNL     1     -34.672  18.078  -3.866  1.00 20.00     0.005 C 
HETATM    4  C5  UNL     1     -35.949  17.950  -3.020  1.00 20.00     0.005 C 
HETATM    5  C6  UNL     1     -33.771  16.965  -3.300  1.00 20.00    -0.010 C 
HETATM    6  C7  UNL     1     -35.618  16.779  -2.074  1.00 20.00    -0.010 C 
HETATM    7  C8  UNL     1     -34.759  15.846  -2.941  1.00 20.00     0.003 C 
ENDROOT
BRANCH   7   8
HETATM    8  C9  UNL     1     -35.464  15.169  -4.107  1.00 20.00     0.115 C 
BRANCH   8   9
HETATM    9  C1  UNL     1     -34.765  13.902  -4.528  1.00 20.00     0.139 C 
HETATM   10  O10 UNL     1     -33.557  13.726  -4.576  1.00 20.00    -0.650 OA
BRANCH   9  11
HETATM   11  O11 UNL     1     -35.679  12.955  -4.857  1.00 20.00    -0.776 OA
HETATM   12  H25 UNL     1     -35.257  12.156  -5.238  1.00 20.00     0.167 HD
ENDBRANCH   9  11
ENDBRANCH   8   9
ENDBRANCH   7   8
TORSDOF 3
ENDMDL
MODEL 5
REMARK VINA RESULT:      -4.4      1.355      2.525
REMARK  3 active torsions:
REMARK  status: ('A' for Active; 'I' for Inactive)
REMARK    1  A    between atoms: C1_1  and  C9_9 
REMARK    2  A    between atoms: C1_1  and  O11_11 
REMARK    3  A    between atoms: C8_8  and  C9_9 
ROOT
HETATM    1  C2  UNL     1     -34.773  18.000  -4.626  1.00 20.00     0.005 C 
HETATM    2  C3  UNL     1     -33.582  17.932  -3.654  1.00 20.00     0.005 C 
HETATM    3  C4  UNL     1     -36.129  16.615  -3.061  1.00 20.00     0.005 C 
HETATM    4  C5  UNL     1     -34.940  16.546  -2.090  1.00 20.00     0.005 C 
HETATM    5  C6  UNL     1     -35.446  16.624  -4.441  1.00 20.00    -0.010 C 
HETATM    6  C7  UNL     1     -33.723  16.526  -3.036  1.00 20.00    -0.010 C 
HETATM    7  C8  UNL     1     -34.220  15.720  -4.245  1.00 20.00     0.003 C 
ENDROOT
BRANCH   7   8
HETATM    8  C9  UNL     1     -34.503  14.245  -4.003  1.00 20.00     0.115 C 
BRANCH   8   9
HETATM    9  C1  UNL     1     -34.932  13.540  -5.263  1.00 20.00     0.139 C 
HETATM   10  O10 UNL     1     -34.403  13.636  -6.360  1.00 20.00    -0.650 OA
BRANCH   9  11
HETATM   11  O11 UNL     1     -36.015  12.761  -5.012  1.00 20.00    -0.776 OA
HETATM   12  H25 UNL     1     -36.831  13.294  -4.900  1.00 20.00     0.167 HD
ENDBRANCH   9  11
ENDBRANCH   8   9
ENDBRANCH   7   8
TORSDOF 3
ENDMDL
MODEL 6
REMARK VINA RESULT:      -4.4      1.438      2.157
REMARK  3 active torsions:
REMARK  status: ('A' for Active; 'I' for Inactive)
REMARK    1  A    between atoms: C1_1  and  C9_9 
REMARK    2  A    between atoms: C1_1  and  O11_11 
REMARK    3  A    between atoms: C8_8  and  C9_9 
ROOT
HETATM    1  C2  UNL     1     -36.094  17.329  -2.529  1.00 20.00     0.005 C 
HETATM    2  C3  UNL     1     -36.108  17.715  -4.019  1.00 20.00     0.005 C 
HETATM    3  C4  UNL     1     -33.657  16.830  -2.683  1.00 20.00     0.005 C 
HETATM    4  C5  UNL     1     -33.671  17.215  -4.170  1.00 20.00     0.005 C 
HETATM    5  C6  UNL     1     -35.047  16.197  -2.478  1.00 20.00    -0.010 C 
HETATM    6  C7  UNL     1     -35.067  16.756  -4.632  1.00 20.00    -0.010 C 
HETATM    7  C8  UNL     1     -35.319  15.482  -3.810  1.00 20.00     0.003 C 
ENDROOT
BRANCH   7   8
HETATM    8  C9  UNL     1     -34.432  14.288  -4.128  1.00 20.00     0.115 C 
BRANCH   8   9
HETATM    9  C1  UNL     1     -34.923  13.529  -5.334  1.00 20.00     0.139 C 
HETATM   10  O10 UNL     1     -34.452  13.578  -6.460  1.00 20.00    -0.650 OA
BRANCH   9  11
HETATM   11  O11 UNL     1     -35.988  12.758  -4.994  1.00 20.00    -0.776 OA
HETATM   12  H25 UNL     1     -35.814  12.231  -4.185  1.00 20.00     0.167 HD
ENDBRANCH   9  11
ENDBRANCH   8   9
ENDBRANCH   7   8
TORSDOF 3
ENDMDL
MODEL 7
REMARK VINA RESULT:      -4.3      0.981      2.504
REMARK  3 active torsions:
REMARK  status: ('A' for Active; 'I' for Inactive)
REMARK    1  A    between atoms: C1_1  and  C9_9 
REMARK    2  A    between atoms: C1_1  and  O11_11 
REMARK    3  A    between atoms: C8_8  and  C9_9 
ROOT
HETATM    1  C2  UNL     1     -33.141  15.599  -5.616  1.00 20.00     0.005 C 
HETATM    2  C3  UNL     1     -33.256  14.542  -4.504  1.00 20.00     0.005 C 
HETATM    3  C4  UNL     1     -34.128  17.306  -4.093  1.00 20.00     0.005 C 
HETATM    4  C5  UNL     1     -34.242  16.251  -2.982  1.00 20.00     0.005 C 
HETATM    5  C6  UNL     1     -34.379  16.487  -5.373  1.00 20.00    -0.010 C 
HETATM    6  C7  UNL     1     -34.544  14.958  -3.765  1.00 20.00    -0.010 C 
HETATM    7  C8  UNL     1     -35.414  15.440  -4.936  1.00 20.00     0.003 C 
ENDROOT
BRANCH   7   8
HETATM    8  C9  UNL     1     -36.795  15.965  -4.578  1.00 20.00     0.115 C 
BRANCH   8   9
HETATM    9  C1  UNL     1     -37.814  14.858  -4.496  1.00 20.00     0.139 C 
HETATM   10  O10 UNL     1     -37.753  13.777  -5.061  1.00 20.00    -0.650 OA
BRANCH   9  11
HETATM   11  O11 UNL     1     -38.839  15.230  -3.687  1.00 20.00    -0.776 OA
HETATM   12  H25 UNL     1     -39.269  14.457  -3.263  1.00 20.00     0.167 HD
ENDBRANCH   9  11
ENDBRANCH   8   9
ENDBRANCH   7   8
TORSDOF 3
ENDMDL
MODEL 8
REMARK VINA RESULT:      -4.3     11.580     12.697
REMARK  3 active torsions:
REMARK  status: ('A' for Active; 'I' for Inactive)
REMARK    1  A    between atoms: C1_1  and  C9_9 
REMARK    2  A    between atoms: C1_1  and  O11_11 
REMARK    3  A    between atoms: C8_8  and  C9_9 
ROOT
HETATM    1  C2  UNL     1     -34.419   4.389   4.808  1.00 20.00     0.005 C 
HETATM    2  C3  UNL     1     -33.563   4.118   3.559  1.00 20.00     0.005 C 
HETATM    3  C4  UNL     1     -35.626   6.195   3.587  1.00 20.00     0.005 C 
HETATM    4  C5  UNL     1     -34.772   5.924   2.340  1.00 20.00     0.005 C 
HETATM    5  C6  UNL     1     -34.647   5.914   4.743  1.00 20.00    -0.010 C 
HETATM    6  C7  UNL     1     -33.409   5.520   2.936  1.00 20.00    -0.010 C 
HETATM    7  C8  UNL     1     -33.294   6.392   4.196  1.00 20.00     0.003 C 
ENDROOT
BRANCH   7   8
HETATM    8  C9  UNL     1     -33.149   7.889   3.969  1.00 20.00     0.115 C 
BRANCH   8   9
HETATM    9  C1  UNL     1     -32.081   8.202   2.954  1.00 20.00     0.139 C 
HETATM   10  O10 UNL     1     -32.262   8.479   1.777  1.00 20.00    -0.650 OA
BRANCH   9  11
HETATM   11  O11 UNL     1     -30.856   8.136   3.534  1.00 20.00    -0.776 OA
HETATM   12  H25 UNL     1     -30.149   7.955   2.877  1.00 20.00     0.167 HD
ENDBRANCH   9  11
ENDBRANCH   8   9
ENDBRANCH   7   8
TORSDOF 3
ENDMDL
MODEL 9
REMARK VINA RESULT:      -4.3      1.118      2.071
REMARK  3 active torsions:
REMARK  status: ('A' for Active; 'I' for Inactive)
REMARK    1  A    between atoms: C1_1  and  C9_9 
REMARK    2  A    between atoms: C1_1  and  O11_11 
REMARK    3  A    between atoms: C8_8  and  C9_9 
ROOT
HETATM    1  C2  UNL     1     -34.348  17.606  -6.833  1.00 20.00     0.005 C 
HETATM    2  C3  UNL     1     -33.838  16.307  -7.480  1.00 20.00     0.005 C 
HETATM    3  C4  UNL     1     -33.464  16.852  -4.628  1.00 20.00     0.005 C 
HETATM    4  C5  UNL     1     -32.954  15.555  -5.275  1.00 20.00     0.005 C 
HETATM    5  C6  UNL     1     -34.754  17.147  -5.417  1.00 20.00    -0.010 C 
HETATM    6  C7  UNL     1     -34.016  15.268  -6.355  1.00 20.00    -0.010 C 
HETATM    7  C8  UNL     1     -35.325  15.752  -5.711  1.00 20.00     0.003 C 
ENDROOT
BRANCH   7   8
HETATM    8  C9  UNL     1     -35.820  14.959  -4.511  1.00 20.00     0.115 C 
BRANCH   8   9
HETATM    9  C1  UNL     1     -36.695  13.803  -4.923  1.00 20.00     0.139 C 
HETATM   10  O10 UNL     1     -37.907  13.832  -5.072  1.00 20.00    -0.650 OA
BRANCH   9  11
HETATM   11  O11 UNL     1     -35.937  12.693  -5.114  1.00 20.00    -0.776 OA
HETATM   12  H25 UNL     1     -35.164  12.873  -5.691  1.00 20.00     0.167 HD
ENDBRANCH   9  11
ENDBRANCH   8   9
ENDBRANCH   7   8
TORSDOF 3
ENDMDL
