MODEL 1
REMARK VINA RESULT:      -4.5      0.000      0.000
REMARK  2 active torsions:
REMARK  status: ('A' for Active; 'I' for Inactive)
REMARK    1  A    between atoms: C1_1  and  C4_4 
REMARK    2  A    between atoms: C1_1  and  C5_5 
ROOT
HETATM    1  C1  UNL     1     -33.490   6.992   4.384  1.00 20.00     0.163 C 
HETATM    2  O6  UNL     1     -33.300   7.483   5.499  1.00 20.00    -0.295 OA
ENDROOT
BRANCH   1   3
HETATM    3  C4  UNL     1     -32.942   7.639   3.125  1.00 20.00     0.194 C 
HETATM    4 CL7  UNL     1     -31.337   8.328   3.429  1.00 20.00    -0.122 Cl
ENDBRANCH   1   3
BRANCH   1   5
HETATM    5  C5  UNL     1     -34.310   5.702   4.222  1.00 20.00     0.091 C 
HETATM    6  C2  UNL     1     -35.679   6.001   3.606  1.00 20.00     0.041 C 
HETATM    7  C3  UNL     1     -34.493   4.956   5.543  1.00 20.00     0.041 C 
HETATM    8 CL8  UNL     1     -33.388   4.672   3.078  1.00 20.00    -0.112 Cl
ENDBRANCH   1   5
TORSDOF 2
ENDMDL
MODEL 2
REMARK VINA RESULT:      -4.4      1.887      2.047
REMARK  2 active torsions:
REMARK  status: ('A' for Active; 'I' for Inactive)
REMARK    1  A    between atoms: C1_1  and  C4_4 
REMARK    2  A    between atoms: C1_1  and  C5_5 
ROOT
HETATM    1  C1  UNL     1     -33.305   6.016   3.165  1.00 20.00     0.163 C 
HETATM    2  O6  UNL     1     -32.681   5.079   2.662  1.00 20.00    -0.295 OA
ENDROOT
BRANCH   1   3
HETATM    3  C4  UNL     1     -33.077   7.451   2.727  1.00 20.00     0.194 C 
HETATM    4 CL7  UNL     1     -31.578   8.085   3.430  1.00 20.00    -0.122 Cl
ENDBRANCH   1   3
BRANCH   1   5
HETATM    5  C5  UNL     1     -34.335   5.767   4.279  1.00 20.00     0.091 C 
HETATM    6  C2  UNL     1     -34.088   6.700   5.468  1.00 20.00     0.041 C 
HETATM    7  C3  UNL     1     -34.340   4.316   4.757  1.00 20.00     0.041 C 
HETATM    8 CL8  UNL     1     -35.934   6.166   3.569  1.00 20.00    -0.112 Cl
ENDBRANCH   1   5
TORSDOF 2
ENDMDL
MODEL 3
REMARK VINA RESULT:      -4.4      1.169      1.604
REMARK  2 active torsions:
REMARK  status: ('A' for Active; 'I' for Inactive)
REMARK    1  A    between atoms: C1_1  and  C4_4 
REMARK    2  A    between atoms: C1_1  and  C5_5 
ROOT
HETATM    1  C1  UNL     1     -33.525   6.961   4.395  1.00 20.00     0.163 C 
HETATM    2  O6  UNL     1     -33.358   7.470   5.506  1.00 20.00    -0.295 OA
ENDROOT
BRANCH   1   3
HETATM    3  C4  UNL     1     -32.989   7.610   3.133  1.00 20.00     0.194 C 
HETATM    4 CL7  UNL     1     -31.394   8.325   3.431  1.00 20.00    -0.122 Cl
ENDBRANCH   1   3
BRANCH   1   5
HETATM    5  C5  UNL     1     -34.307   5.645   4.242  1.00 20.00     0.091 C 
HETATM    6  C2  UNL     1     -34.559   5.000   5.608  1.00 20.00     0.041 C 
HETATM    7  C3  UNL     1     -33.600   4.649   3.326  1.00 20.00     0.041 C 
HETATM    8 CL8  UNL     1     -35.890   6.094   3.527  1.00 20.00    -0.112 Cl
ENDBRANCH   1   5
TORSDOF 2
ENDMDL
MODEL 4
REMARK VINA RESULT:      -4.3      1.199      1.642
REMARK  2 active torsions:
REMARK  status: ('A' for Active; 'I' for Inactive)
REMARK    1  A    between atoms: C1_1  and  C4_4 
REMARK    2  A    between atoms: C1_1  and  C5_5 
ROOT
HETATM    1  C1  UNL     1     -33.454   7.010   4.337  1.00 20.00     0.163 C 
HETATM    2  O6  UNL     1     -33.252   7.498   5.451  1.00 20.00    -0.295 OA
ENDROOT
BRANCH   1   3
HETATM    3  C4  UNL     1     -32.893   7.642   3.076  1.00 20.00     0.194 C 
HETATM    4 CL7  UNL     1     -31.305   8.362   3.396  1.00 20.00    -0.122 Cl
ENDBRANCH   1   3
BRANCH   1   5
HETATM    5  C5  UNL     1     -34.306   5.740   4.177  1.00 20.00     0.091 C 
HETATM    6  C2  UNL     1     -33.581   4.703   3.315  1.00 20.00     0.041 C 
HETATM    7  C3  UNL     1     -35.683   6.030   3.583  1.00 20.00     0.041 C 
HETATM    8 CL8  UNL     1     -34.500   5.066   5.829  1.00 20.00    -0.112 Cl
ENDBRANCH   1   5
TORSDOF 2
ENDMDL
MODEL 5
REMARK VINA RESULT:      -3.6      1.527      1.952
REMARK  2 active torsions:
REMARK  status: ('A' for Active; 'I' for Inactive)
REMARK    1  A    between atoms: C1_1  and  C4_4 
REMARK    2  A    between atoms: C1_1  and  C5_5 
ROOT
HETATM    1  C1  UNL     1     -32.893   7.152   3.966  1.00 20.00     0.163 C 
HETATM    2  O6  UNL     1     -32.926   7.723   5.058  1.00 20.00    -0.295 OA
ENDROOT
BRANCH   1   3
HETATM    3  C4  UNL     1     -31.942   7.589   2.867  1.00 20.00     0.194 C 
HETATM    4 CL7  UNL     1     -32.639   8.930   1.940  1.00 20.00    -0.122 Cl
ENDBRANCH   1   3
BRANCH   1   5
HETATM    5  C5  UNL     1     -33.834   5.973   3.666  1.00 20.00     0.091 C 
HETATM    6  C2  UNL     1     -33.113   4.894   2.853  1.00 20.00     0.041 C 
HETATM    7  C3  UNL     1     -35.101   6.409   2.932  1.00 20.00     0.041 C 
HETATM    8 CL8  UNL     1     -34.278   5.280   5.260  1.00 20.00    -0.112 Cl
ENDBRANCH   1   5
TORSDOF 2
ENDMDL
MODEL 6
REMARK VINA RESULT:      -3.6      1.404      3.287
REMARK  2 active torsions:
REMARK  status: ('A' for Active; 'I' for Inactive)
REMARK    1  A    between atoms: C1_1  and  C4_4 
REMARK    2  A    between atoms: C1_1  and  C5_5 
ROOT
HETATM    1  C1  UNL     1     -33.719   7.049   4.602  1.00 20.00     0.163 C 
HETATM    2  O6  UNL     1     -33.451   7.623   5.660  1.00 20.00    -0.295 OA
ENDROOT
BRANCH   1   3
HETATM    3  C4  UNL     1     -34.859   6.053   4.502  1.00 20.00     0.194 C 
HETATM    4 CL7  UNL     1     -34.558   4.657   5.553  1.00 20.00    -0.122 Cl
ENDBRANCH   1   3
BRANCH   1   5
HETATM    5  C5  UNL     1     -32.890   7.311   3.333  1.00 20.00     0.091 C 
HETATM    6  C2  UNL     1     -31.546   7.954   3.685  1.00 20.00     0.041 C 
HETATM    7  C3  UNL     1     -33.629   8.186   2.322  1.00 20.00     0.041 C 
HETATM    8 CL8  UNL     1     -32.575   5.700   2.610  1.00 20.00    -0.112 Cl
ENDBRANCH   1   5
TORSDOF 2
ENDMDL
MODEL 7
REMARK VINA RESULT:      -3.5     11.826     13.084
REMARK  2 active torsions:
REMARK  status: ('A' for Active; 'I' for Inactive)
REMARK    1  A    between atoms: C1_1  and  C4_4 
REMARK    2  A    between atoms: C1_1  and  C5_5 
ROOT
HETATM    1  C1  UNL     1     -35.356  13.811  -5.367  1.00 20.00     0.163 C 
HETATM    2  O6  UNL     1     -35.917  12.722  -5.223  1.00 20.00    -0.295 OA
ENDROOT
BRANCH   1   3
HETATM    3  C4  UNL     1     -34.678  14.517  -4.207  1.00 20.00     0.194 C 
HETATM    4 CL7  UNL     1     -32.920  14.298  -4.289  1.00 20.00    -0.122 Cl
ENDBRANCH   1   3
BRANCH   1   5
HETATM    5  C5  UNL     1     -35.335  14.510  -6.737  1.00 20.00     0.091 C 
HETATM    6  C2  UNL     1     -36.713  14.447  -7.401  1.00 20.00     0.041 C 
HETATM    7  C3  UNL     1     -34.284  13.923  -7.677  1.00 20.00     0.041 C 
HETATM    8 CL8  UNL     1     -34.945  16.230  -6.405  1.00 20.00    -0.112 Cl
ENDBRANCH   1   5
TORSDOF 2
ENDMDL
MODEL 8
REMARK VINA RESULT:      -3.5     11.836     13.054
REMARK  2 active torsions:
REMARK  status: ('A' for Active; 'I' for Inactive)
REMARK    1  A    between atoms: C1_1  and  C4_4 
REMARK    2  A    between atoms: C1_1  and  C5_5 
ROOT
HETATM    1  C1  UNL     1     -35.387  13.845  -5.351  1.00 20.00     0.163 C 
HETATM    2  O6  UNL     1     -35.923  12.742  -5.223  1.00 20.00    -0.295 OA
ENDROOT
BRANCH   1   3
HETATM    3  C4  UNL     1     -34.679  14.527  -4.195  1.00 20.00     0.194 C 
HETATM    4 CL7  UNL     1     -32.932  14.240  -4.280  1.00 20.00    -0.122 Cl
ENDBRANCH   1   3
BRANCH   1   5
HETATM    5  C5  UNL     1     -35.430  14.588  -6.698  1.00 20.00     0.091 C 
HETATM    6  C2  UNL     1     -35.076  16.066  -6.515  1.00 20.00     0.041 C 
HETATM    7  C3  UNL     1     -36.786  14.466  -7.389  1.00 20.00     0.041 C 
HETATM    8 CL8  UNL     1     -34.168  13.826  -7.720  1.00 20.00    -0.112 Cl
ENDBRANCH   1   5
TORSDOF 2
ENDMDL
MODEL 9
REMARK VINA RESULT:      -3.4      2.320      3.049
REMARK  2 active torsions:
REMARK  status: ('A' for Active; 'I' for Inactive)
REMARK    1  A    between atoms: C1_1  and  C4_4 
REMARK    2  A    between atoms: C1_1  and  C5_5 
ROOT
HETATM    1  C1  UNL     1     -34.741   5.894   3.971  1.00 20.00     0.163 C 
HETATM    2  O6  UNL     1     -35.938   6.010   3.695  1.00 20.00    -0.295 OA
ENDROOT
BRANCH   1   3
HETATM    3  C4  UNL     1     -34.267   5.715   5.402  1.00 20.00     0.194 C 
HETATM    4 CL7  UNL     1     -33.928   7.288   6.145  1.00 20.00    -0.122 Cl
ENDBRANCH   1   3
BRANCH   1   5
HETATM    5  C5  UNL     1     -33.671   5.943   2.868  1.00 20.00     0.091 C 
HETATM    6  C2  UNL     1     -32.912   4.616   2.787  1.00 20.00     0.041 C 
HETATM    7  C3  UNL     1     -32.682   7.090   3.064  1.00 20.00     0.041 C 
HETATM    8 CL8  UNL     1     -34.562   6.180   1.328  1.00 20.00    -0.112 Cl
ENDBRANCH   1   5
TORSDOF 2
ENDMDL
