MODEL 1
REMARK VINA RESULT:      -4.4      0.000      0.000
REMARK  1 active torsions:
REMARK  status: ('A' for Active; 'I' for Inactive)
REMARK    1  A    between atoms: C4_4  and  C5_5 
ROOT
HETATM    1  C1  UNL     1     -32.927  10.285   1.118  1.00 20.00     0.015 C 
HETATM    2  C2  UNL     1     -32.372   9.316   1.556  1.00 20.00    -0.083 C 
HETATM    3  C3  UNL     1     -31.711   8.161   2.077  1.00 20.00     0.229 A 
HETATM    4  C4  UNL     1     -32.362   7.284   3.119  1.00 20.00     0.177 A 
HETATM    5  O6  UNL     1     -31.394   8.274   3.475  1.00 20.00    -0.361 OA
ENDROOT
BRANCH   4   6
HETATM    6  C5  UNL     1     -33.726   7.528   3.661  1.00 20.00     0.150 C 
HETATM    7 CL7  UNL     1     -33.798   7.195   5.413  1.00 20.00    -0.128 Cl
ENDBRANCH   4   6
TORSDOF 1
ENDMDL
MODEL 2
REMARK VINA RESULT:      -4.3      4.116      4.552
REMARK  1 active torsions:
REMARK  status: ('A' for Active; 'I' for Inactive)
REMARK    1  A    between atoms: C4_4  and  C5_5 
ROOT
HETATM    1  C1  UNL     1     -33.463   7.546   5.971  1.00 20.00     0.015 C 
HETATM    2  C2  UNL     1     -34.027   6.514   5.730  1.00 20.00    -0.083 C 
HETATM    3  C3  UNL     1     -34.697   5.285   5.443  1.00 20.00     0.229 A 
HETATM    4  C4  UNL     1     -34.354   4.467   4.222  1.00 20.00     0.177 A 
HETATM    5  O6  UNL     1     -35.486   5.339   4.242  1.00 20.00    -0.361 OA
ENDROOT
BRANCH   4   6
HETATM    6  C5  UNL     1     -33.294   4.849   3.250  1.00 20.00     0.150 C 
HETATM    7 CL7  UNL     1     -33.775   6.277   2.293  1.00 20.00    -0.128 Cl
ENDBRANCH   4   6
TORSDOF 1
ENDMDL
MODEL 3
REMARK VINA RESULT:      -4.3      2.358      2.671
REMARK  1 active torsions:
REMARK  status: ('A' for Active; 'I' for Inactive)
REMARK    1  A    between atoms: C4_4  and  C5_5 
ROOT
HETATM    1  C1  UNL     1     -31.534   8.296   3.341  1.00 20.00     0.015 C 
HETATM    2  C2  UNL     1     -32.383   7.540   2.958  1.00 20.00    -0.083 C 
HETATM    3  C3  UNL     1     -33.395   6.639   2.502  1.00 20.00     0.229 A 
HETATM    4  C4  UNL     1     -34.366   5.994   3.460  1.00 20.00     0.177 A 
HETATM    5  O6  UNL     1     -33.214   5.296   2.982  1.00 20.00    -0.361 OA
ENDROOT
BRANCH   4   6
HETATM    6  C5  UNL     1     -34.369   6.256   4.925  1.00 20.00     0.150 C 
HETATM    7 CL7  UNL     1     -34.571   4.745   5.855  1.00 20.00    -0.128 Cl
ENDBRANCH   4   6
TORSDOF 1
ENDMDL
MODEL 4
REMARK VINA RESULT:      -4.1      2.628      4.256
REMARK  1 active torsions:
REMARK  status: ('A' for Active; 'I' for Inactive)
REMARK    1  A    between atoms: C4_4  and  C5_5 
ROOT
HETATM    1  C1  UNL     1     -34.387   4.120   4.532  1.00 20.00     0.015 C 
HETATM    2  C2  UNL     1     -34.415   5.317   4.603  1.00 20.00    -0.083 C 
HETATM    3  C3  UNL     1     -34.449   6.744   4.687  1.00 20.00     0.229 A 
HETATM    4  C4  UNL     1     -33.537   7.604   3.847  1.00 20.00     0.177 A 
HETATM    5  O6  UNL     1     -33.236   7.308   5.213  1.00 20.00    -0.361 OA
ENDROOT
BRANCH   4   6
HETATM    6  C5  UNL     1     -32.566   7.053   2.864  1.00 20.00     0.150 C 
HETATM    7 CL7  UNL     1     -31.835   8.349   1.877  1.00 20.00    -0.128 Cl
ENDBRANCH   4   6
TORSDOF 1
ENDMDL
MODEL 5
REMARK VINA RESULT:      -4.1      2.411      3.232
REMARK  1 active torsions:
REMARK  status: ('A' for Active; 'I' for Inactive)
REMARK    1  A    between atoms: C4_4  and  C5_5 
ROOT
HETATM    1  C1  UNL     1     -32.164   7.525   3.028  1.00 20.00     0.015 C 
HETATM    2  C2  UNL     1     -33.138   6.825   3.069  1.00 20.00    -0.083 C 
HETATM    3  C3  UNL     1     -34.298   5.992   3.118  1.00 20.00     0.229 A 
HETATM    4  C4  UNL     1     -34.787   5.398   4.416  1.00 20.00     0.177 A 
HETATM    5  O6  UNL     1     -34.005   4.636   3.493  1.00 20.00    -0.361 OA
ENDROOT
BRANCH   4   6
HETATM    6  C5  UNL     1     -34.131   5.644   5.729  1.00 20.00     0.150 C 
HETATM    7 CL7  UNL     1     -34.046   7.389   6.096  1.00 20.00    -0.128 Cl
ENDBRANCH   4   6
TORSDOF 1
ENDMDL
MODEL 6
REMARK VINA RESULT:      -4.0      2.834      4.283
REMARK  1 active torsions:
REMARK  status: ('A' for Active; 'I' for Inactive)
REMARK    1  A    between atoms: C4_4  and  C5_5 
ROOT
HETATM    1  C1  UNL     1     -34.752   5.720   5.943  1.00 20.00     0.015 C 
HETATM    2  C2  UNL     1     -34.362   5.461   4.838  1.00 20.00    -0.083 C 
HETATM    3  C3  UNL     1     -33.896   5.153   3.522  1.00 20.00     0.229 A 
HETATM    4  C4  UNL     1     -33.016   6.109   2.754  1.00 20.00     0.177 A 
HETATM    5  O6  UNL     1     -34.424   6.033   2.515  1.00 20.00    -0.361 OA
ENDROOT
BRANCH   4   6
HETATM    6  C5  UNL     1     -32.549   7.412   3.299  1.00 20.00     0.150 C 
HETATM    7 CL7  UNL     1     -31.855   8.441   2.016  1.00 20.00    -0.128 Cl
ENDBRANCH   4   6
TORSDOF 1
ENDMDL
MODEL 7
REMARK VINA RESULT:      -4.0      2.648      3.465
REMARK  1 active torsions:
REMARK  status: ('A' for Active; 'I' for Inactive)
REMARK    1  A    between atoms: C4_4  and  C5_5 
ROOT
HETATM    1  C1  UNL     1     -33.631   7.308   6.090  1.00 20.00     0.015 C 
HETATM    2  C2  UNL     1     -33.724   7.299   4.893  1.00 20.00    -0.083 C 
HETATM    3  C3  UNL     1     -33.836   7.288   3.468  1.00 20.00     0.229 A 
HETATM    4  C4  UNL     1     -33.584   6.033   2.668  1.00 20.00     0.177 A 
HETATM    5  O6  UNL     1     -32.583   7.046   2.805  1.00 20.00    -0.361 OA
ENDROOT
BRANCH   4   6
HETATM    6  C5  UNL     1     -33.230   4.726   3.283  1.00 20.00     0.150 C 
HETATM    7 CL7  UNL     1     -34.520   4.152   4.376  1.00 20.00    -0.128 Cl
ENDBRANCH   4   6
TORSDOF 1
ENDMDL
MODEL 8
REMARK VINA RESULT:      -4.0      2.526      3.606
REMARK  1 active torsions:
REMARK  status: ('A' for Active; 'I' for Inactive)
REMARK    1  A    between atoms: C4_4  and  C5_5 
ROOT
HETATM    1  C1  UNL     1     -33.174   5.366   2.597  1.00 20.00     0.015 C 
HETATM    2  C2  UNL     1     -32.951   6.494   2.941  1.00 20.00    -0.083 C 
HETATM    3  C3  UNL     1     -32.686   7.838   3.349  1.00 20.00     0.229 A 
HETATM    4  C4  UNL     1     -32.118   8.855   2.390  1.00 20.00     0.177 A 
HETATM    5  O6  UNL     1     -31.287   8.169   3.330  1.00 20.00    -0.361 OA
ENDROOT
BRANCH   4   6
HETATM    6  C5  UNL     1     -31.816   8.559   0.964  1.00 20.00     0.150 C 
HETATM    7 CL7  UNL     1     -32.914   9.446  -0.130  1.00 20.00    -0.128 Cl
ENDBRANCH   4   6
TORSDOF 1
ENDMDL
MODEL 9
REMARK VINA RESULT:      -3.8      2.382      3.129
REMARK  1 active torsions:
REMARK  status: ('A' for Active; 'I' for Inactive)
REMARK    1  A    between atoms: C4_4  and  C5_5 
ROOT
HETATM    1  C1  UNL     1     -32.543   7.644   2.483  1.00 20.00     0.015 C 
HETATM    2  C2  UNL     1     -32.746   7.482   3.654  1.00 20.00    -0.083 C 
HETATM    3  C3  UNL     1     -32.989   7.288   5.050  1.00 20.00     0.229 A 
HETATM    4  C4  UNL     1     -34.069   6.354   5.539  1.00 20.00     0.177 A 
HETATM    5  O6  UNL     1     -34.277   7.767   5.472  1.00 20.00    -0.361 OA
ENDROOT
BRANCH   4   6
HETATM    6  C5  UNL     1     -34.937   5.556   4.632  1.00 20.00     0.150 C 
HETATM    7 CL7  UNL     1     -34.223   3.956   4.291  1.00 20.00    -0.128 Cl
ENDBRANCH   4   6
TORSDOF 1
ENDMDL
