MODEL 1
REMARK VINA RESULT:      -4.5      0.000      0.000
REMARK  0 active torsions:
REMARK  status: ('A' for Active; 'I' for Inactive)
ROOT
HETATM    1  C1  UNL     1     -35.440  13.270  -6.024  1.00 20.00     0.100 C 
HETATM    2  C2  UNL     1     -37.096  14.777  -5.079  1.00 20.00     0.067 A 
HETATM    3  C3  UNL     1     -35.786  14.316  -5.111  1.00 20.00     0.056 A 
HETATM    4  C4  UNL     1     -34.838  14.875  -4.261  1.00 20.00    -0.001 A 
HETATM    5  C5  UNL     1     -37.407  15.791  -4.187  1.00 20.00     0.129 A 
HETATM    6  C6  UNL     1     -35.248  15.885  -3.406  1.00 20.00     0.135 A 
HETATM    7  C7  UNL     1     -33.421  14.400  -4.271  1.00 20.00     0.053 C 
HETATM    8  N8  UNL     1     -35.160  12.421  -6.765  1.00 20.00    -0.191 NA
HETATM    9  N9  UNL     1     -36.513  16.359  -3.346  1.00 20.00    -0.224 NA
HETATM   10 CL10 UNL     1     -38.998  16.424  -4.079  1.00 20.00    -0.062 Cl
HETATM   11 CL11 UNL     1     -34.173  16.658  -2.307  1.00 20.00    -0.062 Cl
ENDROOT
TORSDOF 0
ENDMDL
MODEL 2
REMARK VINA RESULT:      -4.4      2.503      3.405
REMARK  0 active torsions:
REMARK  status: ('A' for Active; 'I' for Inactive)
ROOT
HETATM    1  C1  UNL     1     -35.433  13.880  -5.033  1.00 20.00     0.100 C 
HETATM    2  C2  UNL     1     -34.433  15.504  -3.526  1.00 20.00     0.067 A 
HETATM    3  C3  UNL     1     -34.854  15.169  -4.807  1.00 20.00     0.056 A 
HETATM    4  C4  UNL     1     -34.710  16.086  -5.843  1.00 20.00    -0.001 A 
HETATM    5  C5  UNL     1     -33.876  16.757  -3.332  1.00 20.00     0.129 A 
HETATM    6  C6  UNL     1     -34.142  17.315  -5.546  1.00 20.00     0.135 A 
HETATM    7  C7  UNL     1     -35.153  15.756  -7.231  1.00 20.00     0.053 C 
HETATM    8  N8  UNL     1     -35.903  12.834  -5.216  1.00 20.00    -0.191 NA
HETATM    9  N9  UNL     1     -33.719  17.675  -4.313  1.00 20.00    -0.224 NA
HETATM   10 CL10 UNL     1     -33.328  17.257  -1.785  1.00 20.00    -0.062 Cl
HETATM   11 CL11 UNL     1     -33.907  18.536  -6.735  1.00 20.00    -0.062 Cl
ENDROOT
TORSDOF 0
ENDMDL
MODEL 3
REMARK VINA RESULT:      -4.3      1.233      3.230
REMARK  0 active torsions:
REMARK  status: ('A' for Active; 'I' for Inactive)
ROOT
HETATM    1  C1  UNL     1     -35.621  13.781  -4.912  1.00 20.00     0.100 C 
HETATM    2  C2  UNL     1     -34.548  15.440  -3.494  1.00 20.00     0.067 A 
HETATM    3  C3  UNL     1     -35.687  14.993  -4.154  1.00 20.00     0.056 A 
HETATM    4  C4  UNL     1     -36.866  15.726  -4.067  1.00 20.00    -0.001 A 
HETATM    5  C5  UNL     1     -34.638  16.615  -2.767  1.00 20.00     0.129 A 
HETATM    6  C6  UNL     1     -36.854  16.888  -3.313  1.00 20.00     0.135 A 
HETATM    7  C7  UNL     1     -38.107  15.272  -4.765  1.00 20.00     0.053 C 
HETATM    8  N8  UNL     1     -35.566  12.798  -5.526  1.00 20.00    -0.191 NA
HETATM    9  N9  UNL     1     -35.766  17.354  -2.659  1.00 20.00    -0.224 NA
HETATM   10 CL10 UNL     1     -33.284  17.242  -1.920  1.00 20.00    -0.062 Cl
HETATM   11 CL11 UNL     1     -38.244  17.884  -3.126  1.00 20.00    -0.062 Cl
ENDROOT
TORSDOF 0
ENDMDL
MODEL 4
REMARK VINA RESULT:      -4.3      3.997      5.784
REMARK  0 active torsions:
REMARK  status: ('A' for Active; 'I' for Inactive)
ROOT
HETATM    1  C1  UNL     1     -32.133  18.215  -0.428  1.00 20.00     0.100 C 
HETATM    2  C2  UNL     1     -33.589  17.046  -1.986  1.00 20.00     0.067 A 
HETATM    3  C3  UNL     1     -33.448  17.844  -0.857  1.00 20.00     0.056 A 
HETATM    4  C4  UNL     1     -34.578  18.267  -0.166  1.00 20.00    -0.001 A 
HETATM    5  C5  UNL     1     -34.871  16.701  -2.381  1.00 20.00     0.129 A 
HETATM    6  C6  UNL     1     -35.817  17.869  -0.642  1.00 20.00     0.135 A 
HETATM    7  C7  UNL     1     -34.459  19.125   1.052  1.00 20.00     0.053 C 
HETATM    8  N8  UNL     1     -31.067  18.516  -0.081  1.00 20.00    -0.191 NA
HETATM    9  N9  UNL     1     -35.993  17.093  -1.736  1.00 20.00    -0.224 NA
HETATM   10 CL10 UNL     1     -35.142  15.721  -3.763  1.00 20.00    -0.062 Cl
HETATM   11 CL11 UNL     1     -37.290  18.324   0.120  1.00 20.00    -0.062 Cl
ENDROOT
TORSDOF 0
ENDMDL
MODEL 5
REMARK VINA RESULT:      -4.3      1.787      2.237
REMARK  0 active torsions:
REMARK  status: ('A' for Active; 'I' for Inactive)
ROOT
HETATM    1  C1  UNL     1     -33.528  14.332  -4.153  1.00 20.00     0.100 C 
HETATM    2  C2  UNL     1     -35.901  14.450  -4.666  1.00 20.00     0.067 A 
HETATM    3  C3  UNL     1     -34.798  14.975  -4.005  1.00 20.00     0.056 A 
HETATM    4  C4  UNL     1     -34.944  16.111  -3.216  1.00 20.00    -0.001 A 
HETATM    5  C5  UNL     1     -37.120  15.090  -4.508  1.00 20.00     0.129 A 
HETATM    6  C6  UNL     1     -36.204  16.679  -3.122  1.00 20.00     0.135 A 
HETATM    7  C7  UNL     1     -33.776  16.699  -2.492  1.00 20.00     0.053 C 
HETATM    8  N8  UNL     1     -32.498  13.810  -4.273  1.00 20.00    -0.191 NA
HETATM    9  N9  UNL     1     -37.300  16.196  -3.750  1.00 20.00    -0.224 NA
HETATM   10 CL10 UNL     1     -38.535  14.513  -5.286  1.00 20.00    -0.062 Cl
HETATM   11 CL11 UNL     1     -36.517  18.084  -2.180  1.00 20.00    -0.062 Cl
ENDROOT
TORSDOF 0
ENDMDL
MODEL 6
REMARK VINA RESULT:      -4.2      6.805      7.970
REMARK  0 active torsions:
REMARK  status: ('A' for Active; 'I' for Inactive)
ROOT
HETATM    1  C1  UNL     1     -32.657  18.568  -0.321  1.00 20.00     0.100 C 
HETATM    2  C2  UNL     1     -34.523  18.668   1.234  1.00 20.00     0.067 A 
HETATM    3  C3  UNL     1     -33.151  18.704   1.015  1.00 20.00     0.056 A 
HETATM    4  C4  UNL     1     -32.286  18.871   2.091  1.00 20.00    -0.001 A 
HETATM    5  C5  UNL     1     -34.977  18.803   2.536  1.00 20.00     0.129 A 
HETATM    6  C6  UNL     1     -32.839  18.997   3.355  1.00 20.00     0.135 A 
HETATM    7  C7  UNL     1     -30.806  18.913   1.888  1.00 20.00     0.053 C 
HETATM    8  N8  UNL     1     -32.256  18.457  -1.405  1.00 20.00    -0.191 NA
HETATM    9  N9  UNL     1     -34.167  18.967   3.607  1.00 20.00    -0.224 NA
HETATM   10 CL10 UNL     1     -36.653  18.771   2.901  1.00 20.00    -0.062 Cl
HETATM   11 CL11 UNL     1     -31.879  19.209   4.767  1.00 20.00    -0.062 Cl
ENDROOT
TORSDOF 0
ENDMDL
MODEL 7
REMARK VINA RESULT:      -4.2      2.231      3.441
REMARK  0 active torsions:
REMARK  status: ('A' for Active; 'I' for Inactive)
ROOT
HETATM    1  C1  UNL     1     -34.664  16.293  -2.735  1.00 20.00     0.100 C 
HETATM    2  C2  UNL     1     -36.664  15.524  -3.884  1.00 20.00     0.067 A 
HETATM    3  C3  UNL     1     -35.277  15.579  -3.813  1.00 20.00     0.056 A 
HETATM    4  C4  UNL     1     -34.512  14.940  -4.783  1.00 20.00    -0.001 A 
HETATM    5  C5  UNL     1     -37.234  14.826  -4.936  1.00 20.00     0.129 A 
HETATM    6  C6  UNL     1     -35.177  14.267  -5.795  1.00 20.00     0.135 A 
HETATM    7  C7  UNL     1     -33.019  14.981  -4.734  1.00 20.00     0.053 C 
HETATM    8  N8  UNL     1     -34.167  16.873  -1.861  1.00 20.00    -0.191 NA
HETATM    9  N9  UNL     1     -36.523  14.193  -5.898  1.00 20.00    -0.224 NA
HETATM   10 CL10 UNL     1     -38.937  14.705  -5.104  1.00 20.00    -0.062 Cl
HETATM   11 CL11 UNL     1     -34.348  13.438  -7.054  1.00 20.00    -0.062 Cl
ENDROOT
TORSDOF 0
ENDMDL
MODEL 8
REMARK VINA RESULT:      -4.2      4.598      6.341
REMARK  0 active torsions:
REMARK  status: ('A' for Active; 'I' for Inactive)
ROOT
HETATM    1  C1  UNL     1     -33.420  17.424  -2.706  1.00 20.00     0.100 C 
HETATM    2  C2  UNL     1     -32.244  18.293  -0.764  1.00 20.00     0.067 A 
HETATM    3  C3  UNL     1     -33.426  17.837  -1.336  1.00 20.00     0.056 A 
HETATM    4  C4  UNL     1     -34.588  17.790  -0.573  1.00 20.00    -0.001 A 
HETATM    5  C5  UNL     1     -32.275  18.687   0.564  1.00 20.00     0.129 A 
HETATM    6  C6  UNL     1     -34.514  18.205   0.747  1.00 20.00     0.135 A 
HETATM    7  C7  UNL     1     -35.874  17.305  -1.159  1.00 20.00     0.053 C 
HETATM    8  N8  UNL     1     -33.415  17.088  -3.817  1.00 20.00    -0.191 NA
HETATM    9  N9  UNL     1     -33.384  18.655   1.338  1.00 20.00    -0.224 NA
HETATM   10 CL10 UNL     1     -30.864  19.262   1.354  1.00 20.00    -0.062 Cl
HETATM   11 CL11 UNL     1     -35.878  18.195   1.796  1.00 20.00    -0.062 Cl
ENDROOT
TORSDOF 0
ENDMDL
MODEL 9
REMARK VINA RESULT:      -4.2      1.656      3.042
REMARK  0 active torsions:
REMARK  status: ('A' for Active; 'I' for Inactive)
ROOT
HETATM    1  C1  UNL     1     -33.534  14.348  -4.165  1.00 20.00     0.100 C 
HETATM    2  C2  UNL     1     -34.902  16.095  -3.171  1.00 20.00     0.067 A 
HETATM    3  C3  UNL     1     -34.806  14.983  -3.999  1.00 20.00     0.056 A 
HETATM    4  C4  UNL     1     -35.941  14.506  -4.647  1.00 20.00    -0.001 A 
HETATM    5  C5  UNL     1     -36.144  16.692  -3.026  1.00 20.00     0.129 A 
HETATM    6  C6  UNL     1     -37.137  15.172  -4.435  1.00 20.00     0.135 A 
HETATM    7  C7  UNL     1     -35.870  13.312  -5.543  1.00 20.00     0.053 C 
HETATM    8  N8  UNL     1     -32.502  13.834  -4.300  1.00 20.00    -0.191 NA
HETATM    9  N9  UNL     1     -37.268  16.257  -3.639  1.00 20.00    -0.224 NA
HETATM   10 CL10 UNL     1     -36.357  18.069  -2.025  1.00 20.00    -0.062 Cl
HETATM   11 CL11 UNL     1     -38.610  14.684  -5.177  1.00 20.00    -0.062 Cl
ENDROOT
TORSDOF 0
ENDMDL
