MODEL 1
REMARK VINA RESULT:      -5.2      0.000      0.000
REMARK  0 active torsions:
REMARK  status: ('A' for Active; 'I' for Inactive)
ROOT
HETATM    1  C1  UNL     1     -34.176  14.190  -7.917  1.00 20.00    -0.004 C 
HETATM    2  C2  UNL     1     -34.183  15.578  -7.533  1.00 20.00    -0.003 C 
HETATM    3  C3  UNL     1     -34.793  13.263  -7.173  1.00 20.00    -0.025 C 
HETATM    4  C4  UNL     1     -34.618  15.971  -6.327  1.00 20.00    -0.009 C 
HETATM    5  C5  UNL     1     -33.945  14.808  -4.324  1.00 20.00     0.140 C 
HETATM    6  C6  UNL     1     -35.516  13.608  -5.899  1.00 20.00     0.048 C 
HETATM    7  C7  UNL     1     -33.667  15.888  -3.300  1.00 20.00     0.079 C 
HETATM    8  C8  UNL     1     -34.928  16.264  -2.549  1.00 20.00     0.008 C 
HETATM    9  C9  UNL     1     -36.026  16.688  -3.512  1.00 20.00     0.006 C 
HETATM   10  C10 UNL     1     -36.379  15.555  -4.491  1.00 20.00     0.001 C 
HETATM   11  C11 UNL     1     -35.146  15.003  -5.280  1.00 20.00     0.044 C 
HETATM   12  C12 UNL     1     -37.522  16.040  -5.399  1.00 20.00     0.011 C 
HETATM   13  O13 UNL     1     -33.148  13.875  -4.451  1.00 20.00    -0.297 OA
ENDROOT
TORSDOF 0
ENDMDL
MODEL 2
REMARK VINA RESULT:      -5.1      1.266      3.881
REMARK  0 active torsions:
REMARK  status: ('A' for Active; 'I' for Inactive)
ROOT
HETATM    1  C1  UNL     1     -34.691  16.681  -2.049  1.00 20.00    -0.004 C 
HETATM    2  C2  UNL     1     -36.005  16.552  -2.625  1.00 20.00    -0.003 C 
HETATM    3  C3  UNL     1     -33.590  16.568  -2.803  1.00 20.00    -0.025 C 
HETATM    4  C4  UNL     1     -36.181  16.113  -3.880  1.00 20.00    -0.009 C 
HETATM    5  C5  UNL     1     -34.985  14.186  -4.701  1.00 20.00     0.140 C 
HETATM    6  C6  UNL     1     -33.655  16.295  -4.282  1.00 20.00     0.048 C 
HETATM    7  C7  UNL     1     -35.992  13.396  -5.510  1.00 20.00     0.079 C 
HETATM    8  C8  UNL     1     -36.031  13.871  -6.947  1.00 20.00     0.008 C 
HETATM    9  C9  UNL     1     -36.319  15.363  -7.017  1.00 20.00     0.006 C 
HETATM   10  C10 UNL     1     -35.240  16.175  -6.279  1.00 20.00     0.001 C 
HETATM   11  C11 UNL     1     -35.029  15.730  -4.794  1.00 20.00     0.044 C 
HETATM   12  C12 UNL     1     -35.574  17.670  -6.431  1.00 20.00     0.011 C 
HETATM   13  O13 UNL     1     -34.248  13.596  -3.908  1.00 20.00    -0.297 OA
ENDROOT
TORSDOF 0
ENDMDL
MODEL 3
REMARK VINA RESULT:      -5.1      0.953      3.992
REMARK  0 active torsions:
REMARK  status: ('A' for Active; 'I' for Inactive)
ROOT
HETATM    1  C1  UNL     1     -35.680  16.524  -2.583  1.00 20.00    -0.004 C 
HETATM    2  C2  UNL     1     -36.475  16.532  -3.784  1.00 20.00    -0.003 C 
HETATM    3  C3  UNL     1     -34.351  16.380  -2.634  1.00 20.00    -0.025 C 
HETATM    4  C4  UNL     1     -35.955  16.191  -4.972  1.00 20.00    -0.009 C 
HETATM    5  C5  UNL     1     -34.558  14.239  -5.202  1.00 20.00     0.140 C 
HETATM    6  C6  UNL     1     -33.611  16.209  -3.934  1.00 20.00     0.048 C 
HETATM    7  C7  UNL     1     -34.987  13.580  -6.497  1.00 20.00     0.079 C 
HETATM    8  C8  UNL     1     -34.229  14.151  -7.676  1.00 20.00     0.008 C 
HETATM    9  C9  UNL     1     -34.392  15.661  -7.747  1.00 20.00     0.006 C 
HETATM   10  C10 UNL     1     -33.863  16.340  -6.471  1.00 20.00     0.001 C 
HETATM   11  C11 UNL     1     -34.502  15.784  -5.156  1.00 20.00     0.044 C 
HETATM   12  C12 UNL     1     -34.020  17.862  -6.634  1.00 20.00     0.011 C 
HETATM   13  O13 UNL     1     -34.384  13.544  -4.198  1.00 20.00    -0.297 OA
ENDROOT
TORSDOF 0
ENDMDL
MODEL 4
REMARK VINA RESULT:      -4.9      1.879      3.980
REMARK  0 active torsions:
REMARK  status: ('A' for Active; 'I' for Inactive)
ROOT
HETATM    1  C1  UNL     1     -33.290  17.982  -2.029  1.00 20.00    -0.004 C 
HETATM    2  C2  UNL     1     -34.251  17.045  -1.508  1.00 20.00    -0.003 C 
HETATM    3  C3  UNL     1     -33.311  18.352  -3.315  1.00 20.00    -0.025 C 
HETATM    4  C4  UNL     1     -35.064  16.351  -2.317  1.00 20.00    -0.009 C 
HETATM    5  C5  UNL     1     -34.221  15.285  -4.309  1.00 20.00     0.140 C 
HETATM    6  C6  UNL     1     -34.323  17.811  -4.289  1.00 20.00     0.048 C 
HETATM    7  C7  UNL     1     -34.901  13.934  -4.368  1.00 20.00     0.079 C 
HETATM    8  C8  UNL     1     -36.231  14.023  -5.088  1.00 20.00     0.008 C 
HETATM    9  C9  UNL     1     -37.130  15.063  -4.439  1.00 20.00     0.006 C 
HETATM   10  C10 UNL     1     -36.481  16.459  -4.468  1.00 20.00     0.001 C 
HETATM   11  C11 UNL     1     -35.053  16.498  -3.829  1.00 20.00     0.044 C 
HETATM   12  C12 UNL     1     -37.464  17.461  -3.837  1.00 20.00     0.011 C 
HETATM   13  O13 UNL     1     -33.009  15.363  -4.525  1.00 20.00    -0.297 OA
ENDROOT
TORSDOF 0
ENDMDL
MODEL 5
REMARK VINA RESULT:      -4.8      2.549      4.812
REMARK  0 active torsions:
REMARK  status: ('A' for Active; 'I' for Inactive)
ROOT
HETATM    1  C1  UNL     1     -34.427  17.493  -0.847  1.00 20.00    -0.004 C 
HETATM    2  C2  UNL     1     -33.226  17.569  -1.638  1.00 20.00    -0.003 C 
HETATM    3  C3  UNL     1     -35.535  16.911  -1.325  1.00 20.00    -0.025 C 
HETATM    4  C4  UNL     1     -33.223  17.257  -2.942  1.00 20.00    -0.009 C 
HETATM    5  C5  UNL     1     -34.953  18.063  -4.416  1.00 20.00     0.140 C 
HETATM    6  C6  UNL     1     -35.596  16.316  -2.707  1.00 20.00     0.048 C 
HETATM    7  C7  UNL     1     -34.245  18.468  -5.692  1.00 20.00     0.079 C 
HETATM    8  C8  UNL     1     -34.111  17.294  -6.638  1.00 20.00     0.008 C 
HETATM    9  C9  UNL     1     -33.403  16.130  -5.963  1.00 20.00     0.006 C 
HETATM   10  C10 UNL     1     -34.175  15.652  -4.721  1.00 20.00     0.001 C 
HETATM   11  C11 UNL     1     -34.463  16.790  -3.686  1.00 20.00     0.044 C 
HETATM   12  C12 UNL     1     -33.425  14.451  -4.119  1.00 20.00     0.011 C 
HETATM   13  O13 UNL     1     -35.807  18.811  -3.934  1.00 20.00    -0.297 OA
ENDROOT
TORSDOF 0
ENDMDL
MODEL 6
REMARK VINA RESULT:      -4.7      2.213      4.330
REMARK  0 active torsions:
REMARK  status: ('A' for Active; 'I' for Inactive)
ROOT
HETATM    1  C1  UNL     1     -33.259  18.833  -3.207  1.00 20.00    -0.004 C 
HETATM    2  C2  UNL     1     -33.518  18.361  -4.543  1.00 20.00    -0.003 C 
HETATM    3  C3  UNL     1     -33.465  18.047  -2.143  1.00 20.00    -0.025 C 
HETATM    4  C4  UNL     1     -34.164  17.208  -4.767  1.00 20.00    -0.009 C 
HETATM    5  C5  UNL     1     -36.168  16.649  -3.546  1.00 20.00     0.140 C 
HETATM    6  C6  UNL     1     -33.983  16.639  -2.274  1.00 20.00     0.048 C 
HETATM    7  C7  UNL     1     -37.109  16.040  -4.564  1.00 20.00     0.079 C 
HETATM    8  C8  UNL     1     -36.881  14.549  -4.694  1.00 20.00     0.008 C 
HETATM    9  C9  UNL     1     -35.430  14.250  -5.039  1.00 20.00     0.006 C 
HETATM   10  C10 UNL     1     -34.477  14.782  -3.954  1.00 20.00     0.001 C 
HETATM   11  C11 UNL     1     -34.663  16.305  -3.650  1.00 20.00     0.044 C 
HETATM   12  C12 UNL     1     -33.038  14.405  -4.349  1.00 20.00     0.011 C 
HETATM   13  O13 UNL     1     -36.598  17.485  -2.748  1.00 20.00    -0.297 OA
ENDROOT
TORSDOF 0
ENDMDL
MODEL 7
REMARK VINA RESULT:      -4.6      1.881      3.128
REMARK  0 active torsions:
REMARK  status: ('A' for Active; 'I' for Inactive)
ROOT
HETATM    1  C1  UNL     1     -36.260  14.176  -5.074  1.00 20.00    -0.004 C 
HETATM    2  C2  UNL     1     -36.811  15.489  -4.856  1.00 20.00    -0.003 C 
HETATM    3  C3  UNL     1     -35.051  13.847  -4.602  1.00 20.00    -0.025 C 
HETATM    4  C4  UNL     1     -36.068  16.490  -4.365  1.00 20.00    -0.009 C 
HETATM    5  C5  UNL     1     -33.846  16.915  -5.201  1.00 20.00     0.140 C 
HETATM    6  C6  UNL     1     -34.198  14.820  -3.831  1.00 20.00     0.048 C 
HETATM    7  C7  UNL     1     -33.732  18.421  -5.309  1.00 20.00     0.079 C 
HETATM    8  C8  UNL     1     -33.260  19.028  -4.005  1.00 20.00     0.008 C 
HETATM    9  C9  UNL     1     -34.173  18.628  -2.858  1.00 20.00     0.006 C 
HETATM   10  C10 UNL     1     -34.212  17.099  -2.682  1.00 20.00     0.001 C 
HETATM   11  C11 UNL     1     -34.605  16.329  -3.986  1.00 20.00     0.044 C 
HETATM   12  C12 UNL     1     -35.117  16.774  -1.481  1.00 20.00     0.011 C 
HETATM   13  O13 UNL     1     -33.444  16.209  -6.129  1.00 20.00    -0.297 OA
ENDROOT
TORSDOF 0
ENDMDL
MODEL 8
REMARK VINA RESULT:      -4.6      1.693      2.903
REMARK  0 active torsions:
REMARK  status: ('A' for Active; 'I' for Inactive)
ROOT
HETATM    1  C1  UNL     1     -35.541  13.312  -7.432  1.00 20.00    -0.004 C 
HETATM    2  C2  UNL     1     -35.866  13.258  -6.030  1.00 20.00    -0.003 C 
HETATM    3  C3  UNL     1     -34.572  14.115  -7.888  1.00 20.00    -0.025 C 
HETATM    4  C4  UNL     1     -35.367  14.148  -5.159  1.00 20.00    -0.009 C 
HETATM    5  C5  UNL     1     -35.341  16.505  -5.669  1.00 20.00     0.140 C 
HETATM    6  C6  UNL     1     -33.776  15.010  -6.975  1.00 20.00     0.048 C 
HETATM    7  C7  UNL     1     -35.740  17.204  -4.387  1.00 20.00     0.079 C 
HETATM    8  C8  UNL     1     -34.533  17.472  -3.513  1.00 20.00     0.008 C 
HETATM    9  C9  UNL     1     -33.775  16.185  -3.225  1.00 20.00     0.006 C 
HETATM   10  C10 UNL     1     -33.282  15.525  -4.524  1.00 20.00     0.001 C 
HETATM   11  C11 UNL     1     -34.420  15.265  -5.566  1.00 20.00     0.044 C 
HETATM   12  C12 UNL     1     -32.490  14.258  -4.152  1.00 20.00     0.011 C 
HETATM   13  O13 UNL     1     -35.848  16.860  -6.736  1.00 20.00    -0.297 OA
ENDROOT
TORSDOF 0
ENDMDL
MODEL 9
REMARK VINA RESULT:      -4.5      2.251      3.291
REMARK  0 active torsions:
REMARK  status: ('A' for Active; 'I' for Inactive)
ROOT
HETATM    1  C1  UNL     1     -37.434  14.656  -6.199  1.00 20.00    -0.004 C 
HETATM    2  C2  UNL     1     -36.630  13.979  -5.214  1.00 20.00    -0.003 C 
HETATM    3  C3  UNL     1     -37.174  15.919  -6.556  1.00 20.00    -0.025 C 
HETATM    4  C4  UNL     1     -35.732  14.639  -4.468  1.00 20.00    -0.009 C 
HETATM    5  C5  UNL     1     -36.283  16.747  -3.434  1.00 20.00     0.140 C 
HETATM    6  C6  UNL     1     -36.043  16.708  -5.950  1.00 20.00     0.048 C 
HETATM    7  C7  UNL     1     -35.681  16.690  -2.046  1.00 20.00     0.079 C 
HETATM    8  C8  UNL     1     -34.246  17.173  -2.055  1.00 20.00     0.008 C 
HETATM    9  C9  UNL     1     -33.412  16.380  -3.049  1.00 20.00     0.006 C 
HETATM   10  C10 UNL     1     -33.966  16.518  -4.478  1.00 20.00     0.001 C 
HETATM   11  C11 UNL     1     -35.477  16.131  -4.603  1.00 20.00     0.044 C 
HETATM   12  C12 UNL     1     -33.050  15.728  -5.429  1.00 20.00     0.011 C 
HETATM   13  O13 UNL     1     -37.435  17.165  -3.578  1.00 20.00    -0.297 OA
ENDROOT
TORSDOF 0
ENDMDL
