MODEL 1
REMARK VINA RESULT:      -3.6      0.000      0.000
REMARK  0 active torsions:
REMARK  status: ('A' for Active; 'I' for Inactive)
ROOT
HETATM    1  C1  UNL     1     -33.092   6.724   2.368  1.00 20.00     0.147 A 
HETATM    2  C2  UNL     1     -34.437   6.318   5.909  1.00 20.00     0.168 A 
HETATM    3  C3  UNL     1     -33.668   6.485   3.649  1.00 20.00     0.061 A 
HETATM    4  C4  UNL     1     -33.081   7.328   4.551  1.00 20.00     0.134 A 
HETATM    5  N5  UNL     1     -32.142   7.653   2.234  1.00 20.00    -0.220 NA
HETATM    6  N6  UNL     1     -33.506   7.248   5.842  1.00 20.00    -0.244 NA
HETATM    7  S7  UNL     1     -34.850   5.498   4.442  1.00 20.00    -0.078 SA
HETATM    8  S8  UNL     1     -31.890   8.324   3.757  1.00 20.00     0.032 SA
ENDROOT
TORSDOF 0
ENDMDL
MODEL 2
REMARK VINA RESULT:      -3.6      0.949      3.613
REMARK  0 active torsions:
REMARK  status: ('A' for Active; 'I' for Inactive)
ROOT
HETATM    1  C1  UNL     1     -33.653   7.118   5.840  1.00 20.00     0.147 A 
HETATM    2  C2  UNL     1     -32.323   7.624   2.306  1.00 20.00     0.168 A 
HETATM    3  C3  UNL     1     -33.082   7.392   4.564  1.00 20.00     0.061 A 
HETATM    4  C4  UNL     1     -33.669   6.572   3.642  1.00 20.00     0.134 A 
HETATM    5  N5  UNL     1     -34.598   6.181   5.952  1.00 20.00    -0.220 NA
HETATM    6  N6  UNL     1     -33.250   6.689   2.352  1.00 20.00    -0.244 NA
HETATM    7  S7  UNL     1     -31.906   8.405   3.793  1.00 20.00    -0.078 SA
HETATM    8  S8  UNL     1     -34.853   5.551   4.413  1.00 20.00     0.032 SA
ENDROOT
TORSDOF 0
ENDMDL
MODEL 3
REMARK VINA RESULT:      -3.5     11.815     12.722
REMARK  0 active torsions:
REMARK  status: ('A' for Active; 'I' for Inactive)
ROOT
HETATM    1  C1  UNL     1     -35.583  13.532  -4.909  1.00 20.00     0.147 A 
HETATM    2  C2  UNL     1     -33.329  16.602  -4.941  1.00 20.00     0.168 A 
HETATM    3  C3  UNL     1     -34.775  14.699  -4.806  1.00 20.00     0.061 A 
HETATM    4  C4  UNL     1     -34.127  14.883  -5.995  1.00 20.00     0.134 A 
HETATM    5  N5  UNL     1     -35.597  12.836  -6.050  1.00 20.00    -0.220 NA
HETATM    6  N6  UNL     1     -33.300  15.960  -6.091  1.00 20.00    -0.244 NA
HETATM    7  S7  UNL     1     -34.339  15.954  -3.694  1.00 20.00    -0.078 SA
HETATM    8  S8  UNL     1     -34.562  13.623  -7.119  1.00 20.00     0.032 SA
ENDROOT
TORSDOF 0
ENDMDL
MODEL 4
REMARK VINA RESULT:      -3.3      1.717      3.012
REMARK  0 active torsions:
REMARK  status: ('A' for Active; 'I' for Inactive)
ROOT
HETATM    1  C1  UNL     1     -34.521   5.960   3.287  1.00 20.00     0.147 A 
HETATM    2  C2  UNL     1     -31.669   8.481   3.427  1.00 20.00     0.168 A 
HETATM    3  C3  UNL     1     -33.450   6.896   3.218  1.00 20.00     0.061 A 
HETATM    4  C4  UNL     1     -33.137   7.290   4.489  1.00 20.00     0.134 A 
HETATM    5  N5  UNL     1     -35.030   5.625   4.475  1.00 20.00    -0.220 NA
HETATM    6  N6  UNL     1     -32.127   8.191   4.628  1.00 20.00    -0.244 NA
HETATM    7  S7  UNL     1     -32.418   7.696   2.079  1.00 20.00    -0.078 SA
HETATM    8  S8  UNL     1     -34.173   6.487   5.639  1.00 20.00     0.032 SA
ENDROOT
TORSDOF 0
ENDMDL
MODEL 5
REMARK VINA RESULT:      -3.3      1.693      2.020
REMARK  0 active torsions:
REMARK  status: ('A' for Active; 'I' for Inactive)
ROOT
HETATM    1  C1  UNL     1     -32.103   8.207   4.404  1.00 20.00     0.147 A 
HETATM    2  C2  UNL     1     -34.943   5.669   4.366  1.00 20.00     0.168 A 
HETATM    3  C3  UNL     1     -33.168   7.267   4.511  1.00 20.00     0.061 A 
HETATM    4  C4  UNL     1     -33.505   6.850   3.254  1.00 20.00     0.134 A 
HETATM    5  N5  UNL     1     -31.622   8.526   3.200  1.00 20.00    -0.220 NA
HETATM    6  N6  UNL     1     -34.513   5.941   3.152  1.00 20.00    -0.244 NA
HETATM    7  S7  UNL     1     -34.171   6.481   5.685  1.00 20.00    -0.078 SA
HETATM    8  S8  UNL     1     -32.498   7.639   2.069  1.00 20.00     0.032 SA
ENDROOT
TORSDOF 0
ENDMDL
MODEL 6
REMARK VINA RESULT:      -3.3     11.850     12.157
REMARK  0 active torsions:
REMARK  status: ('A' for Active; 'I' for Inactive)
ROOT
HETATM    1  C1  UNL     1     -36.007  13.477  -5.291  1.00 20.00     0.147 A 
HETATM    2  C2  UNL     1     -33.737  16.030  -3.607  1.00 20.00     0.168 A 
HETATM    3  C3  UNL     1     -35.065  14.361  -4.692  1.00 20.00     0.061 A 
HETATM    4  C4  UNL     1     -35.743  15.420  -4.157  1.00 20.00     0.134 A 
HETATM    5  N5  UNL     1     -37.309  13.775  -5.252  1.00 20.00    -0.220 NA
HETATM    6  N6  UNL     1     -35.005  16.380  -3.535  1.00 20.00    -0.244 NA
HETATM    7  S7  UNL     1     -33.364  14.547  -4.416  1.00 20.00    -0.078 SA
HETATM    8  S8  UNL     1     -37.455  15.238  -4.433  1.00 20.00     0.032 SA
ENDROOT
TORSDOF 0
ENDMDL
MODEL 7
REMARK VINA RESULT:      -3.3     12.074     12.944
REMARK  0 active torsions:
REMARK  status: ('A' for Active; 'I' for Inactive)
ROOT
HETATM    1  C1  UNL     1     -33.296  16.228  -5.694  1.00 20.00     0.147 A 
HETATM    2  C2  UNL     1     -35.015  13.165  -7.168  1.00 20.00     0.168 A 
HETATM    3  C3  UNL     1     -33.894  15.116  -6.353  1.00 20.00     0.061 A 
HETATM    4  C4  UNL     1     -34.574  14.378  -5.425  1.00 20.00     0.134 A 
HETATM    5  N5  UNL     1     -33.464  16.385  -4.379  1.00 20.00    -0.220 NA
HETATM    6  N6  UNL     1     -35.218  13.264  -5.870  1.00 20.00    -0.244 NA
HETATM    7  S7  UNL     1     -34.050  14.389  -7.918  1.00 20.00    -0.078 SA
HETATM    8  S8  UNL     1     -34.420  15.105  -3.848  1.00 20.00     0.032 SA
ENDROOT
TORSDOF 0
ENDMDL
MODEL 8
REMARK VINA RESULT:      -3.2     11.791     12.236
REMARK  0 active torsions:
REMARK  status: ('A' for Active; 'I' for Inactive)
ROOT
HETATM    1  C1  UNL     1     -37.671  15.051  -4.486  1.00 20.00     0.147 A 
HETATM    2  C2  UNL     1     -34.314  16.198  -3.099  1.00 20.00     0.168 A 
HETATM    3  C3  UNL     1     -36.476  15.568  -3.910  1.00 20.00     0.061 A 
HETATM    4  C4  UNL     1     -35.426  14.800  -4.328  1.00 20.00     0.134 A 
HETATM    5  N5  UNL     1     -37.610  13.982  -5.285  1.00 20.00    -0.220 NA
HETATM    6  N6  UNL     1     -34.188  15.143  -3.877  1.00 20.00    -0.244 NA
HETATM    7  S7  UNL     1     -35.908  16.830  -2.867  1.00 20.00    -0.078 SA
HETATM    8  S8  UNL     1     -35.992  13.528  -5.378  1.00 20.00     0.032 SA
ENDROOT
TORSDOF 0
ENDMDL
MODEL 9
REMARK VINA RESULT:      -3.1     11.816     12.267
REMARK  0 active torsions:
REMARK  status: ('A' for Active; 'I' for Inactive)
ROOT
HETATM    1  C1  UNL     1     -36.719  15.674  -3.862  1.00 20.00     0.147 A 
HETATM    2  C2  UNL     1     -33.038  14.894  -4.456  1.00 20.00     0.168 A 
HETATM    3  C3  UNL     1     -35.317  15.476  -4.012  1.00 20.00     0.061 A 
HETATM    4  C4  UNL     1     -35.116  14.399  -4.829  1.00 20.00     0.134 A 
HETATM    5  N5  UNL     1     -37.571  14.854  -4.483  1.00 20.00    -0.220 NA
HETATM    6  N6  UNL     1     -33.827  14.053  -5.093  1.00 20.00    -0.244 NA
HETATM    7  S7  UNL     1     -33.793  16.133  -3.513  1.00 20.00    -0.078 SA
HETATM    8  S8  UNL     1     -36.647  13.734  -5.334  1.00 20.00     0.032 SA
ENDROOT
TORSDOF 0
ENDMDL
