MODEL 1
REMARK VINA RESULT:      -4.7      0.000      0.000
REMARK  0 active torsions:
REMARK  status: ('A' for Active; 'I' for Inactive)
ROOT
HETATM    1  C1  UNL     1     -33.808   6.496   4.637  1.00 20.00     0.076 A 
HETATM    2  C2  UNL     1     -33.895   5.391   3.839  1.00 20.00     0.123 A 
HETATM    3  C3  UNL     1     -32.835   7.301   2.903  1.00 20.00     0.073 A 
HETATM    4  C4  UNL     1     -34.819   4.733   5.583  1.00 20.00     0.097 A 
HETATM    5  C5  UNL     1     -34.426   6.193   5.929  1.00 20.00     0.109 A 
HETATM    6  C6  UNL     1     -32.137   8.230   1.986  1.00 20.00     0.079 C 
HETATM    7  N7  UNL     1     -33.209   7.605   4.136  1.00 20.00    -0.248 NA
HETATM    8  N8  UNL     1     -34.502   4.308   4.384  1.00 20.00    -0.255 NA
HETATM    9  S9  UNL     1     -33.197   5.693   2.341  1.00 20.00    -0.053 SA
ENDROOT
TORSDOF 0
ENDMDL
MODEL 2
REMARK VINA RESULT:      -4.5      1.814      2.019
REMARK  0 active torsions:
REMARK  status: ('A' for Active; 'I' for Inactive)
ROOT
HETATM    1  C1  UNL     1     -33.792   6.538   3.677  1.00 20.00     0.076 A 
HETATM    2  C2  UNL     1     -33.266   7.249   4.718  1.00 20.00     0.123 A 
HETATM    3  C3  UNL     1     -32.474   7.795   2.544  1.00 20.00     0.073 A 
HETATM    4  C4  UNL     1     -34.583   5.972   5.697  1.00 20.00     0.097 A 
HETATM    5  C5  UNL     1     -34.758   5.575   4.209  1.00 20.00     0.109 A 
HETATM    6  C6  UNL     1     -31.750   8.415   1.411  1.00 20.00     0.079 C 
HETATM    7  N7  UNL     1     -33.364   6.822   2.422  1.00 20.00    -0.248 NA
HETATM    8  N8  UNL     1     -33.724   6.929   5.953  1.00 20.00    -0.255 NA
HETATM    9  S9  UNL     1     -32.148   8.370   4.155  1.00 20.00    -0.053 SA
ENDROOT
TORSDOF 0
ENDMDL
MODEL 3
REMARK VINA RESULT:      -4.0      1.394      3.685
REMARK  0 active torsions:
REMARK  status: ('A' for Active; 'I' for Inactive)
ROOT
HETATM    1  C1  UNL     1     -32.675   7.626   4.070  1.00 20.00     0.076 A 
HETATM    2  C2  UNL     1     -33.130   7.098   2.896  1.00 20.00     0.123 A 
HETATM    3  C3  UNL     1     -34.034   6.186   4.896  1.00 20.00     0.073 A 
HETATM    4  C4  UNL     1     -31.781   8.532   2.224  1.00 20.00     0.097 A 
HETATM    5  C5  UNL     1     -31.696   8.672   3.766  1.00 20.00     0.109 A 
HETATM    6  C6  UNL     1     -34.811   5.380   5.864  1.00 20.00     0.079 C 
HETATM    7  N7  UNL     1     -33.168   7.130   5.232  1.00 20.00    -0.248 NA
HETATM    8  N8  UNL     1     -32.608   7.626   1.761  1.00 20.00    -0.255 NA
HETATM    9  S9  UNL     1     -34.259   5.890   3.195  1.00 20.00    -0.053 SA
ENDROOT
TORSDOF 0
ENDMDL
MODEL 4
REMARK VINA RESULT:      -3.8     12.315     12.545
REMARK  0 active torsions:
REMARK  status: ('A' for Active; 'I' for Inactive)
ROOT
HETATM    1  C1  UNL     1     -35.632  14.632  -4.809  1.00 20.00     0.076 A 
HETATM    2  C2  UNL     1     -34.400  14.333  -5.317  1.00 20.00     0.123 A 
HETATM    3  C3  UNL     1     -34.456  15.813  -3.458  1.00 20.00     0.073 A 
HETATM    4  C4  UNL     1     -35.653  13.232  -6.560  1.00 20.00     0.097 A 
HETATM    5  C5  UNL     1     -36.646  13.922  -5.590  1.00 20.00     0.109 A 
HETATM    6  C6  UNL     1     -34.070  16.724  -2.357  1.00 20.00     0.079 C 
HETATM    7  N7  UNL     1     -35.703  15.474  -3.748  1.00 20.00    -0.248 NA
HETATM    8  N8  UNL     1     -34.380  13.488  -6.377  1.00 20.00    -0.255 NA
HETATM    9  S9  UNL     1     -33.200  15.128  -4.451  1.00 20.00    -0.053 SA
ENDROOT
TORSDOF 0
ENDMDL
MODEL 5
REMARK VINA RESULT:      -3.7     12.619     13.448
REMARK  0 active torsions:
REMARK  status: ('A' for Active; 'I' for Inactive)
ROOT
HETATM    1  C1  UNL     1     -33.837  15.489  -6.283  1.00 20.00     0.076 A 
HETATM    2  C2  UNL     1     -34.261  14.276  -5.821  1.00 20.00     0.123 A 
HETATM    3  C3  UNL     1     -33.820  15.944  -4.187  1.00 20.00     0.073 A 
HETATM    4  C4  UNL     1     -34.234  13.964  -7.877  1.00 20.00     0.097 A 
HETATM    5  C5  UNL     1     -33.763  15.435  -7.744  1.00 20.00     0.109 A 
HETATM    6  C6  UNL     1     -33.665  16.671  -2.907  1.00 20.00     0.079 C 
HETATM    7  N7  UNL     1     -33.575  16.466  -5.379  1.00 20.00    -0.248 NA
HETATM    8  N8  UNL     1     -34.510  13.332  -6.762  1.00 20.00    -0.255 NA
HETATM    9  S9  UNL     1     -34.362  14.290  -4.144  1.00 20.00    -0.053 SA
ENDROOT
TORSDOF 0
ENDMDL
MODEL 6
REMARK VINA RESULT:      -3.6     12.029     12.561
REMARK  0 active torsions:
REMARK  status: ('A' for Active; 'I' for Inactive)
ROOT
HETATM    1  C1  UNL     1     -35.285  15.357  -4.000  1.00 20.00     0.076 A 
HETATM    2  C2  UNL     1     -35.058  14.293  -4.827  1.00 20.00     0.123 A 
HETATM    3  C3  UNL     1     -37.317  14.989  -4.579  1.00 20.00     0.073 A 
HETATM    4  C4  UNL     1     -33.134  14.754  -4.187  1.00 20.00     0.097 A 
HETATM    5  C5  UNL     1     -34.003  15.809  -3.456  1.00 20.00     0.109 A 
HETATM    6  C6  UNL     1     -38.789  15.101  -4.695  1.00 20.00     0.079 C 
HETATM    7  N7  UNL     1     -36.562  15.782  -3.834  1.00 20.00    -0.248 NA
HETATM    8  N8  UNL     1     -33.766  13.905  -4.961  1.00 20.00    -0.255 NA
HETATM    9  S9  UNL     1     -36.505  13.737  -5.477  1.00 20.00    -0.053 SA
ENDROOT
TORSDOF 0
ENDMDL
MODEL 7
REMARK VINA RESULT:      -3.5     12.344     12.612
REMARK  0 active torsions:
REMARK  status: ('A' for Active; 'I' for Inactive)
ROOT
HETATM    1  C1  UNL     1     -36.834  15.674  -4.023  1.00 20.00     0.076 A 
HETATM    2  C2  UNL     1     -36.207  14.602  -4.592  1.00 20.00     0.123 A 
HETATM    3  C3  UNL     1     -34.859  16.054  -3.279  1.00 20.00     0.073 A 
HETATM    4  C4  UNL     1     -38.164  14.347  -5.247  1.00 20.00     0.097 A 
HETATM    5  C5  UNL     1     -38.250  15.640  -4.396  1.00 20.00     0.109 A 
HETATM    6  C6  UNL     1     -33.718  16.681  -2.573  1.00 20.00     0.079 C 
HETATM    7  N7  UNL     1     -36.096  16.524  -3.267  1.00 20.00    -0.248 NA
HETATM    8  N8  UNL     1     -36.985  13.781  -5.339  1.00 20.00    -0.255 NA
HETATM    9  S9  UNL     1     -34.575  14.598  -4.192  1.00 20.00    -0.053 SA
ENDROOT
TORSDOF 0
ENDMDL
MODEL 8
REMARK VINA RESULT:      -3.5     12.264     12.568
REMARK  0 active torsions:
REMARK  status: ('A' for Active; 'I' for Inactive)
ROOT
HETATM    1  C1  UNL     1     -35.352  14.888  -4.201  1.00 20.00     0.076 A 
HETATM    2  C2  UNL     1     -36.484  15.616  -3.967  1.00 20.00     0.123 A 
HETATM    3  C3  UNL     1     -34.493  16.368  -2.908  1.00 20.00     0.073 A 
HETATM    4  C4  UNL     1     -37.192  14.124  -5.230  1.00 20.00     0.097 A 
HETATM    5  C5  UNL     1     -35.687  13.776  -5.092  1.00 20.00     0.109 A 
HETATM    6  C6  UNL     1     -33.516  17.134  -2.102  1.00 20.00     0.079 C 
HETATM    7  N7  UNL     1     -34.197  15.287  -3.613  1.00 20.00    -0.248 NA
HETATM    8  N8  UNL     1     -37.613  15.179  -4.575  1.00 20.00    -0.255 NA
HETATM    9  S9  UNL     1     -36.148  16.907  -2.945  1.00 20.00    -0.053 SA
ENDROOT
TORSDOF 0
ENDMDL
MODEL 9
REMARK VINA RESULT:      -3.4     12.378     12.846
REMARK  0 active torsions:
REMARK  status: ('A' for Active; 'I' for Inactive)
ROOT
HETATM    1  C1  UNL     1     -34.238  17.585  -0.805  1.00 20.00     0.076 A 
HETATM    2  C2  UNL     1     -33.245  17.800  -1.718  1.00 20.00     0.123 A 
HETATM    3  C3  UNL     1     -35.122  16.546  -2.461  1.00 20.00     0.073 A 
HETATM    4  C4  UNL     1     -32.499  18.772  -0.038  1.00 20.00     0.097 A 
HETATM    5  C5  UNL     1     -33.860  18.219   0.459  1.00 20.00     0.109 A 
HETATM    6  C6  UNL     1     -36.069  15.761  -3.285  1.00 20.00     0.079 C 
HETATM    7  N7  UNL     1     -35.325  16.873  -1.194  1.00 20.00    -0.248 NA
HETATM    8  N8  UNL     1     -32.179  18.515  -1.283  1.00 20.00    -0.255 NA
HETATM    9  S9  UNL     1     -33.635  17.087  -3.188  1.00 20.00    -0.053 SA
ENDROOT
TORSDOF 0
ENDMDL
