MODEL 1
REMARK VINA RESULT:      -5.6      0.000      0.000
REMARK  2 active torsions:
REMARK  status: ('A' for Active; 'I' for Inactive)
REMARK    1  A    between atoms: C3_3  and  C4_4 
REMARK    2  A    between atoms: C4_4  and  C5_5 
ROOT
HETATM    1  C1  UNL     1     -32.763   9.451   0.636  1.00 20.00    -0.151 C 
HETATM    2  C2  UNL     1     -33.112   9.373  -0.611  1.00 20.00     0.096 C 
HETATM    3  C3  UNL     1     -32.414   9.531   1.885  1.00 20.00     0.103 C 
ENDROOT
BRANCH   3   4
HETATM    4  C4  UNL     1     -32.081   8.313   2.656  1.00 20.00     0.188 C 
HETATM    5  O9  UNL     1     -31.062   8.187   3.321  1.00 20.00    -0.290 OA
BRANCH   4   6
HETATM    6  C5  UNL     1     -33.063   7.232   2.580  1.00 20.00     0.230 A 
HETATM    7  C6  UNL     1     -33.792   6.726   3.810  1.00 20.00     0.088 A 
HETATM    8  C7  UNL     1     -35.084   5.993   3.631  1.00 20.00     0.049 C 
HETATM    9  C8  UNL     1     -33.546   7.330   5.156  1.00 20.00     0.049 C 
HETATM   10  O10 UNL     1     -32.657   6.038   3.270  1.00 20.00    -0.362 OA
ENDBRANCH   4   6
ENDBRANCH   3   4
TORSDOF 2
ENDMDL
MODEL 2
REMARK VINA RESULT:      -5.4      1.313      1.735
REMARK  2 active torsions:
REMARK  status: ('A' for Active; 'I' for Inactive)
REMARK    1  A    between atoms: C3_3  and  C4_4 
REMARK    2  A    between atoms: C4_4  and  C5_5 
ROOT
HETATM    1  C1  UNL     1     -32.553   9.176   1.337  1.00 20.00    -0.151 C 
HETATM    2  C2  UNL     1     -32.571  10.375   0.840  1.00 20.00     0.096 C 
HETATM    3  C3  UNL     1     -32.535   7.975   1.832  1.00 20.00     0.103 C 
ENDROOT
BRANCH   3   4
HETATM    4  C4  UNL     1     -32.416   7.762   3.291  1.00 20.00     0.188 C 
HETATM    5  O9  UNL     1     -31.450   8.117   3.953  1.00 20.00    -0.290 OA
BRANCH   4   6
HETATM    6  C5  UNL     1     -33.547   7.084   3.923  1.00 20.00     0.230 A 
HETATM    7  C6  UNL     1     -33.839   5.617   3.676  1.00 20.00     0.088 A 
HETATM    8  C7  UNL     1     -34.669   4.869   4.672  1.00 20.00     0.049 C 
HETATM    9  C8  UNL     1     -32.964   4.794   2.784  1.00 20.00     0.049 C 
HETATM   10  O10 UNL     1     -34.553   6.653   2.990  1.00 20.00    -0.362 OA
ENDBRANCH   4   6
ENDBRANCH   3   4
TORSDOF 2
ENDMDL
MODEL 3
REMARK VINA RESULT:      -5.1      1.216      4.175
REMARK  2 active torsions:
REMARK  status: ('A' for Active; 'I' for Inactive)
REMARK    1  A    between atoms: C3_3  and  C4_4 
REMARK    2  A    between atoms: C4_4  and  C5_5 
ROOT
HETATM    1  C1  UNL     1     -33.986   6.078   3.482  1.00 20.00    -0.151 C 
HETATM    2  C2  UNL     1     -35.095   5.756   4.073  1.00 20.00     0.096 C 
HETATM    3  C3  UNL     1     -32.875   6.399   2.889  1.00 20.00     0.103 C 
ENDROOT
BRANCH   3   4
HETATM    4  C4  UNL     1     -32.379   7.792   2.916  1.00 20.00     0.188 C 
HETATM    5  O9  UNL     1     -31.497   8.185   3.667  1.00 20.00    -0.290 OA
BRANCH   4   6
HETATM    6  C5  UNL     1     -33.018   8.706   1.969  1.00 20.00     0.230 A 
HETATM    7  C6  UNL     1     -32.359   9.090   0.659  1.00 20.00     0.088 A 
HETATM    8  C7  UNL     1     -33.214   9.612  -0.452  1.00 20.00     0.049 C 
HETATM    9  C8  UNL     1     -31.027   8.530   0.271  1.00 20.00     0.049 C 
HETATM   10  O10 UNL     1     -32.313   9.949   1.806  1.00 20.00    -0.362 OA
ENDBRANCH   4   6
ENDBRANCH   3   4
TORSDOF 2
ENDMDL
MODEL 4
REMARK VINA RESULT:      -5.0      1.737      2.591
REMARK  2 active torsions:
REMARK  status: ('A' for Active; 'I' for Inactive)
REMARK    1  A    between atoms: C3_3  and  C4_4 
REMARK    2  A    between atoms: C4_4  and  C5_5 
ROOT
HETATM    1  C1  UNL     1     -32.043   8.363   1.860  1.00 20.00    -0.151 C 
HETATM    2  C2  UNL     1     -31.776   9.132   0.849  1.00 20.00     0.096 C 
HETATM    3  C3  UNL     1     -32.309   7.595   2.874  1.00 20.00     0.103 C 
ENDROOT
BRANCH   3   4
HETATM    4  C4  UNL     1     -33.477   6.688   2.848  1.00 20.00     0.188 C 
HETATM    5  O9  UNL     1     -33.832   6.066   1.856  1.00 20.00    -0.290 OA
BRANCH   4   6
HETATM    6  C5  UNL     1     -34.210   6.568   4.108  1.00 20.00     0.230 A 
HETATM    7  C6  UNL     1     -34.481   5.223   4.750  1.00 20.00     0.088 A 
HETATM    8  C7  UNL     1     -34.788   5.171   6.214  1.00 20.00     0.049 C 
HETATM    9  C8  UNL     1     -33.990   3.955   4.126  1.00 20.00     0.049 C 
HETATM   10  O10 UNL     1     -35.477   5.902   3.974  1.00 20.00    -0.362 OA
ENDBRANCH   4   6
ENDBRANCH   3   4
TORSDOF 2
ENDMDL
MODEL 5
REMARK VINA RESULT:      -4.8      1.419      4.152
REMARK  2 active torsions:
REMARK  status: ('A' for Active; 'I' for Inactive)
REMARK    1  A    between atoms: C3_3  and  C4_4 
REMARK    2  A    between atoms: C4_4  and  C5_5 
ROOT
HETATM    1  C1  UNL     1     -34.232   6.574   5.018  1.00 20.00    -0.151 C 
HETATM    2  C2  UNL     1     -33.963   7.080   6.182  1.00 20.00     0.096 C 
HETATM    3  C3  UNL     1     -34.503   6.067   3.853  1.00 20.00     0.103 C 
ENDROOT
BRANCH   3   4
HETATM    4  C4  UNL     1     -33.438   5.884   2.843  1.00 20.00     0.188 C 
HETATM    5  O9  UNL     1     -32.754   4.873   2.751  1.00 20.00    -0.290 OA
BRANCH   4   6
HETATM    6  C5  UNL     1     -33.237   7.008   1.929  1.00 20.00     0.230 A 
HETATM    7  C6  UNL     1     -32.239   8.110   2.224  1.00 20.00     0.088 A 
HETATM    8  C7  UNL     1     -31.729   8.944   1.091  1.00 20.00     0.049 C 
HETATM    9  C8  UNL     1     -31.401   8.082   3.463  1.00 20.00     0.049 C 
HETATM   10  O10 UNL     1     -33.640   8.274   2.478  1.00 20.00    -0.362 OA
ENDBRANCH   4   6
ENDBRANCH   3   4
TORSDOF 2
ENDMDL
MODEL 6
REMARK VINA RESULT:      -4.7      1.144      4.385
REMARK  2 active torsions:
REMARK  status: ('A' for Active; 'I' for Inactive)
REMARK    1  A    between atoms: C3_3  and  C4_4 
REMARK    2  A    between atoms: C4_4  and  C5_5 
ROOT
HETATM    1  C1  UNL     1     -34.325   6.133   4.676  1.00 20.00    -0.151 C 
HETATM    2  C2  UNL     1     -34.674   5.060   5.318  1.00 20.00     0.096 C 
HETATM    3  C3  UNL     1     -33.977   7.208   4.035  1.00 20.00     0.103 C 
ENDROOT
BRANCH   3   4
HETATM    4  C4  UNL     1     -32.894   7.170   3.029  1.00 20.00     0.188 C 
HETATM    5  O9  UNL     1     -32.493   6.142   2.500  1.00 20.00    -0.290 OA
BRANCH   4   6
HETATM    6  C5  UNL     1     -32.305   8.465   2.687  1.00 20.00     0.230 A 
HETATM    7  C6  UNL     1     -32.546   9.124   1.344  1.00 20.00     0.088 A 
HETATM    8  C7  UNL     1     -32.342  10.601   1.218  1.00 20.00     0.049 C 
HETATM    9  C8  UNL     1     -33.418   8.479   0.313  1.00 20.00     0.049 C 
HETATM   10  O10 UNL     1     -31.343   8.395   1.621  1.00 20.00    -0.362 OA
ENDBRANCH   4   6
ENDBRANCH   3   4
TORSDOF 2
ENDMDL
MODEL 7
REMARK VINA RESULT:      -4.5      9.962     10.847
REMARK  2 active torsions:
REMARK  status: ('A' for Active; 'I' for Inactive)
REMARK    1  A    between atoms: C3_3  and  C4_4 
REMARK    2  A    between atoms: C4_4  and  C5_5 
ROOT
HETATM    1  C1  UNL     1     -34.327  16.212  -3.148  1.00 20.00    -0.151 C 
HETATM    2  C2  UNL     1     -35.181  16.472  -2.206  1.00 20.00     0.096 C 
HETATM    3  C3  UNL     1     -33.470  15.954  -4.090  1.00 20.00     0.103 C 
ENDROOT
BRANCH   3   4
HETATM    4  C4  UNL     1     -33.446  14.629  -4.746  1.00 20.00     0.188 C 
HETATM    5  O9  UNL     1     -32.963  13.627  -4.236  1.00 20.00    -0.290 OA
BRANCH   4   6
HETATM    6  C5  UNL     1     -34.048  14.574  -6.078  1.00 20.00     0.230 A 
HETATM    7  C6  UNL     1     -35.469  14.092  -6.294  1.00 20.00     0.088 A 
HETATM    8  C7  UNL     1     -36.184  14.494  -7.546  1.00 20.00     0.049 C 
HETATM    9  C8  UNL     1     -36.325  13.668  -5.143  1.00 20.00     0.049 C 
HETATM   10  O10 UNL     1     -34.341  13.238  -6.521  1.00 20.00    -0.362 OA
ENDBRANCH   4   6
ENDBRANCH   3   4
TORSDOF 2
ENDMDL
MODEL 8
REMARK VINA RESULT:      -4.3      1.514      4.215
REMARK  2 active torsions:
REMARK  status: ('A' for Active; 'I' for Inactive)
REMARK    1  A    between atoms: C3_3  and  C4_4 
REMARK    2  A    between atoms: C4_4  and  C5_5 
ROOT
HETATM    1  C1  UNL     1     -34.379   6.123   4.825  1.00 20.00    -0.151 C 
HETATM    2  C2  UNL     1     -34.608   5.091   5.578  1.00 20.00     0.096 C 
HETATM    3  C3  UNL     1     -34.151   7.156   4.071  1.00 20.00     0.103 C 
ENDROOT
BRANCH   3   4
HETATM    4  C4  UNL     1     -32.783   7.700   3.928  1.00 20.00     0.188 C 
HETATM    5  O9  UNL     1     -32.165   8.234   4.839  1.00 20.00    -0.290 OA
BRANCH   4   6
HETATM    6  C5  UNL     1     -32.186   7.564   2.599  1.00 20.00     0.230 A 
HETATM    7  C6  UNL     1     -32.229   8.689   1.585  1.00 20.00     0.088 A 
HETATM    8  C7  UNL     1     -31.230   8.694   0.471  1.00 20.00     0.049 C 
HETATM    9  C8  UNL     1     -32.872  10.000   1.911  1.00 20.00     0.049 C 
HETATM   10  O10 UNL     1     -33.149   7.592   1.532  1.00 20.00    -0.362 OA
ENDBRANCH   4   6
ENDBRANCH   3   4
TORSDOF 2
ENDMDL
MODEL 9
REMARK VINA RESULT:      -4.3     10.249     11.100
REMARK  2 active torsions:
REMARK  status: ('A' for Active; 'I' for Inactive)
REMARK    1  A    between atoms: C3_3  and  C4_4 
REMARK    2  A    between atoms: C4_4  and  C5_5 
ROOT
HETATM    1  C1  UNL     1     -34.445  16.509  -2.400  1.00 20.00    -0.151 C 
HETATM    2  C2  UNL     1     -35.098  16.918  -1.356  1.00 20.00     0.096 C 
HETATM    3  C3  UNL     1     -33.788  16.098  -3.444  1.00 20.00     0.103 C 
ENDROOT
BRANCH   3   4
HETATM    4  C4  UNL     1     -34.355  16.255  -4.801  1.00 20.00     0.188 C 
HETATM    5  O9  UNL     1     -35.043  17.207  -5.145  1.00 20.00    -0.290 OA
BRANCH   4   6
HETATM    6  C5  UNL     1     -34.041  15.181  -5.743  1.00 20.00     0.230 A 
HETATM    7  C6  UNL     1     -34.964  13.995  -5.939  1.00 20.00     0.088 A 
HETATM    8  C7  UNL     1     -34.860  13.202  -7.204  1.00 20.00     0.049 C 
HETATM    9  C8  UNL     1     -36.251  13.884  -5.184  1.00 20.00     0.049 C 
HETATM   10  O10 UNL     1     -33.799  13.914  -5.108  1.00 20.00    -0.362 OA
ENDBRANCH   4   6
ENDBRANCH   3   4
TORSDOF 2
ENDMDL
