MODEL 1
REMARK VINA RESULT:      -4.4      0.000      0.000
REMARK  1 active torsions:
REMARK  status: ('A' for Active; 'I' for Inactive)
REMARK    1  A    between atoms: C4_4  and  C5_5 
ROOT
HETATM    1  C1  UNL     1     -32.209   9.252   1.433  1.00 20.00     0.015 C 
HETATM    2  C2  UNL     1     -32.395   8.279   2.110  1.00 20.00    -0.083 C 
HETATM    3  C3  UNL     1     -32.617   7.121   2.916  1.00 20.00     0.229 A 
HETATM    4  C4  UNL     1     -33.946   6.934   3.601  1.00 20.00     0.177 A 
HETATM    5  O6  UNL     1     -32.805   7.432   4.307  1.00 20.00    -0.361 OA
ENDROOT
BRANCH   4   6
HETATM    6  C5  UNL     1     -34.401   5.588   4.037  1.00 20.00     0.150 C 
HETATM    7 CL7  UNL     1     -34.548   5.496   5.815  1.00 20.00    -0.128 Cl
ENDBRANCH   4   6
TORSDOF 1
ENDMDL
MODEL 2
REMARK VINA RESULT:      -4.4      2.977      4.067
REMARK  1 active torsions:
REMARK  status: ('A' for Active; 'I' for Inactive)
REMARK    1  A    between atoms: C4_4  and  C5_5 
ROOT
HETATM    1  C1  UNL     1     -33.949   7.093   5.760  1.00 20.00     0.015 C 
HETATM    2  C2  UNL     1     -33.200   7.343   4.857  1.00 20.00    -0.083 C 
HETATM    3  C3  UNL     1     -32.309   7.641   3.780  1.00 20.00     0.229 A 
HETATM    4  C4  UNL     1     -32.869   8.056   2.444  1.00 20.00     0.177 A 
HETATM    5  O6  UNL     1     -32.424   6.718   2.684  1.00 20.00    -0.361 OA
ENDROOT
BRANCH   4   6
HETATM    6  C5  UNL     1     -32.042   8.815   1.470  1.00 20.00     0.150 C 
HETATM    7 CL7  UNL     1     -32.780  10.395   1.082  1.00 20.00    -0.128 Cl
ENDBRANCH   4   6
TORSDOF 1
ENDMDL
MODEL 3
REMARK VINA RESULT:      -4.3      1.122      1.350
REMARK  1 active torsions:
REMARK  status: ('A' for Active; 'I' for Inactive)
REMARK    1  A    between atoms: C4_4  and  C5_5 
ROOT
HETATM    1  C1  UNL     1     -32.562  10.412   1.042  1.00 20.00     0.015 C 
HETATM    2  C2  UNL     1     -32.449   9.297   1.471  1.00 20.00    -0.083 C 
HETATM    3  C3  UNL     1     -32.316   7.970   1.982  1.00 20.00     0.229 A 
HETATM    4  C4  UNL     1     -33.261   7.486   3.052  1.00 20.00     0.177 A 
HETATM    5  O6  UNL     1     -31.941   7.937   3.370  1.00 20.00    -0.361 OA
ENDROOT
BRANCH   4   6
HETATM    6  C5  UNL     1     -33.487   6.034   3.276  1.00 20.00     0.150 C 
HETATM    7 CL7  UNL     1     -35.067   5.733   4.051  1.00 20.00    -0.128 Cl
ENDBRANCH   4   6
TORSDOF 1
ENDMDL
MODEL 4
REMARK VINA RESULT:      -4.3      3.043      4.195
REMARK  1 active torsions:
REMARK  status: ('A' for Active; 'I' for Inactive)
REMARK    1  A    between atoms: C4_4  and  C5_5 
ROOT
HETATM    1  C1  UNL     1     -33.268   4.984   2.944  1.00 20.00     0.015 C 
HETATM    2  C2  UNL     1     -33.158   6.178   2.899  1.00 20.00    -0.083 C 
HETATM    3  C3  UNL     1     -33.027   7.600   2.844  1.00 20.00     0.229 A 
HETATM    4  C4  UNL     1     -32.123   8.225   1.813  1.00 20.00     0.177 A 
HETATM    5  O6  UNL     1     -31.703   8.055   3.170  1.00 20.00    -0.361 OA
ENDROOT
BRANCH   4   6
HETATM    6  C5  UNL     1     -32.300   9.640   1.396  1.00 20.00     0.150 C 
HETATM    7 CL7  UNL     1     -33.066   9.753  -0.214  1.00 20.00    -0.128 Cl
ENDBRANCH   4   6
TORSDOF 1
ENDMDL
MODEL 5
REMARK VINA RESULT:      -4.2      2.571      4.043
REMARK  1 active torsions:
REMARK  status: ('A' for Active; 'I' for Inactive)
REMARK    1  A    between atoms: C4_4  and  C5_5 
ROOT
HETATM    1  C1  UNL     1     -34.523   4.696   4.372  1.00 20.00     0.015 C 
HETATM    2  C2  UNL     1     -34.225   5.823   4.086  1.00 20.00    -0.083 C 
HETATM    3  C3  UNL     1     -33.869   7.164   3.744  1.00 20.00     0.229 A 
HETATM    4  C4  UNL     1     -32.680   7.415   2.854  1.00 20.00     0.177 A 
HETATM    5  O6  UNL     1     -32.593   7.559   4.275  1.00 20.00    -0.361 OA
ENDROOT
BRANCH   4   6
HETATM    6  C5  UNL     1     -32.544   8.686   2.096  1.00 20.00     0.150 C 
HETATM    7 CL7  UNL     1     -31.349   8.532   0.777  1.00 20.00    -0.128 Cl
ENDBRANCH   4   6
TORSDOF 1
ENDMDL
MODEL 6
REMARK VINA RESULT:      -3.2     11.315     11.471
REMARK  1 active torsions:
REMARK  status: ('A' for Active; 'I' for Inactive)
REMARK    1  A    between atoms: C4_4  and  C5_5 
ROOT
HETATM    1  C1  UNL     1     -34.092  16.650  -2.486  1.00 20.00     0.015 C 
HETATM    2  C2  UNL     1     -34.138  15.855  -3.384  1.00 20.00    -0.083 C 
HETATM    3  C3  UNL     1     -34.194  14.908  -4.452  1.00 20.00     0.229 A 
HETATM    4  C4  UNL     1     -35.430  14.066  -4.636  1.00 20.00     0.177 A 
HETATM    5  O6  UNL     1     -34.260  13.548  -3.994  1.00 20.00    -0.361 OA
ENDROOT
BRANCH   4   6
HETATM    6  C5  UNL     1     -35.742  13.439  -5.946  1.00 20.00     0.150 C 
HETATM    7 CL7  UNL     1     -36.880  14.440  -6.892  1.00 20.00    -0.128 Cl
ENDBRANCH   4   6
TORSDOF 1
ENDMDL
MODEL 7
REMARK VINA RESULT:      -3.2     11.578     11.859
REMARK  1 active torsions:
REMARK  status: ('A' for Active; 'I' for Inactive)
REMARK    1  A    between atoms: C4_4  and  C5_5 
ROOT
HETATM    1  C1  UNL     1     -34.001  16.684  -2.603  1.00 20.00     0.015 C 
HETATM    2  C2  UNL     1     -33.818  15.822  -3.418  1.00 20.00    -0.083 C 
HETATM    3  C3  UNL     1     -33.601  14.797  -4.388  1.00 20.00     0.229 A 
HETATM    4  C4  UNL     1     -34.710  14.422  -5.336  1.00 20.00     0.177 A 
HETATM    5  O6  UNL     1     -34.424  13.638  -4.175  1.00 20.00    -0.361 OA
ENDROOT
BRANCH   4   6
HETATM    6  C5  UNL     1     -34.420  13.742  -6.626  1.00 20.00     0.150 C 
HETATM    7 CL7  UNL     1     -33.988  14.918  -7.899  1.00 20.00    -0.128 Cl
ENDBRANCH   4   6
TORSDOF 1
ENDMDL
MODEL 8
REMARK VINA RESULT:      -3.2     11.113     11.452
REMARK  1 active torsions:
REMARK  status: ('A' for Active; 'I' for Inactive)
REMARK    1  A    between atoms: C4_4  and  C5_5 
ROOT
HETATM    1  C1  UNL     1     -35.114  13.264  -7.382  1.00 20.00     0.015 C 
HETATM    2  C2  UNL     1     -35.283  13.619  -6.249  1.00 20.00    -0.083 C 
HETATM    3  C3  UNL     1     -35.484  14.043  -4.899  1.00 20.00     0.229 A 
HETATM    4  C4  UNL     1     -34.538  15.041  -4.284  1.00 20.00     0.177 A 
HETATM    5  O6  UNL     1     -34.422  13.640  -4.019  1.00 20.00    -0.361 OA
ENDROOT
BRANCH   4   6
HETATM    6  C5  UNL     1     -34.942  15.858  -3.110  1.00 20.00     0.150 C 
HETATM    7 CL7  UNL     1     -33.558  16.771  -2.445  1.00 20.00    -0.128 Cl
ENDBRANCH   4   6
TORSDOF 1
ENDMDL
MODEL 9
REMARK VINA RESULT:      -3.1     11.146     11.608
REMARK  1 active torsions:
REMARK  status: ('A' for Active; 'I' for Inactive)
REMARK    1  A    between atoms: C4_4  and  C5_5 
ROOT
HETATM    1  C1  UNL     1     -32.991  14.436  -4.328  1.00 20.00     0.015 C 
HETATM    2  C2  UNL     1     -34.015  14.250  -4.926  1.00 20.00    -0.083 C 
HETATM    3  C3  UNL     1     -35.234  14.028  -5.638  1.00 20.00     0.229 A 
HETATM    4  C4  UNL     1     -36.550  14.142  -4.913  1.00 20.00     0.177 A 
HETATM    5  O6  UNL     1     -35.950  12.870  -5.178  1.00 20.00    -0.361 OA
ENDROOT
BRANCH   4   6
HETATM    6  C5  UNL     1     -37.814  14.393  -5.653  1.00 20.00     0.150 C 
HETATM    7 CL7  UNL     1     -39.021  15.211  -4.621  1.00 20.00    -0.128 Cl
ENDBRANCH   4   6
TORSDOF 1
ENDMDL
