MODEL 1
REMARK VINA RESULT:      -6.2      0.000      0.000
REMARK  3 active torsions:
REMARK  status: ('A' for Active; 'I' for Inactive)
REMARK    1  A    between atoms: C1_1  and  C7_7 
REMARK    2  A    between atoms: C2_2  and  C8_8 
REMARK    3  A    between atoms: C7_7  and  C9_9 
ROOT
HETATM    1  C1  UNL     1     -32.953   7.911   2.732  1.00 20.00     0.062 A 
HETATM    2  C2  UNL     1     -32.033   8.247   1.594  1.00 20.00     0.064 A 
HETATM    3  S10 UNL     1     -31.354   8.389   3.177  1.00 20.00    -0.157 SA
ENDROOT
BRANCH   1   4
HETATM    4  C7  UNL     1     -33.368   6.468   2.983  1.00 20.00     0.020 C 
BRANCH   4   5
HETATM    5  C9  UNL     1     -34.374   6.308   4.136  1.00 20.00    -0.022 C 
HETATM    6  C5  UNL     1     -34.623   4.842   4.494  1.00 20.00     0.009 C 
HETATM    7  C6  UNL     1     -33.875   7.064   5.370  1.00 20.00     0.009 C 
ENDBRANCH   4   5
ENDBRANCH   1   4
BRANCH   2   8
HETATM    8  C8  UNL     1     -32.239   9.491   0.802  1.00 20.00    -0.008 C 
HETATM    9  C3  UNL     1     -32.995   9.218  -0.512  1.00 20.00     0.011 C 
HETATM   10  C4  UNL     1     -32.995  10.565   1.607  1.00 20.00     0.011 C 
ENDBRANCH   2   8
TORSDOF 3
ENDMDL
MODEL 2
REMARK VINA RESULT:      -5.9      1.022      4.636
REMARK  3 active torsions:
REMARK  status: ('A' for Active; 'I' for Inactive)
REMARK    1  A    between atoms: C1_1  and  C7_7 
REMARK    2  A    between atoms: C2_2  and  C8_8 
REMARK    3  A    between atoms: C7_7  and  C9_9 
ROOT
HETATM    1  C1  UNL     1     -31.779   7.581   2.437  1.00 20.00     0.062 A 
HETATM    2  C2  UNL     1     -33.128   7.409   3.076  1.00 20.00     0.064 A 
HETATM    3  S10 UNL     1     -31.953   8.256   4.018  1.00 20.00    -0.157 SA
ENDROOT
BRANCH   1   4
HETATM    4  C7  UNL     1     -31.602   8.535   1.265  1.00 20.00     0.020 C 
BRANCH   4   5
HETATM    5  C9  UNL     1     -32.842   9.400   0.982  1.00 20.00    -0.022 C 
HETATM    6  C5  UNL     1     -32.660  10.848   1.440  1.00 20.00     0.009 C 
HETATM    7  C6  UNL     1     -33.167   9.369  -0.514  1.00 20.00     0.009 C 
ENDBRANCH   4   5
ENDBRANCH   1   4
BRANCH   2   8
HETATM    8  C8  UNL     1     -33.571   6.067   3.545  1.00 20.00    -0.008 C 
HETATM    9  C3  UNL     1     -35.101   5.993   3.712  1.00 20.00     0.011 C 
HETATM   10  C4  UNL     1     -33.112   4.945   2.595  1.00 20.00     0.011 C 
ENDBRANCH   2   8
TORSDOF 3
ENDMDL
MODEL 3
REMARK VINA RESULT:      -5.8      1.164      4.738
REMARK  3 active torsions:
REMARK  status: ('A' for Active; 'I' for Inactive)
REMARK    1  A    between atoms: C1_1  and  C7_7 
REMARK    2  A    between atoms: C2_2  and  C8_8 
REMARK    3  A    between atoms: C7_7  and  C9_9 
ROOT
HETATM    1  C1  UNL     1     -33.103   7.732   2.455  1.00 20.00     0.062 A 
HETATM    2  C2  UNL     1     -33.026   6.820   3.646  1.00 20.00     0.064 A 
HETATM    3  S10 UNL     1     -33.378   6.057   2.136  1.00 20.00    -0.157 SA
ENDROOT
BRANCH   1   4
HETATM    4  C7  UNL     1     -31.841   8.373   1.896  1.00 20.00     0.020 C 
BRANCH   4   5
HETATM    5  C9  UNL     1     -32.119   9.492   0.876  1.00 20.00    -0.022 C 
HETATM    6  C5  UNL     1     -32.942   9.002  -0.316  1.00 20.00     0.009 C 
HETATM    7  C6  UNL     1     -32.843  10.652   1.562  1.00 20.00     0.009 C 
ENDBRANCH   4   5
ENDBRANCH   1   4
BRANCH   2   8
HETATM    8  C8  UNL     1     -34.092   6.848   4.685  1.00 20.00    -0.008 C 
HETATM    9  C3  UNL     1     -34.629   5.438   4.995  1.00 20.00     0.011 C 
HETATM   10  C4  UNL     1     -33.603   7.501   5.991  1.00 20.00     0.011 C 
ENDBRANCH   2   8
TORSDOF 3
ENDMDL
MODEL 4
REMARK VINA RESULT:      -5.6      1.458      5.057
REMARK  3 active torsions:
REMARK  status: ('A' for Active; 'I' for Inactive)
REMARK    1  A    between atoms: C1_1  and  C7_7 
REMARK    2  A    between atoms: C2_2  and  C8_8 
REMARK    3  A    between atoms: C7_7  and  C9_9 
ROOT
HETATM    1  C1  UNL     1     -33.443   7.530   2.983  1.00 20.00     0.062 A 
HETATM    2  C2  UNL     1     -33.307   6.461   4.030  1.00 20.00     0.064 A 
HETATM    3  S10 UNL     1     -33.715   5.911   2.443  1.00 20.00    -0.157 SA
ENDROOT
BRANCH   1   4
HETATM    4  C7  UNL     1     -32.211   8.262   2.469  1.00 20.00     0.020 C 
BRANCH   4   5
HETATM    5  C9  UNL     1     -32.424   8.942   1.105  1.00 20.00    -0.022 C 
HETATM    6  C5  UNL     1     -32.690  10.443   1.238  1.00 20.00     0.009 C 
HETATM    7  C6  UNL     1     -31.202   8.711   0.213  1.00 20.00     0.009 C 
ENDBRANCH   4   5
ENDBRANCH   1   4
BRANCH   2   8
HETATM    8  C8  UNL     1     -34.328   6.327   5.105  1.00 20.00    -0.008 C 
HETATM    9  C3  UNL     1     -34.467   4.870   5.587  1.00 20.00     0.011 C 
HETATM   10  C4  UNL     1     -34.015   7.231   6.311  1.00 20.00     0.011 C 
ENDBRANCH   2   8
TORSDOF 3
ENDMDL
MODEL 5
REMARK VINA RESULT:      -5.5      1.427      4.657
REMARK  3 active torsions:
REMARK  status: ('A' for Active; 'I' for Inactive)
REMARK    1  A    between atoms: C1_1  and  C7_7 
REMARK    2  A    between atoms: C2_2  and  C8_8 
REMARK    3  A    between atoms: C7_7  and  C9_9 
ROOT
HETATM    1  C1  UNL     1     -32.379   7.463   3.582  1.00 20.00     0.062 A 
HETATM    2  C2  UNL     1     -33.835   7.102   3.502  1.00 20.00     0.064 A 
HETATM    3  S10 UNL     1     -33.259   7.564   5.065  1.00 20.00    -0.157 SA
ENDROOT
BRANCH   1   4
HETATM    4  C7  UNL     1     -31.874   8.755   2.956  1.00 20.00     0.020 C 
BRANCH   4   5
HETATM    5  C9  UNL     1     -32.422   9.010   1.541  1.00 20.00    -0.022 C 
HETATM    6  C5  UNL     1     -32.799  10.475   1.317  1.00 20.00     0.009 C 
HETATM    7  C6  UNL     1     -31.389   8.577   0.498  1.00 20.00     0.009 C 
ENDBRANCH   4   5
ENDBRANCH   1   4
BRANCH   2   8
HETATM    8  C8  UNL     1     -34.248   5.686   3.296  1.00 20.00    -0.008 C 
HETATM    9  C3  UNL     1     -33.110   4.837   2.698  1.00 20.00     0.011 C 
HETATM   10  C4  UNL     1     -34.734   5.033   4.603  1.00 20.00     0.011 C 
ENDBRANCH   2   8
TORSDOF 3
ENDMDL
MODEL 6
REMARK VINA RESULT:      -5.2      1.025      4.735
REMARK  3 active torsions:
REMARK  status: ('A' for Active; 'I' for Inactive)
REMARK    1  A    between atoms: C1_1  and  C7_7 
REMARK    2  A    between atoms: C2_2  and  C8_8 
REMARK    3  A    between atoms: C7_7  and  C9_9 
ROOT
HETATM    1  C1  UNL     1     -32.648   7.989   2.520  1.00 20.00     0.062 A 
HETATM    2  C2  UNL     1     -33.448   7.463   3.677  1.00 20.00     0.064 A 
HETATM    3  S10 UNL     1     -31.892   8.104   4.070  1.00 20.00    -0.157 SA
ENDROOT
BRANCH   1   4
HETATM    4  C7  UNL     1     -33.061   9.279   1.825  1.00 20.00     0.020 C 
BRANCH   4   5
HETATM    5  C9  UNL     1     -32.283   9.555   0.526  1.00 20.00    -0.022 C 
HETATM    6  C5  UNL     1     -31.089   8.614   0.351  1.00 20.00     0.009 C 
HETATM    7  C6  UNL     1     -33.220   9.429  -0.677  1.00 20.00     0.009 C 
ENDBRANCH   4   5
ENDBRANCH   1   4
BRANCH   2   8
HETATM    8  C8  UNL     1     -33.666   5.998   3.836  1.00 20.00    -0.008 C 
HETATM    9  C3  UNL     1     -35.132   5.668   4.175  1.00 20.00     0.011 C 
HETATM   10  C4  UNL     1     -33.251   5.216   2.576  1.00 20.00     0.011 C 
ENDBRANCH   2   8
TORSDOF 3
ENDMDL
MODEL 7
REMARK VINA RESULT:      -5.1      1.462      2.039
REMARK  3 active torsions:
REMARK  status: ('A' for Active; 'I' for Inactive)
REMARK    1  A    between atoms: C1_1  and  C7_7 
REMARK    2  A    between atoms: C2_2  and  C8_8 
REMARK    3  A    between atoms: C7_7  and  C9_9 
ROOT
HETATM    1  C1  UNL     1     -33.410   6.487   3.402  1.00 20.00     0.062 A 
HETATM    2  C2  UNL     1     -33.200   7.262   2.133  1.00 20.00     0.064 A 
HETATM    3  S10 UNL     1     -32.951   5.555   2.022  1.00 20.00    -0.157 SA
ENDROOT
BRANCH   1   4
HETATM    4  C7  UNL     1     -34.812   6.299   3.964  1.00 20.00     0.020 C 
BRANCH   4   5
HETATM    5  C9  UNL     1     -34.839   6.057   5.483  1.00 20.00    -0.022 C 
HETATM    6  C5  UNL     1     -34.440   4.628   5.854  1.00 20.00     0.009 C 
HETATM    7  C6  UNL     1     -33.910   7.051   6.184  1.00 20.00     0.009 C 
ENDBRANCH   4   5
ENDBRANCH   1   4
BRANCH   2   8
HETATM    8  C8  UNL     1     -32.019   8.156   1.983  1.00 20.00    -0.008 C 
HETATM    9  C3  UNL     1     -32.375   9.459   1.242  1.00 20.00     0.011 C 
HETATM   10  C4  UNL     1     -31.387   8.504   3.344  1.00 20.00     0.011 C 
ENDBRANCH   2   8
TORSDOF 3
ENDMDL
MODEL 8
REMARK VINA RESULT:      -4.4     10.144     11.082
REMARK  3 active torsions:
REMARK  status: ('A' for Active; 'I' for Inactive)
REMARK    1  A    between atoms: C1_1  and  C7_7 
REMARK    2  A    between atoms: C2_2  and  C8_8 
REMARK    3  A    between atoms: C7_7  and  C9_9 
ROOT
HETATM    1  C1  UNL     1     -34.797  16.172  -3.526  1.00 20.00     0.062 A 
HETATM    2  C2  UNL     1     -35.216  16.523  -2.127  1.00 20.00     0.064 A 
HETATM    3  S10 UNL     1     -36.388  16.826  -3.362  1.00 20.00    -0.157 SA
ENDROOT
BRANCH   1   4
HETATM    4  C7  UNL     1     -34.658  14.715  -3.943  1.00 20.00     0.020 C 
BRANCH   4   5
HETATM    5  C9  UNL     1     -33.748  14.509  -5.167  1.00 20.00    -0.022 C 
HETATM    6  C5  UNL     1     -34.516  13.992  -6.385  1.00 20.00     0.009 C 
HETATM    7  C6  UNL     1     -33.045  15.822  -5.518  1.00 20.00     0.009 C 
ENDBRANCH   4   5
ENDBRANCH   1   4
BRANCH   2   8
HETATM    8  C8  UNL     1     -34.610  17.691  -1.431  1.00 20.00    -0.008 C 
HETATM    9  C3  UNL     1     -34.975  17.722   0.065  1.00 20.00     0.011 C 
HETATM   10  C4  UNL     1     -33.077  17.715  -1.578  1.00 20.00     0.011 C 
ENDBRANCH   2   8
TORSDOF 3
ENDMDL
MODEL 9
REMARK VINA RESULT:      -4.4     10.461     11.070
REMARK  3 active torsions:
REMARK  status: ('A' for Active; 'I' for Inactive)
REMARK    1  A    between atoms: C1_1  and  C7_7 
REMARK    2  A    between atoms: C2_2  and  C8_8 
REMARK    3  A    between atoms: C7_7  and  C9_9 
ROOT
HETATM    1  C1  UNL     1     -34.521  16.063  -4.366  1.00 20.00     0.062 A 
HETATM    2  C2  UNL     1     -34.111  15.080  -5.425  1.00 20.00     0.064 A 
HETATM    3  S10 UNL     1     -33.846  16.746  -5.802  1.00 20.00    -0.157 SA
ENDROOT
BRANCH   1   4
HETATM    4  C7  UNL     1     -33.724  16.175  -3.074  1.00 20.00     0.020 C 
BRANCH   4   5
HETATM    5  C9  UNL     1     -34.160  17.351  -2.182  1.00 20.00    -0.022 C 
HETATM    6  C5  UNL     1     -35.263  16.957  -1.197  1.00 20.00     0.009 C 
HETATM    7  C6  UNL     1     -32.952  17.896  -1.414  1.00 20.00     0.009 C 
ENDBRANCH   4   5
ENDBRANCH   1   4
BRANCH   2   8
HETATM    8  C8  UNL     1     -35.143  14.339  -6.202  1.00 20.00    -0.008 C 
HETATM    9  C3  UNL     1     -34.515  13.466  -7.305  1.00 20.00     0.011 C 
HETATM   10  C4  UNL     1     -36.019  13.455  -5.295  1.00 20.00     0.011 C 
ENDBRANCH   2   8
TORSDOF 3
ENDMDL
