MODEL 1
REMARK VINA RESULT:      -5.7      0.000      0.000
REMARK  1 active torsions:
REMARK  status: ('A' for Active; 'I' for Inactive)
REMARK    1  A    between atoms: C2_2  and  C3_3 
ROOT
HETATM    1  C1  UNL     1     -32.912   7.991   4.923  1.00 20.00    -0.016 C 
HETATM    2  C2  UNL     1     -32.763   7.426   3.722  1.00 20.00    -0.020 C 
HETATM    3  C4  UNL     1     -33.745   7.136   5.821  1.00 20.00     0.032 C 
HETATM    4  C5  UNL     1     -33.465   6.107   3.608  1.00 20.00     0.021 C 
HETATM    5  C6  UNL     1     -34.409   6.164   4.833  1.00 20.00    -0.007 C 
HETATM    6  C7  UNL     1     -34.240   5.912   2.310  1.00 20.00     0.015 C 
HETATM    7  C8  UNL     1     -34.676   4.798   5.449  1.00 20.00     0.011 C 
ENDROOT
BRANCH   2   8
HETATM    8  C3  UNL     1     -31.943   8.032   2.686  1.00 20.00     0.265 C 
HETATM    9  O9  UNL     1     -32.357   8.912   1.933  1.00 20.00    -0.302 OA
ENDBRANCH   2   8
TORSDOF 1
ENDMDL
MODEL 2
REMARK VINA RESULT:      -5.6      2.179      3.482
REMARK  1 active torsions:
REMARK  status: ('A' for Active; 'I' for Inactive)
REMARK    1  A    between atoms: C2_2  and  C3_3 
ROOT
HETATM    1  C1  UNL     1     -33.676   7.136   5.290  1.00 20.00    -0.016 C 
HETATM    2  C2  UNL     1     -34.084   6.238   4.389  1.00 20.00    -0.020 C 
HETATM    3  C4  UNL     1     -32.736   8.123   4.679  1.00 20.00     0.032 C 
HETATM    4  C5  UNL     1     -33.491   6.464   3.032  1.00 20.00     0.021 C 
HETATM    5  C6  UNL     1     -32.329   7.428   3.370  1.00 20.00    -0.007 C 
HETATM    6  C7  UNL     1     -32.991   5.200   2.340  1.00 20.00     0.015 C 
HETATM    7  C8  UNL     1     -32.026   8.417   2.253  1.00 20.00     0.011 C 
ENDROOT
BRANCH   2   8
HETATM    8  C3  UNL     1     -35.052   5.205   4.720  1.00 20.00     0.265 C 
HETATM    9  O9  UNL     1     -34.756   4.014   4.810  1.00 20.00    -0.302 OA
ENDBRANCH   2   8
TORSDOF 1
ENDMDL
MODEL 3
REMARK VINA RESULT:      -5.2      2.260      3.953
REMARK  1 active torsions:
REMARK  status: ('A' for Active; 'I' for Inactive)
REMARK    1  A    between atoms: C2_2  and  C3_3 
ROOT
HETATM    1  C1  UNL     1     -33.962   6.010   2.545  1.00 20.00    -0.016 C 
HETATM    2  C2  UNL     1     -34.020   5.852   3.870  1.00 20.00    -0.020 C 
HETATM    3  C4  UNL     1     -33.004   7.094   2.173  1.00 20.00     0.032 C 
HETATM    4  C5  UNL     1     -33.121   6.795   4.609  1.00 20.00     0.021 C 
HETATM    5  C6  UNL     1     -32.805   7.833   3.506  1.00 20.00    -0.007 C 
HETATM    6  C7  UNL     1     -33.755   7.448   5.832  1.00 20.00     0.015 C 
HETATM    7  C8  UNL     1     -31.416   8.442   3.635  1.00 20.00     0.011 C 
ENDROOT
BRANCH   2   8
HETATM    8  C3  UNL     1     -34.836   4.817   4.484  1.00 20.00     0.265 C 
HETATM    9  O9  UNL     1     -34.496   3.636   4.531  1.00 20.00    -0.302 OA
ENDBRANCH   2   8
TORSDOF 1
ENDMDL
MODEL 4
REMARK VINA RESULT:      -5.1      1.012      2.192
REMARK  1 active torsions:
REMARK  status: ('A' for Active; 'I' for Inactive)
REMARK    1  A    between atoms: C2_2  and  C3_3 
ROOT
HETATM    1  C1  UNL     1     -33.022   5.700   2.518  1.00 20.00    -0.016 C 
HETATM    2  C2  UNL     1     -33.179   6.885   3.114  1.00 20.00    -0.020 C 
HETATM    3  C4  UNL     1     -33.654   4.607   3.316  1.00 20.00     0.032 C 
HETATM    4  C5  UNL     1     -33.935   6.791   4.404  1.00 20.00     0.021 C 
HETATM    5  C6  UNL     1     -33.858   5.272   4.687  1.00 20.00    -0.007 C 
HETATM    6  C7  UNL     1     -33.340   7.606   5.548  1.00 20.00     0.015 C 
HETATM    7  C8  UNL     1     -35.080   4.735   5.419  1.00 20.00     0.011 C 
ENDROOT
BRANCH   2   8
HETATM    8  C3  UNL     1     -32.705   8.118   2.507  1.00 20.00     0.265 C 
HETATM    9  O9  UNL     1     -31.562   8.546   2.663  1.00 20.00    -0.302 OA
ENDBRANCH   2   8
TORSDOF 1
ENDMDL
MODEL 5
REMARK VINA RESULT:      -4.4      1.822      3.050
REMARK  1 active torsions:
REMARK  status: ('A' for Active; 'I' for Inactive)
REMARK    1  A    between atoms: C2_2  and  C3_3 
ROOT
HETATM    1  C1  UNL     1     -34.652   5.286   5.308  1.00 20.00    -0.016 C 
HETATM    2  C2  UNL     1     -33.974   6.405   5.038  1.00 20.00    -0.020 C 
HETATM    3  C4  UNL     1     -34.452   4.263   4.239  1.00 20.00     0.032 C 
HETATM    4  C5  UNL     1     -33.212   6.327   3.751  1.00 20.00     0.021 C 
HETATM    5  C6  UNL     1     -33.874   5.098   3.084  1.00 20.00    -0.007 C 
HETATM    6  C7  UNL     1     -33.320   7.569   2.874  1.00 20.00     0.015 C 
HETATM    7  C8  UNL     1     -32.918   4.302   2.209  1.00 20.00     0.011 C 
ENDROOT
BRANCH   2   8
HETATM    8  C3  UNL     1     -33.956   7.531   5.957  1.00 20.00     0.265 C 
HETATM    9  O9  UNL     1     -32.918   8.072   6.333  1.00 20.00    -0.302 OA
ENDBRANCH   2   8
TORSDOF 1
ENDMDL
MODEL 6
REMARK VINA RESULT:      -4.2     11.275     11.994
REMARK  1 active torsions:
REMARK  status: ('A' for Active; 'I' for Inactive)
REMARK    1  A    between atoms: C2_2  and  C3_3 
ROOT
HETATM    1  C1  UNL     1     -36.424  15.455  -3.774  1.00 20.00    -0.016 C 
HETATM    2  C2  UNL     1     -35.485  14.893  -4.541  1.00 20.00    -0.020 C 
HETATM    3  C4  UNL     1     -35.836  16.496  -2.880  1.00 20.00     0.032 C 
HETATM    4  C5  UNL     1     -34.119  15.454  -4.294  1.00 20.00     0.021 C 
HETATM    5  C6  UNL     1     -34.333  16.181  -2.944  1.00 20.00    -0.007 C 
HETATM    6  C7  UNL     1     -33.012  14.409  -4.200  1.00 20.00     0.015 C 
HETATM    7  C8  UNL     1     -33.468  17.423  -2.787  1.00 20.00     0.011 C 
ENDROOT
BRANCH   2   8
HETATM    8  C3  UNL     1     -35.812  13.891  -5.542  1.00 20.00     0.265 C 
HETATM    9  O9  UNL     1     -35.921  12.693  -5.281  1.00 20.00    -0.302 OA
ENDBRANCH   2   8
TORSDOF 1
ENDMDL
MODEL 7
REMARK VINA RESULT:      -4.2     11.538     11.878
REMARK  1 active torsions:
REMARK  status: ('A' for Active; 'I' for Inactive)
REMARK    1  A    between atoms: C2_2  and  C3_3 
ROOT
HETATM    1  C1  UNL     1     -33.715  15.173  -4.222  1.00 20.00    -0.016 C 
HETATM    2  C2  UNL     1     -34.981  14.798  -4.428  1.00 20.00    -0.020 C 
HETATM    3  C4  UNL     1     -33.617  16.132  -3.081  1.00 20.00     0.032 C 
HETATM    4  C5  UNL     1     -35.940  15.437  -3.471  1.00 20.00     0.021 C 
HETATM    5  C6  UNL     1     -35.074  16.585  -2.901  1.00 20.00    -0.007 C 
HETATM    6  C7  UNL     1     -37.219  15.963  -4.113  1.00 20.00     0.015 C 
HETATM    7  C8  UNL     1     -35.405  16.925  -1.455  1.00 20.00     0.011 C 
ENDROOT
BRANCH   2   8
HETATM    8  C3  UNL     1     -35.335  13.821  -5.444  1.00 20.00     0.265 C 
HETATM    9  O9  UNL     1     -35.925  12.772  -5.189  1.00 20.00    -0.302 OA
ENDBRANCH   2   8
TORSDOF 1
ENDMDL
MODEL 8
REMARK VINA RESULT:      -4.0      1.766      2.892
REMARK  1 active torsions:
REMARK  status: ('A' for Active; 'I' for Inactive)
REMARK    1  A    between atoms: C2_2  and  C3_3 
ROOT
HETATM    1  C1  UNL     1     -34.433   4.839   4.531  1.00 20.00    -0.016 C 
HETATM    2  C2  UNL     1     -33.931   5.641   3.586  1.00 20.00    -0.020 C 
HETATM    3  C4  UNL     1     -34.510   5.541   5.847  1.00 20.00     0.032 C 
HETATM    4  C5  UNL     1     -33.587   7.004   4.103  1.00 20.00     0.021 C 
HETATM    5  C6  UNL     1     -33.595   6.757   5.630  1.00 20.00    -0.007 C 
HETATM    6  C7  UNL     1     -32.242   7.541   3.628  1.00 20.00     0.015 C 
HETATM    7  C8  UNL     1     -34.038   7.971   6.433  1.00 20.00     0.011 C 
ENDROOT
BRANCH   2   8
HETATM    8  C3  UNL     1     -33.809   5.213   2.203  1.00 20.00     0.265 C 
HETATM    9  O9  UNL     1     -32.986   4.379   1.829  1.00 20.00    -0.302 OA
ENDBRANCH   2   8
TORSDOF 1
ENDMDL
MODEL 9
REMARK VINA RESULT:      -3.9     11.769     12.587
REMARK  1 active torsions:
REMARK  status: ('A' for Active; 'I' for Inactive)
REMARK    1  A    between atoms: C2_2  and  C3_3 
ROOT
HETATM    1  C1  UNL     1     -33.531  15.303  -6.437  1.00 20.00    -0.016 C 
HETATM    2  C2  UNL     1     -34.508  14.432  -6.168  1.00 20.00    -0.020 C 
HETATM    3  C4  UNL     1     -33.293  16.220  -5.283  1.00 20.00     0.032 C 
HETATM    4  C5  UNL     1     -35.089  14.615  -4.799  1.00 20.00     0.021 C 
HETATM    5  C6  UNL     1     -34.559  16.023  -4.435  1.00 20.00    -0.007 C 
HETATM    6  C7  UNL     1     -36.611  14.555  -4.744  1.00 20.00     0.015 C 
HETATM    7  C8  UNL     1     -34.298  16.198  -2.946  1.00 20.00     0.011 C 
ENDROOT
BRANCH   2   8
HETATM    8  C3  UNL     1     -34.890  13.393  -7.109  1.00 20.00     0.265 C 
HETATM    9  O9  UNL     1     -35.067  12.221  -6.778  1.00 20.00    -0.302 OA
ENDBRANCH   2   8
TORSDOF 1
ENDMDL
