MODEL 1
REMARK VINA RESULT:      -5.0      0.000      0.000
REMARK  0 active torsions:
REMARK  status: ('A' for Active; 'I' for Inactive)
ROOT
HETATM    1  C1  UNL     1     -33.316   7.275   1.990  1.00 20.00     0.024 A 
HETATM    2  C2  UNL     1     -33.799   6.826   3.255  1.00 20.00    -0.016 A 
HETATM    3  C3  UNL     1     -33.048   7.348   4.289  1.00 20.00    -0.007 A 
HETATM    4  C4  UNL     1     -32.225   8.110   2.116  1.00 20.00    -0.020 A 
HETATM    5  C5  UNL     1     -34.977   5.930   3.499  1.00 20.00     0.311 C 
HETATM    6  C6  UNL     1     -33.285   7.037   5.730  1.00 20.00     0.077 C 
HETATM    7  C7  UNL     1     -34.650   6.339   5.893  1.00 20.00     0.277 C 
HETATM    8  C8  UNL     1     -31.449   8.774   1.048  1.00 20.00     0.056 C 
HETATM    9  C9  UNL     1     -34.079   4.167   4.932  1.00 20.00     0.310 C 
HETATM   10  N10 UNL     1     -34.954   5.335   4.853  1.00 20.00     0.088 N 
HETATM   11  S11 UNL     1     -31.785   8.351   3.753  1.00 20.00    -0.099 SA
ENDROOT
TORSDOF 0
ENDMDL
MODEL 2
REMARK VINA RESULT:      -4.2     11.718     12.826
REMARK  0 active torsions:
REMARK  status: ('A' for Active; 'I' for Inactive)
ROOT
HETATM    1  C1  UNL     1     -35.095  15.078  -3.641  1.00 20.00     0.024 A 
HETATM    2  C2  UNL     1     -35.001  14.629  -4.991  1.00 20.00    -0.016 A 
HETATM    3  C3  UNL     1     -34.096  15.387  -5.707  1.00 20.00    -0.007 A 
HETATM    4  C4  UNL     1     -34.268  16.153  -3.391  1.00 20.00    -0.020 A 
HETATM    5  C5  UNL     1     -35.736  13.474  -5.606  1.00 20.00     0.311 C 
HETATM    6  C6  UNL     1     -33.801  15.182  -7.157  1.00 20.00     0.077 C 
HETATM    7  C7  UNL     1     -34.391  13.835  -7.621  1.00 20.00     0.277 C 
HETATM    8  C8  UNL     1     -34.082  16.897  -2.127  1.00 20.00     0.056 C 
HETATM    9  C9  UNL     1     -36.758  14.435  -7.606  1.00 20.00     0.310 C 
HETATM   10  N10 UNL     1     -35.732  13.534  -7.084  1.00 20.00     0.088 N 
HETATM   11  S11 UNL     1     -33.380  16.618  -4.780  1.00 20.00    -0.099 SA
ENDROOT
TORSDOF 0
ENDMDL
MODEL 3
REMARK VINA RESULT:      -4.1     11.240     12.242
REMARK  0 active torsions:
REMARK  status: ('A' for Active; 'I' for Inactive)
ROOT
HETATM    1  C1  UNL     1     -33.269  17.407  -1.796  1.00 20.00     0.024 A 
HETATM    2  C2  UNL     1     -34.042  16.809  -2.835  1.00 20.00    -0.016 A 
HETATM    3  C3  UNL     1     -35.385  16.802  -2.516  1.00 20.00    -0.007 A 
HETATM    4  C4  UNL     1     -34.051  17.822  -0.739  1.00 20.00    -0.020 A 
HETATM    5  C5  UNL     1     -33.529  16.267  -4.137  1.00 20.00     0.311 C 
HETATM    6  C6  UNL     1     -36.445  16.214  -3.389  1.00 20.00     0.077 C 
HETATM    7  C7  UNL     1     -35.866  15.930  -4.790  1.00 20.00     0.277 C 
HETATM    8  C8  UNL     1     -33.628  18.481   0.515  1.00 20.00     0.056 C 
HETATM    9  C9  UNL     1     -34.461  14.011  -4.235  1.00 20.00     0.310 C 
HETATM   10  N10 UNL     1     -34.503  15.364  -4.787  1.00 20.00     0.088 N 
HETATM   11  S11 UNL     1     -35.712  17.493  -0.999  1.00 20.00    -0.099 SA
ENDROOT
TORSDOF 0
ENDMDL
MODEL 4
REMARK VINA RESULT:      -4.0     11.337     12.660
REMARK  0 active torsions:
REMARK  status: ('A' for Active; 'I' for Inactive)
ROOT
HETATM    1  C1  UNL     1     -33.892  16.252  -2.879  1.00 20.00     0.024 A 
HETATM    2  C2  UNL     1     -34.240  15.518  -4.051  1.00 20.00    -0.016 A 
HETATM    3  C3  UNL     1     -34.152  16.308  -5.180  1.00 20.00    -0.007 A 
HETATM    4  C4  UNL     1     -33.561  17.560  -3.164  1.00 20.00    -0.020 A 
HETATM    5  C5  UNL     1     -34.630  14.070  -4.121  1.00 20.00     0.311 C 
HETATM    6  C6  UNL     1     -34.485  15.835  -6.557  1.00 20.00     0.077 C 
HETATM    7  C7  UNL     1     -34.613  14.298  -6.560  1.00 20.00     0.277 C 
HETATM    8  C8  UNL     1     -33.149  18.629  -2.230  1.00 20.00     0.056 C 
HETATM    9  C9  UNL     1     -36.732  14.094  -5.364  1.00 20.00     0.310 C 
HETATM   10  N10 UNL     1     -35.315  13.738  -5.389  1.00 20.00     0.088 N 
HETATM   11  S11 UNL     1     -33.668  17.901  -4.839  1.00 20.00    -0.099 SA
ENDROOT
TORSDOF 0
ENDMDL
MODEL 5
REMARK VINA RESULT:      -3.9     11.970     13.237
REMARK  0 active torsions:
REMARK  status: ('A' for Active; 'I' for Inactive)
ROOT
HETATM    1  C1  UNL     1     -33.971  16.264  -3.009  1.00 20.00     0.024 A 
HETATM    2  C2  UNL     1     -34.120  16.167  -4.424  1.00 20.00    -0.016 A 
HETATM    3  C3  UNL     1     -35.354  16.636  -4.828  1.00 20.00    -0.007 A 
HETATM    4  C4  UNL     1     -35.091  16.793  -2.402  1.00 20.00    -0.020 A 
HETATM    5  C5  UNL     1     -33.101  15.661  -5.402  1.00 20.00     0.311 C 
HETATM    6  C6  UNL     1     -35.821  16.636  -6.247  1.00 20.00     0.077 C 
HETATM    7  C7  UNL     1     -34.630  16.354  -7.185  1.00 20.00     0.277 C 
HETATM    8  C8  UNL     1     -35.324  17.050  -0.965  1.00 20.00     0.056 C 
HETATM    9  C9  UNL     1     -34.317  13.983  -6.693  1.00 20.00     0.310 C 
HETATM   10  N10 UNL     1     -33.704  15.310  -6.705  1.00 20.00     0.088 N 
HETATM   11  S11 UNL     1     -36.317  17.175  -3.536  1.00 20.00    -0.099 SA
ENDROOT
TORSDOF 0
ENDMDL
MODEL 6
REMARK VINA RESULT:      -3.9     11.616     12.173
REMARK  0 active torsions:
REMARK  status: ('A' for Active; 'I' for Inactive)
ROOT
HETATM    1  C1  UNL     1     -36.575  15.569  -3.921  1.00 20.00     0.024 A 
HETATM    2  C2  UNL     1     -35.869  16.510  -3.115  1.00 20.00    -0.016 A 
HETATM    3  C3  UNL     1     -34.516  16.234  -3.095  1.00 20.00    -0.007 A 
HETATM    4  C4  UNL     1     -35.736  14.623  -4.472  1.00 20.00    -0.020 A 
HETATM    5  C5  UNL     1     -36.454  17.682  -2.384  1.00 20.00     0.311 C 
HETATM    6  C6  UNL     1     -33.517  17.021  -2.312  1.00 20.00     0.077 C 
HETATM    7  C7  UNL     1     -34.160  18.334  -1.821  1.00 20.00     0.277 C 
HETATM    8  C8  UNL     1     -36.082  13.491  -5.358  1.00 20.00     0.056 C 
HETATM    9  C9  UNL     1     -35.628  17.414  -0.101  1.00 20.00     0.310 C 
HETATM   10  N10 UNL     1     -35.546  18.194  -1.334  1.00 20.00     0.088 N 
HETATM   11  S11 UNL     1     -34.102  14.870  -4.020  1.00 20.00    -0.099 SA
ENDROOT
TORSDOF 0
ENDMDL
MODEL 7
REMARK VINA RESULT:      -3.9     11.841     12.690
REMARK  0 active torsions:
REMARK  status: ('A' for Active; 'I' for Inactive)
ROOT
HETATM    1  C1  UNL     1     -35.485  16.686  -1.666  1.00 20.00     0.024 A 
HETATM    2  C2  UNL     1     -35.163  16.325  -3.008  1.00 20.00    -0.016 A 
HETATM    3  C3  UNL     1     -33.946  16.855  -3.389  1.00 20.00    -0.007 A 
HETATM    4  C4  UNL     1     -34.508  17.472  -1.091  1.00 20.00    -0.020 A 
HETATM    5  C5  UNL     1     -35.980  15.464  -3.926  1.00 20.00     0.311 C 
HETATM    6  C6  UNL     1     -33.351  16.681  -4.748  1.00 20.00     0.077 C 
HETATM    7  C7  UNL     1     -34.118  15.584  -5.514  1.00 20.00     0.277 C 
HETATM    8  C8  UNL     1     -34.473  18.044   0.272  1.00 20.00     0.056 C 
HETATM    9  C9  UNL     1     -36.184  16.809  -5.955  1.00 20.00     0.310 C 
HETATM   10  N10 UNL     1     -35.583  15.626  -5.342  1.00 20.00     0.088 N 
HETATM   11  S11 UNL     1     -33.208  17.772  -2.164  1.00 20.00    -0.099 SA
ENDROOT
TORSDOF 0
ENDMDL
MODEL 8
REMARK VINA RESULT:      -3.8     11.737     12.514
REMARK  0 active torsions:
REMARK  status: ('A' for Active; 'I' for Inactive)
ROOT
HETATM    1  C1  UNL     1     -35.422  17.841   1.151  1.00 20.00     0.024 A 
HETATM    2  C2  UNL     1     -34.890  17.654  -0.159  1.00 20.00    -0.016 A 
HETATM    3  C3  UNL     1     -33.618  18.183  -0.261  1.00 20.00    -0.007 A 
HETATM    4  C4  UNL     1     -34.542  18.503   1.981  1.00 20.00    -0.020 A 
HETATM    5  C5  UNL     1     -35.557  16.958  -1.309  1.00 20.00     0.311 C 
HETATM    6  C6  UNL     1     -32.810  18.173  -1.516  1.00 20.00     0.077 C 
HETATM    7  C7  UNL     1     -33.457  17.221  -2.543  1.00 20.00     0.277 C 
HETATM    8  C8  UNL     1     -34.723  18.882   3.398  1.00 20.00     0.056 C 
HETATM    9  C9  UNL     1     -35.403  18.573  -3.135  1.00 20.00     0.310 C 
HETATM   10  N10 UNL     1     -34.930  17.296  -2.605  1.00 20.00     0.088 N 
HETATM   11  S11 UNL     1     -33.078  18.896   1.184  1.00 20.00    -0.099 SA
ENDROOT
TORSDOF 0
ENDMDL
MODEL 9
REMARK VINA RESULT:      -3.7     11.928     13.087
REMARK  0 active torsions:
REMARK  status: ('A' for Active; 'I' for Inactive)
ROOT
HETATM    1  C1  UNL     1     -33.771  15.922  -6.178  1.00 20.00     0.024 A 
HETATM    2  C2  UNL     1     -33.819  16.631  -4.941  1.00 20.00    -0.016 A 
HETATM    3  C3  UNL     1     -34.358  15.850  -3.939  1.00 20.00    -0.007 A 
HETATM    4  C4  UNL     1     -34.277  14.644  -6.065  1.00 20.00    -0.020 A 
HETATM    5  C5  UNL     1     -33.336  18.029  -4.689  1.00 20.00     0.311 C 
HETATM    6  C6  UNL     1     -34.570  16.321  -2.538  1.00 20.00     0.077 C 
HETATM    7  C7  UNL     1     -33.814  17.647  -2.317  1.00 20.00     0.277 C 
HETATM    8  C8  UNL     1     -34.400  13.608  -7.112  1.00 20.00     0.056 C 
HETATM    9  C9  UNL     1     -35.247  19.123  -3.633  1.00 20.00     0.310 C 
HETATM   10  N10 UNL     1     -33.897  18.597  -3.444  1.00 20.00     0.088 N 
HETATM   11  S11 UNL     1     -34.806  14.300  -4.473  1.00 20.00    -0.099 SA
ENDROOT
TORSDOF 0
ENDMDL
