MODEL 1
REMARK VINA RESULT:      -6.1      0.000      0.000
REMARK  1 active torsions:
REMARK  status: ('A' for Active; 'I' for Inactive)
REMARK    1  A    between atoms: C7_7  and  C10_10 
ROOT
HETATM    1  C1  UNL     1     -33.963   5.280   5.479  1.00 20.00    -0.018 C 
HETATM    2  C2  UNL     1     -33.993   6.623   5.489  1.00 20.00    -0.024 C 
HETATM    3  C3  UNL     1     -33.488   5.266   3.145  1.00 20.00     0.139 C 
HETATM    4  C4  UNL     1     -35.563   5.936   3.937  1.00 20.00     0.025 C 
HETATM    5  C5  UNL     1     -34.532   4.825   4.164  1.00 20.00     0.078 C 
HETATM    6  C6  UNL     1     -34.557   7.078   4.157  1.00 20.00     0.020 C 
HETATM    7  C7  UNL     1     -33.540   6.795   3.012  1.00 20.00     0.067 C 
HETATM    8  O11 UNL     1     -32.704   4.527   2.570  1.00 20.00    -0.297 OA
ENDROOT
BRANCH   7   9
HETATM    9  C10 UNL     1     -32.186   7.458   3.173  1.00 20.00    -0.011 C 
HETATM   10  C8  UNL     1     -31.809   8.245   1.916  1.00 20.00     0.010 C 
HETATM   11  C9  UNL     1     -32.168   8.379   4.396  1.00 20.00     0.010 C 
ENDBRANCH   7   9
TORSDOF 1
ENDMDL
MODEL 2
REMARK VINA RESULT:      -5.5      1.589      2.442
REMARK  1 active torsions:
REMARK  status: ('A' for Active; 'I' for Inactive)
REMARK    1  A    between atoms: C7_7  and  C10_10 
ROOT
HETATM    1  C1  UNL     1     -35.643   6.063   3.722  1.00 20.00    -0.018 C 
HETATM    2  C2  UNL     1     -34.914   6.085   2.594  1.00 20.00    -0.024 C 
HETATM    3  C3  UNL     1     -33.715   6.568   5.028  1.00 20.00     0.139 C 
HETATM    4  C4  UNL     1     -33.942   4.511   3.981  1.00 20.00     0.025 C 
HETATM    5  C5  UNL     1     -34.774   5.494   4.810  1.00 20.00     0.078 C 
HETATM    6  C6  UNL     1     -33.532   5.558   2.931  1.00 20.00     0.020 C 
HETATM    7  C7  UNL     1     -32.764   6.579   3.821  1.00 20.00     0.067 C 
HETATM    8  O11 UNL     1     -33.665   7.331   5.980  1.00 20.00    -0.297 OA
ENDROOT
BRANCH   7   9
HETATM    9  C10 UNL     1     -32.580   7.955   3.214  1.00 20.00    -0.011 C 
HETATM   10  C8  UNL     1     -31.395   8.682   3.855  1.00 20.00     0.010 C 
HETATM   11  C9  UNL     1     -32.384   7.864   1.698  1.00 20.00     0.010 C 
ENDBRANCH   7   9
TORSDOF 1
ENDMDL
MODEL 3
REMARK VINA RESULT:      -5.0      1.521      3.063
REMARK  1 active torsions:
REMARK  status: ('A' for Active; 'I' for Inactive)
REMARK    1  A    between atoms: C7_7  and  C10_10 
ROOT
HETATM    1  C1  UNL     1     -32.830   4.825   2.654  1.00 20.00    -0.018 C 
HETATM    2  C2  UNL     1     -33.900   4.576   3.428  1.00 20.00    -0.024 C 
HETATM    3  C3  UNL     1     -32.831   7.113   3.316  1.00 20.00     0.139 C 
HETATM    4  C4  UNL     1     -34.514   6.261   1.967  1.00 20.00     0.025 C 
HETATM    5  C5  UNL     1     -32.989   6.213   2.096  1.00 20.00     0.078 C 
HETATM    6  C6  UNL     1     -34.770   5.819   3.418  1.00 20.00     0.020 C 
HETATM    7  C7  UNL     1     -34.078   6.972   4.201  1.00 20.00     0.067 C 
HETATM    8  O11 UNL     1     -31.849   7.794   3.571  1.00 20.00    -0.297 OA
ENDROOT
BRANCH   7   9
HETATM    9  C10 UNL     1     -33.754   6.666   5.650  1.00 20.00    -0.011 C 
HETATM   10  C8  UNL     1     -33.746   7.945   6.492  1.00 20.00     0.010 C 
HETATM   11  C9  UNL     1     -34.748   5.659   6.233  1.00 20.00     0.010 C 
ENDBRANCH   7   9
TORSDOF 1
ENDMDL
MODEL 4
REMARK VINA RESULT:      -5.0     11.109     12.931
REMARK  1 active torsions:
REMARK  status: ('A' for Active; 'I' for Inactive)
REMARK    1  A    between atoms: C7_7  and  C10_10 
ROOT
HETATM    1  C1  UNL     1     -33.028  14.397  -4.544  1.00 20.00    -0.018 C 
HETATM    2  C2  UNL     1     -33.125  15.531  -5.259  1.00 20.00    -0.024 C 
HETATM    3  C3  UNL     1     -35.320  13.893  -4.956  1.00 20.00     0.139 C 
HETATM    4  C4  UNL     1     -34.715  15.665  -3.586  1.00 20.00     0.025 C 
HETATM    5  C5  UNL     1     -34.338  14.200  -3.831  1.00 20.00     0.078 C 
HETATM    6  C6  UNL     1     -34.522  16.084  -5.053  1.00 20.00     0.020 C 
HETATM    7  C7  UNL     1     -35.574  15.178  -5.757  1.00 20.00     0.067 C 
HETATM    8  O11 UNL     1     -35.785  12.792  -5.208  1.00 20.00    -0.297 OA
ENDROOT
BRANCH   7   9
HETATM    9  C10 UNL     1     -35.379  15.003  -7.250  1.00 20.00    -0.011 C 
HETATM   10  C8  UNL     1     -36.630  14.404  -7.899  1.00 20.00     0.010 C 
HETATM   11  C9  UNL     1     -35.027  16.335  -7.918  1.00 20.00     0.010 C 
ENDBRANCH   7   9
TORSDOF 1
ENDMDL
MODEL 5
REMARK VINA RESULT:      -5.0     11.868     12.708
REMARK  1 active torsions:
REMARK  status: ('A' for Active; 'I' for Inactive)
REMARK    1  A    between atoms: C7_7  and  C10_10 
ROOT
HETATM    1  C1  UNL     1     -34.477  16.377  -5.935  1.00 20.00    -0.018 C 
HETATM    2  C2  UNL     1     -33.411  16.628  -5.157  1.00 20.00    -0.024 C 
HETATM    3  C3  UNL     1     -35.693  15.534  -4.068  1.00 20.00     0.139 C 
HETATM    4  C4  UNL     1     -33.880  14.375  -4.933  1.00 20.00     0.025 C 
HETATM    5  C5  UNL     1     -35.126  15.121  -5.421  1.00 20.00     0.078 C 
HETATM    6  C6  UNL     1     -33.359  15.552  -4.090  1.00 20.00     0.020 C 
HETATM    7  C7  UNL     1     -34.532  15.730  -3.082  1.00 20.00     0.067 C 
HETATM    8  O11 UNL     1     -36.874  15.728  -3.825  1.00 20.00    -0.297 OA
ENDROOT
BRANCH   7   9
HETATM    9  C10 UNL     1     -34.571  17.065  -2.366  1.00 20.00    -0.011 C 
HETATM   10  C8  UNL     1     -35.520  17.015  -1.165  1.00 20.00     0.010 C 
HETATM   11  C9  UNL     1     -33.170  17.486  -1.913  1.00 20.00     0.010 C 
ENDBRANCH   7   9
TORSDOF 1
ENDMDL
MODEL 6
REMARK VINA RESULT:      -4.9     11.335     12.528
REMARK  1 active torsions:
REMARK  status: ('A' for Active; 'I' for Inactive)
REMARK    1  A    between atoms: C7_7  and  C10_10 
ROOT
HETATM    1  C1  UNL     1     -37.944  15.013  -4.435  1.00 20.00    -0.018 C 
HETATM    2  C2  UNL     1     -37.165  16.087  -4.223  1.00 20.00    -0.024 C 
HETATM    3  C3  UNL     1     -36.120  13.831  -5.410  1.00 20.00     0.139 C 
HETATM    4  C4  UNL     1     -37.081  15.645  -6.491  1.00 20.00     0.025 C 
HETATM    5  C5  UNL     1     -37.503  14.385  -5.729  1.00 20.00     0.078 C 
HETATM    6  C6  UNL     1     -36.170  16.164  -5.365  1.00 20.00     0.020 C 
HETATM    7  C7  UNL     1     -35.138  15.004  -5.265  1.00 20.00     0.067 C 
HETATM    8  O11 UNL     1     -35.850  12.652  -5.245  1.00 20.00    -0.297 OA
ENDROOT
BRANCH   7   9
HETATM    9  C10 UNL     1     -34.337  14.961  -3.980  1.00 20.00    -0.011 C 
HETATM   10  C8  UNL     1     -33.010  14.225  -4.185  1.00 20.00     0.010 C 
HETATM   11  C9  UNL     1     -34.079  16.372  -3.446  1.00 20.00     0.010 C 
ENDBRANCH   7   9
TORSDOF 1
ENDMDL
MODEL 7
REMARK VINA RESULT:      -4.8     11.741     12.422
REMARK  1 active torsions:
REMARK  status: ('A' for Active; 'I' for Inactive)
REMARK    1  A    between atoms: C7_7  and  C10_10 
ROOT
HETATM    1  C1  UNL     1     -36.049  13.415  -5.284  1.00 20.00    -0.018 C 
HETATM    2  C2  UNL     1     -36.718  14.529  -4.944  1.00 20.00    -0.024 C 
HETATM    3  C3  UNL     1     -33.963  14.507  -4.923  1.00 20.00     0.139 C 
HETATM    4  C4  UNL     1     -35.329  15.100  -6.702  1.00 20.00     0.025 C 
HETATM    5  C5  UNL     1     -34.801  13.840  -6.008  1.00 20.00     0.078 C 
HETATM    6  C6  UNL     1     -35.898  15.716  -5.413  1.00 20.00     0.020 C 
HETATM    7  C7  UNL     1     -34.605  15.854  -4.558  1.00 20.00     0.067 C 
HETATM    8  O11 UNL     1     -32.974  14.023  -4.395  1.00 20.00    -0.297 OA
ENDROOT
BRANCH   7   9
HETATM    9  C10 UNL     1     -34.830  16.028  -3.070  1.00 20.00    -0.011 C 
HETATM   10  C8  UNL     1     -33.648  16.752  -2.418  1.00 20.00     0.010 C 
HETATM   11  C9  UNL     1     -36.129  16.790  -2.796  1.00 20.00     0.010 C 
ENDBRANCH   7   9
TORSDOF 1
ENDMDL
MODEL 8
REMARK VINA RESULT:      -4.8     11.565     12.887
REMARK  1 active torsions:
REMARK  status: ('A' for Active; 'I' for Inactive)
REMARK    1  A    between atoms: C7_7  and  C10_10 
ROOT
HETATM    1  C1  UNL     1     -33.496  15.370  -5.748  1.00 20.00    -0.018 C 
HETATM    2  C2  UNL     1     -34.237  16.478  -5.574  1.00 20.00    -0.024 C 
HETATM    3  C3  UNL     1     -35.143  14.046  -4.649  1.00 20.00     0.139 C 
HETATM    4  C4  UNL     1     -33.871  15.588  -3.472  1.00 20.00     0.025 C 
HETATM    5  C5  UNL     1     -33.693  14.501  -4.537  1.00 20.00     0.078 C 
HETATM    6  C6  UNL     1     -34.965  16.339  -4.251  1.00 20.00     0.020 C 
HETATM    7  C7  UNL     1     -36.062  15.239  -4.348  1.00 20.00     0.067 C 
HETATM    8  O11 UNL     1     -35.511  12.928  -4.977  1.00 20.00    -0.297 OA
ENDROOT
BRANCH   7   9
HETATM    9  C10 UNL     1     -37.115  15.470  -5.412  1.00 20.00    -0.011 C 
HETATM   10  C8  UNL     1     -38.322  14.552  -5.198  1.00 20.00     0.010 C 
HETATM   11  C9  UNL     1     -37.564  16.933  -5.433  1.00 20.00     0.010 C 
ENDBRANCH   7   9
TORSDOF 1
ENDMDL
MODEL 9
REMARK VINA RESULT:      -4.7     11.649     13.025
REMARK  1 active torsions:
REMARK  status: ('A' for Active; 'I' for Inactive)
REMARK    1  A    between atoms: C7_7  and  C10_10 
ROOT
HETATM    1  C1  UNL     1     -33.560  16.597  -3.495  1.00 20.00    -0.018 C 
HETATM    2  C2  UNL     1     -33.787  17.225  -4.661  1.00 20.00    -0.024 C 
HETATM    3  C3  UNL     1     -34.748  14.675  -4.250  1.00 20.00     0.139 C 
HETATM    4  C4  UNL     1     -35.856  16.661  -3.797  1.00 20.00     0.025 C 
HETATM    5  C5  UNL     1     -34.774  15.765  -3.186  1.00 20.00     0.078 C 
HETATM    6  C6  UNL     1     -35.152  16.787  -5.158  1.00 20.00     0.020 C 
HETATM    7  C7  UNL     1     -35.114  15.297  -5.606  1.00 20.00     0.067 C 
HETATM    8  O11 UNL     1     -34.434  13.510  -4.063  1.00 20.00    -0.297 OA
ENDROOT
BRANCH   7   9
HETATM    9  C10 UNL     1     -34.117  14.977  -6.702  1.00 20.00    -0.011 C 
HETATM   10  C8  UNL     1     -34.432  13.627  -7.352  1.00 20.00     0.010 C 
HETATM   11  C9  UNL     1     -34.096  16.080  -7.764  1.00 20.00     0.010 C 
ENDBRANCH   7   9
TORSDOF 1
ENDMDL
