MODEL 1
REMARK VINA RESULT:      -4.8      0.000      0.000
REMARK  0 active torsions:
REMARK  status: ('A' for Active; 'I' for Inactive)
ROOT
HETATM    1  C1  UNL     1     -33.655  17.287  -4.347  1.00 20.00    -0.029 C 
HETATM    2  C2  UNL     1     -34.659  16.631  -4.937  1.00 20.00    -0.013 C 
HETATM    3  C3  UNL     1     -34.833  14.251  -4.420  1.00 20.00     0.139 C 
HETATM    4  C4  UNL     1     -33.463  16.849  -2.933  1.00 20.00     0.032 C 
HETATM    5  C5  UNL     1     -35.939  13.455  -5.069  1.00 20.00     0.079 C 
HETATM    6  C6  UNL     1     -37.007  14.516  -5.302  1.00 20.00     0.009 C 
HETATM    7  C7  UNL     1     -36.817  15.502  -4.152  1.00 20.00     0.022 C 
HETATM    8  C8  UNL     1     -34.767  16.083  -2.619  1.00 20.00     0.004 C 
HETATM    9  C9  UNL     1     -35.298  15.644  -4.005  1.00 20.00     0.041 C 
HETATM   10  C10 UNL     1     -35.730  16.985  -1.838  1.00 20.00     0.011 C 
HETATM   11  O11 UNL     1     -33.701  13.811  -4.255  1.00 20.00    -0.297 OA
ENDROOT
TORSDOF 0
ENDMDL
MODEL 2
REMARK VINA RESULT:      -4.8      1.430      1.910
REMARK  0 active torsions:
REMARK  status: ('A' for Active; 'I' for Inactive)
ROOT
HETATM    1  C1  UNL     1     -33.520  15.281  -5.891  1.00 20.00    -0.029 C 
HETATM    2  C2  UNL     1     -34.816  15.576  -6.039  1.00 20.00    -0.013 C 
HETATM    3  C3  UNL     1     -36.395  13.967  -5.104  1.00 20.00     0.139 C 
HETATM    4  C4  UNL     1     -33.236  14.703  -4.545  1.00 20.00     0.032 C 
HETATM    5  C5  UNL     1     -37.872  14.240  -5.255  1.00 20.00     0.079 C 
HETATM    6  C6  UNL     1     -37.912  15.761  -5.336  1.00 20.00     0.009 C 
HETATM    7  C7  UNL     1     -36.737  16.216  -4.475  1.00 20.00     0.022 C 
HETATM    8  C8  UNL     1     -34.507  15.045  -3.736  1.00 20.00     0.004 C 
HETATM    9  C9  UNL     1     -35.604  15.238  -4.809  1.00 20.00     0.041 C 
HETATM   10  C10 UNL     1     -34.257  16.284  -2.867  1.00 20.00     0.011 C 
HETATM   11  O11 UNL     1     -35.909  12.847  -5.210  1.00 20.00    -0.297 OA
ENDROOT
TORSDOF 0
ENDMDL
MODEL 3
REMARK VINA RESULT:      -4.7      1.964      2.622
REMARK  0 active torsions:
REMARK  status: ('A' for Active; 'I' for Inactive)
ROOT
HETATM    1  C1  UNL     1     -33.676  15.541  -3.627  1.00 20.00    -0.029 C 
HETATM    2  C2  UNL     1     -33.437  15.184  -4.893  1.00 20.00    -0.013 C 
HETATM    3  C3  UNL     1     -35.095  13.716  -5.922  1.00 20.00     0.139 C 
HETATM    4  C4  UNL     1     -35.123  15.828  -3.397  1.00 20.00     0.032 C 
HETATM    5  C5  UNL     1     -34.869  13.266  -7.345  1.00 20.00     0.079 C 
HETATM    6  C6  UNL     1     -34.043  14.410  -7.918  1.00 20.00     0.009 C 
HETATM    7  C7  UNL     1     -34.528  15.643  -7.161  1.00 20.00     0.022 C 
HETATM    8  C8  UNL     1     -35.689  15.963  -4.829  1.00 20.00     0.004 C 
HETATM    9  C9  UNL     1     -34.694  15.173  -5.711  1.00 20.00     0.041 C 
HETATM   10  C10 UNL     1     -35.818  17.444  -5.203  1.00 20.00     0.011 C 
HETATM   11  O11 UNL     1     -35.547  12.980  -5.053  1.00 20.00    -0.297 OA
ENDROOT
TORSDOF 0
ENDMDL
MODEL 4
REMARK VINA RESULT:      -4.5     11.305     12.421
REMARK  0 active torsions:
REMARK  status: ('A' for Active; 'I' for Inactive)
ROOT
HETATM    1  C1  UNL     1     -35.533   5.946   3.722  1.00 20.00    -0.029 C 
HETATM    2  C2  UNL     1     -34.760   6.909   3.210  1.00 20.00    -0.013 C 
HETATM    3  C3  UNL     1     -32.784   7.503   4.516  1.00 20.00     0.139 C 
HETATM    4  C4  UNL     1     -34.723   4.848   4.326  1.00 20.00     0.032 C 
HETATM    5  C5  UNL     1     -31.882   8.595   3.996  1.00 20.00     0.079 C 
HETATM    6  C6  UNL     1     -32.107   8.510   2.491  1.00 20.00     0.009 C 
HETATM    7  C7  UNL     1     -32.398   7.033   2.236  1.00 20.00     0.022 C 
HETATM    8  C8  UNL     1     -33.306   5.103   3.763  1.00 20.00     0.004 C 
HETATM    9  C9  UNL     1     -33.303   6.605   3.396  1.00 20.00     0.041 C 
HETATM   10  C10 UNL     1     -33.039   4.168   2.577  1.00 20.00     0.011 C 
HETATM   11  O11 UNL     1     -33.056   7.371   5.704  1.00 20.00    -0.297 OA
ENDROOT
TORSDOF 0
ENDMDL
MODEL 5
REMARK VINA RESULT:      -4.4      1.368      1.978
REMARK  0 active torsions:
REMARK  status: ('A' for Active; 'I' for Inactive)
ROOT
HETATM    1  C1  UNL     1     -33.679  16.661  -2.879  1.00 20.00    -0.029 C 
HETATM    2  C2  UNL     1     -33.507  16.396  -4.178  1.00 20.00    -0.013 C 
HETATM    3  C3  UNL     1     -34.563  14.355  -5.004  1.00 20.00     0.139 C 
HETATM    4  C4  UNL     1     -35.067  16.345  -2.430  1.00 20.00     0.032 C 
HETATM    5  C5  UNL     1     -34.389  13.997  -6.460  1.00 20.00     0.079 C 
HETATM    6  C6  UNL     1     -34.190  15.361  -7.107  1.00 20.00     0.009 C 
HETATM    7  C7  UNL     1     -35.014  16.312  -6.244  1.00 20.00     0.022 C 
HETATM    8  C8  UNL     1     -35.845  16.199  -3.757  1.00 20.00     0.004 C 
HETATM    9  C9  UNL     1     -34.759  15.855  -4.803  1.00 20.00     0.041 C 
HETATM   10  C10 UNL     1     -36.615  17.491  -4.056  1.00 20.00     0.011 C 
HETATM   11  O11 UNL     1     -34.545  13.524  -4.104  1.00 20.00    -0.297 OA
ENDROOT
TORSDOF 0
ENDMDL
MODEL 6
REMARK VINA RESULT:      -4.4     10.984     11.713
REMARK  0 active torsions:
REMARK  status: ('A' for Active; 'I' for Inactive)
ROOT
HETATM    1  C1  UNL     1     -33.297   8.410   1.726  1.00 20.00    -0.029 C 
HETATM    2  C2  UNL     1     -34.066   7.794   2.629  1.00 20.00    -0.013 C 
HETATM    3  C3  UNL     1     -33.364   5.548   3.279  1.00 20.00     0.139 C 
HETATM    4  C4  UNL     1     -31.846   8.160   1.972  1.00 20.00     0.032 C 
HETATM    5  C5  UNL     1     -34.203   4.797   4.284  1.00 20.00     0.079 C 
HETATM    6  C6  UNL     1     -34.833   5.928   5.087  1.00 20.00     0.009 C 
HETATM    7  C7  UNL     1     -33.788   7.040   5.058  1.00 20.00     0.022 C 
HETATM    8  C8  UNL     1     -31.822   7.598   3.411  1.00 20.00     0.004 C 
HETATM    9  C9  UNL     1     -33.244   7.029   3.624  1.00 20.00     0.041 C 
HETATM   10  C10 UNL     1     -31.436   8.706   4.399  1.00 20.00     0.011 C 
HETATM   11  O11 UNL     1     -32.849   5.011   2.305  1.00 20.00    -0.297 OA
ENDROOT
TORSDOF 0
ENDMDL
MODEL 7
REMARK VINA RESULT:      -4.3      1.721      3.777
REMARK  0 active torsions:
REMARK  status: ('A' for Active; 'I' for Inactive)
ROOT
HETATM    1  C1  UNL     1     -35.631  13.253  -6.402  1.00 20.00    -0.029 C 
HETATM    2  C2  UNL     1     -35.761  14.150  -5.419  1.00 20.00    -0.013 C 
HETATM    3  C3  UNL     1     -33.691  14.850  -4.328  1.00 20.00     0.139 C 
HETATM    4  C4  UNL     1     -34.437  13.534  -7.252  1.00 20.00     0.032 C 
HETATM    5  C5  UNL     1     -33.778  15.849  -3.200  1.00 20.00     0.079 C 
HETATM    6  C6  UNL     1     -35.044  16.621  -3.548  1.00 20.00     0.009 C 
HETATM    7  C7  UNL     1     -35.094  16.596  -5.074  1.00 20.00     0.022 C 
HETATM    8  C8  UNL     1     -34.060  14.982  -6.867  1.00 20.00     0.004 C 
HETATM    9  C9  UNL     1     -34.665  15.174  -5.457  1.00 20.00     0.041 C 
HETATM   10  C10 UNL     1     -34.599  15.960  -7.918  1.00 20.00     0.011 C 
HETATM   11  O11 UNL     1     -32.922  13.896  -4.318  1.00 20.00    -0.297 OA
ENDROOT
TORSDOF 0
ENDMDL
MODEL 8
REMARK VINA RESULT:      -4.3      1.754      3.705
REMARK  0 active torsions:
REMARK  status: ('A' for Active; 'I' for Inactive)
ROOT
HETATM    1  C1  UNL     1     -33.831  14.681  -5.041  1.00 20.00    -0.029 C 
HETATM    2  C2  UNL     1     -33.566  15.247  -3.860  1.00 20.00    -0.013 C 
HETATM    3  C3  UNL     1     -33.655  17.687  -3.798  1.00 20.00     0.139 C 
HETATM    4  C4  UNL     1     -34.951  15.371  -5.747  1.00 20.00     0.032 C 
HETATM    5  C5  UNL     1     -33.349  18.382  -2.494  1.00 20.00     0.079 C 
HETATM    6  C6  UNL     1     -33.751  17.333  -1.466  1.00 20.00     0.009 C 
HETATM    7  C7  UNL     1     -34.900  16.576  -2.128  1.00 20.00     0.022 C 
HETATM    8  C8  UNL     1     -35.597  16.227  -4.634  1.00 20.00     0.004 C 
HETATM    9  C9  UNL     1     -34.470  16.414  -3.590  1.00 20.00     0.041 C 
HETATM   10  C10 UNL     1     -36.844  15.522  -4.089  1.00 20.00     0.011 C 
HETATM   11  O11 UNL     1     -33.282  18.111  -4.885  1.00 20.00    -0.297 OA
ENDROOT
TORSDOF 0
ENDMDL
MODEL 9
REMARK VINA RESULT:      -4.3      2.281      4.065
REMARK  0 active torsions:
REMARK  status: ('A' for Active; 'I' for Inactive)
ROOT
HETATM    1  C1  UNL     1     -35.645  13.493  -7.904  1.00 20.00    -0.029 C 
HETATM    2  C2  UNL     1     -34.796  13.444  -6.872  1.00 20.00    -0.013 C 
HETATM    3  C3  UNL     1     -33.937  15.592  -6.090  1.00 20.00     0.139 C 
HETATM    4  C4  UNL     1     -36.594  14.639  -7.785  1.00 20.00     0.032 C 
HETATM    5  C5  UNL     1     -32.962  15.597  -4.938  1.00 20.00     0.079 C 
HETATM    6  C6  UNL     1     -33.346  14.331  -4.184  1.00 20.00     0.009 C 
HETATM    7  C7  UNL     1     -34.846  14.188  -4.425  1.00 20.00     0.022 C 
HETATM    8  C8  UNL     1     -36.443  15.073  -6.310  1.00 20.00     0.004 C 
HETATM    9  C9  UNL     1     -35.044  14.559  -5.899  1.00 20.00     0.041 C 
HETATM   10  C10 UNL     1     -37.592  14.494  -5.475  1.00 20.00     0.011 C 
HETATM   11  O11 UNL     1     -33.833  16.338  -7.056  1.00 20.00    -0.297 OA
ENDROOT
TORSDOF 0
ENDMDL
