MODEL 1
REMARK VINA RESULT:      -4.4      0.000      0.000
REMARK  1 active torsions:
REMARK  status: ('A' for Active; 'I' for Inactive)
REMARK    1  A    between atoms: C7_7  and  C10_10 
ROOT
HETATM    1  C1  UNL     1     -33.340  14.428  -4.166  1.00 20.00    -0.017 C 
HETATM    2  C2  UNL     1     -33.580  15.718  -3.862  1.00 20.00    -0.019 C 
HETATM    3  C3  UNL     1     -35.612  13.799  -5.121  1.00 20.00     0.135 C 
HETATM    4  C4  UNL     1     -36.540  14.865  -4.582  1.00 20.00     0.080 C 
HETATM    5  C5  UNL     1     -35.887  16.188  -5.011  1.00 20.00     0.022 C 
HETATM    6  C6  UNL     1     -34.222  14.450  -5.398  1.00 20.00     0.090 C 
HETATM    7  C7  UNL     1     -34.366  15.976  -5.143  1.00 20.00    -0.006 C 
HETATM    8  O11 UNL     1     -35.940  12.625  -5.249  1.00 20.00    -0.297 OA
ENDROOT
BRANCH   7   9
HETATM    9  C10 UNL     1     -33.702  16.927  -6.127  1.00 20.00    -0.009 C 
HETATM   10  C8  UNL     1     -34.150  16.627  -7.558  1.00 20.00     0.011 C 
HETATM   11  C9  UNL     1     -34.009  18.381  -5.767  1.00 20.00     0.011 C 
ENDBRANCH   7   9
TORSDOF 1
ENDMDL
MODEL 2
REMARK VINA RESULT:      -4.4      2.552      3.926
REMARK  1 active torsions:
REMARK  status: ('A' for Active; 'I' for Inactive)
REMARK    1  A    between atoms: C7_7  and  C10_10 
ROOT
HETATM    1  C1  UNL     1     -35.181  15.214  -3.732  1.00 20.00    -0.017 C 
HETATM    2  C2  UNL     1     -35.716  16.304  -3.149  1.00 20.00    -0.019 C 
HETATM    3  C3  UNL     1     -33.402  16.341  -5.159  1.00 20.00     0.135 C 
HETATM    4  C4  UNL     1     -33.865  17.778  -5.249  1.00 20.00     0.080 C 
HETATM    5  C5  UNL     1     -34.038  18.213  -3.785  1.00 20.00     0.022 C 
HETATM    6  C6  UNL     1     -33.778  15.790  -3.749  1.00 20.00     0.090 C 
HETATM    7  C7  UNL     1     -34.363  16.972  -2.929  1.00 20.00    -0.006 C 
HETATM    8  O11 UNL     1     -32.869  15.747  -6.090  1.00 20.00    -0.297 OA
ENDROOT
BRANCH   7   9
HETATM    9  C10 UNL     1     -33.939  17.108  -1.475  1.00 20.00    -0.009 C 
HETATM   10  C8  UNL     1     -32.780  18.095  -1.338  1.00 20.00     0.011 C 
HETATM   11  C9  UNL     1     -35.117  17.547  -0.604  1.00 20.00     0.011 C 
ENDBRANCH   7   9
TORSDOF 1
ENDMDL
MODEL 3
REMARK VINA RESULT:      -4.3      1.564      3.082
REMARK  1 active torsions:
REMARK  status: ('A' for Active; 'I' for Inactive)
REMARK    1  A    between atoms: C7_7  and  C10_10 
ROOT
HETATM    1  C1  UNL     1     -35.882  16.288  -5.514  1.00 20.00    -0.017 C 
HETATM    2  C2  UNL     1     -34.783  17.042  -5.318  1.00 20.00    -0.019 C 
HETATM    3  C3  UNL     1     -35.018  14.064  -4.631  1.00 20.00     0.135 C 
HETATM    4  C4  UNL     1     -33.514  14.218  -4.667  1.00 20.00     0.080 C 
HETATM    5  C5  UNL     1     -33.245  15.499  -3.863  1.00 20.00     0.022 C 
HETATM    6  C6  UNL     1     -35.647  15.446  -4.275  1.00 20.00     0.090 C 
HETATM    7  C7  UNL     1     -34.478  16.420  -3.960  1.00 20.00    -0.006 C 
HETATM    8  O11 UNL     1     -35.592  13.013  -4.895  1.00 20.00    -0.297 OA
ENDROOT
BRANCH   7   9
HETATM    9  C10 UNL     1     -34.633  17.356  -2.772  1.00 20.00    -0.009 C 
HETATM   10  C8  UNL     1     -35.448  16.693  -1.660  1.00 20.00     0.011 C 
HETATM   11  C9  UNL     1     -33.267  17.792  -2.242  1.00 20.00     0.011 C 
ENDBRANCH   7   9
TORSDOF 1
ENDMDL
MODEL 4
REMARK VINA RESULT:      -4.3      2.246      3.345
REMARK  1 active torsions:
REMARK  status: ('A' for Active; 'I' for Inactive)
REMARK    1  A    between atoms: C7_7  and  C10_10 
ROOT
HETATM    1  C1  UNL     1     -33.273  14.763  -4.749  1.00 20.00    -0.017 C 
HETATM    2  C2  UNL     1     -34.289  14.663  -3.870  1.00 20.00    -0.019 C 
HETATM    3  C3  UNL     1     -34.094  16.755  -6.103  1.00 20.00     0.135 C 
HETATM    4  C4  UNL     1     -35.576  16.812  -5.804  1.00 20.00     0.080 C 
HETATM    5  C5  UNL     1     -35.651  16.866  -4.270  1.00 20.00     0.022 C 
HETATM    6  C6  UNL     1     -33.350  16.276  -4.818  1.00 20.00     0.090 C 
HETATM    7  C7  UNL     1     -34.405  16.172  -3.683  1.00 20.00    -0.006 C 
HETATM    8  O11 UNL     1     -33.620  17.008  -7.205  1.00 20.00    -0.297 OA
ENDROOT
BRANCH   7   9
HETATM    9  C10 UNL     1     -34.019  16.683  -2.304  1.00 20.00    -0.009 C 
HETATM   10  C8  UNL     1     -33.248  18.000  -2.409  1.00 20.00     0.011 C 
HETATM   11  C9  UNL     1     -35.257  16.861  -1.423  1.00 20.00     0.011 C 
ENDBRANCH   7   9
TORSDOF 1
ENDMDL
MODEL 5
REMARK VINA RESULT:      -4.3      1.832      3.266
REMARK  1 active torsions:
REMARK  status: ('A' for Active; 'I' for Inactive)
REMARK    1  A    between atoms: C7_7  and  C10_10 
ROOT
HETATM    1  C1  UNL     1     -35.612  13.742  -4.898  1.00 20.00    -0.017 C 
HETATM    2  C2  UNL     1     -36.077  14.926  -5.343  1.00 20.00    -0.019 C 
HETATM    3  C3  UNL     1     -33.203  14.401  -4.413  1.00 20.00     0.135 C 
HETATM    4  C4  UNL     1     -33.003  15.666  -5.219  1.00 20.00     0.080 C 
HETATM    5  C5  UNL     1     -34.140  16.592  -4.759  1.00 20.00     0.022 C 
HETATM    6  C6  UNL     1     -34.672  14.377  -3.891  1.00 20.00     0.090 C 
HETATM    7  C7  UNL     1     -35.327  15.729  -4.285  1.00 20.00    -0.006 C 
HETATM    8  O11 UNL     1     -32.332  13.550  -4.271  1.00 20.00    -0.297 OA
ENDROOT
BRANCH   7   9
HETATM    9  C10 UNL     1     -36.207  16.420  -3.256  1.00 20.00    -0.009 C 
HETATM   10  C8  UNL     1     -35.419  16.716  -1.979  1.00 20.00     0.011 C 
HETATM   11  C9  UNL     1     -36.800  17.710  -3.825  1.00 20.00     0.011 C 
ENDBRANCH   7   9
TORSDOF 1
ENDMDL
MODEL 6
REMARK VINA RESULT:      -4.2      2.970      3.882
REMARK  1 active torsions:
REMARK  status: ('A' for Active; 'I' for Inactive)
REMARK    1  A    between atoms: C7_7  and  C10_10 
ROOT
HETATM    1  C1  UNL     1     -33.187  18.062  -2.163  1.00 20.00    -0.017 C 
HETATM    2  C2  UNL     1     -33.497  18.021  -3.473  1.00 20.00    -0.019 C 
HETATM    3  C3  UNL     1     -35.361  17.161  -1.196  1.00 20.00     0.135 C 
HETATM    4  C4  UNL     1     -36.365  17.362  -2.310  1.00 20.00     0.080 C 
HETATM    5  C5  UNL     1     -35.734  16.658  -3.521  1.00 20.00     0.022 C 
HETATM    6  C6  UNL     1     -33.981  16.812  -1.834  1.00 20.00     0.090 C 
HETATM    7  C7  UNL     1     -34.200  16.672  -3.366  1.00 20.00    -0.006 C 
HETATM    8  O11 UNL     1     -35.634  17.309  -0.010  1.00 20.00    -0.297 OA
ENDROOT
BRANCH   7   9
HETATM    9  C10 UNL     1     -33.505  15.524  -4.081  1.00 20.00    -0.009 C 
HETATM   10  C8  UNL     1     -34.377  14.268  -4.065  1.00 20.00     0.011 C 
HETATM   11  C9  UNL     1     -33.157  15.911  -5.519  1.00 20.00     0.011 C 
ENDBRANCH   7   9
TORSDOF 1
ENDMDL
MODEL 7
REMARK VINA RESULT:      -4.2      2.693      3.796
REMARK  1 active torsions:
REMARK  status: ('A' for Active; 'I' for Inactive)
REMARK    1  A    between atoms: C7_7  and  C10_10 
ROOT
HETATM    1  C1  UNL     1     -34.610  16.991  -1.447  1.00 20.00    -0.017 C 
HETATM    2  C2  UNL     1     -33.651  16.896  -2.389  1.00 20.00    -0.019 C 
HETATM    3  C3  UNL     1     -36.545  17.768  -2.904  1.00 20.00     0.135 C 
HETATM    4  C4  UNL     1     -35.870  18.312  -4.144  1.00 20.00     0.080 C 
HETATM    5  C5  UNL     1     -34.982  17.156  -4.631  1.00 20.00     0.022 C 
HETATM    6  C6  UNL     1     -35.716  16.552  -2.386  1.00 20.00     0.090 C 
HETATM    7  C7  UNL     1     -34.591  16.283  -3.422  1.00 20.00    -0.006 C 
HETATM    8  O11 UNL     1     -37.546  18.272  -2.408  1.00 20.00    -0.297 OA
ENDROOT
BRANCH   7   9
HETATM    9  C10 UNL     1     -34.292  14.837  -3.788  1.00 20.00    -0.009 C 
HETATM   10  C8  UNL     1     -35.432  14.240  -4.615  1.00 20.00     0.011 C 
HETATM   11  C9  UNL     1     -32.970  14.731  -4.549  1.00 20.00     0.011 C 
ENDBRANCH   7   9
TORSDOF 1
ENDMDL
MODEL 8
REMARK VINA RESULT:      -4.2      1.771      3.279
REMARK  1 active torsions:
REMARK  status: ('A' for Active; 'I' for Inactive)
REMARK    1  A    between atoms: C7_7  and  C10_10 
ROOT
HETATM    1  C1  UNL     1     -36.429  17.066  -5.353  1.00 20.00    -0.017 C 
HETATM    2  C2  UNL     1     -35.098  17.183  -5.178  1.00 20.00    -0.019 C 
HETATM    3  C3  UNL     1     -36.740  14.669  -4.560  1.00 20.00     0.135 C 
HETATM    4  C4  UNL     1     -35.352  14.074  -4.647  1.00 20.00     0.080 C 
HETATM    5  C5  UNL     1     -34.478  15.029  -3.820  1.00 20.00     0.022 C 
HETATM    6  C6  UNL     1     -36.609  16.167  -4.145  1.00 20.00     0.090 C 
HETATM    7  C7  UNL     1     -35.109  16.436  -3.848  1.00 20.00    -0.006 C 
HETATM    8  O11 UNL     1     -37.758  14.042  -4.830  1.00 20.00    -0.297 OA
ENDROOT
BRANCH   7   9
HETATM    9  C10 UNL     1     -34.766  17.281  -2.631  1.00 20.00    -0.009 C 
HETATM   10  C8  UNL     1     -35.551  16.812  -1.406  1.00 20.00     0.011 C 
HETATM   11  C9  UNL     1     -33.263  17.240  -2.347  1.00 20.00     0.011 C 
ENDBRANCH   7   9
TORSDOF 1
ENDMDL
MODEL 9
REMARK VINA RESULT:      -4.2      1.100      2.053
REMARK  1 active torsions:
REMARK  status: ('A' for Active; 'I' for Inactive)
REMARK    1  A    between atoms: C7_7  and  C10_10 
ROOT
HETATM    1  C1  UNL     1     -34.280  14.914  -7.164  1.00 20.00    -0.017 C 
HETATM    2  C2  UNL     1     -33.410  15.738  -6.548  1.00 20.00    -0.019 C 
HETATM    3  C3  UNL     1     -35.330  13.822  -5.120  1.00 20.00     0.135 C 
HETATM    4  C4  UNL     1     -34.328  14.078  -4.016  1.00 20.00     0.080 C 
HETATM    5  C5  UNL     1     -34.127  15.601  -4.032  1.00 20.00     0.022 C 
HETATM    6  C6  UNL     1     -35.331  15.052  -6.079  1.00 20.00     0.090 C 
HETATM    7  C7  UNL     1     -34.400  16.127  -5.455  1.00 20.00    -0.006 C 
HETATM    8  O11 UNL     1     -35.969  12.781  -5.219  1.00 20.00    -0.297 OA
ENDROOT
BRANCH   7   9
HETATM    9  C10 UNL     1     -34.863  17.575  -5.490  1.00 20.00    -0.009 C 
HETATM   10  C8  UNL     1     -36.124  17.763  -4.646  1.00 20.00     0.011 C 
HETATM   11  C9  UNL     1     -33.755  18.512  -5.006  1.00 20.00     0.011 C 
ENDBRANCH   7   9
TORSDOF 1
ENDMDL
