MODEL 1
REMARK VINA RESULT:      -5.6      0.000      0.000
REMARK  0 active torsions:
REMARK  status: ('A' for Active; 'I' for Inactive)
ROOT
HETATM    1  C1  UNL     1     -34.117   6.203   6.034  1.00 20.00    -0.029 A 
HETATM    2  C2  UNL     1     -33.889   7.420   5.531  1.00 20.00    -0.023 A 
HETATM    3  C3  UNL     1     -33.278   5.910   2.876  1.00 20.00     0.155 C 
HETATM    4  C4  UNL     1     -34.596   5.209   5.020  1.00 20.00     0.040 A 
HETATM    5  C5  UNL     1     -34.179   7.449   4.078  1.00 20.00     0.050 A 
HETATM    6  C6  UNL     1     -34.575   5.986   3.706  1.00 20.00     0.071 A 
HETATM    7  C7  UNL     1     -32.966   7.423   3.082  1.00 20.00     0.101 C 
HETATM    8  C8  UNL     1     -33.200   8.258   1.823  1.00 20.00     0.042 C 
HETATM    9  O9  UNL     1     -32.722   5.009   2.284  1.00 20.00    -0.295 OA
HETATM   10 CL10 UNL     1     -31.310   7.681   3.728  1.00 20.00    -0.111 Cl
ENDROOT
TORSDOF 0
ENDMDL
MODEL 2
REMARK VINA RESULT:      -4.5     11.629     12.564
REMARK  0 active torsions:
REMARK  status: ('A' for Active; 'I' for Inactive)
ROOT
HETATM    1  C1  UNL     1     -33.107  15.795  -5.280  1.00 20.00    -0.029 A 
HETATM    2  C2  UNL     1     -34.228  16.521  -5.235  1.00 20.00    -0.023 A 
HETATM    3  C3  UNL     1     -35.668  13.776  -4.925  1.00 20.00     0.155 C 
HETATM    4  C4  UNL     1     -33.190  14.503  -4.525  1.00 20.00     0.040 A 
HETATM    5  C5  UNL     1     -35.266  15.831  -4.433  1.00 20.00     0.050 A 
HETATM    6  C6  UNL     1     -34.630  14.467  -4.019  1.00 20.00     0.071 A 
HETATM    7  C7  UNL     1     -36.430  15.107  -5.199  1.00 20.00     0.101 C 
HETATM    8  C8  UNL     1     -37.773  15.186  -4.471  1.00 20.00     0.042 C 
HETATM    9  O9  UNL     1     -35.826  12.627  -5.281  1.00 20.00    -0.295 OA
HETATM   10 CL10 UNL     1     -36.632  15.412  -6.957  1.00 20.00    -0.111 Cl
ENDROOT
TORSDOF 0
ENDMDL
MODEL 3
REMARK VINA RESULT:      -4.5     11.750     12.865
REMARK  0 active torsions:
REMARK  status: ('A' for Active; 'I' for Inactive)
ROOT
HETATM    1  C1  UNL     1     -33.256  15.818  -4.590  1.00 20.00    -0.029 A 
HETATM    2  C2  UNL     1     -33.695  16.184  -5.799  1.00 20.00    -0.023 A 
HETATM    3  C3  UNL     1     -35.686  13.808  -5.492  1.00 20.00     0.155 C 
HETATM    4  C4  UNL     1     -34.300  15.162  -3.739  1.00 20.00     0.040 A 
HETATM    5  C5  UNL     1     -35.125  15.829  -5.965  1.00 20.00     0.050 A 
HETATM    6  C6  UNL     1     -35.523  15.089  -4.650  1.00 20.00     0.071 A 
HETATM    7  C7  UNL     1     -35.476  14.570  -6.834  1.00 20.00     0.101 C 
HETATM    8  C8  UNL     1     -36.768  14.732  -7.637  1.00 20.00     0.042 C 
HETATM    9  O9  UNL     1     -35.902  12.649  -5.206  1.00 20.00    -0.295 OA
HETATM   10 CL10 UNL     1     -34.186  13.820  -7.834  1.00 20.00    -0.111 Cl
ENDROOT
TORSDOF 0
ENDMDL
MODEL 4
REMARK VINA RESULT:      -4.2     12.432     13.033
REMARK  0 active torsions:
REMARK  status: ('A' for Active; 'I' for Inactive)
ROOT
HETATM    1  C1  UNL     1     -35.448  17.085  -1.135  1.00 20.00    -0.029 A 
HETATM    2  C2  UNL     1     -35.619  16.410  -2.276  1.00 20.00    -0.023 A 
HETATM    3  C3  UNL     1     -33.287  18.173  -3.349  1.00 20.00     0.155 C 
HETATM    4  C4  UNL     1     -34.048  17.573  -0.923  1.00 20.00     0.040 A 
HETATM    5  C5  UNL     1     -34.346  16.329  -3.031  1.00 20.00     0.050 A 
HETATM    6  C6  UNL     1     -33.316  17.151  -2.195  1.00 20.00     0.071 A 
HETATM    7  C7  UNL     1     -34.163  17.274  -4.271  1.00 20.00     0.101 C 
HETATM    8  C8  UNL     1     -33.368  16.631  -5.408  1.00 20.00     0.042 C 
HETATM    9  O9  UNL     1     -32.768  19.262  -3.481  1.00 20.00    -0.295 OA
HETATM   10 CL10 UNL     1     -35.592  18.159  -4.904  1.00 20.00    -0.111 Cl
ENDROOT
TORSDOF 0
ENDMDL
MODEL 5
REMARK VINA RESULT:      -4.1     11.873     12.438
REMARK  0 active torsions:
REMARK  status: ('A' for Active; 'I' for Inactive)
ROOT
HETATM    1  C1  UNL     1     -36.481  16.345  -3.544  1.00 20.00    -0.029 A 
HETATM    2  C2  UNL     1     -35.419  16.658  -4.291  1.00 20.00    -0.023 A 
HETATM    3  C3  UNL     1     -35.729  13.784  -5.450  1.00 20.00     0.155 C 
HETATM    4  C4  UNL     1     -37.397  15.344  -4.181  1.00 20.00     0.040 A 
HETATM    5  C5  UNL     1     -35.441  15.912  -5.571  1.00 20.00     0.050 A 
HETATM    6  C6  UNL     1     -36.694  14.986  -5.488  1.00 20.00     0.071 A 
HETATM    7  C7  UNL     1     -34.482  14.678  -5.723  1.00 20.00     0.101 C 
HETATM    8  C8  UNL     1     -33.928  14.514  -7.139  1.00 20.00     0.042 C 
HETATM    9  O9  UNL     1     -35.891  12.594  -5.278  1.00 20.00    -0.295 OA
HETATM   10 CL10 UNL     1     -33.197  14.423  -4.494  1.00 20.00    -0.111 Cl
ENDROOT
TORSDOF 0
ENDMDL
MODEL 6
REMARK VINA RESULT:      -4.1     11.675     12.266
REMARK  0 active torsions:
REMARK  status: ('A' for Active; 'I' for Inactive)
ROOT
HETATM    1  C1  UNL     1     -34.508  16.803  -1.757  1.00 20.00    -0.029 A 
HETATM    2  C2  UNL     1     -33.462  16.894  -2.584  1.00 20.00    -0.023 A 
HETATM    3  C3  UNL     1     -35.255  15.319  -4.585  1.00 20.00     0.155 C 
HETATM    4  C4  UNL     1     -35.830  16.723  -2.458  1.00 20.00     0.040 A 
HETATM    5  C5  UNL     1     -33.910  16.891  -3.997  1.00 20.00     0.050 A 
HETATM    6  C6  UNL     1     -35.459  16.704  -3.939  1.00 20.00     0.071 A 
HETATM    7  C7  UNL     1     -33.736  15.567  -4.823  1.00 20.00     0.101 C 
HETATM    8  C8  UNL     1     -33.394  15.814  -6.293  1.00 20.00     0.042 C 
HETATM    9  O9  UNL     1     -36.005  14.395  -4.821  1.00 20.00    -0.295 OA
HETATM   10 CL10 UNL     1     -32.729  14.246  -4.140  1.00 20.00    -0.111 Cl
ENDROOT
TORSDOF 0
ENDMDL
MODEL 7
REMARK VINA RESULT:      -4.0     11.591     12.527
REMARK  0 active torsions:
REMARK  status: ('A' for Active; 'I' for Inactive)
ROOT
HETATM    1  C1  UNL     1     -34.105  17.638  -4.342  1.00 20.00    -0.029 A 
HETATM    2  C2  UNL     1     -35.073  17.132  -5.112  1.00 20.00    -0.023 A 
HETATM    3  C3  UNL     1     -33.863  14.367  -4.345  1.00 20.00     0.155 C 
HETATM    4  C4  UNL     1     -33.671  16.725  -3.237  1.00 20.00     0.040 A 
HETATM    5  C5  UNL     1     -35.457  15.778  -4.648  1.00 20.00     0.050 A 
HETATM    6  C6  UNL     1     -34.495  15.460  -3.461  1.00 20.00     0.071 A 
HETATM    7  C7  UNL     1     -34.933  14.543  -5.464  1.00 20.00     0.101 C 
HETATM    8  C8  UNL     1     -35.934  13.388  -5.519  1.00 20.00     0.042 C 
HETATM    9  O9  UNL     1     -32.898  13.644  -4.209  1.00 20.00    -0.295 OA
HETATM   10 CL10 UNL     1     -34.181  14.821  -7.071  1.00 20.00    -0.111 Cl
ENDROOT
TORSDOF 0
ENDMDL
MODEL 8
REMARK VINA RESULT:      -3.9     12.336     12.908
REMARK  0 active torsions:
REMARK  status: ('A' for Active; 'I' for Inactive)
ROOT
HETATM    1  C1  UNL     1     -34.400  17.689  -0.680  1.00 20.00    -0.029 A 
HETATM    2  C2  UNL     1     -35.372  16.966  -1.243  1.00 20.00    -0.023 A 
HETATM    3  C3  UNL     1     -33.944  17.637  -3.928  1.00 20.00     0.155 C 
HETATM    4  C4  UNL     1     -33.115  17.681  -1.451  1.00 20.00     0.040 A 
HETATM    5  C5  UNL     1     -34.899  16.342  -2.502  1.00 20.00     0.050 A 
HETATM    6  C6  UNL     1     -33.440  16.860  -2.696  1.00 20.00     0.071 A 
HETATM    7  C7  UNL     1     -35.356  16.983  -3.860  1.00 20.00     0.101 C 
HETATM    8  C8  UNL     1     -35.590  15.953  -4.965  1.00 20.00     0.042 C 
HETATM    9  O9  UNL     1     -33.425  18.447  -4.668  1.00 20.00    -0.295 OA
HETATM   10 CL10 UNL     1     -36.663  18.215  -3.840  1.00 20.00    -0.111 Cl
ENDROOT
TORSDOF 0
ENDMDL
MODEL 9
REMARK VINA RESULT:      -3.9     12.183     12.980
REMARK  0 active torsions:
REMARK  status: ('A' for Active; 'I' for Inactive)
ROOT
HETATM    1  C1  UNL     1     -34.678  14.006  -7.622  1.00 20.00    -0.029 A 
HETATM    2  C2  UNL     1     -34.303  15.014  -6.829  1.00 20.00    -0.023 A 
HETATM    3  C3  UNL     1     -36.769  14.213  -5.104  1.00 20.00     0.155 C 
HETATM    4  C4  UNL     1     -35.400  12.906  -6.905  1.00 20.00     0.040 A 
HETATM    5  C5  UNL     1     -34.715  14.759  -5.428  1.00 20.00     0.050 A 
HETATM    6  C6  UNL     1     -35.503  13.412  -5.468  1.00 20.00     0.071 A 
HETATM    7  C7  UNL     1     -35.967  15.528  -4.875  1.00 20.00     0.101 C 
HETATM    8  C8  UNL     1     -35.841  15.901  -3.397  1.00 20.00     0.042 C 
HETATM    9  O9  UNL     1     -37.944  13.918  -5.023  1.00 20.00    -0.295 OA
HETATM   10 CL10 UNL     1     -36.636  16.894  -5.830  1.00 20.00    -0.111 Cl
ENDROOT
TORSDOF 0
ENDMDL
