MODEL 1
REMARK VINA RESULT:      -6.1      0.000      0.000
REMARK  1 active torsions:
REMARK  status: ('A' for Active; 'I' for Inactive)
REMARK    1  A    between atoms: C2_2  and  C10_10 
ROOT
HETATM    1  C1  UNL     1     -33.772   7.179   4.696  1.00 20.00    -0.017 C 
HETATM    2  C2  UNL     1     -33.239   7.121   3.457  1.00 20.00    -0.068 C 
HETATM    3  C3  UNL     1     -33.540   4.626   3.013  1.00 20.00     0.135 C 
HETATM    4  C4  UNL     1     -33.740   4.016   4.384  1.00 20.00     0.080 C 
HETATM    5  C5  UNL     1     -34.895   4.827   4.992  1.00 20.00     0.017 C 
HETATM    6  C6  UNL     1     -34.903   6.227   4.365  1.00 20.00     0.024 C 
HETATM    7  C7  UNL     1     -34.202   6.038   3.002  1.00 20.00     0.092 C 
HETATM    8  O11 UNL     1     -32.910   4.075   2.117  1.00 20.00    -0.297 OA
ENDROOT
BRANCH   2   9
HETATM    9  C10 UNL     1     -32.042   7.815   2.781  1.00 20.00     0.007 C 
HETATM   10  C8  UNL     1     -32.561   8.755   1.716  1.00 20.00     0.014 C 
HETATM   11  C9  UNL     1     -31.219   8.529   3.830  1.00 20.00     0.014 C 
ENDBRANCH   2   9
TORSDOF 1
ENDMDL
MODEL 2
REMARK VINA RESULT:      -5.6      0.531      1.191
REMARK  1 active torsions:
REMARK  status: ('A' for Active; 'I' for Inactive)
REMARK    1  A    between atoms: C2_2  and  C10_10 
ROOT
HETATM    1  C1  UNL     1     -33.921   7.136   5.163  1.00 20.00    -0.017 C 
HETATM    2  C2  UNL     1     -33.567   7.291   3.870  1.00 20.00    -0.068 C 
HETATM    3  C3  UNL     1     -33.565   4.838   3.164  1.00 20.00     0.135 C 
HETATM    4  C4  UNL     1     -33.477   4.067   4.464  1.00 20.00     0.080 C 
HETATM    5  C5  UNL     1     -34.639   4.617   5.307  1.00 20.00     0.017 C 
HETATM    6  C6  UNL     1     -34.938   6.055   4.863  1.00 20.00     0.024 C 
HETATM    7  C7  UNL     1     -34.419   6.120   3.410  1.00 20.00     0.092 C 
HETATM    8  O11 UNL     1     -32.996   4.490   2.136  1.00 20.00    -0.297 OA
ENDROOT
BRANCH   2   9
HETATM    9  C10 UNL     1     -32.591   8.233   3.140  1.00 20.00     0.007 C 
HETATM   10  C8  UNL     1     -31.213   8.067   3.741  1.00 20.00     0.014 C 
HETATM   11  C9  UNL     1     -32.616   7.928   1.659  1.00 20.00     0.014 C 
ENDBRANCH   2   9
TORSDOF 1
ENDMDL
MODEL 3
REMARK VINA RESULT:      -5.3      1.835      4.144
REMARK  1 active torsions:
REMARK  status: ('A' for Active; 'I' for Inactive)
REMARK    1  A    between atoms: C2_2  and  C10_10 
ROOT
HETATM    1  C1  UNL     1     -33.461   5.873   2.330  1.00 20.00    -0.017 C 
HETATM    2  C2  UNL     1     -34.095   5.864   3.521  1.00 20.00    -0.068 C 
HETATM    3  C3  UNL     1     -32.855   7.791   4.644  1.00 20.00     0.135 C 
HETATM    4  C4  UNL     1     -31.584   7.949   3.837  1.00 20.00     0.080 C 
HETATM    5  C5  UNL     1     -32.075   8.099   2.388  1.00 20.00     0.017 C 
HETATM    6  C6  UNL     1     -33.425   7.384   2.244  1.00 20.00     0.024 C 
HETATM    7  C7  UNL     1     -34.003   7.373   3.676  1.00 20.00     0.092 C 
HETATM    8  O11 UNL     1     -32.900   7.933   5.861  1.00 20.00    -0.297 OA
ENDROOT
BRANCH   2   9
HETATM    9  C10 UNL     1     -34.626   4.743   4.435  1.00 20.00     0.007 C 
HETATM   10  C8  UNL     1     -33.745   3.525   4.274  1.00 20.00     0.014 C 
HETATM   11  C9  UNL     1     -34.669   5.240   5.863  1.00 20.00     0.014 C 
ENDBRANCH   2   9
TORSDOF 1
ENDMDL
MODEL 4
REMARK VINA RESULT:      -5.0      1.765      2.570
REMARK  1 active torsions:
REMARK  status: ('A' for Active; 'I' for Inactive)
REMARK    1  A    between atoms: C2_2  and  C10_10 
ROOT
HETATM    1  C1  UNL     1     -33.871   6.089   2.143  1.00 20.00    -0.017 C 
HETATM    2  C2  UNL     1     -33.089   7.044   2.687  1.00 20.00    -0.068 C 
HETATM    3  C3  UNL     1     -33.631   6.644   5.149  1.00 20.00     0.135 C 
HETATM    4  C4  UNL     1     -34.928   5.864   5.132  1.00 20.00     0.080 C 
HETATM    5  C5  UNL     1     -34.636   4.668   4.211  1.00 20.00     0.017 C 
HETATM    6  C6  UNL     1     -33.543   5.067   3.212  1.00 20.00     0.024 C 
HETATM    7  C7  UNL     1     -32.779   6.208   3.918  1.00 20.00     0.092 C 
HETATM    8  O11 UNL     1     -33.371   7.499   5.988  1.00 20.00    -0.297 OA
ENDROOT
BRANCH   2   9
HETATM    9  C10 UNL     1     -32.724   8.482   2.274  1.00 20.00     0.007 C 
HETATM   10  C8  UNL     1     -31.465   8.894   3.004  1.00 20.00     0.014 C 
HETATM   11  C9  UNL     1     -32.567   8.547   0.771  1.00 20.00     0.014 C 
ENDBRANCH   2   9
TORSDOF 1
ENDMDL
MODEL 5
REMARK VINA RESULT:      -4.8     11.418     12.388
REMARK  1 active torsions:
REMARK  status: ('A' for Active; 'I' for Inactive)
REMARK    1  A    between atoms: C2_2  and  C10_10 
ROOT
HETATM    1  C1  UNL     1     -33.751  15.746  -4.653  1.00 20.00    -0.017 C 
HETATM    2  C2  UNL     1     -34.680  15.443  -3.722  1.00 20.00    -0.068 C 
HETATM    3  C3  UNL     1     -36.250  14.045  -5.170  1.00 20.00     0.135 C 
HETATM    4  C4  UNL     1     -35.893  14.421  -6.593  1.00 20.00     0.080 C 
HETATM    5  C5  UNL     1     -34.375  14.193  -6.673  1.00 20.00     0.017 C 
HETATM    6  C6  UNL     1     -33.773  14.364  -5.272  1.00 20.00     0.024 C 
HETATM    7  C7  UNL     1     -34.947  14.069  -4.314  1.00 20.00     0.092 C 
HETATM    8  O11 UNL     1     -37.398  13.820  -4.802  1.00 20.00    -0.297 OA
ENDROOT
BRANCH   2   9
HETATM    9  C10 UNL     1     -35.312  16.227  -2.557  1.00 20.00     0.007 C 
HETATM   10  C8  UNL     1     -34.224  16.987  -1.833  1.00 20.00     0.014 C 
HETATM   11  C9  UNL     1     -36.393  17.138  -3.093  1.00 20.00     0.014 C 
ENDBRANCH   2   9
TORSDOF 1
ENDMDL
MODEL 6
REMARK VINA RESULT:      -4.8     11.672     12.732
REMARK  1 active torsions:
REMARK  status: ('A' for Active; 'I' for Inactive)
REMARK    1  A    between atoms: C2_2  and  C10_10 
ROOT
HETATM    1  C1  UNL     1     -33.791  17.334  -4.872  1.00 20.00    -0.017 C 
HETATM    2  C2  UNL     1     -33.608  16.529  -3.805  1.00 20.00    -0.068 C 
HETATM    3  C3  UNL     1     -34.408  14.331  -4.827  1.00 20.00     0.135 C 
HETATM    4  C4  UNL     1     -35.226  14.745  -6.031  1.00 20.00     0.080 C 
HETATM    5  C5  UNL     1     -34.283  15.659  -6.830  1.00 20.00     0.017 C 
HETATM    6  C6  UNL     1     -33.284  16.308  -5.864  1.00 20.00     0.024 C 
HETATM    7  C7  UNL     1     -33.227  15.336  -4.665  1.00 20.00     0.092 C 
HETATM    8  O11 UNL     1     -34.703  13.384  -4.106  1.00 20.00    -0.297 OA
ENDROOT
BRANCH   2   9
HETATM    9  C10 UNL     1     -33.806  16.711  -2.288  1.00 20.00     0.007 C 
HETATM   10  C8  UNL     1     -33.102  17.978  -1.854  1.00 20.00     0.014 C 
HETATM   11  C9  UNL     1     -35.285  16.736  -1.976  1.00 20.00     0.014 C 
ENDBRANCH   2   9
TORSDOF 1
ENDMDL
MODEL 7
REMARK VINA RESULT:      -4.6     11.885     12.990
REMARK  1 active torsions:
REMARK  status: ('A' for Active; 'I' for Inactive)
REMARK    1  A    between atoms: C2_2  and  C10_10 
ROOT
HETATM    1  C1  UNL     1     -35.473  16.190  -2.669  1.00 20.00    -0.017 C 
HETATM    2  C2  UNL     1     -34.159  16.222  -2.975  1.00 20.00    -0.068 C 
HETATM    3  C3  UNL     1     -33.613  18.567  -2.129  1.00 20.00     0.135 C 
HETATM    4  C4  UNL     1     -34.955  19.262  -2.038  1.00 20.00     0.080 C 
HETATM    5  C5  UNL     1     -35.809  18.319  -1.175  1.00 20.00     0.017 C 
HETATM    6  C6  UNL     1     -35.286  16.886  -1.338  1.00 20.00     0.024 C 
HETATM    7  C7  UNL     1     -33.811  17.065  -1.760  1.00 20.00     0.092 C 
HETATM    8  O11 UNL     1     -32.586  19.133  -2.489  1.00 20.00    -0.297 OA
ENDROOT
BRANCH   2   9
HETATM    9  C10 UNL     1     -33.330  15.692  -4.160  1.00 20.00     0.007 C 
HETATM   10  C8  UNL     1     -33.775  14.282  -4.475  1.00 20.00     0.014 C 
HETATM   11  C9  UNL     1     -33.490  16.625  -5.340  1.00 20.00     0.014 C 
ENDBRANCH   2   9
TORSDOF 1
ENDMDL
MODEL 8
REMARK VINA RESULT:      -4.5     11.403     12.675
REMARK  1 active torsions:
REMARK  status: ('A' for Active; 'I' for Inactive)
REMARK    1  A    between atoms: C2_2  and  C10_10 
ROOT
HETATM    1  C1  UNL     1     -36.187  16.120  -5.417  1.00 20.00    -0.017 C 
HETATM    2  C2  UNL     1     -35.638  14.994  -5.920  1.00 20.00    -0.068 C 
HETATM    3  C3  UNL     1     -33.894  14.561  -4.107  1.00 20.00     0.135 C 
HETATM    4  C4  UNL     1     -33.743  15.890  -3.398  1.00 20.00     0.080 C 
HETATM    5  C5  UNL     1     -35.178  16.270  -3.001  1.00 20.00     0.017 C 
HETATM    6  C6  UNL     1     -36.156  15.620  -3.988  1.00 20.00     0.024 C 
HETATM    7  C7  UNL     1     -35.383  14.403  -4.543  1.00 20.00     0.092 C 
HETATM    8  O11 UNL     1     -32.956  13.800  -4.318  1.00 20.00    -0.297 OA
ENDROOT
BRANCH   2   9
HETATM    9  C10 UNL     1     -35.301  14.521  -7.346  1.00 20.00     0.007 C 
HETATM   10  C8  UNL     1     -34.043  15.222  -7.808  1.00 20.00     0.014 C 
HETATM   11  C9  UNL     1     -35.158  13.015  -7.353  1.00 20.00     0.014 C 
ENDBRANCH   2   9
TORSDOF 1
ENDMDL
MODEL 9
REMARK VINA RESULT:      -4.4      2.018      4.533
REMARK  1 active torsions:
REMARK  status: ('A' for Active; 'I' for Inactive)
REMARK    1  A    between atoms: C2_2  and  C10_10 
ROOT
HETATM    1  C1  UNL     1     -32.529   8.126   3.559  1.00 20.00    -0.017 C 
HETATM    2  C2  UNL     1     -32.856   7.267   2.571  1.00 20.00    -0.068 C 
HETATM    3  C3  UNL     1     -32.912   8.913   0.621  1.00 20.00     0.135 C 
HETATM    4  C4  UNL     1     -33.042  10.273   1.272  1.00 20.00     0.080 C 
HETATM    5  C5  UNL     1     -31.880  10.321   2.278  1.00 20.00     0.017 C 
HETATM    6  C6  UNL     1     -31.536   8.889   2.707  1.00 20.00     0.024 C 
HETATM    7  C7  UNL     1     -32.029   8.011   1.536  1.00 20.00     0.092 C 
HETATM    8  O11 UNL     1     -33.473   8.613  -0.428  1.00 20.00    -0.297 OA
ENDROOT
BRANCH   2   9
HETATM    9  C10 UNL     1     -33.795   6.049   2.489  1.00 20.00     0.007 C 
HETATM   10  C8  UNL     1     -32.963   4.788   2.548  1.00 20.00     0.014 C 
HETATM   11  C9  UNL     1     -34.811   6.123   3.606  1.00 20.00     0.014 C 
ENDBRANCH   2   9
TORSDOF 1
ENDMDL
