MODEL 1
REMARK VINA RESULT:      -4.4      0.000      0.000
REMARK  1 active torsions:
REMARK  status: ('A' for Active; 'I' for Inactive)
REMARK    1  A    between atoms: C2_2  and  C4_4 
ROOT
HETATM    1  C1  UNL     1     -32.704   7.211   3.148  1.00 20.00     0.171 A 
HETATM    2  C2  UNL     1     -33.736   6.840   4.192  1.00 20.00     0.175 A 
HETATM    3  C3  UNL     1     -31.575   8.147   3.398  1.00 20.00     0.044 C 
HETATM    4  O5  UNL     1     -33.997   7.827   3.181  1.00 20.00    -0.352 OA
HETATM    5 CL6  UNL     1     -33.541   7.396   5.851  1.00 20.00    -0.084 Cl
ENDROOT
BRANCH   2   6
HETATM    6  C4  UNL     1     -34.534   5.588   4.020  1.00 20.00     0.172 C 
HETATM    7 CL7  UNL     1     -34.598   4.654   5.539  1.00 20.00    -0.126 Cl
ENDBRANCH   2   6
TORSDOF 1
ENDMDL
MODEL 2
REMARK VINA RESULT:      -4.4      2.115      3.460
REMARK  1 active torsions:
REMARK  status: ('A' for Active; 'I' for Inactive)
REMARK    1  A    between atoms: C2_2  and  C4_4 
ROOT
HETATM    1  C1  UNL     1     -34.439   6.068   4.692  1.00 20.00     0.171 A 
HETATM    2  C2  UNL     1     -33.788   6.153   3.328  1.00 20.00     0.175 A 
HETATM    3  C3  UNL     1     -34.523   4.816   5.491  1.00 20.00     0.044 C 
HETATM    4  O5  UNL     1     -35.212   6.049   3.486  1.00 20.00    -0.352 OA
HETATM    5 CL6  UNL     1     -32.930   4.759   2.679  1.00 20.00    -0.084 Cl
ENDROOT
BRANCH   2   6
HETATM    6  C4  UNL     1     -33.342   7.482   2.810  1.00 20.00     0.172 C 
HETATM    7 CL7  UNL     1     -31.742   7.923   3.466  1.00 20.00    -0.126 Cl
ENDBRANCH   2   6
TORSDOF 1
ENDMDL
MODEL 3
REMARK VINA RESULT:      -4.2      1.639      1.887
REMARK  1 active torsions:
REMARK  status: ('A' for Active; 'I' for Inactive)
REMARK    1  A    between atoms: C2_2  and  C4_4 
ROOT
HETATM    1  C1  UNL     1     -33.456   7.622   3.114  1.00 20.00     0.171 A 
HETATM    2  C2  UNL     1     -33.705   6.173   3.474  1.00 20.00     0.175 A 
HETATM    3  C3  UNL     1     -32.435   8.065   2.127  1.00 20.00     0.044 C 
HETATM    4  O5  UNL     1     -32.911   7.038   4.303  1.00 20.00    -0.352 OA
HETATM    5 CL6  UNL     1     -32.878   4.897   2.589  1.00 20.00    -0.084 Cl
ENDROOT
BRANCH   2   6
HETATM    6  C4  UNL     1     -35.008   5.787   4.096  1.00 20.00     0.172 C 
HETATM    7 CL7  UNL     1     -34.760   5.054   5.703  1.00 20.00    -0.126 Cl
ENDBRANCH   2   6
TORSDOF 1
ENDMDL
MODEL 4
REMARK VINA RESULT:      -4.0      1.857      2.316
REMARK  1 active torsions:
REMARK  status: ('A' for Active; 'I' for Inactive)
REMARK    1  A    between atoms: C2_2  and  C4_4 
ROOT
HETATM    1  C1  UNL     1     -32.601   8.363   2.600  1.00 20.00     0.171 A 
HETATM    2  C2  UNL     1     -33.051   7.103   3.307  1.00 20.00     0.175 A 
HETATM    3  C3  UNL     1     -31.801   8.367   1.347  1.00 20.00     0.044 C 
HETATM    4  O5  UNL     1     -31.904   7.850   3.742  1.00 20.00    -0.352 OA
HETATM    5 CL6  UNL     1     -32.775   5.534   2.559  1.00 20.00    -0.084 Cl
ENDROOT
BRANCH   2   6
HETATM    6  C4  UNL     1     -34.199   7.169   4.262  1.00 20.00     0.172 C 
HETATM    7 CL7  UNL     1     -33.627   7.285   5.948  1.00 20.00    -0.126 Cl
ENDBRANCH   2   6
TORSDOF 1
ENDMDL
MODEL 5
REMARK VINA RESULT:      -3.8      2.654      3.716
REMARK  1 active torsions:
REMARK  status: ('A' for Active; 'I' for Inactive)
REMARK    1  A    between atoms: C2_2  and  C4_4 
ROOT
HETATM    1  C1  UNL     1     -33.736   7.221   3.582  1.00 20.00     0.171 A 
HETATM    2  C2  UNL     1     -32.521   7.765   2.861  1.00 20.00     0.175 A 
HETATM    3  C3  UNL     1     -33.820   7.067   5.058  1.00 20.00     0.044 C 
HETATM    4  O5  UNL     1     -32.783   6.355   2.953  1.00 20.00    -0.352 OA
HETATM    5 CL6  UNL     1     -31.170   8.412   3.786  1.00 20.00    -0.084 Cl
ENDROOT
BRANCH   2   6
HETATM    6  C4  UNL     1     -32.673   8.307   1.476  1.00 20.00     0.172 C 
HETATM    7 CL7  UNL     1     -32.528  10.086   1.464  1.00 20.00    -0.126 Cl
ENDBRANCH   2   6
TORSDOF 1
ENDMDL
MODEL 6
REMARK VINA RESULT:      -3.7      2.699      3.096
REMARK  1 active torsions:
REMARK  status: ('A' for Active; 'I' for Inactive)
REMARK    1  A    between atoms: C2_2  and  C4_4 
ROOT
HETATM    1  C1  UNL     1     -33.345   4.679   3.806  1.00 20.00     0.171 A 
HETATM    2  C2  UNL     1     -34.568   5.288   4.458  1.00 20.00     0.175 A 
HETATM    3  C3  UNL     1     -33.130   4.630   2.335  1.00 20.00     0.044 C 
HETATM    4  O5  UNL     1     -34.433   3.870   4.269  1.00 20.00    -0.352 OA
HETATM    5 CL6  UNL     1     -35.752   6.139   3.472  1.00 20.00    -0.084 Cl
ENDROOT
BRANCH   2   6
HETATM    6  C4  UNL     1     -34.502   5.705   5.891  1.00 20.00     0.172 C 
HETATM    7 CL7  UNL     1     -33.802   7.338   6.053  1.00 20.00    -0.126 Cl
ENDBRANCH   2   6
TORSDOF 1
ENDMDL
MODEL 7
REMARK VINA RESULT:      -3.7      2.004      3.323
REMARK  1 active torsions:
REMARK  status: ('A' for Active; 'I' for Inactive)
REMARK    1  A    between atoms: C2_2  and  C4_4 
ROOT
HETATM    1  C1  UNL     1     -34.229   5.728   3.358  1.00 20.00     0.171 A 
HETATM    2  C2  UNL     1     -33.396   6.966   3.615  1.00 20.00     0.175 A 
HETATM    3  C3  UNL     1     -34.739   4.837   4.434  1.00 20.00     0.044 C 
HETATM    4  O5  UNL     1     -32.804   5.720   3.212  1.00 20.00    -0.352 OA
HETATM    5 CL6  UNL     1     -33.123   7.510   5.267  1.00 20.00    -0.084 Cl
ENDROOT
BRANCH   2   6
HETATM    6  C4  UNL     1     -33.318   8.027   2.566  1.00 20.00     0.172 C 
HETATM    7 CL7  UNL     1     -31.624   8.365   2.119  1.00 20.00    -0.126 Cl
ENDBRANCH   2   6
TORSDOF 1
ENDMDL
MODEL 8
REMARK VINA RESULT:      -3.5      1.821      2.557
REMARK  1 active torsions:
REMARK  status: ('A' for Active; 'I' for Inactive)
REMARK    1  A    between atoms: C2_2  and  C4_4 
ROOT
HETATM    1  C1  UNL     1     -33.353   7.289   4.814  1.00 20.00     0.171 A 
HETATM    2  C2  UNL     1     -33.833   6.235   3.839  1.00 20.00     0.175 A 
HETATM    3  C3  UNL     1     -33.784   7.357   6.236  1.00 20.00     0.044 C 
HETATM    4  O5  UNL     1     -34.396   7.556   3.869  1.00 20.00    -0.352 OA
HETATM    5 CL6  UNL     1     -34.833   4.903   4.411  1.00 20.00    -0.084 Cl
ENDROOT
BRANCH   2   6
HETATM    6  C4  UNL     1     -33.034   5.958   2.608  1.00 20.00     0.172 C 
HETATM    7 CL7  UNL     1     -32.825   4.203   2.358  1.00 20.00    -0.126 Cl
ENDBRANCH   2   6
TORSDOF 1
ENDMDL
MODEL 9
REMARK VINA RESULT:      -3.5      2.072      2.628
REMARK  1 active torsions:
REMARK  status: ('A' for Active; 'I' for Inactive)
REMARK    1  A    between atoms: C2_2  and  C4_4 
ROOT
HETATM    1  C1  UNL     1     -33.827   4.919   3.461  1.00 20.00     0.171 A 
HETATM    2  C2  UNL     1     -33.845   6.294   4.092  1.00 20.00     0.175 A 
HETATM    3  C3  UNL     1     -32.994   4.562   2.282  1.00 20.00     0.044 C 
HETATM    4  O5  UNL     1     -34.869   5.862   3.182  1.00 20.00    -0.352 OA
HETATM    5 CL6  UNL     1     -32.719   7.528   3.537  1.00 20.00    -0.084 Cl
ENDROOT
BRANCH   2   6
HETATM    6  C4  UNL     1     -34.328   6.449   5.498  1.00 20.00     0.172 C 
HETATM    7 CL7  UNL     1     -33.479   7.782   6.326  1.00 20.00    -0.126 Cl
ENDBRANCH   2   6
TORSDOF 1
ENDMDL
