MODEL 1
REMARK VINA RESULT:      -4.2      0.000      0.000
REMARK  3 active torsions:
REMARK  status: ('A' for Active; 'I' for Inactive)
REMARK    1  A    between atoms: C1_1  and  C2_2 
REMARK    2  A    between atoms: C1_1  and  O11_11 
REMARK    3  A    between atoms: C8_8  and  N9_9 
ROOT
HETATM    1  C2  UNL     1     -35.652  14.940  -5.461  1.00 20.00     0.355 A 
HETATM    2  C3  UNL     1     -34.912  15.196  -6.758  1.00 20.00     0.264 A 
HETATM    3  C4  UNL     1     -35.008  14.266  -7.917  1.00 20.00     0.046 C 
HETATM    4  N9  UNL     1     -34.203  14.760  -5.564  1.00 20.00     0.115 N 
ENDROOT
BRANCH   1   5
HETATM    5  C1  UNL     1     -36.351  13.679  -5.207  1.00 20.00     0.294 C 
HETATM    6  O10 UNL     1     -35.799  12.589  -5.153  1.00 20.00    -0.263 OA
BRANCH   5   7
HETATM    7  O11 UNL     1     -37.683  13.921  -5.049  1.00 20.00    -0.325 OA
HETATM    8  C7  UNL     1     -38.014  15.186  -4.467  1.00 20.00     0.213 C 
ENDBRANCH   5   7
ENDBRANCH   1   5
BRANCH   4   9
HETATM    9  C8  UNL     1     -33.446  15.829  -4.924  1.00 20.00     0.216 C 
HETATM   10  C5  UNL     1     -33.846  15.914  -3.458  1.00 20.00     0.042 C 
HETATM   11  C6  UNL     1     -33.719  17.134  -5.659  1.00 20.00     0.042 C 
ENDBRANCH   4   9
TORSDOF 3
ENDMDL
MODEL 2
REMARK VINA RESULT:      -4.2      1.983      2.899
REMARK  3 active torsions:
REMARK  status: ('A' for Active; 'I' for Inactive)
REMARK    1  A    between atoms: C1_1  and  C2_2 
REMARK    2  A    between atoms: C1_1  and  O11_11 
REMARK    3  A    between atoms: C8_8  and  N9_9 
ROOT
HETATM    1  C2  UNL     1     -34.654  15.399  -3.701  1.00 20.00     0.355 A 
HETATM    2  C3  UNL     1     -34.348  16.702  -4.410  1.00 20.00     0.264 A 
HETATM    3  C4  UNL     1     -33.772  16.738  -5.783  1.00 20.00     0.046 C 
HETATM    4  N9  UNL     1     -33.517  16.234  -3.311  1.00 20.00     0.115 N 
ENDROOT
BRANCH   1   5
HETATM    5  C1  UNL     1     -34.233  14.107  -4.246  1.00 20.00     0.294 C 
HETATM    6  O10 UNL     1     -33.066  13.747  -4.332  1.00 20.00    -0.263 OA
BRANCH   5   7
HETATM    7  O11 UNL     1     -35.329  13.396  -4.633  1.00 20.00    -0.325 OA
HETATM    8  C7  UNL     1     -35.704  13.542  -6.007  1.00 20.00     0.213 C 
ENDBRANCH   5   7
ENDBRANCH   1   5
BRANCH   4   9
HETATM    9  C8  UNL     1     -33.743  16.964  -2.070  1.00 20.00     0.216 C 
HETATM   10  C5  UNL     1     -35.204  16.827  -1.669  1.00 20.00     0.042 C 
HETATM   11  C6  UNL     1     -33.349  18.420  -2.276  1.00 20.00     0.042 C 
ENDBRANCH   4   9
TORSDOF 3
ENDMDL
MODEL 3
REMARK VINA RESULT:      -4.2     10.746     11.828
REMARK  3 active torsions:
REMARK  status: ('A' for Active; 'I' for Inactive)
REMARK    1  A    between atoms: C1_1  and  C2_2 
REMARK    2  A    between atoms: C1_1  and  O11_11 
REMARK    3  A    between atoms: C8_8  and  N9_9 
ROOT
HETATM    1  C2  UNL     1     -32.569   6.840   2.791  1.00 20.00     0.355 A 
HETATM    2  C3  UNL     1     -32.408   7.775   3.972  1.00 20.00     0.264 A 
HETATM    3  C4  UNL     1     -33.260   7.664   5.189  1.00 20.00     0.046 C 
HETATM    4  N9  UNL     1     -33.013   8.233   2.730  1.00 20.00     0.115 N 
ENDROOT
BRANCH   1   5
HETATM    5  C1  UNL     1     -33.685   5.897   2.701  1.00 20.00     0.294 C 
HETATM    6  O10 UNL     1     -34.776   6.170   2.218  1.00 20.00    -0.263 OA
BRANCH   5   7
HETATM    7  O11 UNL     1     -33.313   4.698   3.233  1.00 20.00    -0.325 OA
HETATM    8  C7  UNL     1     -34.178   4.181   4.249  1.00 20.00     0.213 C 
ENDBRANCH   5   7
ENDBRANCH   1   5
BRANCH   4   9
HETATM    9  C8  UNL     1     -32.129   9.081   1.940  1.00 20.00     0.216 C 
HETATM   10  C5  UNL     1     -32.925  10.257   1.392  1.00 20.00     0.042 C 
HETATM   11  C6  UNL     1     -31.514   8.248   0.825  1.00 20.00     0.042 C 
ENDBRANCH   4   9
TORSDOF 3
ENDMDL
MODEL 4
REMARK VINA RESULT:      -4.2     11.350     12.626
REMARK  3 active torsions:
REMARK  status: ('A' for Active; 'I' for Inactive)
REMARK    1  A    between atoms: C1_1  and  C2_2 
REMARK    2  A    between atoms: C1_1  and  O11_11 
REMARK    3  A    between atoms: C8_8  and  N9_9 
ROOT
HETATM    1  C2  UNL     1     -33.432   7.411   3.058  1.00 20.00     0.355 A 
HETATM    2  C3  UNL     1     -33.934   7.097   4.453  1.00 20.00     0.264 A 
HETATM    3  C4  UNL     1     -33.393   7.783   5.659  1.00 20.00     0.046 C 
HETATM    4  N9  UNL     1     -33.082   6.161   3.735  1.00 20.00     0.115 N 
ENDROOT
BRANCH   1   5
HETATM    5  C1  UNL     1     -32.266   8.266   2.832  1.00 20.00     0.294 C 
HETATM    6  O10 UNL     1     -31.188   8.115   3.391  1.00 20.00    -0.263 OA
BRANCH   5   7
HETATM    7  O11 UNL     1     -32.577   9.231   1.921  1.00 20.00    -0.325 OA
HETATM    8  C7  UNL     1     -31.883   9.144   0.672  1.00 20.00     0.213 C 
ENDBRANCH   5   7
ENDBRANCH   1   5
BRANCH   4   9
HETATM    9  C8  UNL     1     -33.807   5.007   3.216  1.00 20.00     0.216 C 
HETATM   10  C5  UNL     1     -34.318   4.174   4.383  1.00 20.00     0.042 C 
HETATM   11  C6  UNL     1     -32.878   4.206   2.316  1.00 20.00     0.042 C 
ENDBRANCH   4   9
TORSDOF 3
ENDMDL
MODEL 5
REMARK VINA RESULT:      -4.1      1.557      2.995
REMARK  3 active torsions:
REMARK  status: ('A' for Active; 'I' for Inactive)
REMARK    1  A    between atoms: C1_1  and  C2_2 
REMARK    2  A    between atoms: C1_1  and  O11_11 
REMARK    3  A    between atoms: C8_8  and  N9_9 
ROOT
HETATM    1  C2  UNL     1     -34.746  14.827  -5.374  1.00 20.00     0.355 A 
HETATM    2  C3  UNL     1     -33.543  15.090  -4.490  1.00 20.00     0.264 A 
HETATM    3  C4  UNL     1     -32.566  14.020  -4.148  1.00 20.00     0.046 C 
HETATM    4  N9  UNL     1     -34.885  15.021  -3.930  1.00 20.00     0.115 N 
ENDROOT
BRANCH   1   5
HETATM    5  C1  UNL     1     -35.115  13.473  -5.789  1.00 20.00     0.294 C 
HETATM    6  O10 UNL     1     -35.929  12.774  -5.201  1.00 20.00    -0.263 OA
BRANCH   5   7
HETATM    7  O11 UNL     1     -34.417  13.133  -6.910  1.00 20.00    -0.325 OA
HETATM    8  C7  UNL     1     -34.317  14.157  -7.906  1.00 20.00     0.213 C 
ENDBRANCH   5   7
ENDBRANCH   1   5
BRANCH   4   9
HETATM    9  C8  UNL     1     -35.427  16.329  -3.579  1.00 20.00     0.216 C 
HETATM   10  C5  UNL     1     -35.113  16.623  -2.119  1.00 20.00     0.042 C 
HETATM   11  C6  UNL     1     -36.925  16.328  -3.844  1.00 20.00     0.042 C 
ENDBRANCH   4   9
TORSDOF 3
ENDMDL
MODEL 6
REMARK VINA RESULT:      -4.0     11.336     12.358
REMARK  3 active torsions:
REMARK  status: ('A' for Active; 'I' for Inactive)
REMARK    1  A    between atoms: C1_1  and  C2_2 
REMARK    2  A    between atoms: C1_1  and  O11_11 
REMARK    3  A    between atoms: C8_8  and  N9_9 
ROOT
HETATM    1  C2  UNL     1     -33.257   6.345   3.357  1.00 20.00     0.355 A 
HETATM    2  C3  UNL     1     -32.782   7.416   4.317  1.00 20.00     0.264 A 
HETATM    3  C4  UNL     1     -33.503   7.716   5.585  1.00 20.00     0.046 C 
HETATM    4  N9  UNL     1     -33.409   7.768   3.052  1.00 20.00     0.115 N 
ENDROOT
BRANCH   1   5
HETATM    5  C1  UNL     1     -34.546   5.673   3.528  1.00 20.00     0.294 C 
HETATM    6  O10 UNL     1     -35.620   6.158   3.198  1.00 20.00    -0.263 OA
BRANCH   5   7
HETATM    7  O11 UNL     1     -34.351   4.452   4.102  1.00 20.00    -0.325 OA
HETATM    8  C7  UNL     1     -34.578   4.393   5.514  1.00 20.00     0.213 C 
ENDBRANCH   5   7
ENDBRANCH   1   5
BRANCH   4   9
HETATM    9  C8  UNL     1     -32.459   8.244   2.053  1.00 20.00     0.216 C 
HETATM   10  C5  UNL     1     -31.116   8.495   2.723  1.00 20.00     0.042 C 
HETATM   11  C6  UNL     1     -33.013   9.507   1.409  1.00 20.00     0.042 C 
ENDBRANCH   4   9
TORSDOF 3
ENDMDL
MODEL 7
REMARK VINA RESULT:      -3.9     11.009     12.105
REMARK  3 active torsions:
REMARK  status: ('A' for Active; 'I' for Inactive)
REMARK    1  A    between atoms: C1_1  and  C2_2 
REMARK    2  A    between atoms: C1_1  and  O11_11 
REMARK    3  A    between atoms: C8_8  and  N9_9 
ROOT
HETATM    1  C2  UNL     1     -32.491   7.332   3.380  1.00 20.00     0.355 A 
HETATM    2  C3  UNL     1     -32.968   5.900   3.246  1.00 20.00     0.264 A 
HETATM    3  C4  UNL     1     -33.048   5.215   1.926  1.00 20.00     0.046 C 
HETATM    4  N9  UNL     1     -33.902   6.977   3.537  1.00 20.00     0.115 N 
ENDROOT
BRANCH   1   5
HETATM    5  C1  UNL     1     -32.258   8.180   2.210  1.00 20.00     0.294 C 
HETATM    6  O10 UNL     1     -31.276   8.093   1.486  1.00 20.00    -0.263 OA
BRANCH   5   7
HETATM    7  O11 UNL     1     -33.292   9.058   2.070  1.00 20.00    -0.325 OA
HETATM    8  C7  UNL     1     -33.028  10.189   1.233  1.00 20.00     0.213 C 
ENDBRANCH   5   7
ENDBRANCH   1   5
BRANCH   4   9
HETATM    9  C8  UNL     1     -34.346   6.993   4.926  1.00 20.00     0.216 C 
HETATM   10  C5  UNL     1     -33.256   7.612   5.790  1.00 20.00     0.042 C 
HETATM   11  C6  UNL     1     -34.667   5.570   5.357  1.00 20.00     0.042 C 
ENDBRANCH   4   9
TORSDOF 3
ENDMDL
MODEL 8
REMARK VINA RESULT:      -3.8      1.376      2.239
REMARK  3 active torsions:
REMARK  status: ('A' for Active; 'I' for Inactive)
REMARK    1  A    between atoms: C1_1  and  C2_2 
REMARK    2  A    between atoms: C1_1  and  O11_11 
REMARK    3  A    between atoms: C8_8  and  N9_9 
ROOT
HETATM    1  C2  UNL     1     -35.053  14.683  -6.113  1.00 20.00     0.355 A 
HETATM    2  C3  UNL     1     -33.687  15.123  -5.628  1.00 20.00     0.264 A 
HETATM    3  C4  UNL     1     -33.087  14.595  -4.372  1.00 20.00     0.046 C 
HETATM    4  N9  UNL     1     -34.836  16.011  -5.539  1.00 20.00     0.115 N 
ENDROOT
BRANCH   1   5
HETATM    5  C1  UNL     1     -35.936  13.858  -5.287  1.00 20.00     0.294 C 
HETATM    6  O10 UNL     1     -35.882  12.637  -5.235  1.00 20.00    -0.263 OA
BRANCH   5   7
HETATM    7  O11 UNL     1     -36.803  14.659  -4.606  1.00 20.00    -0.325 OA
HETATM    8  C7  UNL     1     -38.167  14.596  -5.038  1.00 20.00     0.213 C 
ENDBRANCH   5   7
ENDBRANCH   1   5
BRANCH   4   9
HETATM    9  C8  UNL     1     -34.821  17.072  -6.540  1.00 20.00     0.216 C 
HETATM   10  C5  UNL     1     -36.249  17.524  -6.809  1.00 20.00     0.042 C 
HETATM   11  C6  UNL     1     -34.148  16.550  -7.801  1.00 20.00     0.042 C 
ENDBRANCH   4   9
TORSDOF 3
ENDMDL
MODEL 9
REMARK VINA RESULT:      -3.8     11.239     12.111
REMARK  3 active torsions:
REMARK  status: ('A' for Active; 'I' for Inactive)
REMARK    1  A    between atoms: C1_1  and  C2_2 
REMARK    2  A    between atoms: C1_1  and  O11_11 
REMARK    3  A    between atoms: C8_8  and  N9_9 
ROOT
HETATM    1  C2  UNL     1     -33.693   7.530   3.451  1.00 20.00     0.355 A 
HETATM    2  C3  UNL     1     -33.146   6.626   2.365  1.00 20.00     0.264 A 
HETATM    3  C4  UNL     1     -32.893   5.177   2.597  1.00 20.00     0.046 C 
HETATM    4  N9  UNL     1     -32.295   7.603   3.028  1.00 20.00     0.115 N 
ENDROOT
BRANCH   1   5
HETATM    5  C1  UNL     1     -33.832   7.075   4.836  1.00 20.00     0.294 C 
HETATM    6  O10 UNL     1     -33.124   7.459   5.757  1.00 20.00    -0.263 OA
BRANCH   5   7
HETATM    7  O11 UNL     1     -34.852   6.175   4.920  1.00 20.00    -0.325 OA
HETATM    8  C7  UNL     1     -34.589   5.020   5.724  1.00 20.00     0.213 C 
ENDBRANCH   5   7
ENDBRANCH   1   5
BRANCH   4   9
HETATM    9  C8  UNL     1     -32.007   8.769   2.201  1.00 20.00     0.216 C 
HETATM   10  C5  UNL     1     -33.300   9.529   1.944  1.00 20.00     0.042 C 
HETATM   11  C6  UNL     1     -31.357   8.306   0.906  1.00 20.00     0.042 C 
ENDBRANCH   4   9
TORSDOF 3
ENDMDL
