MODEL 1
REMARK VINA RESULT:      -4.6      0.000      0.000
REMARK  2 active torsions:
REMARK  status: ('A' for Active; 'I' for Inactive)
REMARK    1  A    between atoms: C5_5  and  O12_12 
REMARK    2  A    between atoms: C6_6  and  C11_11 
ROOT
HETATM    1  C1  UNL     1     -33.427  17.255  -1.996  1.00 20.00    -0.021 C 
HETATM    2  C2  UNL     1     -34.732  16.946  -1.904  1.00 20.00    -0.059 C 
HETATM    3  C3  UNL     1     -32.677  18.036  -0.957  1.00 20.00     0.032 C 
HETATM    4  C4  UNL     1     -34.718  17.802   0.497  1.00 20.00     0.042 C 
HETATM    5  C5  UNL     1     -35.559  17.331  -0.698  1.00 20.00     0.149 C 
HETATM    6  C6  UNL     1     -33.594  18.746   0.050  1.00 20.00    -0.005 C 
HETATM    7  C7  UNL     1     -35.435  16.176  -2.986  1.00 20.00     0.046 C 
ENDROOT
BRANCH   6   8
HETATM    8  C11 UNL     1     -32.793  19.254   1.246  1.00 20.00    -0.018 C 
HETATM    9  C8  UNL     1     -33.361  18.695   2.549  1.00 20.00     0.010 C 
HETATM   10  C9  UNL     1     -31.319  18.885   1.101  1.00 20.00     0.010 C 
ENDBRANCH   6   8
BRANCH   5  11
HETATM   11  O12 UNL     1     -36.453  18.385  -1.058  1.00 20.00    -0.386 OA
HETATM   12  C10 UNL     1     -37.428  18.601  -0.050  1.00 20.00     0.202 C 
ENDBRANCH   5  11
TORSDOF 2
ENDMDL
MODEL 2
REMARK VINA RESULT:      -4.5     11.576     12.240
REMARK  2 active torsions:
REMARK  status: ('A' for Active; 'I' for Inactive)
REMARK    1  A    between atoms: C5_5  and  O12_12 
REMARK    2  A    between atoms: C6_6  and  C11_11 
ROOT
HETATM    1  C1  UNL     1     -33.361   7.345   5.446  1.00 20.00    -0.021 C 
HETATM    2  C2  UNL     1     -34.020   6.256   5.011  1.00 20.00    -0.059 C 
HETATM    3  C3  UNL     1     -32.586   8.267   4.550  1.00 20.00     0.032 C 
HETATM    4  C4  UNL     1     -33.594   7.012   2.614  1.00 20.00     0.042 C 
HETATM    5  C5  UNL     1     -34.072   5.889   3.546  1.00 20.00     0.149 C 
HETATM    6  C6  UNL     1     -32.322   7.680   3.155  1.00 20.00    -0.005 C 
HETATM    7  C7  UNL     1     -34.764   5.359   5.959  1.00 20.00     0.046 C 
ENDROOT
BRANCH   6   8
HETATM    8  C11 UNL     1     -31.819   8.760   2.201  1.00 20.00    -0.018 C 
HETATM    9  C8  UNL     1     -31.407   8.146   0.864  1.00 20.00     0.010 C 
HETATM   10  C9  UNL     1     -32.886   9.833   1.993  1.00 20.00     0.010 C 
ENDBRANCH   6   8
BRANCH   5  11
HETATM   11  O12 UNL     1     -33.253   4.741   3.319  1.00 20.00    -0.386 OA
HETATM   12  C10 UNL     1     -32.997   4.556   1.935  1.00 20.00     0.202 C 
ENDBRANCH   5  11
TORSDOF 2
ENDMDL
MODEL 3
REMARK VINA RESULT:      -4.5      3.347      5.346
REMARK  2 active torsions:
REMARK  status: ('A' for Active; 'I' for Inactive)
REMARK    1  A    between atoms: C5_5  and  O12_12 
REMARK    2  A    between atoms: C6_6  and  C11_11 
ROOT
HETATM    1  C1  UNL     1     -33.276  15.817  -6.043  1.00 20.00    -0.021 C 
HETATM    2  C2  UNL     1     -34.158  14.913  -6.506  1.00 20.00    -0.059 C 
HETATM    3  C3  UNL     1     -33.304  16.375  -4.650  1.00 20.00     0.032 C 
HETATM    4  C4  UNL     1     -35.049  14.635  -4.134  1.00 20.00     0.042 C 
HETATM    5  C5  UNL     1     -35.246  14.339  -5.628  1.00 20.00     0.149 C 
HETATM    6  C6  UNL     1     -34.618  16.090  -3.907  1.00 20.00    -0.005 C 
HETATM    7  C7  UNL     1     -34.091  14.404  -7.918  1.00 20.00     0.046 C 
ENDROOT
BRANCH   6   8
HETATM    8  C11 UNL     1     -34.474  16.396  -2.418  1.00 20.00    -0.018 C 
HETATM    9  C8  UNL     1     -33.329  17.378  -2.180  1.00 20.00     0.010 C 
HETATM   10  C9  UNL     1     -35.781  16.947  -1.854  1.00 20.00     0.010 C 
ENDBRANCH   6   8
BRANCH   5  11
HETATM   11  O12 UNL     1     -36.506  14.878  -6.027  1.00 20.00    -0.386 OA
HETATM   12  C10 UNL     1     -37.573  14.291  -5.298  1.00 20.00     0.202 C 
ENDBRANCH   5  11
TORSDOF 2
ENDMDL
MODEL 4
REMARK VINA RESULT:      -4.4      1.779      4.371
REMARK  2 active torsions:
REMARK  status: ('A' for Active; 'I' for Inactive)
REMARK    1  A    between atoms: C5_5  and  O12_12 
REMARK    2  A    between atoms: C6_6  and  C11_11 
ROOT
HETATM    1  C1  UNL     1     -31.868  18.484  -0.184  1.00 20.00    -0.021 C 
HETATM    2  C2  UNL     1     -31.926  18.898   1.094  1.00 20.00    -0.059 C 
HETATM    3  C3  UNL     1     -33.069  18.090  -0.992  1.00 20.00     0.032 C 
HETATM    4  C4  UNL     1     -34.466  18.992   0.898  1.00 20.00     0.042 C 
HETATM    5  C5  UNL     1     -33.242  19.047   1.824  1.00 20.00     0.149 C 
HETATM    6  C6  UNL     1     -34.329  17.871  -0.141  1.00 20.00    -0.005 C 
HETATM    7  C7  UNL     1     -30.686  19.263   1.859  1.00 20.00     0.046 C 
ENDROOT
BRANCH   6   8
HETATM    8  C11 UNL     1     -35.571  17.784  -1.025  1.00 20.00    -0.018 C 
HETATM    9  C8  UNL     1     -35.807  19.108  -1.750  1.00 20.00     0.010 C 
HETATM   10  C9  UNL     1     -35.438  16.640  -2.027  1.00 20.00     0.010 C 
ENDBRANCH   6   8
BRANCH   5  11
HETATM   11  O12 UNL     1     -33.366  18.002   2.790  1.00 20.00    -0.386 OA
HETATM   12  C10 UNL     1     -33.565  18.527   4.093  1.00 20.00     0.202 C 
ENDBRANCH   5  11
TORSDOF 2
ENDMDL
MODEL 5
REMARK VINA RESULT:      -4.4     11.058     11.639
REMARK  2 active torsions:
REMARK  status: ('A' for Active; 'I' for Inactive)
REMARK    1  A    between atoms: C5_5  and  O12_12 
REMARK    2  A    between atoms: C6_6  and  C11_11 
ROOT
HETATM    1  C1  UNL     1     -33.844   5.883   2.228  1.00 20.00    -0.021 C 
HETATM    2  C2  UNL     1     -33.804   5.763   3.567  1.00 20.00    -0.059 C 
HETATM    3  C3  UNL     1     -33.252   7.036   1.473  1.00 20.00     0.032 C 
HETATM    4  C4  UNL     1     -32.208   7.749   3.651  1.00 20.00     0.042 C 
HETATM    5  C5  UNL     1     -33.105   6.782   4.438  1.00 20.00     0.149 C 
HETATM    6  C6  UNL     1     -32.901   8.233   2.370  1.00 20.00    -0.005 C 
HETATM    7  C7  UNL     1     -34.431   4.592   4.269  1.00 20.00     0.046 C 
ENDROOT
BRANCH   6   8
HETATM    8  C11 UNL     1     -32.028   9.235   1.617  1.00 20.00    -0.018 C 
HETATM    9  C8  UNL     1     -31.342   8.563   0.429  1.00 20.00     0.010 C 
HETATM   10  C9  UNL     1     -32.858  10.429   1.153  1.00 20.00     0.010 C 
ENDBRANCH   6   8
BRANCH   5  11
HETATM   11  O12 UNL     1     -34.082   7.551   5.139  1.00 20.00    -0.386 OA
HETATM   12  C10 UNL     1     -34.008   7.326   6.539  1.00 20.00     0.202 C 
ENDBRANCH   5  11
TORSDOF 2
ENDMDL
MODEL 6
REMARK VINA RESULT:      -4.3      2.783      4.850
REMARK  2 active torsions:
REMARK  status: ('A' for Active; 'I' for Inactive)
REMARK    1  A    between atoms: C5_5  and  O12_12 
REMARK    2  A    between atoms: C6_6  and  C11_11 
ROOT
HETATM    1  C1  UNL     1     -36.637  15.273  -4.275  1.00 20.00    -0.021 C 
HETATM    2  C2  UNL     1     -35.682  14.655  -4.992  1.00 20.00    -0.059 C 
HETATM    3  C3  UNL     1     -36.355  16.256  -3.177  1.00 20.00     0.032 C 
HETATM    4  C4  UNL     1     -33.950  16.187  -3.920  1.00 20.00     0.042 C 
HETATM    5  C5  UNL     1     -34.213  14.940  -4.775  1.00 20.00     0.149 C 
HETATM    6  C6  UNL     1     -34.892  16.241  -2.709  1.00 20.00    -0.005 C 
HETATM    7  C7  UNL     1     -36.025  13.665  -6.068  1.00 20.00     0.046 C 
ENDROOT
BRANCH   6   8
HETATM    8  C11 UNL     1     -34.592  17.454  -1.832  1.00 20.00    -0.018 C 
HETATM    9  C8  UNL     1     -35.283  17.320  -0.476  1.00 20.00     0.010 C 
HETATM   10  C9  UNL     1     -33.086  17.629  -1.653  1.00 20.00     0.010 C 
ENDBRANCH   6   8
BRANCH   5  11
HETATM   11  O12 UNL     1     -33.607  13.820  -4.130  1.00 20.00    -0.386 OA
HETATM   12  C10 UNL     1     -32.193  13.943  -4.104  1.00 20.00     0.202 C 
ENDBRANCH   5  11
TORSDOF 2
ENDMDL
MODEL 7
REMARK VINA RESULT:      -4.3      1.325      4.326
REMARK  2 active torsions:
REMARK  status: ('A' for Active; 'I' for Inactive)
REMARK    1  A    between atoms: C5_5  and  O12_12 
REMARK    2  A    between atoms: C6_6  and  C11_11 
ROOT
HETATM    1  C1  UNL     1     -33.034  17.711  -1.446  1.00 20.00    -0.021 C 
HETATM    2  C2  UNL     1     -33.779  18.331  -0.514  1.00 20.00    -0.059 C 
HETATM    3  C3  UNL     1     -33.601  16.832  -2.522  1.00 20.00     0.032 C 
HETATM    4  C4  UNL     1     -35.872  17.636  -1.791  1.00 20.00     0.042 C 
HETATM    5  C5  UNL     1     -35.287  18.228  -0.500  1.00 20.00     0.149 C 
HETATM    6  C6  UNL     1     -35.060  16.424  -2.267  1.00 20.00    -0.005 C 
HETATM    7  C7  UNL     1     -33.152  19.185   0.551  1.00 20.00     0.046 C 
ENDROOT
BRANCH   6   8
HETATM    8  C11 UNL     1     -35.675  15.807  -3.521  1.00 20.00    -0.018 C 
HETATM    9  C8  UNL     1     -35.971  16.885  -4.561  1.00 20.00     0.010 C 
HETATM   10  C9  UNL     1     -34.752  14.738  -4.102  1.00 20.00     0.010 C 
ENDBRANCH   6   8
BRANCH   5  11
HETATM   11  O12 UNL     1     -35.692  17.402   0.592  1.00 20.00    -0.386 OA
HETATM   12  C10 UNL     1     -36.575  18.095   1.462  1.00 20.00     0.202 C 
ENDBRANCH   5  11
TORSDOF 2
ENDMDL
MODEL 8
REMARK VINA RESULT:      -4.2      3.565      6.826
REMARK  2 active torsions:
REMARK  status: ('A' for Active; 'I' for Inactive)
REMARK    1  A    between atoms: C5_5  and  O12_12 
REMARK    2  A    between atoms: C6_6  and  C11_11 
ROOT
HETATM    1  C1  UNL     1     -33.792  15.341  -3.718  1.00 20.00    -0.021 C 
HETATM    2  C2  UNL     1     -34.951  15.938  -3.390  1.00 20.00    -0.059 C 
HETATM    3  C3  UNL     1     -33.571  14.586  -4.996  1.00 20.00     0.032 C 
HETATM    4  C4  UNL     1     -35.798  15.485  -5.751  1.00 20.00     0.042 C 
HETATM    5  C5  UNL     1     -36.140  15.936  -4.324  1.00 20.00     0.149 C 
HETATM    6  C6  UNL     1     -34.874  14.260  -5.742  1.00 20.00    -0.005 C 
HETATM    7  C7  UNL     1     -35.119  16.664  -2.086  1.00 20.00     0.046 C 
ENDROOT
BRANCH   6   8
HETATM    8  C11 UNL     1     -34.578  13.783  -7.162  1.00 20.00    -0.018 C 
HETATM    9  C8  UNL     1     -35.877  13.511  -7.918  1.00 20.00     0.010 C 
HETATM   10  C9  UNL     1     -33.727  14.808  -7.908  1.00 20.00     0.010 C 
ENDBRANCH   6   8
BRANCH   5  11
HETATM   11  O12 UNL     1     -37.143  15.059  -3.807  1.00 20.00    -0.386 OA
HETATM   12  C10 UNL     1     -38.335  15.132  -4.573  1.00 20.00     0.202 C 
ENDBRANCH   5  11
TORSDOF 2
ENDMDL
MODEL 9
REMARK VINA RESULT:      -4.2      2.824      4.651
REMARK  2 active torsions:
REMARK  status: ('A' for Active; 'I' for Inactive)
REMARK    1  A    between atoms: C5_5  and  O12_12 
REMARK    2  A    between atoms: C6_6  and  C11_11 
ROOT
HETATM    1  C1  UNL     1     -33.862  14.367  -5.028  1.00 20.00    -0.021 C 
HETATM    2  C2  UNL     1     -35.141  14.382  -5.444  1.00 20.00    -0.059 C 
HETATM    3  C3  UNL     1     -33.346  15.182  -3.878  1.00 20.00     0.032 C 
HETATM    4  C4  UNL     1     -35.749  15.743  -3.375  1.00 20.00     0.042 C 
HETATM    5  C5  UNL     1     -36.197  15.206  -4.742  1.00 20.00     0.149 C 
HETATM    6  C6  UNL     1     -34.315  16.288  -3.434  1.00 20.00    -0.005 C 
HETATM    7  C7  UNL     1     -35.596  13.558  -6.614  1.00 20.00     0.046 C 
ENDROOT
BRANCH   6   8
HETATM    8  C11 UNL     1     -33.891  16.869  -2.087  1.00 20.00    -0.018 C 
HETATM    9  C8  UNL     1     -33.155  18.193  -2.281  1.00 20.00     0.010 C 
HETATM   10  C9  UNL     1     -35.103  17.056  -1.177  1.00 20.00     0.010 C 
ENDBRANCH   6   8
BRANCH   5  11
HETATM   11  O12 UNL     1     -36.549  16.319  -5.565  1.00 20.00    -0.386 OA
HETATM   12  C10 UNL     1     -37.957  16.479  -5.642  1.00 20.00     0.202 C 
ENDBRANCH   5  11
TORSDOF 2
ENDMDL
