MODEL 1
REMARK VINA RESULT:      -4.2      0.000      0.000
REMARK  1 active torsions:
REMARK  status: ('A' for Active; 'I' for Inactive)
REMARK    1  A    between atoms: C3_3  and  C6_6 
ROOT
HETATM    1  C1  UNL     1     -32.638   7.677   2.814  1.00 20.00     0.134 C 
HETATM    2  C2  UNL     1     -33.521   7.154   4.983  1.00 20.00     0.137 C 
HETATM    3  C3  UNL     1     -34.480   6.366   4.101  1.00 20.00     0.075 C 
HETATM    4  N7  UNL     1     -32.770   8.045   4.133  1.00 20.00    -0.374 N 
HETATM    5  S8  UNL     1     -31.722   8.487   1.693  1.00 20.00    -0.053 SA
HETATM    6  S9  UNL     1     -33.586   6.230   2.516  1.00 20.00    -0.094 SA
HETATM    7  H20 UNL     1     -32.278   8.850   4.510  1.00 20.00     0.161 HD
ENDROOT
BRANCH   3   8
HETATM    8  C6  UNL     1     -34.830   5.002   4.668  1.00 20.00    -0.007 C 
HETATM    9  C4  UNL     1     -33.987   3.905   4.015  1.00 20.00     0.011 C 
HETATM   10  C5  UNL     1     -34.645   4.978   6.187  1.00 20.00     0.011 C 
ENDBRANCH   3   8
TORSDOF 1
ENDMDL
MODEL 2
REMARK VINA RESULT:      -3.8     12.184     12.674
REMARK  1 active torsions:
REMARK  status: ('A' for Active; 'I' for Inactive)
REMARK    1  A    between atoms: C3_3  and  C6_6 
ROOT
HETATM    1  C1  UNL     1     -34.667  14.243  -6.140  1.00 20.00     0.134 C 
HETATM    2  C2  UNL     1     -33.147  14.623  -4.323  1.00 20.00     0.137 C 
HETATM    3  C3  UNL     1     -34.029  15.857  -4.202  1.00 20.00     0.075 C 
HETATM    4  N7  UNL     1     -33.428  14.001  -5.595  1.00 20.00    -0.374 N 
HETATM    5  S8  UNL     1     -35.243  13.541  -7.529  1.00 20.00    -0.053 SA
HETATM    6  S9  UNL     1     -35.526  15.404  -5.142  1.00 20.00    -0.094 SA
HETATM    7  H20 UNL     1     -32.784  13.338  -6.015  1.00 20.00     0.161 HD
ENDROOT
BRANCH   3   8
HETATM    8  C6  UNL     1     -34.356  16.220  -2.765  1.00 20.00    -0.007 C 
HETATM    9  C4  UNL     1     -33.431  17.328  -2.257  1.00 20.00     0.011 C 
HETATM   10  C5  UNL     1     -35.819  16.648  -2.629  1.00 20.00     0.011 C 
ENDBRANCH   3   8
TORSDOF 1
ENDMDL
MODEL 3
REMARK VINA RESULT:      -3.6      2.256      4.680
REMARK  1 active torsions:
REMARK  status: ('A' for Active; 'I' for Inactive)
REMARK    1  A    between atoms: C3_3  and  C6_6 
ROOT
HETATM    1  C1  UNL     1     -33.237   7.293   3.936  1.00 20.00     0.134 C 
HETATM    2  C2  UNL     1     -31.444   8.698   3.184  1.00 20.00     0.137 C 
HETATM    3  C3  UNL     1     -32.037   8.275   1.847  1.00 20.00     0.075 C 
HETATM    4  N7  UNL     1     -32.011   7.853   4.207  1.00 20.00    -0.374 N 
HETATM    5  S8  UNL     1     -34.122   6.388   5.009  1.00 20.00    -0.053 SA
HETATM    6  S9  UNL     1     -33.707   7.684   2.291  1.00 20.00    -0.094 SA
HETATM    7  H20 UNL     1     -31.575   7.758   5.119  1.00 20.00     0.161 HD
ENDROOT
BRANCH   3   8
HETATM    8  C6  UNL     1     -32.091   9.403   0.833  1.00 20.00    -0.007 C 
HETATM    9  C4  UNL     1     -32.906   8.994  -0.396  1.00 20.00     0.011 C 
HETATM   10  C5  UNL     1     -32.675  10.672   1.457  1.00 20.00     0.011 C 
ENDBRANCH   3   8
TORSDOF 1
ENDMDL
MODEL 4
REMARK VINA RESULT:      -3.6      2.222      4.358
REMARK  1 active torsions:
REMARK  status: ('A' for Active; 'I' for Inactive)
REMARK    1  A    between atoms: C3_3  and  C6_6 
ROOT
HETATM    1  C1  UNL     1     -34.052   5.681   4.592  1.00 20.00     0.134 C 
HETATM    2  C2  UNL     1     -33.092   5.768   2.396  1.00 20.00     0.137 C 
HETATM    3  C3  UNL     1     -33.263   7.254   2.677  1.00 20.00     0.075 C 
HETATM    4  N7  UNL     1     -33.836   5.040   3.395  1.00 20.00    -0.374 N 
HETATM    5  S8  UNL     1     -34.778   4.992   5.916  1.00 20.00    -0.053 SA
HETATM    6  S9  UNL     1     -33.446   7.325   4.491  1.00 20.00    -0.094 SA
HETATM    7  H20 UNL     1     -34.097   4.068   3.259  1.00 20.00     0.161 HD
ENDROOT
BRANCH   3   8
HETATM    8  C6  UNL     1     -32.091   8.092   2.197  1.00 20.00    -0.007 C 
HETATM    9  C4  UNL     1     -32.578   9.316   1.418  1.00 20.00     0.011 C 
HETATM   10  C5  UNL     1     -31.213   8.527   3.372  1.00 20.00     0.011 C 
ENDBRANCH   3   8
TORSDOF 1
ENDMDL
MODEL 5
REMARK VINA RESULT:      -3.6     12.195     12.945
REMARK  1 active torsions:
REMARK  status: ('A' for Active; 'I' for Inactive)
REMARK    1  A    between atoms: C3_3  and  C6_6 
ROOT
HETATM    1  C1  UNL     1     -34.197  15.090  -5.841  1.00 20.00     0.134 C 
HETATM    2  C2  UNL     1     -33.474  17.055  -4.669  1.00 20.00     0.137 C 
HETATM    3  C3  UNL     1     -34.535  16.539  -3.707  1.00 20.00     0.075 C 
HETATM    4  N7  UNL     1     -33.616  16.334  -5.911  1.00 20.00    -0.374 N 
HETATM    5  S8  UNL     1     -34.353  14.045  -7.120  1.00 20.00    -0.053 SA
HETATM    6  S9  UNL     1     -34.744  14.794  -4.199  1.00 20.00    -0.094 SA
HETATM    7  H20 UNL     1     -33.215  16.684  -6.777  1.00 20.00     0.161 HD
ENDROOT
BRANCH   3   8
HETATM    8  C6  UNL     1     -34.134  16.668  -2.249  1.00 20.00    -0.007 C 
HETATM    9  C4  UNL     1     -33.133  17.810  -2.056  1.00 20.00     0.011 C 
HETATM   10  C5  UNL     1     -35.362  16.885  -1.361  1.00 20.00     0.011 C 
ENDBRANCH   3   8
TORSDOF 1
ENDMDL
MODEL 6
REMARK VINA RESULT:      -3.6     12.218     12.817
REMARK  1 active torsions:
REMARK  status: ('A' for Active; 'I' for Inactive)
REMARK    1  A    between atoms: C3_3  and  C6_6 
ROOT
HETATM    1  C1  UNL     1     -34.270  14.521  -6.140  1.00 20.00     0.134 C 
HETATM    2  C2  UNL     1     -33.326  14.904  -3.968  1.00 20.00     0.137 C 
HETATM    3  C3  UNL     1     -33.764  16.316  -4.327  1.00 20.00     0.075 C 
HETATM    4  N7  UNL     1     -33.396  14.101  -5.165  1.00 20.00    -0.374 N 
HETATM    5  S8  UNL     1     -34.596  13.690  -7.539  1.00 20.00    -0.053 SA
HETATM    6  S9  UNL     1     -34.974  16.058  -5.669  1.00 20.00    -0.094 SA
HETATM    7  H20 UNL     1     -32.901  13.217  -5.241  1.00 20.00     0.161 HD
ENDROOT
BRANCH   3   8
HETATM    8  C6  UNL     1     -34.374  17.069  -3.158  1.00 20.00    -0.007 C 
HETATM    9  C4  UNL     1     -35.634  16.365  -2.652  1.00 20.00     0.011 C 
HETATM   10  C5  UNL     1     -33.361  17.225  -2.021  1.00 20.00     0.011 C 
ENDBRANCH   3   8
TORSDOF 1
ENDMDL
MODEL 7
REMARK VINA RESULT:      -3.5     12.100     12.591
REMARK  1 active torsions:
REMARK  status: ('A' for Active; 'I' for Inactive)
REMARK    1  A    between atoms: C3_3  and  C6_6 
ROOT
HETATM    1  C1  UNL     1     -33.897  18.448   2.754  1.00 20.00     0.134 C 
HETATM    2  C2  UNL     1     -35.512  17.769   1.115  1.00 20.00     0.137 C 
HETATM    3  C3  UNL     1     -34.638  18.687   0.273  1.00 20.00     0.075 C 
HETATM    4  N7  UNL     1     -35.163  17.975   2.501  1.00 20.00    -0.374 N 
HETATM    5  S8  UNL     1     -33.247  18.646   4.268  1.00 20.00    -0.053 SA
HETATM    6  S9  UNL     1     -33.093  18.807   1.236  1.00 20.00    -0.094 SA
HETATM    7  H20 UNL     1     -35.782  17.689   3.253  1.00 20.00     0.161 HD
ENDROOT
BRANCH   3   8
HETATM    8  C6  UNL     1     -34.389  18.157  -1.127  1.00 20.00    -0.007 C 
HETATM    9  C4  UNL     1     -32.897  17.911  -1.361  1.00 20.00     0.011 C 
HETATM   10  C5  UNL     1     -35.182  16.871  -1.374  1.00 20.00     0.011 C 
ENDBRANCH   3   8
TORSDOF 1
ENDMDL
MODEL 8
REMARK VINA RESULT:      -3.5     12.051     12.688
REMARK  1 active torsions:
REMARK  status: ('A' for Active; 'I' for Inactive)
REMARK    1  A    between atoms: C3_3  and  C6_6 
ROOT
HETATM    1  C1  UNL     1     -36.735  15.064  -4.520  1.00 20.00     0.134 C 
HETATM    2  C2  UNL     1     -34.447  14.852  -3.830  1.00 20.00     0.137 C 
HETATM    3  C3  UNL     1     -34.689  16.323  -3.523  1.00 20.00     0.075 C 
HETATM    4  N7  UNL     1     -35.547  14.382  -4.638  1.00 20.00    -0.374 N 
HETATM    5  S8  UNL     1     -38.154  14.628  -5.262  1.00 20.00    -0.053 SA
HETATM    6  S9  UNL     1     -36.508  16.454  -3.472  1.00 20.00    -0.094 SA
HETATM    7  H20 UNL     1     -35.476  13.531  -5.188  1.00 20.00     0.161 HD
ENDROOT
BRANCH   3   8
HETATM    8  C6  UNL     1     -34.055  16.774  -2.219  1.00 20.00    -0.007 C 
HETATM    9  C4  UNL     1     -33.213  18.034  -2.427  1.00 20.00     0.011 C 
HETATM   10  C5  UNL     1     -35.123  17.021  -1.150  1.00 20.00     0.011 C 
ENDBRANCH   3   8
TORSDOF 1
ENDMDL
MODEL 9
REMARK VINA RESULT:      -3.4     12.146     12.808
REMARK  1 active torsions:
REMARK  status: ('A' for Active; 'I' for Inactive)
REMARK    1  A    between atoms: C3_3  and  C6_6 
ROOT
HETATM    1  C1  UNL     1     -34.592  14.650  -5.977  1.00 20.00     0.134 C 
HETATM    2  C2  UNL     1     -35.735  15.655  -4.123  1.00 20.00     0.137 C 
HETATM    3  C3  UNL     1     -34.357  15.444  -3.511  1.00 20.00     0.075 C 
HETATM    4  N7  UNL     1     -35.791  14.906  -5.355  1.00 20.00    -0.374 N 
HETATM    5  S8  UNL     1     -34.431  13.911  -7.454  1.00 20.00    -0.053 SA
HETATM    6  S9  UNL     1     -33.276  15.220  -4.964  1.00 20.00    -0.094 SA
HETATM    7  H20 UNL     1     -36.676  14.669  -5.793  1.00 20.00     0.161 HD
ENDROOT
BRANCH   3   8
HETATM    8  C6  UNL     1     -33.903  16.606  -2.646  1.00 20.00    -0.007 C 
HETATM    9  C4  UNL     1     -33.637  17.850  -3.497  1.00 20.00     0.011 C 
HETATM   10  C5  UNL     1     -34.938  16.917  -1.562  1.00 20.00     0.011 C 
ENDBRANCH   3   8
TORSDOF 1
ENDMDL
