MODEL 1
REMARK VINA RESULT:      -5.3      0.000      0.000
REMARK  1 active torsions:
REMARK  status: ('A' for Active; 'I' for Inactive)
REMARK    1  A    between atoms: C3_3  and  C8_8 
ROOT
HETATM    1  C1  UNL     1     -33.722   5.397   3.616  1.00 20.00     0.145 C 
HETATM    2  C4  UNL     1     -32.659   6.124   2.814  1.00 20.00     0.088 C 
HETATM    3  C5  UNL     1     -33.358   7.186   5.320  1.00 20.00     0.028 C 
HETATM    4  C6  UNL     1     -32.914   8.197   4.256  1.00 20.00     0.011 C 
HETATM    5  C7  UNL     1     -34.349   6.167   4.768  1.00 20.00     0.151 C 
HETATM    6  C8  UNL     1     -32.933   7.630   2.827  1.00 20.00     0.014 C 
HETATM    7  O9  UNL     1     -34.047   4.247   3.326  1.00 20.00    -0.296 OA
HETATM    8 CL10 UNL     1     -34.812   5.020   6.047  1.00 20.00    -0.117 Cl
ENDROOT
BRANCH   6   9
HETATM    9  C3  UNL     1     -31.972   8.370   1.949  1.00 20.00    -0.032 C 
HETATM   10  C2  UNL     1     -32.327   9.345   1.106  1.00 20.00     0.007 C 
ENDBRANCH   6   9
TORSDOF 1
ENDMDL
MODEL 2
REMARK VINA RESULT:      -5.2      1.463      2.152
REMARK  1 active torsions:
REMARK  status: ('A' for Active; 'I' for Inactive)
REMARK    1  A    between atoms: C3_3  and  C8_8 
ROOT
HETATM    1  C1  UNL     1     -33.633   7.087   5.070  1.00 20.00     0.145 C 
HETATM    2  C4  UNL     1     -33.222   8.129   4.046  1.00 20.00     0.088 C 
HETATM    3  C5  UNL     1     -34.106   5.638   3.092  1.00 20.00     0.028 C 
HETATM    4  C6  UNL     1     -33.060   6.359   2.234  1.00 20.00     0.011 C 
HETATM    5  C7  UNL     1     -33.746   5.654   4.574  1.00 20.00     0.151 C 
HETATM    6  C8  UNL     1     -32.330   7.489   2.980  1.00 20.00     0.014 C 
HETATM    7  O9  UNL     1     -33.853   7.410   6.237  1.00 20.00    -0.296 OA
HETATM    8 CL10 UNL     1     -35.004   4.814   5.510  1.00 20.00    -0.117 Cl
ENDROOT
BRANCH   6   9
HETATM    9  C3  UNL     1     -31.807   8.510   2.018  1.00 20.00    -0.032 C 
HETATM   10  C2  UNL     1     -32.579   9.224   1.191  1.00 20.00     0.007 C 
ENDBRANCH   6   9
TORSDOF 1
ENDMDL
MODEL 3
REMARK VINA RESULT:      -4.9     11.678     12.287
REMARK  1 active torsions:
REMARK  status: ('A' for Active; 'I' for Inactive)
REMARK    1  A    between atoms: C3_3  and  C8_8 
ROOT
HETATM    1  C1  UNL     1     -35.026  14.001  -5.029  1.00 20.00     0.145 C 
HETATM    2  C4  UNL     1     -35.245  15.002  -3.910  1.00 20.00     0.088 C 
HETATM    3  C5  UNL     1     -33.835  15.869  -6.180  1.00 20.00     0.028 C 
HETATM    4  C6  UNL     1     -33.446  16.525  -4.850  1.00 20.00     0.011 C 
HETATM    5  C7  UNL     1     -33.965  14.355  -6.060  1.00 20.00     0.151 C 
HETATM    6  C8  UNL     1     -33.943  15.752  -3.617  1.00 20.00     0.014 C 
HETATM    7  O9  UNL     1     -35.682  12.961  -5.076  1.00 20.00    -0.296 OA
HETATM    8 CL10 UNL     1     -34.429  13.661  -7.631  1.00 20.00    -0.117 Cl
ENDROOT
BRANCH   6   9
HETATM    9  C3  UNL     1     -34.090  16.664  -2.440  1.00 20.00    -0.032 C 
HETATM   10  C2  UNL     1     -35.205  16.773  -1.711  1.00 20.00     0.007 C 
ENDBRANCH   6   9
TORSDOF 1
ENDMDL
MODEL 4
REMARK VINA RESULT:      -4.6      2.941      4.495
REMARK  1 active torsions:
REMARK  status: ('A' for Active; 'I' for Inactive)
REMARK    1  A    between atoms: C3_3  and  C8_8 
ROOT
HETATM    1  C1  UNL     1     -32.202   8.172   3.676  1.00 20.00     0.145 C 
HETATM    2  C4  UNL     1     -32.716   7.231   4.751  1.00 20.00     0.088 C 
HETATM    3  C5  UNL     1     -33.105   6.489   2.068  1.00 20.00     0.028 C 
HETATM    4  C6  UNL     1     -34.173   6.018   3.063  1.00 20.00     0.011 C 
HETATM    5  C7  UNL     1     -32.737   7.955   2.269  1.00 20.00     0.151 C 
HETATM    6  C8  UNL     1     -34.133   6.769   4.404  1.00 20.00     0.014 C 
HETATM    7  O9  UNL     1     -31.397   9.060   3.956  1.00 20.00    -0.296 OA
HETATM    8 CL10 UNL     1     -31.489   8.431   1.094  1.00 20.00    -0.117 Cl
ENDROOT
BRANCH   6   9
HETATM    9  C3  UNL     1     -34.719   5.933   5.500  1.00 20.00    -0.032 C 
HETATM   10  C2  UNL     1     -34.598   4.603   5.572  1.00 20.00     0.007 C 
ENDBRANCH   6   9
TORSDOF 1
ENDMDL
MODEL 5
REMARK VINA RESULT:      -4.5     11.816     12.684
REMARK  1 active torsions:
REMARK  status: ('A' for Active; 'I' for Inactive)
REMARK    1  A    between atoms: C3_3  and  C8_8 
ROOT
HETATM    1  C1  UNL     1     -34.022  14.808  -4.907  1.00 20.00     0.145 C 
HETATM    2  C4  UNL     1     -34.536  15.354  -3.587  1.00 20.00     0.088 C 
HETATM    3  C5  UNL     1     -33.839  17.204  -5.585  1.00 20.00     0.028 C 
HETATM    4  C6  UNL     1     -33.639  17.665  -4.136  1.00 20.00     0.011 C 
HETATM    5  C7  UNL     1     -33.310  15.793  -5.820  1.00 20.00     0.151 C 
HETATM    6  C8  UNL     1     -33.648  16.510  -3.120  1.00 20.00     0.014 C 
HETATM    7  O9  UNL     1     -34.182  13.623  -5.197  1.00 20.00    -0.296 OA
HETATM    8 CL10 UNL     1     -33.584  15.319  -7.512  1.00 20.00    -0.117 Cl
ENDROOT
BRANCH   6   9
HETATM    9  C3  UNL     1     -34.052  16.998  -1.764  1.00 20.00    -0.032 C 
HETATM   10  C2  UNL     1     -35.304  16.957  -1.296  1.00 20.00     0.007 C 
ENDBRANCH   6   9
TORSDOF 1
ENDMDL
MODEL 6
REMARK VINA RESULT:      -4.2     11.646     12.034
REMARK  1 active torsions:
REMARK  status: ('A' for Active; 'I' for Inactive)
REMARK    1  A    between atoms: C3_3  and  C8_8 
ROOT
HETATM    1  C1  UNL     1     -36.501  15.097  -4.129  1.00 20.00     0.145 C 
HETATM    2  C4  UNL     1     -36.113  16.357  -3.377  1.00 20.00     0.088 C 
HETATM    3  C5  UNL     1     -34.131  15.093  -4.916  1.00 20.00     0.028 C 
HETATM    4  C6  UNL     1     -33.646  15.831  -3.663  1.00 20.00     0.011 C 
HETATM    5  C7  UNL     1     -35.359  14.232  -4.640  1.00 20.00     0.151 C 
HETATM    6  C8  UNL     1     -34.773  16.150  -2.666  1.00 20.00     0.014 C 
HETATM    7  O9  UNL     1     -37.685  14.810  -4.298  1.00 20.00    -0.296 OA
HETATM    8 CL10 UNL     1     -35.875  13.416  -6.134  1.00 20.00    -0.117 Cl
ENDROOT
BRANCH   6   9
HETATM    9  C3  UNL     1     -34.415  17.330  -1.818  1.00 20.00    -0.032 C 
HETATM   10  C2  UNL     1     -33.160  17.719  -1.569  1.00 20.00     0.007 C 
ENDBRANCH   6   9
TORSDOF 1
ENDMDL
MODEL 7
REMARK VINA RESULT:      -4.2     11.653     12.242
REMARK  1 active torsions:
REMARK  status: ('A' for Active; 'I' for Inactive)
REMARK    1  A    between atoms: C3_3  and  C8_8 
ROOT
HETATM    1  C1  UNL     1     -33.044  18.029  -1.330  1.00 20.00     0.145 C 
HETATM    2  C4  UNL     1     -33.324  17.495  -2.723  1.00 20.00     0.088 C 
HETATM    3  C5  UNL     1     -35.506  17.803  -0.979  1.00 20.00     0.028 C 
HETATM    4  C6  UNL     1     -35.611  16.665  -2.001  1.00 20.00     0.011 C 
HETATM    5  C7  UNL     1     -34.143  17.840  -0.296  1.00 20.00     0.151 C 
HETATM    6  C8  UNL     1     -34.264  16.290  -2.641  1.00 20.00     0.014 C 
HETATM    7  O9  UNL     1     -31.973  18.578  -1.074  1.00 20.00    -0.296 OA
HETATM    8 CL10 UNL     1     -34.085  19.187   0.865  1.00 20.00    -0.117 Cl
ENDROOT
BRANCH   6   9
HETATM    9  C3  UNL     1     -34.469  15.664  -3.985  1.00 20.00    -0.032 C 
HETATM   10  C2  UNL     1     -34.632  14.351  -4.182  1.00 20.00     0.007 C 
ENDBRANCH   6   9
TORSDOF 1
ENDMDL
MODEL 8
REMARK VINA RESULT:      -4.1     11.538     12.056
REMARK  1 active torsions:
REMARK  status: ('A' for Active; 'I' for Inactive)
REMARK    1  A    between atoms: C3_3  and  C8_8 
ROOT
HETATM    1  C1  UNL     1     -35.944  15.525  -3.746  1.00 20.00     0.145 C 
HETATM    2  C4  UNL     1     -36.149  16.696  -2.803  1.00 20.00     0.088 C 
HETATM    3  C5  UNL     1     -33.547  16.223  -3.754  1.00 20.00     0.028 C 
HETATM    4  C6  UNL     1     -33.654  16.834  -2.352  1.00 20.00     0.011 C 
HETATM    5  C7  UNL     1     -34.511  15.058  -3.950  1.00 20.00     0.151 C 
HETATM    6  C8  UNL     1     -35.055  16.701  -1.732  1.00 20.00     0.014 C 
HETATM    7  O9  UNL     1     -36.905  14.994  -4.301  1.00 20.00    -0.296 OA
HETATM    8 CL10 UNL     1     -34.343  14.405  -5.597  1.00 20.00    -0.117 Cl
ENDROOT
BRANCH   6   9
HETATM    9  C3  UNL     1     -35.291  17.773  -0.714  1.00 20.00    -0.032 C 
HETATM   10  C2  UNL     1     -35.671  17.538   0.546  1.00 20.00     0.007 C 
ENDBRANCH   6   9
TORSDOF 1
ENDMDL
MODEL 9
REMARK VINA RESULT:      -4.1     11.549     12.141
REMARK  1 active torsions:
REMARK  status: ('A' for Active; 'I' for Inactive)
REMARK    1  A    between atoms: C3_3  and  C8_8 
ROOT
HETATM    1  C1  UNL     1     -34.609  14.602  -5.079  1.00 20.00     0.145 C 
HETATM    2  C4  UNL     1     -33.939  15.026  -3.785  1.00 20.00     0.088 C 
HETATM    3  C5  UNL     1     -36.687  15.542  -4.063  1.00 20.00     0.028 C 
HETATM    4  C6  UNL     1     -35.895  16.537  -3.207  1.00 20.00     0.011 C 
HETATM    5  C7  UNL     1     -35.973  15.209  -5.368  1.00 20.00     0.151 C 
HETATM    6  C8  UNL     1     -34.373  16.446  -3.412  1.00 20.00     0.014 C 
HETATM    7  O9  UNL     1     -34.054  13.812  -5.841  1.00 20.00    -0.296 OA
HETATM    8 CL10 UNL     1     -36.939  14.044  -6.304  1.00 20.00    -0.117 Cl
ENDROOT
BRANCH   6   9
HETATM    9  C3  UNL     1     -33.642  16.943  -2.204  1.00 20.00    -0.032 C 
HETATM   10  C2  UNL     1     -34.241  17.326  -1.072  1.00 20.00     0.007 C 
ENDBRANCH   6   9
TORSDOF 1
ENDMDL
