MODEL 1
REMARK VINA RESULT:      -5.4      0.000      0.000
REMARK  1 active torsions:
REMARK  status: ('A' for Active; 'I' for Inactive)
REMARK    1  A    between atoms: C3_3  and  C8_8 
ROOT
HETATM    1  C1  UNL     1     -34.431   5.562   4.976  1.00 20.00     0.145 C 
HETATM    2  C4  UNL     1     -34.035   6.844   5.676  1.00 20.00     0.080 C 
HETATM    3  C5  UNL     1     -32.891   7.511   4.923  1.00 20.00     0.016 C 
HETATM    4  C6  UNL     1     -34.358   6.960   2.884  1.00 20.00     0.036 C 
HETATM    5  C7  UNL     1     -34.376   5.545   3.462  1.00 20.00     0.152 C 
HETATM    6  C8  UNL     1     -33.296   7.900   3.491  1.00 20.00     0.009 C 
HETATM    7  O9  UNL     1     -34.794   4.575   5.616  1.00 20.00    -0.296 OA
HETATM    8 CL10 UNL     1     -32.947   4.602   2.988  1.00 20.00    -0.117 Cl
ENDROOT
BRANCH   6   9
HETATM    9  C3  UNL     1     -32.093   8.027   2.605  1.00 20.00    -0.032 C 
HETATM   10  C2  UNL     1     -32.063   8.755   1.483  1.00 20.00     0.007 C 
ENDBRANCH   6   9
TORSDOF 1
ENDMDL
MODEL 2
REMARK VINA RESULT:      -4.7      2.466      4.062
REMARK  1 active torsions:
REMARK  status: ('A' for Active; 'I' for Inactive)
REMARK    1  A    between atoms: C3_3  and  C8_8 
ROOT
HETATM    1  C1  UNL     1     -32.786   7.591   2.867  1.00 20.00     0.145 C 
HETATM    2  C4  UNL     1     -32.634   6.310   2.075  1.00 20.00     0.080 C 
HETATM    3  C5  UNL     1     -32.885   5.111   2.980  1.00 20.00     0.016 C 
HETATM    4  C6  UNL     1     -34.896   6.526   3.731  1.00 20.00     0.036 C 
HETATM    5  C7  UNL     1     -33.859   7.630   3.936  1.00 20.00     0.152 C 
HETATM    6  C8  UNL     1     -34.316   5.109   3.545  1.00 20.00     0.009 C 
HETATM    7  O9  UNL     1     -32.070   8.566   2.641  1.00 20.00    -0.296 OA
HETATM    8 CL10 UNL     1     -33.049   7.512   5.513  1.00 20.00    -0.117 Cl
ENDROOT
BRANCH   6   9
HETATM    9  C3  UNL     1     -34.396   4.303   4.808  1.00 20.00    -0.032 C 
HETATM   10  C2  UNL     1     -34.729   4.811   6.000  1.00 20.00     0.007 C 
ENDBRANCH   6   9
TORSDOF 1
ENDMDL
MODEL 3
REMARK VINA RESULT:      -4.4      2.299      3.311
REMARK  1 active torsions:
REMARK  status: ('A' for Active; 'I' for Inactive)
REMARK    1  A    between atoms: C3_3  and  C8_8 
ROOT
HETATM    1  C1  UNL     1     -33.422   4.555   2.760  1.00 20.00     0.145 C 
HETATM    2  C4  UNL     1     -33.852   3.701   3.932  1.00 20.00     0.080 C 
HETATM    3  C5  UNL     1     -33.845   4.533   5.207  1.00 20.00     0.016 C 
HETATM    4  C6  UNL     1     -35.039   6.240   3.700  1.00 20.00     0.036 C 
HETATM    5  C7  UNL     1     -33.866   6.005   2.750  1.00 20.00     0.152 C 
HETATM    6  C8  UNL     1     -34.838   5.705   5.133  1.00 20.00     0.009 C 
HETATM    7  O9  UNL     1     -32.747   4.085   1.844  1.00 20.00    -0.296 OA
HETATM    8 CL10 UNL     1     -32.452   7.000   3.162  1.00 20.00    -0.117 Cl
ENDROOT
BRANCH   6   9
HETATM    9  C3  UNL     1     -34.456   6.798   6.087  1.00 20.00    -0.032 C 
HETATM   10  C2  UNL     1     -33.331   7.515   5.991  1.00 20.00     0.007 C 
ENDBRANCH   6   9
TORSDOF 1
ENDMDL
MODEL 4
REMARK VINA RESULT:      -4.3     11.680     12.203
REMARK  1 active torsions:
REMARK  status: ('A' for Active; 'I' for Inactive)
REMARK    1  A    between atoms: C3_3  and  C8_8 
ROOT
HETATM    1  C1  UNL     1     -35.377  14.016  -5.007  1.00 20.00     0.145 C 
HETATM    2  C4  UNL     1     -36.389  14.947  -4.377  1.00 20.00     0.080 C 
HETATM    3  C5  UNL     1     -35.678  15.951  -3.480  1.00 20.00     0.016 C 
HETATM    4  C6  UNL     1     -34.095  16.126  -5.497  1.00 20.00     0.036 C 
HETATM    5  C7  UNL     1     -34.035  14.602  -5.399  1.00 20.00     0.152 C 
HETATM    6  C8  UNL     1     -34.702  16.837  -4.271  1.00 20.00     0.009 C 
HETATM    7  O9  UNL     1     -35.641  12.830  -5.204  1.00 20.00    -0.296 OA
HETATM    8 CL10 UNL     1     -32.840  14.048  -4.207  1.00 20.00    -0.117 Cl
ENDROOT
BRANCH   6   9
HETATM    9  C3  UNL     1     -33.641  17.406  -3.375  1.00 20.00    -0.032 C 
HETATM   10  C2  UNL     1     -33.546  17.141  -2.067  1.00 20.00     0.007 C 
ENDBRANCH   6   9
TORSDOF 1
ENDMDL
MODEL 5
REMARK VINA RESULT:      -4.3     11.509     12.716
REMARK  1 active torsions:
REMARK  status: ('A' for Active; 'I' for Inactive)
REMARK    1  A    between atoms: C3_3  and  C8_8 
ROOT
HETATM    1  C1  UNL     1     -35.131  13.693  -5.291  1.00 20.00     0.145 C 
HETATM    2  C4  UNL     1     -34.388  14.033  -6.565  1.00 20.00     0.080 C 
HETATM    3  C5  UNL     1     -34.176  15.538  -6.652  1.00 20.00     0.016 C 
HETATM    4  C6  UNL     1     -33.480  15.245  -4.195  1.00 20.00     0.036 C 
HETATM    5  C7  UNL     1     -34.813  14.511  -4.056  1.00 20.00     0.152 C 
HETATM    6  C8  UNL     1     -33.318  16.066  -5.491  1.00 20.00     0.009 C 
HETATM    7  O9  UNL     1     -35.954  12.778  -5.261  1.00 20.00    -0.296 OA
HETATM    8 CL10 UNL     1     -36.172  15.623  -3.786  1.00 20.00    -0.117 Cl
ENDROOT
BRANCH   6   9
HETATM    9  C3  UNL     1     -33.562  17.527  -5.259  1.00 20.00    -0.032 C 
HETATM   10  C2  UNL     1     -33.507  18.113  -4.058  1.00 20.00     0.007 C 
ENDBRANCH   6   9
TORSDOF 1
ENDMDL
MODEL 6
REMARK VINA RESULT:      -4.1     11.711     12.745
REMARK  1 active torsions:
REMARK  status: ('A' for Active; 'I' for Inactive)
REMARK    1  A    between atoms: C3_3  and  C8_8 
ROOT
HETATM    1  C1  UNL     1     -34.445  14.715  -6.495  1.00 20.00     0.145 C 
HETATM    2  C4  UNL     1     -33.322  15.706  -6.276  1.00 20.00     0.080 C 
HETATM    3  C5  UNL     1     -33.604  16.538  -5.032  1.00 20.00     0.016 C 
HETATM    4  C6  UNL     1     -34.186  14.239  -4.037  1.00 20.00     0.036 C 
HETATM    5  C7  UNL     1     -35.081  14.095  -5.267  1.00 20.00     0.152 C 
HETATM    6  C8  UNL     1     -33.674  15.669  -3.765  1.00 20.00     0.009 C 
HETATM    7  O9  UNL     1     -34.818  14.419  -7.630  1.00 20.00    -0.296 OA
HETATM    8 CL10 UNL     1     -36.669  14.860  -5.042  1.00 20.00    -0.117 Cl
ENDROOT
BRANCH   6   9
HETATM    9  C3  UNL     1     -34.466  16.348  -2.687  1.00 20.00    -0.032 C 
HETATM   10  C2  UNL     1     -33.924  17.094  -1.718  1.00 20.00     0.007 C 
ENDBRANCH   6   9
TORSDOF 1
ENDMDL
MODEL 7
REMARK VINA RESULT:      -4.1     12.137     12.761
REMARK  1 active torsions:
REMARK  status: ('A' for Active; 'I' for Inactive)
REMARK    1  A    between atoms: C3_3  and  C8_8 
ROOT
HETATM    1  C1  UNL     1     -36.944  14.230  -4.885  1.00 20.00     0.145 C 
HETATM    2  C4  UNL     1     -35.940  13.296  -5.524  1.00 20.00     0.080 C 
HETATM    3  C5  UNL     1     -34.794  14.101  -6.122  1.00 20.00     0.016 C 
HETATM    4  C6  UNL     1     -34.920  15.324  -3.864  1.00 20.00     0.036 C 
HETATM    5  C7  UNL     1     -36.407  15.464  -4.187  1.00 20.00     0.152 C 
HETATM    6  C8  UNL     1     -34.031  14.896  -5.050  1.00 20.00     0.009 C 
HETATM    7  O9  UNL     1     -38.151  13.988  -4.923  1.00 20.00    -0.296 OA
HETATM    8 CL10 UNL     1     -36.744  16.860  -5.233  1.00 20.00    -0.117 Cl
ENDROOT
BRANCH   6   9
HETATM    9  C3  UNL     1     -33.309  16.064  -5.655  1.00 20.00    -0.032 C 
HETATM   10  C2  UNL     1     -33.621  16.604  -6.838  1.00 20.00     0.007 C 
ENDBRANCH   6   9
TORSDOF 1
ENDMDL
MODEL 8
REMARK VINA RESULT:      -4.1      1.669      2.160
REMARK  1 active torsions:
REMARK  status: ('A' for Active; 'I' for Inactive)
REMARK    1  A    between atoms: C3_3  and  C8_8 
ROOT
HETATM    1  C1  UNL     1     -34.063   4.685   4.054  1.00 20.00     0.145 C 
HETATM    2  C4  UNL     1     -32.800   4.609   3.224  1.00 20.00     0.080 C 
HETATM    3  C5  UNL     1     -32.730   5.804   2.282  1.00 20.00     0.016 C 
HETATM    4  C6  UNL     1     -33.406   7.089   4.403  1.00 20.00     0.036 C 
HETATM    5  C7  UNL     1     -34.529   6.057   4.496  1.00 20.00     0.152 C 
HETATM    6  C8  UNL     1     -32.671   7.136   3.048  1.00 20.00     0.009 C 
HETATM    7  O9  UNL     1     -34.679   3.666   4.367  1.00 20.00    -0.296 OA
HETATM    8 CL10 UNL     1     -35.932   6.493   3.497  1.00 20.00    -0.117 Cl
ENDROOT
BRANCH   6   9
HETATM    9  C3  UNL     1     -33.149   8.272   2.193  1.00 20.00    -0.032 C 
HETATM   10  C2  UNL     1     -32.336   9.117   1.549  1.00 20.00     0.007 C 
ENDBRANCH   6   9
TORSDOF 1
ENDMDL
MODEL 9
REMARK VINA RESULT:      -4.0     12.132     12.922
REMARK  1 active torsions:
REMARK  status: ('A' for Active; 'I' for Inactive)
REMARK    1  A    between atoms: C3_3  and  C8_8 
ROOT
HETATM    1  C1  UNL     1     -33.548  17.195  -4.159  1.00 20.00     0.145 C 
HETATM    2  C4  UNL     1     -34.266  16.643  -2.946  1.00 20.00     0.080 C 
HETATM    3  C5  UNL     1     -35.281  15.594  -3.379  1.00 20.00     0.016 C 
HETATM    4  C6  UNL     1     -33.318  14.778  -4.825  1.00 20.00     0.036 C 
HETATM    5  C7  UNL     1     -33.244  16.232  -5.289  1.00 20.00     0.152 C 
HETATM    6  C8  UNL     1     -34.609  14.397  -4.072  1.00 20.00     0.009 C 
HETATM    7  O9  UNL     1     -33.216  18.378  -4.216  1.00 20.00    -0.296 OA
HETATM    8 CL10 UNL     1     -34.382  16.580  -6.609  1.00 20.00    -0.117 Cl
ENDROOT
BRANCH   6   9
HETATM    9  C3  UNL     1     -35.578  13.672  -4.958  1.00 20.00    -0.032 C 
HETATM   10  C2  UNL     1     -36.810  14.111  -5.237  1.00 20.00     0.007 C 
ENDBRANCH   6   9
TORSDOF 1
ENDMDL
