MODEL 1
REMARK VINA RESULT:      -3.9      0.000      0.000
REMARK  0 active torsions:
REMARK  status: ('A' for Active; 'I' for Inactive)
ROOT
HETATM    1  C1  UNL     1     -33.611   4.244   3.898  1.00 20.00     0.001 C 
HETATM    2  C2  UNL     1     -34.878   4.831   4.515  1.00 20.00     0.001 C 
HETATM    3  C3  UNL     1     -33.124   5.264   2.869  1.00 20.00     0.011 C 
HETATM    4  C4  UNL     1     -35.143   6.130   3.762  1.00 20.00     0.011 C 
HETATM    5  C5  UNL     1     -32.991   7.291   4.443  1.00 20.00     0.096 C 
HETATM    6  C6  UNL     1     -33.887   7.610   2.138  1.00 20.00     0.096 C 
HETATM    7  C7  UNL     1     -33.759   6.605   3.292  1.00 20.00    -0.022 C 
HETATM    8  S8  UNL     1     -31.545   8.139   3.747  1.00 20.00    -0.097 SA
HETATM    9  S9  UNL     1     -32.254   8.333   1.836  1.00 20.00    -0.097 SA
ENDROOT
TORSDOF 0
ENDMDL
MODEL 2
REMARK VINA RESULT:      -3.7     11.914     12.671
REMARK  0 active torsions:
REMARK  status: ('A' for Active; 'I' for Inactive)
ROOT
HETATM    1  C1  UNL     1     -33.560  18.179  -0.628  1.00 20.00     0.001 C 
HETATM    2  C2  UNL     1     -35.027  17.832  -0.386  1.00 20.00     0.001 C 
HETATM    3  C3  UNL     1     -33.130  17.384  -1.860  1.00 20.00     0.011 C 
HETATM    4  C4  UNL     1     -35.381  16.775  -1.427  1.00 20.00     0.011 C 
HETATM    5  C5  UNL     1     -34.952  18.233  -3.461  1.00 20.00     0.096 C 
HETATM    6  C6  UNL     1     -34.324  15.820  -3.519  1.00 20.00     0.096 C 
HETATM    7  C7  UNL     1     -34.438  17.052  -2.609  1.00 20.00    -0.022 C 
HETATM    8  S8  UNL     1     -34.017  18.275  -5.015  1.00 20.00    -0.097 SA
HETATM    9  S9  UNL     1     -33.439  16.310  -5.022  1.00 20.00    -0.097 SA
ENDROOT
TORSDOF 0
ENDMDL
MODEL 3
REMARK VINA RESULT:      -3.6     11.346     12.486
REMARK  0 active torsions:
REMARK  status: ('A' for Active; 'I' for Inactive)
ROOT
HETATM    1  C1  UNL     1     -35.523  16.666  -2.073  1.00 20.00     0.001 C 
HETATM    2  C2  UNL     1     -34.003  16.759  -2.197  1.00 20.00     0.001 C 
HETATM    3  C3  UNL     1     -36.059  16.513  -3.497  1.00 20.00     0.011 C 
HETATM    4  C4  UNL     1     -33.707  16.752  -3.692  1.00 20.00     0.011 C 
HETATM    5  C5  UNL     1     -34.674  14.451  -4.157  1.00 20.00     0.096 C 
HETATM    6  C6  UNL     1     -34.987  16.279  -5.824  1.00 20.00     0.096 C 
HETATM    7  C7  UNL     1     -34.873  15.973  -4.323  1.00 20.00    -0.022 C 
HETATM    8  S8  UNL     1     -35.868  13.592  -5.220  1.00 20.00    -0.097 SA
HETATM    9  S9  UNL     1     -36.179  15.122  -6.545  1.00 20.00    -0.097 SA
ENDROOT
TORSDOF 0
ENDMDL
MODEL 4
REMARK VINA RESULT:      -3.5     11.815     12.459
REMARK  0 active torsions:
REMARK  status: ('A' for Active; 'I' for Inactive)
ROOT
HETATM    1  C1  UNL     1     -33.704  15.862  -3.385  1.00 20.00     0.001 C 
HETATM    2  C2  UNL     1     -35.112  16.364  -3.074  1.00 20.00     0.001 C 
HETATM    3  C3  UNL     1     -33.871  14.699  -4.362  1.00 20.00     0.011 C 
HETATM    4  C4  UNL     1     -36.061  15.420  -3.805  1.00 20.00     0.011 C 
HETATM    5  C5  UNL     1     -35.233  15.950  -6.145  1.00 20.00     0.096 C 
HETATM    6  C6  UNL     1     -35.869  13.610  -5.563  1.00 20.00     0.096 C 
HETATM    7  C7  UNL     1     -35.256  14.905  -5.009  1.00 20.00    -0.022 C 
HETATM    8  S8  UNL     1     -34.596  15.157  -7.648  1.00 20.00    -0.097 SA
HETATM    9  S9  UNL     1     -35.052  13.228  -7.134  1.00 20.00    -0.097 SA
ENDROOT
TORSDOF 0
ENDMDL
MODEL 5
REMARK VINA RESULT:      -3.4     11.206     12.699
REMARK  0 active torsions:
REMARK  status: ('A' for Active; 'I' for Inactive)
ROOT
HETATM    1  C1  UNL     1     -33.832  17.889  -4.759  1.00 20.00     0.001 C 
HETATM    2  C2  UNL     1     -33.598  17.749  -3.256  1.00 20.00     0.001 C 
HETATM    3  C3  UNL     1     -34.190  16.493  -5.268  1.00 20.00     0.011 C 
HETATM    4  C4  UNL     1     -33.734  16.261  -2.952  1.00 20.00     0.011 C 
HETATM    5  C5  UNL     1     -36.158  16.050  -3.676  1.00 20.00     0.096 C 
HETATM    6  C6  UNL     1     -34.561  14.199  -4.163  1.00 20.00     0.096 C 
HETATM    7  C7  UNL     1     -34.691  15.723  -4.028  1.00 20.00    -0.022 C 
HETATM    8  S8  UNL     1     -37.243  15.091  -4.770  1.00 20.00    -0.097 SA
HETATM    9  S9  UNL     1     -35.904  13.611  -5.228  1.00 20.00    -0.097 SA
ENDROOT
TORSDOF 0
ENDMDL
MODEL 6
REMARK VINA RESULT:      -3.4     11.743     12.834
REMARK  0 active torsions:
REMARK  status: ('A' for Active; 'I' for Inactive)
ROOT
HETATM    1  C1  UNL     1     -35.901  13.308  -5.295  1.00 20.00     0.001 C 
HETATM    2  C2  UNL     1     -35.449  13.276  -6.753  1.00 20.00     0.001 C 
HETATM    3  C3  UNL     1     -35.034  14.359  -4.601  1.00 20.00     0.011 C 
HETATM    4  C4  UNL     1     -34.271  14.240  -6.844  1.00 20.00     0.011 C 
HETATM    5  C5  UNL     1     -35.562  16.321  -6.176  1.00 20.00     0.096 C 
HETATM    6  C6  UNL     1     -33.220  16.012  -5.374  1.00 20.00     0.096 C 
HETATM    7  C7  UNL     1     -34.518  15.272  -5.733  1.00 20.00    -0.022 C 
HETATM    8  S8  UNL     1     -35.540  17.695  -4.991  1.00 20.00    -0.097 SA
HETATM    9  S9  UNL     1     -33.643  17.393  -4.281  1.00 20.00    -0.097 SA
ENDROOT
TORSDOF 0
ENDMDL
MODEL 7
REMARK VINA RESULT:      -3.4     11.441     12.401
REMARK  0 active torsions:
REMARK  status: ('A' for Active; 'I' for Inactive)
ROOT
HETATM    1  C1  UNL     1     -36.734  14.705  -4.678  1.00 20.00     0.001 C 
HETATM    2  C2  UNL     1     -35.655  13.651  -4.917  1.00 20.00     0.001 C 
HETATM    3  C3  UNL     1     -36.069  15.824  -3.877  1.00 20.00     0.011 C 
HETATM    4  C4  UNL     1     -34.421  14.143  -4.169  1.00 20.00     0.011 C 
HETATM    5  C5  UNL     1     -34.127  16.287  -5.495  1.00 20.00     0.096 C 
HETATM    6  C6  UNL     1     -33.679  16.284  -3.042  1.00 20.00     0.096 C 
HETATM    7  C7  UNL     1     -34.557  15.674  -4.145  1.00 20.00    -0.022 C 
HETATM    8  S8  UNL     1     -33.962  18.083  -5.287  1.00 20.00    -0.097 SA
HETATM    9  S9  UNL     1     -33.668  18.082  -3.261  1.00 20.00    -0.097 SA
ENDROOT
TORSDOF 0
ENDMDL
MODEL 8
REMARK VINA RESULT:      -3.4     11.555     12.540
REMARK  0 active torsions:
REMARK  status: ('A' for Active; 'I' for Inactive)
ROOT
HETATM    1  C1  UNL     1     -33.419  15.923  -5.563  1.00 20.00     0.001 C 
HETATM    2  C2  UNL     1     -33.085  15.051  -4.355  1.00 20.00     0.001 C 
HETATM    3  C3  UNL     1     -34.823  15.514  -6.010  1.00 20.00     0.011 C 
HETATM    4  C4  UNL     1     -34.263  14.097  -4.192  1.00 20.00     0.011 C 
HETATM    5  C5  UNL     1     -36.013  15.885  -3.763  1.00 20.00     0.096 C 
HETATM    6  C6  UNL     1     -36.605  13.883  -5.126  1.00 20.00     0.096 C 
HETATM    7  C7  UNL     1     -35.468  14.853  -4.774  1.00 20.00    -0.022 C 
HETATM    8  S8  UNL     1     -37.625  16.475  -4.351  1.00 20.00    -0.097 SA
HETATM    9  S9  UNL     1     -38.076  14.861  -5.528  1.00 20.00    -0.097 SA
ENDROOT
TORSDOF 0
ENDMDL
MODEL 9
REMARK VINA RESULT:      -3.4     11.286     12.390
REMARK  0 active torsions:
REMARK  status: ('A' for Active; 'I' for Inactive)
ROOT
HETATM    1  C1  UNL     1     -33.279  14.475  -4.485  1.00 20.00     0.001 C 
HETATM    2  C2  UNL     1     -34.715  14.147  -4.081  1.00 20.00     0.001 C 
HETATM    3  C3  UNL     1     -33.226  15.991  -4.680  1.00 20.00     0.011 C 
HETATM    4  C4  UNL     1     -35.476  15.467  -4.145  1.00 20.00     0.011 C 
HETATM    5  C5  UNL     1     -34.116  16.660  -2.364  1.00 20.00     0.096 C 
HETATM    6  C6  UNL     1     -34.898  17.920  -4.369  1.00 20.00     0.096 C 
HETATM    7  C7  UNL     1     -34.417  16.548  -3.875  1.00 20.00    -0.022 C 
HETATM    8  S8  UNL     1     -33.153  18.171  -2.078  1.00 20.00    -0.097 SA
HETATM    9  S9  UNL     1     -33.740  19.175  -3.763  1.00 20.00    -0.097 SA
ENDROOT
TORSDOF 0
ENDMDL
