MODEL 1
REMARK VINA RESULT:      -6.0      0.000      0.000
REMARK  0 active torsions:
REMARK  status: ('A' for Active; 'I' for Inactive)
ROOT
HETATM    1  C1  UNL     1     -33.041   7.220   4.359  1.00 20.00     0.117 A 
HETATM    2  C2  UNL     1     -33.757   6.509   3.485  1.00 20.00    -0.042 A 
HETATM    3  C3  UNL     1     -32.079   8.006   3.581  1.00 20.00     0.186 A 
HETATM    4  C4  UNL     1     -34.813   5.558   3.928  1.00 20.00     0.039 C 
HETATM    5  C5  UNL     1     -33.406   6.738   2.051  1.00 20.00     0.049 A 
HETATM    6  C6  UNL     1     -34.695   5.325   5.440  1.00 20.00     0.031 C 
HETATM    7  C7  UNL     1     -34.364   6.630   6.176  1.00 20.00     0.176 C 
HETATM    8  C8  UNL     1     -32.209   7.704   2.104  1.00 20.00     0.062 A 
HETATM    9  C9  UNL     1     -32.431   8.968   1.292  1.00 20.00     0.018 C 
HETATM   10  O10 UNL     1     -31.285   8.790   4.079  1.00 20.00    -0.290 OA
HETATM   11  O11 UNL     1     -33.149   7.246   5.715  1.00 20.00    -0.347 OA
ENDROOT
TORSDOF 0
ENDMDL
MODEL 2
REMARK VINA RESULT:      -5.9      0.868      3.720
REMARK  0 active torsions:
REMARK  status: ('A' for Active; 'I' for Inactive)
ROOT
HETATM    1  C1  UNL     1     -33.015   7.435   4.161  1.00 20.00     0.117 A 
HETATM    2  C2  UNL     1     -33.342   6.816   3.025  1.00 20.00    -0.042 A 
HETATM    3  C3  UNL     1     -33.865   6.870   5.213  1.00 20.00     0.186 A 
HETATM    4  C4  UNL     1     -32.699   7.168   1.729  1.00 20.00     0.039 C 
HETATM    5  C5  UNL     1     -34.396   5.766   3.162  1.00 20.00     0.049 A 
HETATM    6  C6  UNL     1     -31.918   8.479   1.881  1.00 20.00     0.031 C 
HETATM    7  C7  UNL     1     -31.193   8.537   3.231  1.00 20.00     0.176 C 
HETATM    8  C8  UNL     1     -34.817   5.843   4.640  1.00 20.00     0.062 A 
HETATM    9  C9  UNL     1     -34.702   4.510   5.360  1.00 20.00     0.018 C 
HETATM   10  O10 UNL     1     -33.800   7.203   6.387  1.00 20.00    -0.290 OA
HETATM   11  O11 UNL     1     -32.080   8.405   4.355  1.00 20.00    -0.347 OA
ENDROOT
TORSDOF 0
ENDMDL
MODEL 3
REMARK VINA RESULT:      -4.6     11.456     11.975
REMARK  0 active torsions:
REMARK  status: ('A' for Active; 'I' for Inactive)
ROOT
HETATM    1  C1  UNL     1     -33.414  17.775  -0.933  1.00 20.00     0.117 A 
HETATM    2  C2  UNL     1     -34.534  17.933  -0.225  1.00 20.00    -0.042 A 
HETATM    3  C3  UNL     1     -32.334  18.400  -0.164  1.00 20.00     0.186 A 
HETATM    4  C4  UNL     1     -35.850  17.450  -0.727  1.00 20.00     0.039 C 
HETATM    5  C5  UNL     1     -34.359  18.633   1.083  1.00 20.00     0.049 A 
HETATM    6  C6  UNL     1     -35.733  17.081  -2.211  1.00 20.00     0.031 C 
HETATM    7  C7  UNL     1     -34.403  16.374  -2.501  1.00 20.00     0.176 C 
HETATM    8  C8  UNL     1     -32.871  19.025   1.106  1.00 20.00     0.062 A 
HETATM    9  C9  UNL     1     -32.141  18.511   2.334  1.00 20.00     0.018 C 
HETATM   10  O10 UNL     1     -31.165  18.408  -0.521  1.00 20.00    -0.290 OA
HETATM   11  O11 UNL     1     -33.254  17.158  -2.136  1.00 20.00    -0.347 OA
ENDROOT
TORSDOF 0
ENDMDL
MODEL 4
REMARK VINA RESULT:      -4.5     11.627     12.606
REMARK  0 active torsions:
REMARK  status: ('A' for Active; 'I' for Inactive)
ROOT
HETATM    1  C1  UNL     1     -33.600  17.124  -3.887  1.00 20.00     0.117 A 
HETATM    2  C2  UNL     1     -34.335  16.260  -3.183  1.00 20.00    -0.042 A 
HETATM    3  C3  UNL     1     -33.378  18.292  -3.030  1.00 20.00     0.186 A 
HETATM    4  C4  UNL     1     -34.786  14.965  -3.761  1.00 20.00     0.039 C 
HETATM    5  C5  UNL     1     -34.666  16.702  -1.795  1.00 20.00     0.049 A 
HETATM    6  C6  UNL     1     -34.557  14.969  -5.278  1.00 20.00     0.031 C 
HETATM    7  C7  UNL     1     -33.223  15.637  -5.633  1.00 20.00     0.176 C 
HETATM    8  C8  UNL     1     -34.082  18.123  -1.700  1.00 20.00     0.062 A 
HETATM    9  C9  UNL     1     -33.124  18.294  -0.534  1.00 20.00     0.018 C 
HETATM   10  O10 UNL     1     -32.716  19.262  -3.364  1.00 20.00    -0.290 OA
HETATM   11  O11 UNL     1     -33.123  16.990  -5.155  1.00 20.00    -0.347 OA
ENDROOT
TORSDOF 0
ENDMDL
MODEL 5
REMARK VINA RESULT:      -4.5     11.430     11.920
REMARK  0 active torsions:
REMARK  status: ('A' for Active; 'I' for Inactive)
ROOT
HETATM    1  C1  UNL     1     -34.724  15.343  -3.860  1.00 20.00     0.117 A 
HETATM    2  C2  UNL     1     -35.909  15.833  -3.489  1.00 20.00    -0.042 A 
HETATM    3  C3  UNL     1     -34.984  14.333  -4.888  1.00 20.00     0.186 A 
HETATM    4  C4  UNL     1     -36.030  16.864  -2.422  1.00 20.00     0.039 C 
HETATM    5  C5  UNL     1     -37.081  15.260  -4.216  1.00 20.00     0.049 A 
HETATM    6  C6  UNL     1     -34.697  16.990  -1.673  1.00 20.00     0.031 C 
HETATM    7  C7  UNL     1     -33.510  16.906  -2.640  1.00 20.00     0.176 C 
HETATM    8  C8  UNL     1     -36.471  14.178  -5.125  1.00 20.00     0.062 A 
HETATM    9  C9  UNL     1     -36.828  14.363  -6.589  1.00 20.00     0.018 C 
HETATM   10  O10 UNL     1     -34.105  13.707  -5.462  1.00 20.00    -0.290 OA
HETATM   11  O11 UNL     1     -33.488  15.687  -3.403  1.00 20.00    -0.347 OA
ENDROOT
TORSDOF 0
ENDMDL
MODEL 6
REMARK VINA RESULT:      -4.3     11.598     12.785
REMARK  0 active torsions:
REMARK  status: ('A' for Active; 'I' for Inactive)
ROOT
HETATM    1  C1  UNL     1     -33.583  16.741  -4.719  1.00 20.00     0.117 A 
HETATM    2  C2  UNL     1     -33.957  16.048  -3.640  1.00 20.00    -0.042 A 
HETATM    3  C3  UNL     1     -33.644  15.821  -5.857  1.00 20.00     0.186 A 
HETATM    4  C4  UNL     1     -33.976  16.663  -2.285  1.00 20.00     0.039 C 
HETATM    5  C5  UNL     1     -34.337  14.629  -3.906  1.00 20.00     0.049 A 
HETATM    6  C6  UNL     1     -33.233  18.004  -2.315  1.00 20.00     0.031 C 
HETATM    7  C7  UNL     1     -33.544  18.779  -3.602  1.00 20.00     0.176 C 
HETATM    8  C8  UNL     1     -34.057  14.436  -5.407  1.00 20.00     0.062 A 
HETATM    9  C9  UNL     1     -35.266  13.934  -6.177  1.00 20.00     0.018 C 
HETATM   10  O10 UNL     1     -33.387  16.147  -7.007  1.00 20.00    -0.290 OA
HETATM   11  O11 UNL     1     -33.212  18.049  -4.795  1.00 20.00    -0.347 OA
ENDROOT
TORSDOF 0
ENDMDL
MODEL 7
REMARK VINA RESULT:      -4.3     11.282     11.918
REMARK  0 active torsions:
REMARK  status: ('A' for Active; 'I' for Inactive)
ROOT
HETATM    1  C1  UNL     1     -35.495  16.746  -2.406  1.00 20.00     0.117 A 
HETATM    2  C2  UNL     1     -34.164  16.704  -2.502  1.00 20.00    -0.042 A 
HETATM    3  C3  UNL     1     -36.028  15.985  -3.538  1.00 20.00     0.186 A 
HETATM    4  C4  UNL     1     -33.287  17.412  -1.530  1.00 20.00     0.039 C 
HETATM    5  C5  UNL     1     -33.642  15.910  -3.655  1.00 20.00     0.049 A 
HETATM    6  C6  UNL     1     -34.127  18.379  -0.686  1.00 20.00     0.031 C 
HETATM    7  C7  UNL     1     -35.477  17.755  -0.312  1.00 20.00     0.176 C 
HETATM    8  C8  UNL     1     -34.906  15.472  -4.416  1.00 20.00     0.062 A 
HETATM    9  C9  UNL     1     -34.990  13.969  -4.612  1.00 20.00     0.018 C 
HETATM   10  O10 UNL     1     -37.221  15.804  -3.732  1.00 20.00    -0.290 OA
HETATM   11  O11 UNL     1     -36.254  17.360  -1.457  1.00 20.00    -0.347 OA
ENDROOT
TORSDOF 0
ENDMDL
MODEL 8
REMARK VINA RESULT:      -4.3     11.234     12.718
REMARK  0 active torsions:
REMARK  status: ('A' for Active; 'I' for Inactive)
ROOT
HETATM    1  C1  UNL     1     -36.961  14.649  -5.122  1.00 20.00     0.117 A 
HETATM    2  C2  UNL     1     -36.546  15.913  -5.239  1.00 20.00    -0.042 A 
HETATM    3  C3  UNL     1     -35.772  13.799  -5.231  1.00 20.00     0.186 A 
HETATM    4  C4  UNL     1     -37.500  17.055  -5.213  1.00 20.00     0.039 C 
HETATM    5  C5  UNL     1     -35.071  16.077  -5.405  1.00 20.00     0.049 A 
HETATM    6  C6  UNL     1     -38.935  16.532  -5.356  1.00 20.00     0.031 C 
HETATM    7  C7  UNL     1     -39.135  15.241  -4.551  1.00 20.00     0.176 C 
HETATM    8  C8  UNL     1     -34.535  14.636  -5.477  1.00 20.00     0.062 A 
HETATM    9  C9  UNL     1     -33.455  14.353  -4.447  1.00 20.00     0.018 C 
HETATM   10  O10 UNL     1     -35.800  12.581  -5.140  1.00 20.00    -0.290 OA
HETATM   11  O11 UNL     1     -38.229  14.191  -4.933  1.00 20.00    -0.347 OA
ENDROOT
TORSDOF 0
ENDMDL
MODEL 9
REMARK VINA RESULT:      -4.2     11.562     11.953
REMARK  0 active torsions:
REMARK  status: ('A' for Active; 'I' for Inactive)
ROOT
HETATM    1  C1  UNL     1     -35.923  15.736  -3.559  1.00 20.00     0.117 A 
HETATM    2  C2  UNL     1     -34.803  15.206  -4.055  1.00 20.00    -0.042 A 
HETATM    3  C3  UNL     1     -35.519  16.694  -2.526  1.00 20.00     0.186 A 
HETATM    4  C4  UNL     1     -34.835  14.155  -5.109  1.00 20.00     0.039 C 
HETATM    5  C5  UNL     1     -33.540  15.740  -3.464  1.00 20.00     0.049 A 
HETATM    6  C6  UNL     1     -36.263  13.613  -5.253  1.00 20.00     0.031 C 
HETATM    7  C7  UNL     1     -37.296  14.742  -5.149  1.00 20.00     0.176 C 
HETATM    8  C8  UNL     1     -34.014  16.705  -2.364  1.00 20.00     0.062 A 
HETATM    9  C9  UNL     1     -33.446  18.105  -2.516  1.00 20.00     0.018 C 
HETATM   10  O10 UNL     1     -36.308  17.376  -1.889  1.00 20.00    -0.290 OA
HETATM   11  O11 UNL     1     -37.211  15.474  -3.914  1.00 20.00    -0.347 OA
ENDROOT
TORSDOF 0
ENDMDL
