MODEL 1
REMARK VINA RESULT:      -4.9      0.000      0.000
REMARK  2 active torsions:
REMARK  status: ('A' for Active; 'I' for Inactive)
REMARK    1  A    between atoms: C3_3  and  C5_5 
REMARK    2  A    between atoms: C3_3  and  O9_9 
ROOT
HETATM    1  C1  UNL     1     -34.452   4.856   5.640  1.00 20.00    -0.002 A 
HETATM    2  C2  UNL     1     -34.502   6.175   5.473  1.00 20.00     0.013 A 
HETATM    3  C4  UNL     1     -34.229   4.194   4.334  1.00 20.00     0.196 A 
HETATM    4  C5  UNL     1     -34.320   6.502   4.040  1.00 20.00     0.244 A 
HETATM    5  O8  UNL     1     -34.171   5.251   3.357  1.00 20.00    -0.368 OA
ENDROOT
BRANCH   4   6
HETATM    6  C3  UNL     1     -33.052   7.272   3.865  1.00 20.00     0.291 C 
HETATM    7  O7  UNL     1     -32.509   7.910   4.757  1.00 20.00    -0.262 OA
BRANCH   6   8
HETATM    8  O9  UNL     1     -32.615   7.147   2.580  1.00 20.00    -0.324 OA
HETATM    9  C6  UNL     1     -32.034   8.324   2.010  1.00 20.00     0.213 C 
ENDBRANCH   6   8
ENDBRANCH   4   6
TORSDOF 2
ENDMDL
MODEL 2
REMARK VINA RESULT:      -4.8      1.102      1.609
REMARK  2 active torsions:
REMARK  status: ('A' for Active; 'I' for Inactive)
REMARK    1  A    between atoms: C3_3  and  C5_5 
REMARK    2  A    between atoms: C3_3  and  O9_9 
ROOT
HETATM    1  C1  UNL     1     -34.080   6.495   6.102  1.00 20.00    -0.002 A 
HETATM    2  C2  UNL     1     -33.727   7.313   5.114  1.00 20.00     0.013 A 
HETATM    3  C4  UNL     1     -34.767   5.306   5.547  1.00 20.00     0.196 A 
HETATM    4  C5  UNL     1     -34.153   6.739   3.817  1.00 20.00     0.244 A 
HETATM    5  O8  UNL     1     -34.811   5.504   4.121  1.00 20.00    -0.368 OA
ENDROOT
BRANCH   4   6
HETATM    6  C3  UNL     1     -32.946   6.424   2.995  1.00 20.00     0.291 C 
HETATM    7  O7  UNL     1     -32.741   5.341   2.465  1.00 20.00    -0.262 OA
BRANCH   6   8
HETATM    8  O9  UNL     1     -32.135   7.518   2.938  1.00 20.00    -0.324 OA
HETATM    9  C6  UNL     1     -32.391   8.418   1.856  1.00 20.00     0.213 C 
ENDBRANCH   6   8
ENDBRANCH   4   6
TORSDOF 2
ENDMDL
MODEL 3
REMARK VINA RESULT:      -4.3      1.067      3.882
REMARK  2 active torsions:
REMARK  status: ('A' for Active; 'I' for Inactive)
REMARK    1  A    between atoms: C3_3  and  C5_5 
REMARK    2  A    between atoms: C3_3  and  O9_9 
ROOT
HETATM    1  C1  UNL     1     -31.844   8.266   2.293  1.00 20.00    -0.002 A 
HETATM    2  C2  UNL     1     -33.071   7.784   2.111  1.00 20.00     0.013 A 
HETATM    3  C4  UNL     1     -31.472   8.163   3.723  1.00 20.00     0.196 A 
HETATM    4  C5  UNL     1     -33.621   7.322   3.407  1.00 20.00     0.244 A 
HETATM    5  O8  UNL     1     -32.613   7.587   4.389  1.00 20.00    -0.368 OA
ENDROOT
BRANCH   4   6
HETATM    6  C3  UNL     1     -33.833   5.844   3.356  1.00 20.00     0.291 C 
HETATM    7  O7  UNL     1     -33.127   5.072   2.721  1.00 20.00    -0.262 OA
BRANCH   6   8
HETATM    8  O9  UNL     1     -34.915   5.512   4.114  1.00 20.00    -0.324 OA
HETATM    9  C6  UNL     1     -34.625   4.816   5.330  1.00 20.00     0.213 C 
ENDBRANCH   6   8
ENDBRANCH   4   6
TORSDOF 2
ENDMDL
MODEL 4
REMARK VINA RESULT:      -4.1     11.456     12.429
REMARK  2 active torsions:
REMARK  status: ('A' for Active; 'I' for Inactive)
REMARK    1  A    between atoms: C3_3  and  C5_5 
REMARK    2  A    between atoms: C3_3  and  O9_9 
ROOT
HETATM    1  C1  UNL     1     -34.063  16.055  -4.347  1.00 20.00    -0.002 A 
HETATM    2  C2  UNL     1     -35.130  15.361  -3.958  1.00 20.00     0.013 A 
HETATM    3  C4  UNL     1     -33.037  15.136  -4.891  1.00 20.00     0.196 A 
HETATM    4  C5  UNL     1     -34.902  13.919  -4.208  1.00 20.00     0.244 A 
HETATM    5  O8  UNL     1     -33.588  13.810  -4.769  1.00 20.00    -0.368 OA
ENDROOT
BRANCH   4   6
HETATM    6  C3  UNL     1     -35.878  13.433  -5.229  1.00 20.00     0.291 C 
HETATM    7  O7  UNL     1     -37.081  13.653  -5.186  1.00 20.00    -0.262 OA
BRANCH   6   8
HETATM    8  O9  UNL     1     -35.219  12.725  -6.189  1.00 20.00    -0.324 OA
HETATM    9  C6  UNL     1     -35.343  13.230  -7.522  1.00 20.00     0.213 C 
ENDBRANCH   6   8
ENDBRANCH   4   6
TORSDOF 2
ENDMDL
MODEL 5
REMARK VINA RESULT:      -4.0      1.062      3.654
REMARK  2 active torsions:
REMARK  status: ('A' for Active; 'I' for Inactive)
REMARK    1  A    between atoms: C3_3  and  C5_5 
REMARK    2  A    between atoms: C3_3  and  O9_9 
ROOT
HETATM    1  C1  UNL     1     -31.713   8.846   2.680  1.00 20.00    -0.002 A 
HETATM    2  C2  UNL     1     -31.701   7.938   3.654  1.00 20.00     0.013 A 
HETATM    3  C4  UNL     1     -32.720   8.473   1.660  1.00 20.00     0.196 A 
HETATM    4  C5  UNL     1     -32.697   6.883   3.362  1.00 20.00     0.244 A 
HETATM    5  O8  UNL     1     -33.300   7.233   2.110  1.00 20.00    -0.368 OA
ENDROOT
BRANCH   4   6
HETATM    6  C3  UNL     1     -33.765   6.908   4.406  1.00 20.00     0.291 C 
HETATM    7  O7  UNL     1     -33.710   7.580   5.427  1.00 20.00    -0.262 OA
BRANCH   6   8
HETATM    8  O9  UNL     1     -34.781   6.077   4.039  1.00 20.00    -0.324 OA
HETATM    9  C6  UNL     1     -34.624   4.706   4.419  1.00 20.00     0.213 C 
ENDBRANCH   6   8
ENDBRANCH   4   6
TORSDOF 2
ENDMDL
MODEL 6
REMARK VINA RESULT:      -3.9      1.721      2.549
REMARK  2 active torsions:
REMARK  status: ('A' for Active; 'I' for Inactive)
REMARK    1  A    between atoms: C3_3  and  C5_5 
REMARK    2  A    between atoms: C3_3  and  O9_9 
ROOT
HETATM    1  C1  UNL     1     -34.365   6.310   3.645  1.00 20.00    -0.002 A 
HETATM    2  C2  UNL     1     -33.466   6.409   2.668  1.00 20.00     0.013 A 
HETATM    3  C4  UNL     1     -33.895   7.057   4.835  1.00 20.00     0.196 A 
HETATM    4  C5  UNL     1     -32.321   7.228   3.128  1.00 20.00     0.244 A 
HETATM    5  O8  UNL     1     -32.608   7.598   4.481  1.00 20.00    -0.368 OA
ENDROOT
BRANCH   4   6
HETATM    6  C3  UNL     1     -32.249   8.479   2.316  1.00 20.00     0.291 C 
HETATM    7  O7  UNL     1     -31.771   9.531   2.719  1.00 20.00    -0.262 OA
BRANCH   6   8
HETATM    8  O9  UNL     1     -32.790   8.256   1.085  1.00 20.00    -0.324 OA
HETATM    9  C6  UNL     1     -32.719   9.356   0.173  1.00 20.00     0.213 C 
ENDBRANCH   6   8
ENDBRANCH   4   6
TORSDOF 2
ENDMDL
MODEL 7
REMARK VINA RESULT:      -3.9     11.971     12.671
REMARK  2 active torsions:
REMARK  status: ('A' for Active; 'I' for Inactive)
REMARK    1  A    between atoms: C3_3  and  C5_5 
REMARK    2  A    between atoms: C3_3  and  O9_9 
ROOT
HETATM    1  C1  UNL     1     -34.864  15.816  -3.104  1.00 20.00    -0.002 A 
HETATM    2  C2  UNL     1     -34.566  14.921  -4.043  1.00 20.00     0.013 A 
HETATM    3  C4  UNL     1     -36.049  16.602  -3.518  1.00 20.00     0.196 A 
HETATM    4  C5  UNL     1     -35.526  15.039  -5.164  1.00 20.00     0.244 A 
HETATM    5  O8  UNL     1     -36.422  16.102  -4.817  1.00 20.00    -0.368 OA
ENDROOT
BRANCH   4   6
HETATM    6  C3  UNL     1     -36.325  13.781  -5.265  1.00 20.00     0.291 C 
HETATM    7  O7  UNL     1     -37.499  13.686  -4.930  1.00 20.00    -0.262 OA
BRANCH   6   8
HETATM    8  O9  UNL     1     -35.548  12.786  -5.778  1.00 20.00    -0.324 OA
HETATM    9  C6  UNL     1     -35.146  12.960  -7.141  1.00 20.00     0.213 C 
ENDBRANCH   6   8
ENDBRANCH   4   6
TORSDOF 2
ENDMDL
MODEL 8
REMARK VINA RESULT:      -3.8     11.955     12.834
REMARK  2 active torsions:
REMARK  status: ('A' for Active; 'I' for Inactive)
REMARK    1  A    between atoms: C3_3  and  C5_5 
REMARK    2  A    between atoms: C3_3  and  O9_9 
ROOT
HETATM    1  C1  UNL     1     -33.405  15.469  -5.662  1.00 20.00    -0.002 A 
HETATM    2  C2  UNL     1     -34.649  15.356  -6.121  1.00 20.00     0.013 A 
HETATM    3  C4  UNL     1     -33.372  15.148  -4.216  1.00 20.00     0.196 A 
HETATM    4  C5  UNL     1     -35.550  14.953  -5.017  1.00 20.00     0.244 A 
HETATM    5  O8  UNL     1     -34.733  14.850  -3.846  1.00 20.00    -0.368 OA
ENDROOT
BRANCH   4   6
HETATM    6  C3  UNL     1     -36.110  13.599  -5.305  1.00 20.00     0.291 C 
HETATM    7  O7  UNL     1     -35.469  12.684  -5.804  1.00 20.00    -0.262 OA
BRANCH   6   8
HETATM    8  O9  UNL     1     -37.420  13.557  -4.929  1.00 20.00    -0.324 OA
HETATM    9  C6  UNL     1     -38.203  14.695  -5.300  1.00 20.00     0.213 C 
ENDBRANCH   6   8
ENDBRANCH   4   6
TORSDOF 2
ENDMDL
MODEL 9
REMARK VINA RESULT:      -3.7      1.756      4.598
REMARK  2 active torsions:
REMARK  status: ('A' for Active; 'I' for Inactive)
REMARK    1  A    between atoms: C3_3  and  C5_5 
REMARK    2  A    between atoms: C3_3  and  O9_9 
ROOT
HETATM    1  C1  UNL     1     -32.788  10.186   0.903  1.00 20.00    -0.002 A 
HETATM    2  C2  UNL     1     -32.611   9.928   2.197  1.00 20.00     0.013 A 
HETATM    3  C4  UNL     1     -32.102   9.157   0.088  1.00 20.00     0.196 A 
HETATM    4  C5  UNL     1     -31.788   8.706   2.351  1.00 20.00     0.244 A 
HETATM    5  O8  UNL     1     -31.473   8.263   1.026  1.00 20.00    -0.368 OA
ENDROOT
BRANCH   4   6
HETATM    6  C3  UNL     1     -32.603   7.641   3.009  1.00 20.00     0.291 C 
HETATM    7  O7  UNL     1     -33.256   6.804   2.401  1.00 20.00    -0.262 OA
BRANCH   6   8
HETATM    8  O9  UNL     1     -32.497   7.757   4.363  1.00 20.00    -0.324 OA
HETATM    9  C6  UNL     1     -33.610   7.257   5.112  1.00 20.00     0.213 C 
ENDBRANCH   6   8
ENDBRANCH   4   6
TORSDOF 2
ENDMDL
