MODEL 1
REMARK VINA RESULT:      -4.3      0.000      0.000
REMARK  1 active torsions:
REMARK  status: ('A' for Active; 'I' for Inactive)
REMARK    1  A    between atoms: C7_7  and  N9_9 
ROOT
HETATM    1  C1  UNL     1     -34.479   5.061   5.776  1.00 20.00     0.004 A 
HETATM    2  C2  UNL     1     -34.094   4.384   4.688  1.00 20.00     0.042 A 
HETATM    3  C3  UNL     1     -34.469   6.494   5.796  1.00 20.00     0.018 A 
HETATM    4  C4  UNL     1     -34.070   7.175   4.716  1.00 20.00     0.097 A 
HETATM    5  C5  UNL     1     -33.641   5.119   3.452  1.00 20.00     0.106 A 
HETATM    6  N9  UNL     1     -33.660   6.529   3.556  1.00 20.00    -0.324 N 
HETATM    7  S10 UNL     1     -33.162   4.233   2.090  1.00 20.00    -0.060 SA
ENDROOT
BRANCH   6   8
HETATM    8  C7  UNL     1     -33.286   7.396   2.552  1.00 20.00     0.093 C 
HETATM    9  C6  UNL     1     -32.183   8.151   2.620  1.00 20.00    -0.013 C 
HETATM   10  C8  UNL     1     -31.244   8.140   3.781  1.00 20.00     0.037 C 
ENDBRANCH   6   8
TORSDOF 1
ENDMDL
MODEL 2
REMARK VINA RESULT:      -4.3      1.038      1.413
REMARK  1 active torsions:
REMARK  status: ('A' for Active; 'I' for Inactive)
REMARK    1  A    between atoms: C7_7  and  N9_9 
ROOT
HETATM    1  C1  UNL     1     -34.682   6.093   5.635  1.00 20.00     0.004 A 
HETATM    2  C2  UNL     1     -34.442   5.415   4.508  1.00 20.00     0.042 A 
HETATM    3  C3  UNL     1     -33.950   7.285   5.950  1.00 20.00     0.018 A 
HETATM    4  C4  UNL     1     -33.011   7.733   5.110  1.00 20.00     0.097 A 
HETATM    5  C5  UNL     1     -33.392   5.892   3.537  1.00 20.00     0.106 A 
HETATM    6  N9  UNL     1     -32.717   7.073   3.924  1.00 20.00    -0.324 N 
HETATM    7  S10 UNL     1     -33.114   5.012   2.117  1.00 20.00    -0.060 SA
ENDROOT
BRANCH   6   8
HETATM    8  C7  UNL     1     -31.722   7.684   3.191  1.00 20.00     0.093 C 
HETATM    9  C6  UNL     1     -31.978   8.523   2.180  1.00 20.00    -0.013 C 
HETATM   10  C8  UNL     1     -33.357   8.886   1.736  1.00 20.00     0.037 C 
ENDBRANCH   6   8
TORSDOF 1
ENDMDL
MODEL 3
REMARK VINA RESULT:      -4.1     12.190     12.817
REMARK  1 active torsions:
REMARK  status: ('A' for Active; 'I' for Inactive)
REMARK    1  A    between atoms: C7_7  and  N9_9 
ROOT
HETATM    1  C1  UNL     1     -34.580  17.466  -0.755  1.00 20.00     0.004 A 
HETATM    2  C2  UNL     1     -35.547  16.910  -1.495  1.00 20.00     0.042 A 
HETATM    3  C3  UNL     1     -33.329  17.848  -1.341  1.00 20.00     0.018 A 
HETATM    4  C4  UNL     1     -33.114  17.649  -2.646  1.00 20.00     0.097 A 
HETATM    5  C5  UNL     1     -35.339  16.673  -2.969  1.00 20.00     0.106 A 
HETATM    6  N9  UNL     1     -34.079  17.076  -3.466  1.00 20.00    -0.324 N 
HETATM    7  S10 UNL     1     -36.583  15.969  -3.878  1.00 20.00    -0.060 SA
ENDROOT
BRANCH   6   8
HETATM    8  C7  UNL     1     -33.675  16.952  -4.778  1.00 20.00     0.093 C 
HETATM    9  C6  UNL     1     -33.149  15.825  -5.271  1.00 20.00    -0.013 C 
HETATM   10  C8  UNL     1     -32.941  14.587  -4.462  1.00 20.00     0.037 C 
ENDBRANCH   6   8
TORSDOF 1
ENDMDL
MODEL 4
REMARK VINA RESULT:      -4.0      1.996      4.006
REMARK  1 active torsions:
REMARK  status: ('A' for Active; 'I' for Inactive)
REMARK    1  A    between atoms: C7_7  and  N9_9 
ROOT
HETATM    1  C1  UNL     1     -31.757   8.136   2.832  1.00 20.00     0.004 A 
HETATM    2  C2  UNL     1     -32.073   8.152   4.132  1.00 20.00     0.042 A 
HETATM    3  C3  UNL     1     -32.553   7.409   1.887  1.00 20.00     0.018 A 
HETATM    4  C4  UNL     1     -33.630   6.733   2.302  1.00 20.00     0.097 A 
HETATM    5  C5  UNL     1     -33.281   7.402   4.634  1.00 20.00     0.106 A 
HETATM    6  N9  UNL     1     -34.009   6.712   3.638  1.00 20.00    -0.324 N 
HETATM    7  S10 UNL     1     -33.656   7.444   6.285  1.00 20.00    -0.060 SA
ENDROOT
BRANCH   6   8
HETATM    8  C7  UNL     1     -35.143   5.963   3.872  1.00 20.00     0.093 C 
HETATM    9  C6  UNL     1     -35.099   4.700   4.311  1.00 20.00    -0.013 C 
HETATM   10  C8  UNL     1     -33.829   3.966   4.594  1.00 20.00     0.037 C 
ENDBRANCH   6   8
TORSDOF 1
ENDMDL
MODEL 5
REMARK VINA RESULT:      -3.9      1.995      2.724
REMARK  1 active torsions:
REMARK  status: ('A' for Active; 'I' for Inactive)
REMARK    1  A    between atoms: C7_7  and  N9_9 
ROOT
HETATM    1  C1  UNL     1     -34.495   4.775   3.860  1.00 20.00     0.004 A 
HETATM    2  C2  UNL     1     -34.507   5.657   4.866  1.00 20.00     0.042 A 
HETATM    3  C3  UNL     1     -33.604   4.935   2.748  1.00 20.00     0.018 A 
HETATM    4  C4  UNL     1     -32.769   5.979   2.706  1.00 20.00     0.097 A 
HETATM    5  C5  UNL     1     -33.578   6.844   4.852  1.00 20.00     0.106 A 
HETATM    6  N9  UNL     1     -32.735   6.928   3.720  1.00 20.00    -0.324 N 
HETATM    7  S10 UNL     1     -33.617   7.942   6.141  1.00 20.00    -0.060 SA
ENDROOT
BRANCH   6   8
HETATM    8  C7  UNL     1     -31.813   7.928   3.500  1.00 20.00     0.093 C 
HETATM    9  C6  UNL     1     -31.866   8.744   2.441  1.00 20.00    -0.013 C 
HETATM   10  C8  UNL     1     -32.922   8.663   1.388  1.00 20.00     0.037 C 
ENDBRANCH   6   8
TORSDOF 1
ENDMDL
MODEL 6
REMARK VINA RESULT:      -3.9     12.082     12.812
REMARK  1 active torsions:
REMARK  status: ('A' for Active; 'I' for Inactive)
REMARK    1  A    between atoms: C7_7  and  N9_9 
ROOT
HETATM    1  C1  UNL     1     -35.042  16.478  -2.962  1.00 20.00     0.004 A 
HETATM    2  C2  UNL     1     -36.315  16.343  -3.349  1.00 20.00     0.042 A 
HETATM    3  C3  UNL     1     -34.028  15.575  -3.426  1.00 20.00     0.018 A 
HETATM    4  C4  UNL     1     -34.352  14.580  -4.259  1.00 20.00     0.097 A 
HETATM    5  C5  UNL     1     -36.714  15.233  -4.288  1.00 20.00     0.106 A 
HETATM    6  N9  UNL     1     -35.656  14.388  -4.696  1.00 20.00    -0.324 N 
HETATM    7  S10 UNL     1     -38.334  15.090  -4.761  1.00 20.00    -0.060 SA
ENDROOT
BRANCH   6   8
HETATM    8  C7  UNL     1     -35.794  13.313  -5.548  1.00 20.00     0.093 C 
HETATM    9  C6  UNL     1     -35.560  13.396  -6.863  1.00 20.00    -0.013 C 
HETATM   10  C8  UNL     1     -35.129  14.650  -7.549  1.00 20.00     0.037 C 
ENDBRANCH   6   8
TORSDOF 1
ENDMDL
MODEL 7
REMARK VINA RESULT:      -3.9     12.283     13.098
REMARK  1 active torsions:
REMARK  status: ('A' for Active; 'I' for Inactive)
REMARK    1  A    between atoms: C7_7  and  N9_9 
ROOT
HETATM    1  C1  UNL     1     -36.564  14.239  -5.820  1.00 20.00     0.004 A 
HETATM    2  C2  UNL     1     -36.518  15.563  -6.009  1.00 20.00     0.042 A 
HETATM    3  C3  UNL     1     -35.664  13.590  -4.912  1.00 20.00     0.018 A 
HETATM    4  C4  UNL     1     -34.760  14.310  -4.239  1.00 20.00     0.097 A 
HETATM    5  C5  UNL     1     -35.514  16.406  -5.265  1.00 20.00     0.106 A 
HETATM    6  N9  UNL     1     -34.664  15.688  -4.392  1.00 20.00    -0.324 N 
HETATM    7  S10 UNL     1     -35.482  18.079  -5.524  1.00 20.00    -0.060 SA
ENDROOT
BRANCH   6   8
HETATM    8  C7  UNL     1     -33.675  16.255  -3.617  1.00 20.00     0.093 C 
HETATM    9  C6  UNL     1     -33.905  16.749  -2.395  1.00 20.00    -0.013 C 
HETATM   10  C8  UNL     1     -35.248  16.743  -1.741  1.00 20.00     0.037 C 
ENDBRANCH   6   8
TORSDOF 1
ENDMDL
MODEL 8
REMARK VINA RESULT:      -3.9     12.309     12.995
REMARK  1 active torsions:
REMARK  status: ('A' for Active; 'I' for Inactive)
REMARK    1  A    between atoms: C7_7  and  N9_9 
ROOT
HETATM    1  C1  UNL     1     -34.265  16.794  -2.067  1.00 20.00     0.004 A 
HETATM    2  C2  UNL     1     -33.525  16.538  -3.151  1.00 20.00     0.042 A 
HETATM    3  C3  UNL     1     -35.697  16.742  -2.119  1.00 20.00     0.018 A 
HETATM    4  C4  UNL     1     -36.312  16.435  -3.266  1.00 20.00     0.097 A 
HETATM    5  C5  UNL     1     -34.186  16.186  -4.460  1.00 20.00     0.106 A 
HETATM    6  N9  UNL     1     -35.599  16.159  -4.426  1.00 20.00    -0.324 N 
HETATM    7  S10 UNL     1     -33.221  15.865  -5.815  1.00 20.00    -0.060 SA
ENDROOT
BRANCH   6   8
HETATM    8  C7  UNL     1     -36.405  15.863  -5.505  1.00 20.00     0.093 C 
HETATM    9  C6  UNL     1     -36.654  14.610  -5.902  1.00 20.00    -0.013 C 
HETATM   10  C8  UNL     1     -36.090  13.402  -5.228  1.00 20.00     0.037 C 
ENDBRANCH   6   8
TORSDOF 1
ENDMDL
MODEL 9
REMARK VINA RESULT:      -3.9     12.449     13.414
REMARK  1 active torsions:
REMARK  status: ('A' for Active; 'I' for Inactive)
REMARK    1  A    between atoms: C7_7  and  N9_9 
ROOT
HETATM    1  C1  UNL     1     -33.277  15.574  -5.962  1.00 20.00     0.004 A 
HETATM    2  C2  UNL     1     -33.877  16.769  -5.981  1.00 20.00     0.042 A 
HETATM    3  C3  UNL     1     -33.504  14.649  -4.890  1.00 20.00     0.018 A 
HETATM    4  C4  UNL     1     -34.327  14.978  -3.889  1.00 20.00     0.097 A 
HETATM    5  C5  UNL     1     -34.812  17.172  -4.869  1.00 20.00     0.106 A 
HETATM    6  N9  UNL     1     -34.979  16.204  -3.852  1.00 20.00    -0.324 N 
HETATM    7  S10 UNL     1     -35.557  18.692  -4.923  1.00 20.00    -0.060 SA
ENDROOT
BRANCH   6   8
HETATM    8  C7  UNL     1     -35.783  16.362  -2.743  1.00 20.00     0.093 C 
HETATM    9  C6  UNL     1     -35.333  16.860  -1.586  1.00 20.00    -0.013 C 
HETATM   10  C8  UNL     1     -33.921  17.297  -1.368  1.00 20.00     0.037 C 
ENDBRANCH   6   8
TORSDOF 1
ENDMDL
