MODEL 1
REMARK VINA RESULT:      -5.6      0.000      0.000
REMARK  0 active torsions:
REMARK  status: ('A' for Active; 'I' for Inactive)
ROOT
HETATM    1  C1  UNL     1     -33.288   5.678   2.811  1.00 20.00     0.082 C 
HETATM    2  C2  UNL     1     -34.070   5.637   3.885  1.00 20.00    -0.050 C 
HETATM    3  C3  UNL     1     -32.804   7.068   2.733  1.00 20.00     0.171 C 
HETATM    4  C4  UNL     1     -34.586   4.505   4.703  1.00 20.00     0.036 C 
HETATM    5  C5  UNL     1     -33.242   7.869   3.938  1.00 20.00     0.094 C 
HETATM    6  C6  UNL     1     -34.804   5.166   6.073  1.00 20.00     0.005 C 
HETATM    7  C7  UNL     1     -34.066   6.513   6.018  1.00 20.00     0.010 C 
HETATM    8  C8  UNL     1     -34.268   6.948   4.578  1.00 20.00     0.023 C 
HETATM    9  O9  UNL     1     -32.097   7.498   1.833  1.00 20.00    -0.291 OA
HETATM   10 CL10 UNL     1     -32.717   4.426   1.844  1.00 20.00    -0.080 Cl
ENDROOT
TORSDOF 0
ENDMDL
MODEL 2
REMARK VINA RESULT:      -5.3      2.253      3.181
REMARK  0 active torsions:
REMARK  status: ('A' for Active; 'I' for Inactive)
ROOT
HETATM    1  C1  UNL     1     -33.065   7.232   4.291  1.00 20.00     0.082 C 
HETATM    2  C2  UNL     1     -33.545   6.166   3.658  1.00 20.00    -0.050 C 
HETATM    3  C3  UNL     1     -33.715   7.225   5.614  1.00 20.00     0.171 C 
HETATM    4  C4  UNL     1     -33.071   5.418   2.460  1.00 20.00     0.036 C 
HETATM    5  C5  UNL     1     -34.545   5.977   5.810  1.00 20.00     0.094 C 
HETATM    6  C6  UNL     1     -33.641   4.012   2.709  1.00 20.00     0.005 C 
HETATM    7  C7  UNL     1     -34.081   3.985   4.181  1.00 20.00     0.010 C 
HETATM    8  C8  UNL     1     -34.588   5.398   4.406  1.00 20.00     0.023 C 
HETATM    9  O9  UNL     1     -33.558   8.095   6.458  1.00 20.00    -0.291 OA
HETATM   10 CL10 UNL     1     -31.811   8.268   3.862  1.00 20.00    -0.080 Cl
ENDROOT
TORSDOF 0
ENDMDL
MODEL 3
REMARK VINA RESULT:      -5.1      1.739      2.243
REMARK  0 active torsions:
REMARK  status: ('A' for Active; 'I' for Inactive)
ROOT
HETATM    1  C1  UNL     1     -32.845   7.329   3.693  1.00 20.00     0.082 C 
HETATM    2  C2  UNL     1     -33.738   6.369   3.907  1.00 20.00    -0.050 C 
HETATM    3  C3  UNL     1     -32.737   8.054   4.973  1.00 20.00     0.171 C 
HETATM    4  C4  UNL     1     -34.053   5.115   3.168  1.00 20.00     0.036 C 
HETATM    5  C5  UNL     1     -33.543   7.374   6.057  1.00 20.00     0.094 C 
HETATM    6  C6  UNL     1     -34.636   4.222   4.275  1.00 20.00     0.005 C 
HETATM    7  C7  UNL     1     -34.279   4.905   5.605  1.00 20.00     0.010 C 
HETATM    8  C8  UNL     1     -34.373   6.380   5.261  1.00 20.00     0.023 C 
HETATM    9  O9  UNL     1     -32.044   9.046   5.142  1.00 20.00    -0.291 OA
HETATM   10 CL10 UNL     1     -31.828   7.585   2.378  1.00 20.00    -0.080 Cl
ENDROOT
TORSDOF 0
ENDMDL
MODEL 4
REMARK VINA RESULT:      -4.9      2.747      4.089
REMARK  0 active torsions:
REMARK  status: ('A' for Active; 'I' for Inactive)
ROOT
HETATM    1  C1  UNL     1     -34.075   6.695   5.284  1.00 20.00     0.082 C 
HETATM    2  C2  UNL     1     -33.820   6.794   3.984  1.00 20.00    -0.050 C 
HETATM    3  C3  UNL     1     -34.571   5.321   5.481  1.00 20.00     0.171 C 
HETATM    4  C4  UNL     1     -33.006   7.761   3.196  1.00 20.00     0.036 C 
HETATM    5  C5  UNL     1     -34.474   4.515   4.205  1.00 20.00     0.094 C 
HETATM    6  C6  UNL     1     -32.606   6.925   1.969  1.00 20.00     0.005 C 
HETATM    7  C7  UNL     1     -32.921   5.465   2.327  1.00 20.00     0.010 C 
HETATM    8  C8  UNL     1     -34.176   5.589   3.172  1.00 20.00     0.023 C 
HETATM    9  O9  UNL     1     -34.961   4.881   6.553  1.00 20.00    -0.291 OA
HETATM   10 CL10 UNL     1     -33.709   7.753   6.539  1.00 20.00    -0.080 Cl
ENDROOT
TORSDOF 0
ENDMDL
MODEL 5
REMARK VINA RESULT:      -4.7      1.550      2.128
REMARK  0 active torsions:
REMARK  status: ('A' for Active; 'I' for Inactive)
ROOT
HETATM    1  C1  UNL     1     -33.903   4.907   3.876  1.00 20.00     0.082 C 
HETATM    2  C2  UNL     1     -34.092   6.032   4.558  1.00 20.00    -0.050 C 
HETATM    3  C3  UNL     1     -33.164   5.305   2.664  1.00 20.00     0.171 C 
HETATM    4  C4  UNL     1     -34.454   6.289   5.980  1.00 20.00     0.036 C 
HETATM    5  C5  UNL     1     -32.781   6.767   2.712  1.00 20.00     0.094 C 
HETATM    6  C6  UNL     1     -33.845   7.679   6.224  1.00 20.00     0.005 C 
HETATM    7  C7  UNL     1     -32.891   7.939   5.048  1.00 20.00     0.010 C 
HETATM    8  C8  UNL     1     -33.605   7.274   3.884  1.00 20.00     0.023 C 
HETATM    9  O9  UNL     1     -32.859   4.536   1.765  1.00 20.00    -0.291 OA
HETATM   10 CL10 UNL     1     -34.181   3.311   4.328  1.00 20.00    -0.080 Cl
ENDROOT
TORSDOF 0
ENDMDL
MODEL 6
REMARK VINA RESULT:      -4.7      1.938      2.473
REMARK  0 active torsions:
REMARK  status: ('A' for Active; 'I' for Inactive)
ROOT
HETATM    1  C1  UNL     1     -32.443   7.790   3.841  1.00 20.00     0.082 C 
HETATM    2  C2  UNL     1     -33.148   6.824   4.420  1.00 20.00    -0.050 C 
HETATM    3  C3  UNL     1     -32.611   7.581   2.391  1.00 20.00     0.171 C 
HETATM    4  C4  UNL     1     -33.667   6.660   5.806  1.00 20.00     0.036 C 
HETATM    5  C5  UNL     1     -33.601   6.474   2.109  1.00 20.00     0.094 C 
HETATM    6  C6  UNL     1     -34.887   5.749   5.591  1.00 20.00     0.005 C 
HETATM    7  C7  UNL     1     -35.167   5.763   4.080  1.00 20.00     0.010 C 
HETATM    8  C8  UNL     1     -33.775   5.843   3.481  1.00 20.00     0.023 C 
HETATM    9  O9  UNL     1     -32.056   8.251   1.534  1.00 20.00    -0.291 OA
HETATM   10 CL10 UNL     1     -31.703   9.140   4.518  1.00 20.00    -0.080 Cl
ENDROOT
TORSDOF 0
ENDMDL
MODEL 7
REMARK VINA RESULT:      -4.6     11.827     12.614
REMARK  0 active torsions:
REMARK  status: ('A' for Active; 'I' for Inactive)
ROOT
HETATM    1  C1  UNL     1     -36.807  14.789  -4.720  1.00 20.00     0.082 C 
HETATM    2  C2  UNL     1     -36.251  15.857  -4.157  1.00 20.00    -0.050 C 
HETATM    3  C3  UNL     1     -35.726  13.790  -4.812  1.00 20.00     0.171 C 
HETATM    4  C4  UNL     1     -36.837  17.053  -3.488  1.00 20.00     0.036 C 
HETATM    5  C5  UNL     1     -34.470  14.278  -4.127  1.00 20.00     0.094 C 
HETATM    6  C6  UNL     1     -35.710  17.474  -2.531  1.00 20.00     0.005 C 
HETATM    7  C7  UNL     1     -34.732  16.290  -2.476  1.00 20.00     0.010 C 
HETATM    8  C8  UNL     1     -34.783  15.747  -3.893  1.00 20.00     0.023 C 
HETATM    9  O9  UNL     1     -35.852  12.692  -5.332  1.00 20.00    -0.291 OA
HETATM   10 CL10 UNL     1     -38.422  14.463  -5.054  1.00 20.00    -0.080 Cl
ENDROOT
TORSDOF 0
ENDMDL
MODEL 8
REMARK VINA RESULT:      -4.5      2.363      3.783
REMARK  0 active torsions:
REMARK  status: ('A' for Active; 'I' for Inactive)
ROOT
HETATM    1  C1  UNL     1     -33.854   6.708   3.943  1.00 20.00     0.082 C 
HETATM    2  C2  UNL     1     -32.919   7.168   3.118  1.00 20.00    -0.050 C 
HETATM    3  C3  UNL     1     -33.541   7.300   5.257  1.00 20.00     0.171 C 
HETATM    4  C4  UNL     1     -32.843   7.235   1.632  1.00 20.00     0.036 C 
HETATM    5  C5  UNL     1     -32.400   8.288   5.154  1.00 20.00     0.094 C 
HETATM    6  C6  UNL     1     -31.900   8.427   1.408  1.00 20.00     0.005 C 
HETATM    7  C7  UNL     1     -31.803   9.153   2.759  1.00 20.00     0.010 C 
HETATM    8  C8  UNL     1     -31.864   8.013   3.759  1.00 20.00     0.023 C 
HETATM    9  O9  UNL     1     -34.159   7.058   6.282  1.00 20.00    -0.291 OA
HETATM   10 CL10 UNL     1     -35.261   5.849   3.610  1.00 20.00    -0.080 Cl
ENDROOT
TORSDOF 0
ENDMDL
MODEL 9
REMARK VINA RESULT:      -4.4     12.363     12.942
REMARK  0 active torsions:
REMARK  status: ('A' for Active; 'I' for Inactive)
ROOT
HETATM    1  C1  UNL     1     -33.427  18.523   1.011  1.00 20.00     0.082 C 
HETATM    2  C2  UNL     1     -33.728  18.271  -0.258  1.00 20.00    -0.050 C 
HETATM    3  C3  UNL     1     -34.687  18.343   1.754  1.00 20.00     0.171 C 
HETATM    4  C4  UNL     1     -32.881  17.949  -1.441  1.00 20.00     0.036 C 
HETATM    5  C5  UNL     1     -35.783  17.817   0.855  1.00 20.00     0.094 C 
HETATM    6  C6  UNL     1     -33.848  17.143  -2.323  1.00 20.00     0.005 C 
HETATM    7  C7  UNL     1     -35.036  16.772  -1.424  1.00 20.00     0.010 C 
HETATM    8  C8  UNL     1     -35.172  17.988  -0.526  1.00 20.00     0.023 C 
HETATM    9  O9  UNL     1     -34.811  18.547   2.953  1.00 20.00    -0.291 OA
HETATM   10 CL10 UNL     1     -31.929  18.755   1.740  1.00 20.00    -0.080 Cl
ENDROOT
TORSDOF 0
ENDMDL
