MODEL 1
REMARK VINA RESULT:      -4.0      0.000      0.000
REMARK  1 active torsions:
REMARK  status: ('A' for Active; 'I' for Inactive)
REMARK    1  A    between atoms: C4_4  and  C7_7 
ROOT
HETATM    1  C1  UNL     1     -34.927  13.913  -6.038  1.00 20.00     0.075 C 
HETATM    2  C2  UNL     1     -35.813  16.191  -5.577  1.00 20.00     0.105 C 
HETATM    3  C3  UNL     1     -34.580  15.308  -5.723  1.00 20.00     0.164 C 
HETATM    4  C4  UNL     1     -35.005  15.769  -3.038  1.00 20.00     0.113 C 
HETATM    5  N8  UNL     1     -35.200  12.813  -6.286  1.00 20.00    -0.196 NA
HETATM    6  S9  UNL     1     -36.567  15.852  -3.963  1.00 20.00    -0.151 SA
HETATM    7  S10 UNL     1     -33.622  15.417  -4.177  1.00 20.00    -0.133 SA
ENDROOT
BRANCH   4   8
HETATM    8  C7  UNL     1     -34.753  17.090  -2.321  1.00 20.00     0.001 C 
HETATM    9  C5  UNL     1     -35.428  17.098  -0.951  1.00 20.00     0.011 C 
HETATM   10  C6  UNL     1     -33.254  17.349  -2.179  1.00 20.00     0.011 C 
ENDBRANCH   4   8
TORSDOF 1
ENDMDL
MODEL 2
REMARK VINA RESULT:      -4.0     11.733     12.406
REMARK  1 active torsions:
REMARK  status: ('A' for Active; 'I' for Inactive)
REMARK    1  A    between atoms: C4_4  and  C7_7 
ROOT
HETATM    1  C1  UNL     1     -32.435   8.322   1.946  1.00 20.00     0.075 C 
HETATM    2  C2  UNL     1     -32.456   7.552   4.311  1.00 20.00     0.105 C 
HETATM    3  C3  UNL     1     -32.211   7.185   2.853  1.00 20.00     0.164 C 
HETATM    4  C4  UNL     1     -34.644   6.136   3.616  1.00 20.00     0.113 C 
HETATM    5  N8  UNL     1     -32.611   9.218   1.231  1.00 20.00    -0.196 NA
HETATM    6  S9  UNL     1     -34.246   7.620   4.588  1.00 20.00    -0.151 SA
HETATM    7  S10 UNL     1     -33.298   5.783   2.434  1.00 20.00    -0.133 SA
ENDROOT
BRANCH   4   8
HETATM    8  C7  UNL     1     -34.835   4.942   4.543  1.00 20.00     0.001 C 
HETATM    9  C5  UNL     1     -33.895   3.801   4.156  1.00 20.00     0.011 C 
HETATM   10  C6  UNL     1     -34.611   5.348   5.999  1.00 20.00     0.011 C 
ENDBRANCH   4   8
TORSDOF 1
ENDMDL
MODEL 3
REMARK VINA RESULT:      -3.9      1.080      1.088
REMARK  1 active torsions:
REMARK  status: ('A' for Active; 'I' for Inactive)
REMARK    1  A    between atoms: C4_4  and  C7_7 
ROOT
HETATM    1  C1  UNL     1     -35.427  13.845  -5.363  1.00 20.00     0.075 C 
HETATM    2  C2  UNL     1     -35.913  16.282  -5.270  1.00 20.00     0.105 C 
HETATM    3  C3  UNL     1     -34.870  15.199  -5.511  1.00 20.00     0.164 C 
HETATM    4  C4  UNL     1     -34.436  16.283  -3.014  1.00 20.00     0.113 C 
HETATM    5  N8  UNL     1     -35.865  12.777  -5.247  1.00 20.00    -0.196 NA
HETATM    6  S9  UNL     1     -36.186  16.422  -3.484  1.00 20.00    -0.151 SA
HETATM    7  S10 UNL     1     -33.491  15.476  -4.352  1.00 20.00    -0.133 SA
ENDROOT
BRANCH   4   8
HETATM    8  C7  UNL     1     -33.858  17.667  -2.744  1.00 20.00     0.001 C 
HETATM    9  C5  UNL     1     -34.964  18.720  -2.724  1.00 20.00     0.011 C 
HETATM   10  C6  UNL     1     -33.083  17.681  -1.427  1.00 20.00     0.011 C 
ENDBRANCH   4   8
TORSDOF 1
ENDMDL
MODEL 4
REMARK VINA RESULT:      -3.8      0.857      1.381
REMARK  1 active torsions:
REMARK  status: ('A' for Active; 'I' for Inactive)
REMARK    1  A    between atoms: C4_4  and  C7_7 
ROOT
HETATM    1  C1  UNL     1     -34.621  13.897  -6.695  1.00 20.00     0.075 C 
HETATM    2  C2  UNL     1     -35.476  16.077  -5.855  1.00 20.00     0.105 C 
HETATM    3  C3  UNL     1     -34.258  15.252  -6.249  1.00 20.00     0.164 C 
HETATM    4  C4  UNL     1     -34.375  15.367  -3.496  1.00 20.00     0.113 C 
HETATM    5  N8  UNL     1     -34.906  12.830  -7.047  1.00 20.00    -0.196 NA
HETATM    6  S9  UNL     1     -36.035  15.521  -4.222  1.00 20.00    -0.151 SA
HETATM    7  S10 UNL     1     -33.128  15.195  -4.819  1.00 20.00    -0.133 SA
ENDROOT
BRANCH   4   8
HETATM    8  C7  UNL     1     -34.059  16.596  -2.653  1.00 20.00     0.001 C 
HETATM    9  C5  UNL     1     -33.679  17.778  -3.543  1.00 20.00     0.011 C 
HETATM   10  C6  UNL     1     -35.246  16.958  -1.761  1.00 20.00     0.011 C 
ENDBRANCH   4   8
TORSDOF 1
ENDMDL
MODEL 5
REMARK VINA RESULT:      -3.8      1.378      2.307
REMARK  1 active torsions:
REMARK  status: ('A' for Active; 'I' for Inactive)
REMARK    1  A    between atoms: C4_4  and  C7_7 
ROOT
HETATM    1  C1  UNL     1     -36.099  14.974  -6.032  1.00 20.00     0.075 C 
HETATM    2  C2  UNL     1     -34.641  14.132  -4.201  1.00 20.00     0.105 C 
HETATM    3  C3  UNL     1     -35.980  14.750  -4.583  1.00 20.00     0.164 C 
HETATM    4  C4  UNL     1     -34.396  16.721  -3.484  1.00 20.00     0.113 C 
HETATM    5  N8  UNL     1     -36.194  15.149  -7.175  1.00 20.00    -0.196 NA
HETATM    6  S9  UNL     1     -33.378  15.431  -4.261  1.00 20.00    -0.151 SA
HETATM    7  S10 UNL     1     -36.166  16.310  -3.657  1.00 20.00    -0.133 SA
ENDROOT
BRANCH   4   8
HETATM    8  C7  UNL     1     -34.042  16.845  -2.007  1.00 20.00     0.001 C 
HETATM    9  C5  UNL     1     -33.110  18.033  -1.772  1.00 20.00     0.011 C 
HETATM   10  C6  UNL     1     -35.306  16.981  -1.159  1.00 20.00     0.011 C 
ENDBRANCH   4   8
TORSDOF 1
ENDMDL
MODEL 6
REMARK VINA RESULT:      -3.7      1.831      2.358
REMARK  1 active torsions:
REMARK  status: ('A' for Active; 'I' for Inactive)
REMARK    1  A    between atoms: C4_4  and  C7_7 
ROOT
HETATM    1  C1  UNL     1     -35.199  13.700  -4.716  1.00 20.00     0.075 C 
HETATM    2  C2  UNL     1     -33.183  15.149  -4.860  1.00 20.00     0.105 C 
HETATM    3  C3  UNL     1     -34.258  14.546  -3.965  1.00 20.00     0.164 C 
HETATM    4  C4  UNL     1     -34.874  17.199  -4.397  1.00 20.00     0.113 C 
HETATM    5  N8  UNL     1     -35.941  13.033  -5.307  1.00 20.00    -0.196 NA
HETATM    6  S9  UNL     1     -33.919  16.522  -5.787  1.00 20.00    -0.151 SA
HETATM    7  S10 UNL     1     -35.125  15.913  -3.126  1.00 20.00    -0.133 SA
ENDROOT
BRANCH   4   8
HETATM    8  C7  UNL     1     -34.137  18.384  -3.786  1.00 20.00     0.001 C 
HETATM    9  C5  UNL     1     -33.346  17.950  -2.552  1.00 20.00     0.011 C 
HETATM   10  C6  UNL     1     -33.209  19.031  -4.813  1.00 20.00     0.011 C 
ENDBRANCH   4   8
TORSDOF 1
ENDMDL
MODEL 7
REMARK VINA RESULT:      -3.5      2.531      4.653
REMARK  1 active torsions:
REMARK  status: ('A' for Active; 'I' for Inactive)
REMARK    1  A    between atoms: C4_4  and  C7_7 
ROOT
HETATM    1  C1  UNL     1     -33.678  16.229  -3.107  1.00 20.00     0.075 C 
HETATM    2  C2  UNL     1     -34.609  14.225  -4.248  1.00 20.00     0.105 C 
HETATM    3  C3  UNL     1     -33.494  15.261  -4.200  1.00 20.00     0.164 C 
HETATM    4  C4  UNL     1     -35.189  15.903  -6.278  1.00 20.00     0.113 C 
HETATM    5  N8  UNL     1     -33.821  16.992  -2.245  1.00 20.00    -0.196 NA
HETATM    6  S9  UNL     1     -36.077  15.002  -4.973  1.00 20.00    -0.151 SA
HETATM    7  S10 UNL     1     -33.433  16.098  -5.819  1.00 20.00    -0.133 SA
ENDROOT
BRANCH   4   8
HETATM    8  C7  UNL     1     -35.291  15.146  -7.597  1.00 20.00     0.001 C 
HETATM    9  C5  UNL     1     -33.973  14.442  -7.918  1.00 20.00     0.011 C 
HETATM   10  C6  UNL     1     -36.438  14.137  -7.553  1.00 20.00     0.011 C 
ENDBRANCH   4   8
TORSDOF 1
ENDMDL
MODEL 8
REMARK VINA RESULT:      -3.5      1.913      2.517
REMARK  1 active torsions:
REMARK  status: ('A' for Active; 'I' for Inactive)
REMARK    1  A    between atoms: C4_4  and  C7_7 
ROOT
HETATM    1  C1  UNL     1     -36.024  13.991  -5.203  1.00 20.00     0.075 C 
HETATM    2  C2  UNL     1     -36.089  15.986  -3.718  1.00 20.00     0.105 C 
HETATM    3  C3  UNL     1     -36.197  15.451  -5.141  1.00 20.00     0.164 C 
HETATM    4  C4  UNL     1     -33.731  16.649  -4.847  1.00 20.00     0.113 C 
HETATM    5  N8  UNL     1     -35.888  12.841  -5.253  1.00 20.00    -0.196 NA
HETATM    6  S9  UNL     1     -34.337  16.018  -3.254  1.00 20.00    -0.151 SA
HETATM    7  S10 UNL     1     -34.952  16.308  -6.160  1.00 20.00    -0.133 SA
ENDROOT
BRANCH   4   8
HETATM    8  C7  UNL     1     -33.487  18.151  -4.754  1.00 20.00     0.001 C 
HETATM    9  C5  UNL     1     -34.606  18.923  -5.450  1.00 20.00     0.011 C 
HETATM   10  C6  UNL     1     -33.365  18.588  -3.295  1.00 20.00     0.011 C 
ENDBRANCH   4   8
TORSDOF 1
ENDMDL
MODEL 9
REMARK VINA RESULT:      -3.5      2.557      4.488
REMARK  1 active torsions:
REMARK  status: ('A' for Active; 'I' for Inactive)
REMARK    1  A    between atoms: C4_4  and  C7_7 
ROOT
HETATM    1  C1  UNL     1     -34.200  16.682  -2.344  1.00 20.00     0.075 C 
HETATM    2  C2  UNL     1     -35.535  16.829  -4.437  1.00 20.00     0.105 C 
HETATM    3  C3  UNL     1     -34.872  15.921  -3.409  1.00 20.00     0.164 C 
HETATM    4  C4  UNL     1     -33.306  15.952  -5.678  1.00 20.00     0.113 C 
HETATM    5  N8  UNL     1     -33.670  17.281  -1.504  1.00 20.00    -0.196 NA
HETATM    6  S9  UNL     1     -34.245  17.501  -5.518  1.00 20.00    -0.151 SA
HETATM    7  S10 UNL     1     -33.699  14.837  -4.287  1.00 20.00    -0.133 SA
ENDROOT
BRANCH   4   8
HETATM    8  C7  UNL     1     -33.652  15.268  -6.995  1.00 20.00     0.001 C 
HETATM    9  C5  UNL     1     -34.467  13.999  -6.747  1.00 20.00     0.011 C 
HETATM   10  C6  UNL     1     -34.413  16.220  -7.916  1.00 20.00     0.011 C 
ENDBRANCH   4   8
TORSDOF 1
ENDMDL
