MODEL 1
REMARK VINA RESULT:      -4.9      0.000      0.000
REMARK  1 active torsions:
REMARK  status: ('A' for Active; 'I' for Inactive)
REMARK    1  A    between atoms: C8_8  and  C11_11 
ROOT
HETATM    1  C1  UNL     1     -35.907  13.840  -4.957  1.00 20.00     0.131 C 
HETATM    2  C2  UNL     1     -37.157  14.634  -4.691  1.00 20.00     0.079 C 
HETATM    3  C3  UNL     1     -36.656  16.063  -4.864  1.00 20.00     0.018 C 
HETATM    4  C4  UNL     1     -33.284  16.275  -5.891  1.00 20.00     0.002 C 
HETATM    5  C5  UNL     1     -33.936  14.922  -6.117  1.00 20.00     0.013 C 
HETATM    6  C6  UNL     1     -34.323  17.087  -5.122  1.00 20.00     0.011 C 
HETATM    7  C7  UNL     1     -34.656  14.670  -4.803  1.00 20.00     0.064 C 
HETATM    8  C8  UNL     1     -35.193  16.055  -4.375  1.00 20.00    -0.027 C 
HETATM    9  O12 UNL     1     -35.905  12.650  -5.246  1.00 20.00    -0.298 OA
ENDROOT
BRANCH   8  10
HETATM   10  C11 UNL     1     -35.117  16.249  -2.857  1.00 20.00    -0.013 C 
HETATM   11  C9  UNL     1     -33.723  16.716  -2.450  1.00 20.00     0.010 C 
HETATM   12  C10 UNL     1     -36.178  17.243  -2.395  1.00 20.00     0.010 C 
ENDBRANCH   8  10
TORSDOF 1
ENDMDL
MODEL 2
REMARK VINA RESULT:      -4.8      1.413      2.178
REMARK  1 active torsions:
REMARK  status: ('A' for Active; 'I' for Inactive)
REMARK    1  A    between atoms: C8_8  and  C11_11 
ROOT
HETATM    1  C1  UNL     1     -37.141  14.461  -5.019  1.00 20.00     0.131 C 
HETATM    2  C2  UNL     1     -37.059  15.883  -4.534  1.00 20.00     0.079 C 
HETATM    3  C3  UNL     1     -35.779  16.364  -5.206  1.00 20.00     0.018 C 
HETATM    4  C4  UNL     1     -34.317  13.975  -7.357  1.00 20.00     0.002 C 
HETATM    5  C5  UNL     1     -35.773  13.716  -7.012  1.00 20.00     0.013 C 
HETATM    6  C6  UNL     1     -33.916  15.168  -6.493  1.00 20.00     0.011 C 
HETATM    7  C7  UNL     1     -35.811  13.945  -5.511  1.00 20.00     0.064 C 
HETATM    8  C8  UNL     1     -34.852  15.132  -5.267  1.00 20.00    -0.027 C 
HETATM    9  O12 UNL     1     -38.167  13.792  -4.996  1.00 20.00    -0.298 OA
ENDROOT
BRANCH   8  10
HETATM   10  C11 UNL     1     -34.065  14.968  -3.963  1.00 20.00    -0.013 C 
HETATM   11  C9  UNL     1     -32.779  14.186  -4.214  1.00 20.00     0.010 C 
HETATM   12  C10 UNL     1     -33.758  16.332  -3.353  1.00 20.00     0.010 C 
ENDBRANCH   8  10
TORSDOF 1
ENDMDL
MODEL 3
REMARK VINA RESULT:      -4.7      1.467      2.947
REMARK  1 active torsions:
REMARK  status: ('A' for Active; 'I' for Inactive)
REMARK    1  A    between atoms: C8_8  and  C11_11 
ROOT
HETATM    1  C1  UNL     1     -35.411  13.641  -5.739  1.00 20.00     0.131 C 
HETATM    2  C2  UNL     1     -34.829  13.674  -7.126  1.00 20.00     0.079 C 
HETATM    3  C3  UNL     1     -33.860  14.846  -7.026  1.00 20.00     0.018 C 
HETATM    4  C4  UNL     1     -33.649  16.246  -3.791  1.00 20.00     0.002 C 
HETATM    5  C5  UNL     1     -34.251  14.852  -3.845  1.00 20.00     0.013 C 
HETATM    6  C6  UNL     1     -33.462  16.648  -5.252  1.00 20.00     0.011 C 
HETATM    7  C7  UNL     1     -35.224  14.948  -5.008  1.00 20.00     0.064 C 
HETATM    8  C8  UNL     1     -34.512  15.844  -6.047  1.00 20.00    -0.027 C 
HETATM    9  O12 UNL     1     -35.989  12.671  -5.266  1.00 20.00    -0.298 OA
ENDROOT
BRANCH   8  10
HETATM   10  C11 UNL     1     -35.497  16.766  -6.772  1.00 20.00    -0.013 C 
HETATM   11  C9  UNL     1     -36.633  17.170  -5.837  1.00 20.00     0.010 C 
HETATM   12  C10 UNL     1     -34.774  17.997  -7.309  1.00 20.00     0.010 C 
ENDBRANCH   8  10
TORSDOF 1
ENDMDL
MODEL 4
REMARK VINA RESULT:      -4.6      1.940      2.806
REMARK  1 active torsions:
REMARK  status: ('A' for Active; 'I' for Inactive)
REMARK    1  A    between atoms: C8_8  and  C11_11 
ROOT
HETATM    1  C1  UNL     1     -33.368  15.834  -4.630  1.00 20.00     0.131 C 
HETATM    2  C2  UNL     1     -34.316  14.829  -4.035  1.00 20.00     0.079 C 
HETATM    3  C3  UNL     1     -35.438  15.726  -3.528  1.00 20.00     0.018 C 
HETATM    4  C4  UNL     1     -35.001  19.139  -4.324  1.00 20.00     0.002 C 
HETATM    5  C5  UNL     1     -34.164  18.178  -5.150  1.00 20.00     0.013 C 
HETATM    6  C6  UNL     1     -35.678  18.262  -3.273  1.00 20.00     0.011 C 
HETATM    7  C7  UNL     1     -33.607  17.228  -4.104  1.00 20.00     0.064 C 
HETATM    8  C8  UNL     1     -34.757  17.039  -3.089  1.00 20.00    -0.027 C 
HETATM    9  O12 UNL     1     -32.489  15.549  -5.434  1.00 20.00    -0.298 OA
ENDROOT
BRANCH   8  10
HETATM   10  C11 UNL     1     -34.236  16.937  -1.653  1.00 20.00    -0.013 C 
HETATM   11  C9  UNL     1     -33.035  17.858  -1.457  1.00 20.00     0.010 C 
HETATM   12  C10 UNL     1     -35.344  17.276  -0.660  1.00 20.00     0.010 C 
ENDBRANCH   8  10
TORSDOF 1
ENDMDL
MODEL 5
REMARK VINA RESULT:      -4.6      2.247      3.994
REMARK  1 active torsions:
REMARK  status: ('A' for Active; 'I' for Inactive)
REMARK    1  A    between atoms: C8_8  and  C11_11 
ROOT
HETATM    1  C1  UNL     1     -35.078  16.903  -1.420  1.00 20.00     0.131 C 
HETATM    2  C2  UNL     1     -33.663  17.402  -1.535  1.00 20.00     0.079 C 
HETATM    3  C3  UNL     1     -33.572  17.733  -3.020  1.00 20.00     0.018 C 
HETATM    4  C4  UNL     1     -36.610  17.291  -4.764  1.00 20.00     0.002 C 
HETATM    5  C5  UNL     1     -36.749  17.390  -3.255  1.00 20.00     0.013 C 
HETATM    6  C6  UNL     1     -35.105  17.271  -5.018  1.00 20.00     0.011 C 
HETATM    7  C7  UNL     1     -35.644  16.477  -2.752  1.00 20.00     0.064 C 
HETATM    8  C8  UNL     1     -34.470  16.700  -3.732  1.00 20.00    -0.027 C 
HETATM    9  O12 UNL     1     -35.691  16.831  -0.363  1.00 20.00    -0.298 OA
ENDROOT
BRANCH   8  10
HETATM   10  C11 UNL     1     -33.707  15.402  -4.009  1.00 20.00    -0.013 C 
HETATM   11  C9  UNL     1     -34.672  14.223  -4.079  1.00 20.00     0.010 C 
HETATM   12  C10 UNL     1     -32.906  15.522  -5.302  1.00 20.00     0.010 C 
ENDBRANCH   8  10
TORSDOF 1
ENDMDL
MODEL 6
REMARK VINA RESULT:      -4.5      1.468      2.016
REMARK  1 active torsions:
REMARK  status: ('A' for Active; 'I' for Inactive)
REMARK    1  A    between atoms: C8_8  and  C11_11 
ROOT
HETATM    1  C1  UNL     1     -36.943  15.481  -4.351  1.00 20.00     0.131 C 
HETATM    2  C2  UNL     1     -37.016  16.810  -5.054  1.00 20.00     0.079 C 
HETATM    3  C3  UNL     1     -35.543  17.102  -5.313  1.00 20.00     0.018 C 
HETATM    4  C4  UNL     1     -33.378  14.495  -4.317  1.00 20.00     0.002 C 
HETATM    5  C5  UNL     1     -34.834  14.091  -4.475  1.00 20.00     0.013 C 
HETATM    6  C6  UNL     1     -33.370  16.009  -4.514  1.00 20.00     0.011 C 
HETATM    7  C7  UNL     1     -35.576  15.213  -3.771  1.00 20.00     0.064 C 
HETATM    8  C8  UNL     1     -34.780  16.492  -4.118  1.00 20.00    -0.027 C 
HETATM    9  O12 UNL     1     -37.892  14.715  -4.243  1.00 20.00    -0.298 OA
ENDROOT
BRANCH   8  10
HETATM   10  C11 UNL     1     -34.731  17.468  -2.939  1.00 20.00    -0.013 C 
HETATM   11  C9  UNL     1     -35.078  16.749  -1.639  1.00 20.00     0.010 C 
HETATM   12  C10 UNL     1     -33.354  18.119  -2.845  1.00 20.00     0.010 C 
ENDBRANCH   8  10
TORSDOF 1
ENDMDL
MODEL 7
REMARK VINA RESULT:      -4.5      1.607      3.386
REMARK  1 active torsions:
REMARK  status: ('A' for Active; 'I' for Inactive)
REMARK    1  A    between atoms: C8_8  and  C11_11 
ROOT
HETATM    1  C1  UNL     1     -37.155  15.501  -4.566  1.00 20.00     0.131 C 
HETATM    2  C2  UNL     1     -37.309  14.127  -5.160  1.00 20.00     0.079 C 
HETATM    3  C3  UNL     1     -35.889  13.585  -5.053  1.00 20.00     0.018 C 
HETATM    4  C4  UNL     1     -33.650  15.770  -3.415  1.00 20.00     0.002 C 
HETATM    5  C5  UNL     1     -35.121  16.062  -3.172  1.00 20.00     0.013 C 
HETATM    6  C6  UNL     1     -33.641  14.657  -4.459  1.00 20.00     0.011 C 
HETATM    7  C7  UNL     1     -35.720  15.967  -4.564  1.00 20.00     0.064 C 
HETATM    8  C8  UNL     1     -34.962  14.804  -5.242  1.00 20.00    -0.027 C 
HETATM    9  O12 UNL     1     -38.092  16.172  -4.151  1.00 20.00    -0.298 OA
ENDROOT
BRANCH   8  10
HETATM   10  C11 UNL     1     -34.709  15.080  -6.727  1.00 20.00    -0.013 C 
HETATM   11  C9  UNL     1     -33.634  16.150  -6.893  1.00 20.00     0.010 C 
HETATM   12  C10 UNL     1     -34.308  13.795  -7.446  1.00 20.00     0.010 C 
ENDBRANCH   8  10
TORSDOF 1
ENDMDL
MODEL 8
REMARK VINA RESULT:      -4.4      1.203      3.030
REMARK  1 active torsions:
REMARK  status: ('A' for Active; 'I' for Inactive)
REMARK    1  A    between atoms: C8_8  and  C11_11 
ROOT
HETATM    1  C1  UNL     1     -35.545  13.812  -4.896  1.00 20.00     0.131 C 
HETATM    2  C2  UNL     1     -34.278  14.107  -4.139  1.00 20.00     0.079 C 
HETATM    3  C3  UNL     1     -34.572  15.491  -3.574  1.00 20.00     0.018 C 
HETATM    4  C4  UNL     1     -37.830  16.655  -4.282  1.00 20.00     0.002 C 
HETATM    5  C5  UNL     1     -37.639  15.157  -4.442  1.00 20.00     0.013 C 
HETATM    6  C6  UNL     1     -36.433  17.199  -3.992  1.00 20.00     0.011 C 
HETATM    7  C7  UNL     1     -36.330  15.063  -5.208  1.00 20.00     0.064 C 
HETATM    8  C8  UNL     1     -35.451  16.194  -4.629  1.00 20.00    -0.027 C 
HETATM    9  O12 UNL     1     -35.888  12.688  -5.238  1.00 20.00    -0.298 OA
ENDROOT
BRANCH   8  10
HETATM   10  C11 UNL     1     -34.592  16.856  -5.711  1.00 20.00    -0.013 C 
HETATM   11  C9  UNL     1     -35.313  16.823  -7.055  1.00 20.00     0.010 C 
HETATM   12  C10 UNL     1     -34.250  18.289  -5.316  1.00 20.00     0.010 C 
ENDBRANCH   8  10
TORSDOF 1
ENDMDL
MODEL 9
REMARK VINA RESULT:      -4.4     10.692     11.682
REMARK  1 active torsions:
REMARK  status: ('A' for Active; 'I' for Inactive)
REMARK    1  A    between atoms: C8_8  and  C11_11 
ROOT
HETATM    1  C1  UNL     1     -34.468   6.222   3.457  1.00 20.00     0.131 C 
HETATM    2  C2  UNL     1     -33.652   5.432   2.471  1.00 20.00     0.079 C 
HETATM    3  C3  UNL     1     -32.282   6.086   2.610  1.00 20.00     0.018 C 
HETATM    4  C4  UNL     1     -32.142   8.574   5.113  1.00 20.00     0.002 C 
HETATM    5  C5  UNL     1     -33.320   7.622   5.224  1.00 20.00     0.013 C 
HETATM    6  C6  UNL     1     -31.460   8.199   3.799  1.00 20.00     0.011 C 
HETATM    7  C7  UNL     1     -33.832   7.548   3.796  1.00 20.00     0.064 C 
HETATM    8  C8  UNL     1     -32.560   7.572   2.918  1.00 20.00    -0.027 C 
HETATM    9  O12 UNL     1     -35.537   5.841   3.916  1.00 20.00    -0.298 OA
ENDROOT
BRANCH   8  10
HETATM   10  C11 UNL     1     -32.774   8.373   1.630  1.00 20.00    -0.013 C 
HETATM   11  C9  UNL     1     -33.283   9.774   1.954  1.00 20.00     0.010 C 
HETATM   12  C10 UNL     1     -31.479   8.440   0.826  1.00 20.00     0.010 C 
ENDBRANCH   8  10
TORSDOF 1
ENDMDL
