MODEL 1
REMARK VINA RESULT:      -4.0      0.000      0.000
REMARK  0 active torsions:
REMARK  status: ('A' for Active; 'I' for Inactive)
ROOT
HETATM    1  C1  UNL     1     -33.675   7.006   4.856  1.00 20.00     0.161 C 
HETATM    2  C2  UNL     1     -32.461   7.635   4.216  1.00 20.00     0.091 C 
HETATM    3  C3  UNL     1     -32.555   7.354   2.730  1.00 20.00     0.084 C 
HETATM    4  C4  UNL     1     -34.248   5.822   4.101  1.00 20.00     0.141 C 
HETATM    5  C5  UNL     1     -35.703   6.063   3.726  1.00 20.00     0.053 C 
HETATM    6  O6  UNL     1     -34.122   7.402   5.931  1.00 20.00    -0.295 OA
HETATM    7  S7  UNL     1     -33.207   5.674   2.618  1.00 20.00    -0.135 SA
HETATM    8 CL8  UNL     1     -34.082   4.385   5.130  1.00 20.00    -0.099 Cl
ENDROOT
TORSDOF 0
ENDMDL
MODEL 2
REMARK VINA RESULT:      -3.9      2.171      2.527
REMARK  0 active torsions:
REMARK  status: ('A' for Active; 'I' for Inactive)
ROOT
HETATM    1  C1  UNL     1     -34.490   5.240   4.618  1.00 20.00     0.161 C 
HETATM    2  C2  UNL     1     -34.113   5.904   5.920  1.00 20.00     0.091 C 
HETATM    3  C3  UNL     1     -33.828   7.358   5.603  1.00 20.00     0.084 C 
HETATM    4  C4  UNL     1     -33.905   5.893   3.380  1.00 20.00     0.141 C 
HETATM    5  C5  UNL     1     -35.001   6.330   2.420  1.00 20.00     0.053 C 
HETATM    6  O6  UNL     1     -35.176   4.221   4.583  1.00 20.00    -0.295 OA
HETATM    7  S7  UNL     1     -32.980   7.327   4.010  1.00 20.00    -0.135 SA
HETATM    8 CL8  UNL     1     -32.808   4.727   2.613  1.00 20.00    -0.099 Cl
ENDROOT
TORSDOF 0
ENDMDL
MODEL 3
REMARK VINA RESULT:      -3.8      2.296      2.794
REMARK  0 active torsions:
REMARK  status: ('A' for Active; 'I' for Inactive)
ROOT
HETATM    1  C1  UNL     1     -33.169   7.048   3.831  1.00 20.00     0.161 C 
HETATM    2  C2  UNL     1     -33.663   7.406   5.212  1.00 20.00     0.091 C 
HETATM    3  C3  UNL     1     -34.198   6.129   5.829  1.00 20.00     0.084 C 
HETATM    4  C4  UNL     1     -33.855   5.850   3.202  1.00 20.00     0.141 C 
HETATM    5  C5  UNL     1     -32.848   4.765   2.848  1.00 20.00     0.053 C 
HETATM    6  O6  UNL     1     -32.314   7.716   3.253  1.00 20.00    -0.295 OA
HETATM    7  S7  UNL     1     -35.021   5.269   4.471  1.00 20.00    -0.135 SA
HETATM    8 CL8  UNL     1     -34.725   6.411   1.761  1.00 20.00    -0.099 Cl
ENDROOT
TORSDOF 0
ENDMDL
MODEL 4
REMARK VINA RESULT:      -3.7     12.402     13.052
REMARK  0 active torsions:
REMARK  status: ('A' for Active; 'I' for Inactive)
ROOT
HETATM    1  C1  UNL     1     -35.207  13.809  -5.237  1.00 20.00     0.161 C 
HETATM    2  C2  UNL     1     -34.397  14.197  -4.024  1.00 20.00     0.091 C 
HETATM    3  C3  UNL     1     -34.134  15.685  -4.131  1.00 20.00     0.084 C 
HETATM    4  C4  UNL     1     -35.000  14.698  -6.448  1.00 20.00     0.141 C 
HETATM    5  C5  UNL     1     -36.313  15.319  -6.904  1.00 20.00     0.053 C 
HETATM    6  O6  UNL     1     -35.933  12.817  -5.244  1.00 20.00    -0.295 OA
HETATM    7  S7  UNL     1     -33.834  15.976  -5.888  1.00 20.00    -0.135 SA
HETATM    8 CL8  UNL     1     -34.279  13.712  -7.736  1.00 20.00    -0.099 Cl
ENDROOT
TORSDOF 0
ENDMDL
MODEL 5
REMARK VINA RESULT:      -3.6     12.425     13.031
REMARK  0 active torsions:
REMARK  status: ('A' for Active; 'I' for Inactive)
ROOT
HETATM    1  C1  UNL     1     -35.901  13.842  -5.241  1.00 20.00     0.161 C 
HETATM    2  C2  UNL     1     -37.130  14.632  -4.858  1.00 20.00     0.091 C 
HETATM    3  C3  UNL     1     -37.021  15.973  -5.553  1.00 20.00     0.084 C 
HETATM    4  C4  UNL     1     -34.690  14.685  -5.595  1.00 20.00     0.141 C 
HETATM    5  C5  UNL     1     -34.205  14.382  -7.004  1.00 20.00     0.053 C 
HETATM    6  O6  UNL     1     -35.883  12.614  -5.212  1.00 20.00    -0.295 OA
HETATM    7  S7  UNL     1     -35.270  16.403  -5.458  1.00 20.00    -0.135 SA
HETATM    8 CL8  UNL     1     -33.423  14.354  -4.396  1.00 20.00    -0.099 Cl
ENDROOT
TORSDOF 0
ENDMDL
MODEL 6
REMARK VINA RESULT:      -3.5     12.669     13.375
REMARK  0 active torsions:
REMARK  status: ('A' for Active; 'I' for Inactive)
ROOT
HETATM    1  C1  UNL     1     -34.951  13.568  -6.687  1.00 20.00     0.161 C 
HETATM    2  C2  UNL     1     -34.397  14.332  -7.865  1.00 20.00     0.091 C 
HETATM    3  C3  UNL     1     -33.880  15.651  -7.327  1.00 20.00     0.084 C 
HETATM    4  C4  UNL     1     -35.438  14.435  -5.541  1.00 20.00     0.141 C 
HETATM    5  C5  UNL     1     -34.708  14.098  -4.250  1.00 20.00     0.053 C 
HETATM    6  O6  UNL     1     -35.043  12.343  -6.692  1.00 20.00    -0.295 OA
HETATM    7  S7  UNL     1     -35.079  16.139  -6.068  1.00 20.00    -0.135 SA
HETATM    8 CL8  UNL     1     -37.187  14.187  -5.371  1.00 20.00    -0.099 Cl
ENDROOT
TORSDOF 0
ENDMDL
MODEL 7
REMARK VINA RESULT:      -3.4     12.408     12.642
REMARK  0 active torsions:
REMARK  status: ('A' for Active; 'I' for Inactive)
ROOT
HETATM    1  C1  UNL     1     -33.932  14.579  -4.387  1.00 20.00     0.161 C 
HETATM    2  C2  UNL     1     -33.910  15.801  -3.500  1.00 20.00     0.091 C 
HETATM    3  C3  UNL     1     -35.317  16.362  -3.494  1.00 20.00     0.084 C 
HETATM    4  C4  UNL     1     -35.003  14.595  -5.461  1.00 20.00     0.141 C 
HETATM    5  C5  UNL     1     -35.926  13.393  -5.333  1.00 20.00     0.053 C 
HETATM    6  O6  UNL     1     -33.108  13.675  -4.268  1.00 20.00    -0.295 OA
HETATM    7  S7  UNL     1     -35.909  16.148  -5.186  1.00 20.00    -0.135 SA
HETATM    8 CL8  UNL     1     -34.193  14.613  -7.041  1.00 20.00    -0.099 Cl
ENDROOT
TORSDOF 0
ENDMDL
MODEL 8
REMARK VINA RESULT:      -3.4     12.100     12.769
REMARK  0 active torsions:
REMARK  status: ('A' for Active; 'I' for Inactive)
ROOT
HETATM    1  C1  UNL     1     -34.684  14.226  -4.510  1.00 20.00     0.161 C 
HETATM    2  C2  UNL     1     -35.907  13.606  -5.141  1.00 20.00     0.091 C 
HETATM    3  C3  UNL     1     -36.485  14.641  -6.085  1.00 20.00     0.084 C 
HETATM    4  C4  UNL     1     -34.711  15.741  -4.431  1.00 20.00     0.141 C 
HETATM    5  C5  UNL     1     -33.520  16.349  -5.157  1.00 20.00     0.053 C 
HETATM    6  O6  UNL     1     -33.771  13.543  -4.054  1.00 20.00    -0.295 OA
HETATM    7  S7  UNL     1     -36.275  16.216  -5.229  1.00 20.00    -0.135 SA
HETATM    8 CL8  UNL     1     -34.717  16.199  -2.716  1.00 20.00    -0.099 Cl
ENDROOT
TORSDOF 0
ENDMDL
MODEL 9
REMARK VINA RESULT:      -3.3     12.419     12.922
REMARK  0 active torsions:
REMARK  status: ('A' for Active; 'I' for Inactive)
ROOT
HETATM    1  C1  UNL     1     -34.478  14.565  -4.689  1.00 20.00     0.161 C 
HETATM    2  C2  UNL     1     -33.969  14.625  -6.109  1.00 20.00     0.091 C 
HETATM    3  C3  UNL     1     -33.491  16.043  -6.343  1.00 20.00     0.084 C 
HETATM    4  C4  UNL     1     -34.976  15.887  -4.137  1.00 20.00     0.141 C 
HETATM    5  C5  UNL     1     -34.215  16.279  -2.880  1.00 20.00     0.053 C 
HETATM    6  O6  UNL     1     -34.526  13.510  -4.060  1.00 20.00    -0.295 OA
HETATM    7  S7  UNL     1     -34.687  17.083  -5.477  1.00 20.00    -0.135 SA
HETATM    8 CL8  UNL     1     -36.713  15.723  -3.808  1.00 20.00    -0.099 Cl
ENDROOT
TORSDOF 0
ENDMDL
