MODEL 1
REMARK VINA RESULT:      -4.5      0.000      0.000
REMARK  0 active torsions:
REMARK  status: ('A' for Active; 'I' for Inactive)
ROOT
HETATM    1  C1  UNL     1     -32.797   6.735   2.899  1.00 20.00     0.013 C 
HETATM    2  C2  UNL     1     -33.290   5.295   2.631  1.00 20.00     0.035 C 
HETATM    3  C3  UNL     1     -33.685   7.605   3.820  1.00 20.00     0.074 C 
HETATM    4  C4  UNL     1     -34.618   5.729   5.853  1.00 20.00     0.108 C 
HETATM    5  C5  UNL     1     -33.510   4.628   3.932  1.00 20.00     0.152 A 
HETATM    6  C6  UNL     1     -34.806   5.092   4.542  1.00 20.00     0.160 A 
HETATM    7  O7  UNL     1     -34.562   3.722   4.242  1.00 20.00    -0.375 OA
HETATM    8  S8  UNL     1     -33.589   7.254   5.642  1.00 20.00    -0.166 SA
ENDROOT
TORSDOF 0
ENDMDL
MODEL 2
REMARK VINA RESULT:      -4.5      1.250      2.447
REMARK  0 active torsions:
REMARK  status: ('A' for Active; 'I' for Inactive)
ROOT
HETATM    1  C1  UNL     1     -33.967   7.266   5.631  1.00 20.00     0.013 C 
HETATM    2  C2  UNL     1     -34.464   5.824   5.888  1.00 20.00     0.035 C 
HETATM    3  C3  UNL     1     -32.791   7.420   4.639  1.00 20.00     0.074 C 
HETATM    4  C4  UNL     1     -33.358   5.431   2.579  1.00 20.00     0.108 C 
HETATM    5  C5  UNL     1     -34.788   5.204   4.588  1.00 20.00     0.152 A 
HETATM    6  C6  UNL     1     -33.526   4.778   3.885  1.00 20.00     0.160 A 
HETATM    7  O7  UNL     1     -34.551   3.850   4.223  1.00 20.00    -0.375 OA
HETATM    8  S8  UNL     1     -33.197   7.258   2.833  1.00 20.00    -0.166 SA
ENDROOT
TORSDOF 0
ENDMDL
MODEL 3
REMARK VINA RESULT:      -4.0      2.174      3.340
REMARK  0 active torsions:
REMARK  status: ('A' for Active; 'I' for Inactive)
ROOT
HETATM    1  C1  UNL     1     -34.153   6.550   5.938  1.00 20.00     0.013 C 
HETATM    2  C2  UNL     1     -33.556   7.716   5.117  1.00 20.00     0.035 C 
HETATM    3  C3  UNL     1     -34.937   5.480   5.142  1.00 20.00     0.074 C 
HETATM    4  C4  UNL     1     -33.410   5.203   2.669  1.00 20.00     0.108 C 
HETATM    5  C5  UNL     1     -32.722   7.147   4.039  1.00 20.00     0.152 A 
HETATM    6  C6  UNL     1     -33.592   6.640   2.920  1.00 20.00     0.160 A 
HETATM    7  O7  UNL     1     -32.609   7.649   2.713  1.00 20.00    -0.375 OA
HETATM    8  S8  UNL     1     -33.927   4.257   4.174  1.00 20.00    -0.166 SA
ENDROOT
TORSDOF 0
ENDMDL
MODEL 4
REMARK VINA RESULT:      -3.7     12.443     13.405
REMARK  0 active torsions:
REMARK  status: ('A' for Active; 'I' for Inactive)
ROOT
HETATM    1  C1  UNL     1     -33.454  15.472  -4.630  1.00 20.00     0.013 C 
HETATM    2  C2  UNL     1     -34.054  14.130  -4.151  1.00 20.00     0.035 C 
HETATM    3  C3  UNL     1     -33.399  15.693  -6.160  1.00 20.00     0.074 C 
HETATM    4  C4  UNL     1     -35.892  14.513  -7.118  1.00 20.00     0.108 C 
HETATM    5  C5  UNL     1     -35.394  13.977  -4.752  1.00 20.00     0.152 A 
HETATM    6  C6  UNL     1     -35.274  13.554  -6.192  1.00 20.00     0.160 A 
HETATM    7  O7  UNL     1     -35.966  12.766  -5.229  1.00 20.00    -0.375 OA
HETATM    8  S8  UNL     1     -34.999  16.131  -6.996  1.00 20.00    -0.166 SA
ENDROOT
TORSDOF 0
ENDMDL
MODEL 5
REMARK VINA RESULT:      -3.6      2.086      3.143
REMARK  0 active torsions:
REMARK  status: ('A' for Active; 'I' for Inactive)
ROOT
HETATM    1  C1  UNL     1     -34.393   4.386   4.316  1.00 20.00     0.013 C 
HETATM    2  C2  UNL     1     -34.694   5.157   5.622  1.00 20.00     0.035 C 
HETATM    3  C3  UNL     1     -34.274   5.235   3.028  1.00 20.00     0.074 C 
HETATM    4  C4  UNL     1     -32.908   7.656   3.920  1.00 20.00     0.108 C 
HETATM    5  C5  UNL     1     -33.677   6.217   5.782  1.00 20.00     0.152 A 
HETATM    6  C6  UNL     1     -33.989   7.379   4.876  1.00 20.00     0.160 A 
HETATM    7  O7  UNL     1     -33.904   7.526   6.289  1.00 20.00    -0.375 OA
HETATM    8  S8  UNL     1     -32.699   6.193   2.804  1.00 20.00    -0.166 SA
ENDROOT
TORSDOF 0
ENDMDL
MODEL 6
REMARK VINA RESULT:      -3.6     12.478     13.352
REMARK  0 active torsions:
REMARK  status: ('A' for Active; 'I' for Inactive)
ROOT
HETATM    1  C1  UNL     1     -34.046  14.837  -7.759  1.00 20.00     0.013 C 
HETATM    2  C2  UNL     1     -35.147  13.771  -7.551  1.00 20.00     0.035 C 
HETATM    3  C3  UNL     1     -33.928  15.925  -6.665  1.00 20.00     0.074 C 
HETATM    4  C4  UNL     1     -34.431  14.469  -4.185  1.00 20.00     0.108 C 
HETATM    5  C5  UNL     1     -34.959  13.160  -6.219  1.00 20.00     0.152 A 
HETATM    6  C6  UNL     1     -35.473  14.082  -5.145  1.00 20.00     0.160 A 
HETATM    7  O7  UNL     1     -35.991  12.768  -5.323  1.00 20.00    -0.375 OA
HETATM    8  S8  UNL     1     -33.114  15.421  -5.073  1.00 20.00    -0.166 SA
ENDROOT
TORSDOF 0
ENDMDL
MODEL 7
REMARK VINA RESULT:      -3.5     12.036     12.778
REMARK  0 active torsions:
REMARK  status: ('A' for Active; 'I' for Inactive)
ROOT
HETATM    1  C1  UNL     1     -33.631  15.919  -3.896  1.00 20.00     0.013 C 
HETATM    2  C2  UNL     1     -33.559  14.487  -4.474  1.00 20.00     0.035 C 
HETATM    3  C3  UNL     1     -34.802  16.801  -4.389  1.00 20.00     0.074 C 
HETATM    4  C4  UNL     1     -37.040  14.937  -4.578  1.00 20.00     0.108 C 
HETATM    5  C5  UNL     1     -34.856  13.822  -4.234  1.00 20.00     0.152 A 
HETATM    6  C6  UNL     1     -35.881  14.306  -5.225  1.00 20.00     0.160 A 
HETATM    7  O7  UNL     1     -35.520  12.933  -5.124  1.00 20.00    -0.375 OA
HETATM    8  S8  UNL     1     -36.475  16.445  -3.665  1.00 20.00    -0.166 SA
ENDROOT
TORSDOF 0
ENDMDL
MODEL 8
REMARK VINA RESULT:      -3.5      1.673      2.245
REMARK  0 active torsions:
REMARK  status: ('A' for Active; 'I' for Inactive)
ROOT
HETATM    1  C1  UNL     1     -32.863   7.671   5.130  1.00 20.00     0.013 C 
HETATM    2  C2  UNL     1     -32.883   7.632   3.585  1.00 20.00     0.035 C 
HETATM    3  C3  UNL     1     -34.117   7.118   5.848  1.00 20.00     0.074 C 
HETATM    4  C4  UNL     1     -34.887   4.820   4.221  1.00 20.00     0.108 C 
HETATM    5  C5  UNL     1     -33.166   6.246   3.157  1.00 20.00     0.152 A 
HETATM    6  C6  UNL     1     -34.633   5.943   3.309  1.00 20.00     0.160 A 
HETATM    7  O7  UNL     1     -33.972   5.858   2.051  1.00 20.00    -0.375 OA
HETATM    8  S8  UNL     1     -34.291   5.270   5.915  1.00 20.00    -0.166 SA
ENDROOT
TORSDOF 0
ENDMDL
MODEL 9
REMARK VINA RESULT:      -3.4     12.566     13.447
REMARK  0 active torsions:
REMARK  status: ('A' for Active; 'I' for Inactive)
ROOT
HETATM    1  C1  UNL     1     -35.925  16.052  -6.883  1.00 20.00     0.013 C 
HETATM    2  C2  UNL     1     -36.615  14.679  -6.718  1.00 20.00     0.035 C 
HETATM    3  C3  UNL     1     -35.226  16.624  -5.628  1.00 20.00     0.074 C 
HETATM    4  C4  UNL     1     -34.043  14.274  -4.364  1.00 20.00     0.108 C 
HETATM    5  C5  UNL     1     -35.626  13.720  -6.185  1.00 20.00     0.152 A 
HETATM    6  C6  UNL     1     -35.431  13.940  -4.708  1.00 20.00     0.160 A 
HETATM    7  O7  UNL     1     -35.880  12.695  -5.233  1.00 20.00    -0.375 OA
HETATM    8  S8  UNL     1     -33.587  15.876  -5.173  1.00 20.00    -0.166 SA
ENDROOT
TORSDOF 0
ENDMDL
