MODEL 1
REMARK VINA RESULT:      -5.5      0.000      0.000
REMARK  1 active torsions:
REMARK  status: ('A' for Active; 'I' for Inactive)
REMARK    1  A    between atoms: C2_2  and  C6_6 
ROOT
HETATM    1  C3  UNL     1     -35.186   5.644   3.955  1.00 20.00     0.003 C 
HETATM    2  C4  UNL     1     -34.033   6.066   3.044  1.00 20.00     0.011 C 
HETATM    3  C5  UNL     1     -34.683   5.310   5.358  1.00 20.00     0.034 C 
HETATM    4  C6  UNL     1     -33.386   7.381   3.520  1.00 20.00     0.039 C 
HETATM    5  C7  UNL     1     -33.753   6.339   5.909  1.00 20.00     0.151 A 
HETATM    6  C8  UNL     1     -33.078   7.333   4.998  1.00 20.00     0.158 A 
HETATM    7  O9  UNL     1     -34.207   7.690   5.824  1.00 20.00    -0.375 OA
ENDROOT
BRANCH   4   8
HETATM    8  C2  UNL     1     -32.192   7.695   2.666  1.00 20.00    -0.030 C 
HETATM    9  C1  UNL     1     -32.169   8.659   1.738  1.00 20.00     0.007 C 
ENDBRANCH   4   8
TORSDOF 1
ENDMDL
MODEL 2
REMARK VINA RESULT:      -5.5      1.364      2.134
REMARK  1 active torsions:
REMARK  status: ('A' for Active; 'I' for Inactive)
REMARK    1  A    between atoms: C2_2  and  C6_6 
ROOT
HETATM    1  C3  UNL     1     -33.595   6.638   5.823  1.00 20.00     0.003 C 
HETATM    2  C4  UNL     1     -33.332   7.621   4.682  1.00 20.00     0.011 C 
HETATM    3  C5  UNL     1     -34.848   5.807   5.554  1.00 20.00     0.034 C 
HETATM    4  C6  UNL     1     -33.005   6.888   3.367  1.00 20.00     0.039 C 
HETATM    5  C7  UNL     1     -34.890   5.239   4.174  1.00 20.00     0.151 A 
HETATM    6  C8  UNL     1     -34.015   5.801   3.083  1.00 20.00     0.158 A 
HETATM    7  O9  UNL     1     -33.710   4.558   3.751  1.00 20.00    -0.375 OA
ENDROOT
BRANCH   4   8
HETATM    8  C2  UNL     1     -32.867   7.886   2.254  1.00 20.00    -0.030 C 
HETATM    9  C1  UNL     1     -31.756   8.595   2.018  1.00 20.00     0.007 C 
ENDBRANCH   4   8
TORSDOF 1
ENDMDL
MODEL 3
REMARK VINA RESULT:      -4.7      1.598      3.702
REMARK  1 active torsions:
REMARK  status: ('A' for Active; 'I' for Inactive)
REMARK    1  A    between atoms: C2_2  and  C6_6 
ROOT
HETATM    1  C3  UNL     1     -32.782   8.394   5.025  1.00 20.00     0.003 C 
HETATM    2  C4  UNL     1     -33.543   7.108   5.343  1.00 20.00     0.011 C 
HETATM    3  C5  UNL     1     -31.670   8.138   4.010  1.00 20.00     0.034 C 
HETATM    4  C6  UNL     1     -34.295   6.573   4.109  1.00 20.00     0.039 C 
HETATM    5  C7  UNL     1     -32.121   7.333   2.836  1.00 20.00     0.151 A 
HETATM    6  C8  UNL     1     -33.391   6.525   2.899  1.00 20.00     0.158 A 
HETATM    7  O9  UNL     1     -33.315   7.785   2.200  1.00 20.00    -0.375 OA
ENDROOT
BRANCH   4   8
HETATM    8  C2  UNL     1     -34.932   5.254   4.437  1.00 20.00    -0.030 C 
HETATM    9  C1  UNL     1     -34.270   4.091   4.468  1.00 20.00     0.007 C 
ENDBRANCH   4   8
TORSDOF 1
ENDMDL
MODEL 4
REMARK VINA RESULT:      -4.3      1.970      3.117
REMARK  1 active torsions:
REMARK  status: ('A' for Active; 'I' for Inactive)
REMARK    1  A    between atoms: C2_2  and  C6_6 
ROOT
HETATM    1  C3  UNL     1     -33.784   5.903   2.493  1.00 20.00     0.003 C 
HETATM    2  C4  UNL     1     -33.546   6.801   3.705  1.00 20.00     0.011 C 
HETATM    3  C5  UNL     1     -33.314   4.475   2.766  1.00 20.00     0.034 C 
HETATM    4  C6  UNL     1     -34.399   6.365   4.911  1.00 20.00     0.039 C 
HETATM    5  C7  UNL     1     -33.783   3.945   4.080  1.00 20.00     0.151 A 
HETATM    6  C8  UNL     1     -34.276   4.879   5.155  1.00 20.00     0.158 A 
HETATM    7  O9  UNL     1     -35.178   4.096   4.344  1.00 20.00    -0.375 OA
ENDROOT
BRANCH   4   8
HETATM    8  C2  UNL     1     -34.049   7.202   6.107  1.00 20.00    -0.030 C 
HETATM    9  C1  UNL     1     -33.004   8.036   6.157  1.00 20.00     0.007 C 
ENDBRANCH   4   8
TORSDOF 1
ENDMDL
MODEL 5
REMARK VINA RESULT:      -4.0     11.649     12.239
REMARK  1 active torsions:
REMARK  status: ('A' for Active; 'I' for Inactive)
REMARK    1  A    between atoms: C2_2  and  C6_6 
ROOT
HETATM    1  C3  UNL     1     -37.596  14.937  -4.554  1.00 20.00     0.003 C 
HETATM    2  C4  UNL     1     -36.420  15.794  -4.090  1.00 20.00     0.011 C 
HETATM    3  C5  UNL     1     -37.350  14.379  -5.954  1.00 20.00     0.034 C 
HETATM    4  C6  UNL     1     -35.137  14.957  -3.926  1.00 20.00     0.039 C 
HETATM    5  C7  UNL     1     -35.994  13.777  -6.116  1.00 20.00     0.151 A 
HETATM    6  C8  UNL     1     -34.889  14.097  -5.143  1.00 20.00     0.158 A 
HETATM    7  O9  UNL     1     -35.607  12.845  -5.107  1.00 20.00    -0.375 OA
ENDROOT
BRANCH   4   8
HETATM    8  C2  UNL     1     -33.987  15.857  -3.580  1.00 20.00    -0.030 C 
HETATM    9  C1  UNL     1     -33.965  16.667  -2.515  1.00 20.00     0.007 C 
ENDBRANCH   4   8
TORSDOF 1
ENDMDL
MODEL 6
REMARK VINA RESULT:      -4.0      1.516      2.745
REMARK  1 active torsions:
REMARK  status: ('A' for Active; 'I' for Inactive)
REMARK    1  A    between atoms: C2_2  and  C6_6 
ROOT
HETATM    1  C3  UNL     1     -34.680   6.271   6.037  1.00 20.00     0.003 C 
HETATM    2  C4  UNL     1     -34.307   5.040   5.212  1.00 20.00     0.011 C 
HETATM    3  C5  UNL     1     -33.567   7.316   5.999  1.00 20.00     0.034 C 
HETATM    4  C6  UNL     1     -34.179   5.379   3.714  1.00 20.00     0.039 C 
HETATM    5  C7  UNL     1     -33.056   7.579   4.622  1.00 20.00     0.151 A 
HETATM    6  C8  UNL     1     -33.318   6.603   3.504  1.00 20.00     0.158 A 
HETATM    7  O9  UNL     1     -34.051   7.839   3.633  1.00 20.00    -0.375 OA
ENDROOT
BRANCH   4   8
HETATM    8  C2  UNL     1     -33.702   4.171   2.962  1.00 20.00    -0.030 C 
HETATM    9  C1  UNL     1     -32.653   4.173   2.131  1.00 20.00     0.007 C 
ENDBRANCH   4   8
TORSDOF 1
ENDMDL
MODEL 7
REMARK VINA RESULT:      -3.9     11.588     12.183
REMARK  1 active torsions:
REMARK  status: ('A' for Active; 'I' for Inactive)
REMARK    1  A    between atoms: C2_2  and  C6_6 
ROOT
HETATM    1  C3  UNL     1     -36.369  14.403  -4.913  1.00 20.00     0.003 C 
HETATM    2  C4  UNL     1     -36.078  15.565  -3.964  1.00 20.00     0.011 C 
HETATM    3  C5  UNL     1     -35.446  14.442  -6.128  1.00 20.00     0.034 C 
HETATM    4  C6  UNL     1     -34.668  15.457  -3.351  1.00 20.00     0.039 C 
HETATM    5  C7  UNL     1     -34.013  14.654  -5.770  1.00 20.00     0.151 A 
HETATM    6  C8  UNL     1     -33.630  15.197  -4.417  1.00 20.00     0.158 A 
HETATM    7  O9  UNL     1     -33.498  13.799  -4.750  1.00 20.00    -0.375 OA
ENDROOT
BRANCH   4   8
HETATM    8  C2  UNL     1     -34.385  16.674  -2.519  1.00 20.00    -0.030 C 
HETATM    9  C1  UNL     1     -35.035  16.975  -1.389  1.00 20.00     0.007 C 
ENDBRANCH   4   8
TORSDOF 1
ENDMDL
MODEL 8
REMARK VINA RESULT:      -3.8     11.876     12.432
REMARK  1 active torsions:
REMARK  status: ('A' for Active; 'I' for Inactive)
REMARK    1  A    between atoms: C2_2  and  C6_6 
ROOT
HETATM    1  C3  UNL     1     -33.018  18.086  -1.970  1.00 20.00     0.003 C 
HETATM    2  C4  UNL     1     -32.203  18.219  -0.684  1.00 20.00     0.011 C 
HETATM    3  C5  UNL     1     -34.204  17.145  -1.773  1.00 20.00     0.034 C 
HETATM    4  C6  UNL     1     -33.018  18.893   0.437  1.00 20.00     0.039 C 
HETATM    5  C7  UNL     1     -34.979  17.430  -0.530  1.00 20.00     0.151 A 
HETATM    6  C8  UNL     1     -34.379  18.254   0.580  1.00 20.00     0.158 A 
HETATM    7  O9  UNL     1     -35.356  18.792  -0.336  1.00 20.00    -0.375 OA
ENDROOT
BRANCH   4   8
HETATM    8  C2  UNL     1     -32.219  18.899   1.708  1.00 20.00    -0.030 C 
HETATM    9  C1  UNL     1     -30.895  18.711   1.761  1.00 20.00     0.007 C 
ENDBRANCH   4   8
TORSDOF 1
ENDMDL
MODEL 9
REMARK VINA RESULT:      -3.7      1.596      3.623
REMARK  1 active torsions:
REMARK  status: ('A' for Active; 'I' for Inactive)
REMARK    1  A    between atoms: C2_2  and  C6_6 
ROOT
HETATM    1  C3  UNL     1     -32.942   6.722   1.905  1.00 20.00     0.003 C 
HETATM    2  C4  UNL     1     -33.827   6.591   3.143  1.00 20.00     0.011 C 
HETATM    3  C5  UNL     1     -32.509   8.170   1.690  1.00 20.00     0.034 C 
HETATM    4  C6  UNL     1     -33.055   6.933   4.432  1.00 20.00     0.039 C 
HETATM    5  C7  UNL     1     -32.001   8.822   2.933  1.00 20.00     0.151 A 
HETATM    6  C8  UNL     1     -32.307   8.238   4.288  1.00 20.00     0.158 A 
HETATM    7  O9  UNL     1     -31.017   8.085   3.659  1.00 20.00    -0.375 OA
ENDROOT
BRANCH   4   8
HETATM    8  C2  UNL     1     -33.990   6.901   5.605  1.00 20.00    -0.030 C 
HETATM    9  C1  UNL     1     -34.678   5.818   5.985  1.00 20.00     0.007 C 
ENDBRANCH   4   8
TORSDOF 1
ENDMDL
