MODEL 1
REMARK VINA RESULT:      -4.6      0.000      0.000
REMARK  1 active torsions:
REMARK  status: ('A' for Active; 'I' for Inactive)
REMARK    1  A    between atoms: C2_2  and  C4_4 
ROOT
HETATM    1  C1  UNL     1     -34.085   5.205   3.733  1.00 20.00     0.171 A 
HETATM    2  C2  UNL     1     -33.757   6.673   3.906  1.00 20.00     0.175 A 
HETATM    3  C3  UNL     1     -34.434   4.298   4.859  1.00 20.00     0.044 C 
HETATM    4  O5  UNL     1     -35.056   6.228   3.480  1.00 20.00    -0.352 OA
HETATM    5 CL6  UNL     1     -33.611   7.352   5.524  1.00 20.00    -0.084 Cl
ENDROOT
BRANCH   2   6
HETATM    6  C4  UNL     1     -32.992   7.384   2.837  1.00 20.00     0.172 C 
HETATM    7 CL7  UNL     1     -31.548   8.189   3.507  1.00 20.00    -0.126 Cl
ENDBRANCH   2   6
TORSDOF 1
ENDMDL
MODEL 2
REMARK VINA RESULT:      -4.3      1.726      3.242
REMARK  1 active torsions:
REMARK  status: ('A' for Active; 'I' for Inactive)
REMARK    1  A    between atoms: C2_2  and  C4_4 
ROOT
HETATM    1  C1  UNL     1     -33.124   7.269   2.555  1.00 20.00     0.171 A 
HETATM    2  C2  UNL     1     -33.641   6.715   3.866  1.00 20.00     0.175 A 
HETATM    3  C3  UNL     1     -32.152   8.392   2.460  1.00 20.00     0.044 C 
HETATM    4  O5  UNL     1     -32.585   6.074   3.132  1.00 20.00    -0.352 OA
HETATM    5 CL6  UNL     1     -33.225   7.513   5.379  1.00 20.00    -0.084 Cl
ENDROOT
BRANCH   2   6
HETATM    6  C4  UNL     1     -34.915   5.933   3.878  1.00 20.00     0.172 C 
HETATM    7 CL7  UNL     1     -34.673   4.320   4.600  1.00 20.00    -0.126 Cl
ENDBRANCH   2   6
TORSDOF 1
ENDMDL
MODEL 3
REMARK VINA RESULT:      -3.8      2.156      3.481
REMARK  1 active torsions:
REMARK  status: ('A' for Active; 'I' for Inactive)
REMARK    1  A    between atoms: C2_2  and  C4_4 
ROOT
HETATM    1  C1  UNL     1     -32.751   7.719   3.969  1.00 20.00     0.171 A 
HETATM    2  C2  UNL     1     -33.617   6.483   3.841  1.00 20.00     0.175 A 
HETATM    3  C3  UNL     1     -31.603   8.019   3.072  1.00 20.00     0.044 C 
HETATM    4  O5  UNL     1     -34.028   7.758   3.321  1.00 20.00    -0.352 OA
HETATM    5 CL6  UNL     1     -33.183   5.226   2.687  1.00 20.00    -0.084 Cl
ENDROOT
BRANCH   2   6
HETATM    6  C4  UNL     1     -34.426   6.031   5.014  1.00 20.00     0.172 C 
HETATM    7 CL7  UNL     1     -34.502   4.250   5.093  1.00 20.00    -0.126 Cl
ENDBRANCH   2   6
TORSDOF 1
ENDMDL
MODEL 4
REMARK VINA RESULT:      -3.6      1.970      1.973
REMARK  1 active torsions:
REMARK  status: ('A' for Active; 'I' for Inactive)
REMARK    1  A    between atoms: C2_2  and  C4_4 
ROOT
HETATM    1  C1  UNL     1     -34.321   6.686   4.427  1.00 20.00     0.171 A 
HETATM    2  C2  UNL     1     -33.335   6.579   3.283  1.00 20.00     0.175 A 
HETATM    3  C3  UNL     1     -34.829   5.516   5.193  1.00 20.00     0.044 C 
HETATM    4  O5  UNL     1     -32.924   6.945   4.610  1.00 20.00    -0.352 OA
HETATM    5 CL6  UNL     1     -32.859   4.993   2.684  1.00 20.00    -0.084 Cl
ENDROOT
BRANCH   2   6
HETATM    6  C4  UNL     1     -33.232   7.698   2.297  1.00 20.00     0.172 C 
HETATM    7 CL7  UNL     1     -31.697   8.585   2.492  1.00 20.00    -0.126 Cl
ENDBRANCH   2   6
TORSDOF 1
ENDMDL
MODEL 5
REMARK VINA RESULT:      -3.6      1.794      2.287
REMARK  1 active torsions:
REMARK  status: ('A' for Active; 'I' for Inactive)
REMARK    1  A    between atoms: C2_2  and  C4_4 
ROOT
HETATM    1  C1  UNL     1     -33.160   5.610   2.740  1.00 20.00     0.171 A 
HETATM    2  C2  UNL     1     -34.069   6.000   3.887  1.00 20.00     0.175 A 
HETATM    3  C3  UNL     1     -32.829   4.203   2.390  1.00 20.00     0.044 C 
HETATM    4  O5  UNL     1     -34.532   5.961   2.527  1.00 20.00    -0.352 OA
HETATM    5 CL6  UNL     1     -34.661   4.765   4.993  1.00 20.00    -0.084 Cl
ENDROOT
BRANCH   2   6
HETATM    6  C4  UNL     1     -33.987   7.383   4.448  1.00 20.00     0.172 C 
HETATM    7 CL7  UNL     1     -33.666   7.347   6.202  1.00 20.00    -0.126 Cl
ENDBRANCH   2   6
TORSDOF 1
ENDMDL
MODEL 6
REMARK VINA RESULT:      -3.5      2.571      4.172
REMARK  1 active torsions:
REMARK  status: ('A' for Active; 'I' for Inactive)
REMARK    1  A    between atoms: C2_2  and  C4_4 
ROOT
HETATM    1  C1  UNL     1     -32.715   8.994   1.366  1.00 20.00     0.171 A 
HETATM    2  C2  UNL     1     -32.236   8.051   2.450  1.00 20.00     0.175 A 
HETATM    3  C3  UNL     1     -32.468  10.461   1.378  1.00 20.00     0.044 C 
HETATM    4  O5  UNL     1     -31.533   8.200   1.206  1.00 20.00    -0.352 OA
HETATM    5 CL6  UNL     1     -31.482   8.700   3.903  1.00 20.00    -0.084 Cl
ENDROOT
BRANCH   2   6
HETATM    6  C4  UNL     1     -32.895   6.719   2.606  1.00 20.00     0.172 C 
HETATM    7 CL7  UNL     1     -34.097   6.746   3.923  1.00 20.00    -0.126 Cl
ENDBRANCH   2   6
TORSDOF 1
ENDMDL
MODEL 7
REMARK VINA RESULT:      -3.3      1.888      2.843
REMARK  1 active torsions:
REMARK  status: ('A' for Active; 'I' for Inactive)
REMARK    1  A    between atoms: C2_2  and  C4_4 
ROOT
HETATM    1  C1  UNL     1     -33.982   6.487   5.062  1.00 20.00     0.171 A 
HETATM    2  C2  UNL     1     -33.454   6.393   3.646  1.00 20.00     0.175 A 
HETATM    3  C3  UNL     1     -33.637   7.588   6.001  1.00 20.00     0.044 C 
HETATM    4  O5  UNL     1     -34.766   6.900   3.937  1.00 20.00    -0.352 OA
HETATM    5 CL6  UNL     1     -32.236   7.535   3.089  1.00 20.00    -0.084 Cl
ENDROOT
BRANCH   2   6
HETATM    6  C4  UNL     1     -33.468   5.072   2.946  1.00 20.00     0.172 C 
HETATM    7 CL7  UNL     1     -34.047   3.778   4.027  1.00 20.00    -0.126 Cl
ENDBRANCH   2   6
TORSDOF 1
ENDMDL
MODEL 8
REMARK VINA RESULT:      -3.3     11.785     12.257
REMARK  1 active torsions:
REMARK  status: ('A' for Active; 'I' for Inactive)
REMARK    1  A    between atoms: C2_2  and  C4_4 
ROOT
HETATM    1  C1  UNL     1     -35.767  13.710  -6.333  1.00 20.00     0.171 A 
HETATM    2  C2  UNL     1     -35.521  14.180  -4.915  1.00 20.00     0.175 A 
HETATM    3  C3  UNL     1     -34.693  13.233  -7.244  1.00 20.00     0.044 C 
HETATM    4  O5  UNL     1     -36.003  12.858  -5.207  1.00 20.00    -0.352 OA
HETATM    5 CL6  UNL     1     -33.871  14.339  -4.321  1.00 20.00    -0.084 Cl
ENDROOT
BRANCH   2   6
HETATM    6  C4  UNL     1     -36.534  15.049  -4.244  1.00 20.00     0.172 C 
HETATM    7 CL7  UNL     1     -35.765  16.133  -3.055  1.00 20.00    -0.126 Cl
ENDBRANCH   2   6
TORSDOF 1
ENDMDL
MODEL 9
REMARK VINA RESULT:      -3.1     11.431     12.343
REMARK  1 active torsions:
REMARK  status: ('A' for Active; 'I' for Inactive)
REMARK    1  A    between atoms: C2_2  and  C4_4 
ROOT
HETATM    1  C1  UNL     1     -36.570  14.133  -5.096  1.00 20.00     0.171 A 
HETATM    2  C2  UNL     1     -35.069  13.977  -5.231  1.00 20.00     0.175 A 
HETATM    3  C3  UNL     1     -37.468  14.489  -6.226  1.00 20.00     0.044 C 
HETATM    4  O5  UNL     1     -35.954  12.845  -5.219  1.00 20.00    -0.352 OA
HETATM    5 CL6  UNL     1     -34.281  14.386  -6.751  1.00 20.00    -0.084 Cl
ENDROOT
BRANCH   2   6
HETATM    6  C4  UNL     1     -34.210  14.073  -4.012  1.00 20.00     0.172 C 
HETATM    7 CL7  UNL     1     -33.663  15.750  -3.744  1.00 20.00    -0.126 Cl
ENDBRANCH   2   6
TORSDOF 1
ENDMDL
