MODEL 1
REMARK VINA RESULT:      -5.3      0.000      0.000
REMARK  3 active torsions:
REMARK  status: ('A' for Active; 'I' for Inactive)
REMARK    1  A    between atoms: C2_2  and  C6_6 
REMARK    2  A    between atoms: C3_3  and  C7_7 
REMARK    3  A    between atoms: C7_7  and  C8_8 
ROOT
HETATM    1  C1  UNL     1     -33.002   5.888   2.839  1.00 20.00     0.100 C 
HETATM    2  C2  UNL     1     -32.612   8.413   2.701  1.00 20.00     0.172 A 
HETATM    3  C3  UNL     1     -33.176   7.194   3.401  1.00 20.00     0.175 A 
HETATM    4  N9  UNL     1     -32.860   4.830   2.383  1.00 20.00    -0.194 NA
HETATM    5  O10 UNL     1     -31.937   7.802   3.805  1.00 20.00    -0.353 OA
ENDROOT
BRANCH   3   6
HETATM    6  C7  UNL     1     -34.277   7.370   4.397  1.00 20.00     0.056 C 
BRANCH   6   7
HETATM    7  C8  UNL     1     -33.978   6.664   5.730  1.00 20.00    -0.000 C 
HETATM    8  C5  UNL     1     -34.625   5.290   5.815  1.00 20.00     0.005 C 
ENDBRANCH   6   7
ENDBRANCH   3   6
BRANCH   2   9
HETATM    9  C6  UNL     1     -31.870   8.348   1.412  1.00 20.00     0.032 C 
HETATM   10  C4  UNL     1     -32.291   9.417   0.434  1.00 20.00     0.007 C 
ENDBRANCH   2   9
TORSDOF 3
ENDMDL
MODEL 2
REMARK VINA RESULT:      -4.7      1.995      4.435
REMARK  3 active torsions:
REMARK  status: ('A' for Active; 'I' for Inactive)
REMARK    1  A    between atoms: C2_2  and  C6_6 
REMARK    2  A    between atoms: C3_3  and  C7_7 
REMARK    3  A    between atoms: C7_7  and  C8_8 
ROOT
HETATM    1  C1  UNL     1     -32.711   7.685   4.190  1.00 20.00     0.100 C 
HETATM    2  C2  UNL     1     -34.119   6.085   2.774  1.00 20.00     0.172 A 
HETATM    3  C3  UNL     1     -32.992   7.087   2.919  1.00 20.00     0.175 A 
HETATM    4  N9  UNL     1     -32.485   8.170   5.220  1.00 20.00    -0.194 NA
HETATM    5  O10 UNL     1     -32.756   5.668   2.902  1.00 20.00    -0.353 OA
ENDROOT
BRANCH   3   6
HETATM    6  C7  UNL     1     -32.481   7.790   1.703  1.00 20.00     0.056 C 
BRANCH   6   7
HETATM    7  C8  UNL     1     -32.229   9.285   1.954  1.00 20.00    -0.000 C 
HETATM    8  C5  UNL     1     -32.651  10.148   0.775  1.00 20.00     0.005 C 
ENDBRANCH   6   7
ENDBRANCH   3   6
BRANCH   2   9
HETATM    9  C6  UNL     1     -34.999   5.671   3.902  1.00 20.00     0.032 C 
HETATM   10  C4  UNL     1     -34.526   4.414   4.588  1.00 20.00     0.007 C 
ENDBRANCH   2   9
TORSDOF 3
ENDMDL
MODEL 3
REMARK VINA RESULT:      -4.6      0.950      4.051
REMARK  3 active torsions:
REMARK  status: ('A' for Active; 'I' for Inactive)
REMARK    1  A    between atoms: C2_2  and  C6_6 
REMARK    2  A    between atoms: C3_3  and  C7_7 
REMARK    3  A    between atoms: C7_7  and  C8_8 
ROOT
HETATM    1  C1  UNL     1     -32.841   5.852   2.892  1.00 20.00     0.100 C 
HETATM    2  C2  UNL     1     -33.305   7.468   4.821  1.00 20.00     0.172 A 
HETATM    3  C3  UNL     1     -32.830   7.188   3.410  1.00 20.00     0.175 A 
HETATM    4  N9  UNL     1     -32.850   4.770   2.473  1.00 20.00    -0.194 NA
HETATM    5  O10 UNL     1     -34.148   7.694   3.686  1.00 20.00    -0.353 OA
ENDROOT
BRANCH   3   6
HETATM    6  C7  UNL     1     -31.943   8.180   2.729  1.00 20.00     0.056 C 
BRANCH   6   7
HETATM    7  C8  UNL     1     -32.484   8.599   1.352  1.00 20.00    -0.000 C 
HETATM    8  C5  UNL     1     -32.577  10.109   1.203  1.00 20.00     0.005 C 
ENDBRANCH   6   7
ENDBRANCH   3   6
BRANCH   2   9
HETATM    9  C6  UNL     1     -33.791   6.410   5.748  1.00 20.00     0.032 C 
HETATM   10  C4  UNL     1     -34.978   5.651   5.208  1.00 20.00     0.007 C 
ENDBRANCH   2   9
TORSDOF 3
ENDMDL
MODEL 4
REMARK VINA RESULT:      -4.4      2.077      2.459
REMARK  3 active torsions:
REMARK  status: ('A' for Active; 'I' for Inactive)
REMARK    1  A    between atoms: C2_2  and  C6_6 
REMARK    2  A    between atoms: C3_3  and  C7_7 
REMARK    3  A    between atoms: C7_7  and  C8_8 
ROOT
HETATM    1  C1  UNL     1     -33.631   7.304   5.240  1.00 20.00     0.100 C 
HETATM    2  C2  UNL     1     -33.149   7.083   2.736  1.00 20.00     0.172 A 
HETATM    3  C3  UNL     1     -34.038   6.856   3.942  1.00 20.00     0.175 A 
HETATM    4  N9  UNL     1     -33.300   7.668   6.291  1.00 20.00    -0.194 NA
HETATM    5  O10 UNL     1     -34.263   7.936   3.019  1.00 20.00    -0.353 OA
ENDROOT
BRANCH   3   6
HETATM    6  C7  UNL     1     -35.089   5.794   3.882  1.00 20.00     0.056 C 
BRANCH   6   7
HETATM    7  C8  UNL     1     -34.807   4.638   4.855  1.00 20.00    -0.000 C 
HETATM    8  C5  UNL     1     -33.801   3.644   4.297  1.00 20.00     0.005 C 
ENDBRANCH   6   7
ENDBRANCH   3   6
BRANCH   2   9
HETATM    9  C6  UNL     1     -31.823   7.757   2.811  1.00 20.00     0.032 C 
HETATM   10  C4  UNL     1     -31.563   8.679   1.645  1.00 20.00     0.007 C 
ENDBRANCH   2   9
TORSDOF 3
ENDMDL
MODEL 5
REMARK VINA RESULT:      -4.2      1.892      2.207
REMARK  3 active torsions:
REMARK  status: ('A' for Active; 'I' for Inactive)
REMARK    1  A    between atoms: C2_2  and  C6_6 
REMARK    2  A    between atoms: C3_3  and  C7_7 
REMARK    3  A    between atoms: C7_7  and  C8_8 
ROOT
HETATM    1  C1  UNL     1     -33.261   7.362   4.734  1.00 20.00     0.100 C 
HETATM    2  C2  UNL     1     -32.604   7.408   2.261  1.00 20.00     0.172 A 
HETATM    3  C3  UNL     1     -33.306   6.758   3.436  1.00 20.00     0.175 A 
HETATM    4  N9  UNL     1     -33.224   7.851   5.785  1.00 20.00    -0.194 NA
HETATM    5  O10 UNL     1     -34.013   7.555   2.469  1.00 20.00    -0.353 OA
ENDROOT
BRANCH   3   6
HETATM    6  C7  UNL     1     -33.645   5.304   3.368  1.00 20.00     0.056 C 
BRANCH   6   7
HETATM    7  C8  UNL     1     -34.889   4.954   4.201  1.00 20.00    -0.000 C 
HETATM    8  C5  UNL     1     -34.534   4.506   5.610  1.00 20.00     0.005 C 
ENDBRANCH   6   7
ENDBRANCH   3   6
BRANCH   2   9
HETATM    9  C6  UNL     1     -31.830   8.675   2.368  1.00 20.00     0.032 C 
HETATM   10  C4  UNL     1     -32.259   9.716   1.363  1.00 20.00     0.007 C 
ENDBRANCH   2   9
TORSDOF 3
ENDMDL
MODEL 6
REMARK VINA RESULT:      -4.1     11.177     11.518
REMARK  3 active torsions:
REMARK  status: ('A' for Active; 'I' for Inactive)
REMARK    1  A    between atoms: C2_2  and  C6_6 
REMARK    2  A    between atoms: C3_3  and  C7_7 
REMARK    3  A    between atoms: C7_7  and  C8_8 
ROOT
HETATM    1  C1  UNL     1     -36.363  14.954  -4.267  1.00 20.00     0.100 C 
HETATM    2  C2  UNL     1     -34.165  14.354  -5.434  1.00 20.00     0.172 A 
HETATM    3  C3  UNL     1     -34.930  14.950  -4.269  1.00 20.00     0.175 A 
HETATM    4  N9  UNL     1     -37.523  14.957  -4.266  1.00 20.00    -0.194 NA
HETATM    5  O10 UNL     1     -34.372  13.625  -4.219  1.00 20.00    -0.353 OA
ENDROOT
BRANCH   3   6
HETATM    6  C7  UNL     1     -34.241  15.920  -3.365  1.00 20.00     0.056 C 
BRANCH   6   7
HETATM    7  C8  UNL     1     -35.169  16.450  -2.259  1.00 20.00    -0.000 C 
HETATM    8  C5  UNL     1     -34.416  17.245  -1.204  1.00 20.00     0.005 C 
ENDBRANCH   6   7
ENDBRANCH   3   6
BRANCH   2   9
HETATM    9  C6  UNL     1     -34.824  13.760  -6.629  1.00 20.00     0.032 C 
HETATM   10  C4  UNL     1     -34.110  14.081  -7.918  1.00 20.00     0.007 C 
ENDBRANCH   2   9
TORSDOF 3
ENDMDL
MODEL 7
REMARK VINA RESULT:      -4.0     10.988     11.889
REMARK  3 active torsions:
REMARK  status: ('A' for Active; 'I' for Inactive)
REMARK    1  A    between atoms: C2_2  and  C6_6 
REMARK    2  A    between atoms: C3_3  and  C7_7 
REMARK    3  A    between atoms: C7_7  and  C8_8 
ROOT
HETATM    1  C1  UNL     1     -34.554  14.341  -4.589  1.00 20.00     0.100 C 
HETATM    2  C2  UNL     1     -33.386  16.290  -5.767  1.00 20.00     0.172 A 
HETATM    3  C3  UNL     1     -33.774  15.540  -4.509  1.00 20.00     0.175 A 
HETATM    4  N9  UNL     1     -35.186  13.370  -4.655  1.00 20.00    -0.194 NA
HETATM    5  O10 UNL     1     -32.474  15.406  -5.108  1.00 20.00    -0.353 OA
ENDROOT
BRANCH   3   6
HETATM    6  C7  UNL     1     -33.753  16.257  -3.197  1.00 20.00     0.056 C 
BRANCH   6   7
HETATM    7  C8  UNL     1     -35.145  16.333  -2.550  1.00 20.00    -0.000 C 
HETATM    8  C5  UNL     1     -35.120  17.042  -1.205  1.00 20.00     0.005 C 
ENDBRANCH   6   7
ENDBRANCH   3   6
BRANCH   2   9
HETATM    9  C6  UNL     1     -33.785  15.858  -7.135  1.00 20.00     0.032 C 
HETATM   10  C4  UNL     1     -34.513  16.932  -7.905  1.00 20.00     0.007 C 
ENDBRANCH   2   9
TORSDOF 3
ENDMDL
MODEL 8
REMARK VINA RESULT:      -3.9     11.104     11.843
REMARK  3 active torsions:
REMARK  status: ('A' for Active; 'I' for Inactive)
REMARK    1  A    between atoms: C2_2  and  C6_6 
REMARK    2  A    between atoms: C3_3  and  C7_7 
REMARK    3  A    between atoms: C7_7  and  C8_8 
ROOT
HETATM    1  C1  UNL     1     -34.259  14.986  -6.284  1.00 20.00     0.100 C 
HETATM    2  C2  UNL     1     -34.534  14.914  -3.741  1.00 20.00     0.172 A 
HETATM    3  C3  UNL     1     -34.814  14.358  -5.122  1.00 20.00     0.175 A 
HETATM    4  N9  UNL     1     -33.809  15.495  -7.225  1.00 20.00    -0.194 NA
HETATM    5  O10 UNL     1     -33.814  13.790  -4.259  1.00 20.00    -0.353 OA
ENDROOT
BRANCH   3   6
HETATM    6  C7  UNL     1     -36.000  13.470  -5.324  1.00 20.00     0.056 C 
BRANCH   6   7
HETATM    7  C8  UNL     1     -37.172  14.203  -5.997  1.00 20.00    -0.000 C 
HETATM    8  C5  UNL     1     -38.234  14.635  -4.998  1.00 20.00     0.005 C 
ENDBRANCH   6   7
ENDBRANCH   3   6
BRANCH   2   9
HETATM    9  C6  UNL     1     -33.698  16.122  -3.497  1.00 20.00     0.032 C 
HETATM   10  C4  UNL     1     -34.046  16.830  -2.211  1.00 20.00     0.007 C 
ENDBRANCH   2   9
TORSDOF 3
ENDMDL
MODEL 9
REMARK VINA RESULT:      -3.8     11.016     11.712
REMARK  3 active torsions:
REMARK  status: ('A' for Active; 'I' for Inactive)
REMARK    1  A    between atoms: C2_2  and  C6_6 
REMARK    2  A    between atoms: C3_3  and  C7_7 
REMARK    3  A    between atoms: C7_7  and  C8_8 
ROOT
HETATM    1  C1  UNL     1     -34.209  14.636  -4.095  1.00 20.00     0.100 C 
HETATM    2  C2  UNL     1     -36.648  15.395  -4.246  1.00 20.00     0.172 A 
HETATM    3  C3  UNL     1     -35.236  15.562  -3.722  1.00 20.00     0.175 A 
HETATM    4  N9  UNL     1     -33.378  13.885  -4.398  1.00 20.00    -0.194 NA
HETATM    5  O10 UNL     1     -35.734  16.327  -4.833  1.00 20.00    -0.353 OA
ENDROOT
BRANCH   3   6
HETATM    6  C7  UNL     1     -35.008  16.380  -2.492  1.00 20.00     0.056 C 
BRANCH   6   7
HETATM    7  C8  UNL     1     -33.582  16.952  -2.427  1.00 20.00    -0.000 C 
HETATM    8  C5  UNL     1     -33.370  17.838  -1.209  1.00 20.00     0.005 C 
ENDBRANCH   6   7
ENDBRANCH   3   6
BRANCH   2   9
HETATM    9  C6  UNL     1     -37.062  14.286  -5.149  1.00 20.00     0.032 C 
HETATM   10  C4  UNL     1     -37.261  14.730  -6.577  1.00 20.00     0.007 C 
ENDBRANCH   2   9
TORSDOF 3
ENDMDL
