MODEL 1
REMARK VINA RESULT:      -4.4      0.000      0.000
REMARK  1 active torsions:
REMARK  status: ('A' for Active; 'I' for Inactive)
REMARK    1  A    between atoms: C4_4  and  C7_7 
ROOT
HETATM    1  C1  UNL     1     -35.663  13.744  -4.943  1.00 20.00     0.075 C 
HETATM    2  C2  UNL     1     -36.058  16.171  -4.767  1.00 20.00     0.105 C 
HETATM    3  C3  UNL     1     -35.418  14.944  -4.136  1.00 20.00     0.164 C 
HETATM    4  C4  UNL     1     -33.836  17.014  -3.410  1.00 20.00     0.113 C 
HETATM    5  N8  UNL     1     -35.857  12.795  -5.582  1.00 20.00    -0.196 NA
HETATM    6  S9  UNL     1     -35.478  17.650  -3.886  1.00 20.00    -0.151 SA
HETATM    7  S10 UNL     1     -33.645  15.309  -4.011  1.00 20.00    -0.133 SA
ENDROOT
BRANCH   4   8
HETATM    8  C7  UNL     1     -33.691  17.054  -1.895  1.00 20.00     0.001 C 
HETATM    9  C5  UNL     1     -32.828  18.241  -1.465  1.00 20.00     0.011 C 
HETATM   10  C6  UNL     1     -35.062  17.120  -1.222  1.00 20.00     0.011 C 
ENDBRANCH   4   8
TORSDOF 1
ENDMDL
MODEL 2
REMARK VINA RESULT:      -3.9      0.611      1.274
REMARK  1 active torsions:
REMARK  status: ('A' for Active; 'I' for Inactive)
REMARK    1  A    between atoms: C4_4  and  C7_7 
ROOT
HETATM    1  C1  UNL     1     -35.710  13.905  -4.926  1.00 20.00     0.075 C 
HETATM    2  C2  UNL     1     -35.643  16.299  -5.513  1.00 20.00     0.105 C 
HETATM    3  C3  UNL     1     -35.492  15.261  -4.411  1.00 20.00     0.164 C 
HETATM    4  C4  UNL     1     -33.831  17.278  -3.710  1.00 20.00     0.113 C 
HETATM    5  N8  UNL     1     -35.882  12.833  -5.335  1.00 20.00    -0.196 NA
HETATM    6  S9  UNL     1     -35.080  17.907  -4.881  1.00 20.00    -0.151 SA
HETATM    7  S10 UNL     1     -33.810  15.460  -3.758  1.00 20.00    -0.133 SA
ENDROOT
BRANCH   4   8
HETATM    8  C7  UNL     1     -34.160  17.760  -2.304  1.00 20.00     0.001 C 
HETATM    9  C5  UNL     1     -35.088  16.770  -1.597  1.00 20.00     0.011 C 
HETATM   10  C6  UNL     1     -32.882  17.967  -1.491  1.00 20.00     0.011 C 
ENDBRANCH   4   8
TORSDOF 1
ENDMDL
MODEL 3
REMARK VINA RESULT:      -3.6      3.136      4.826
REMARK  1 active torsions:
REMARK  status: ('A' for Active; 'I' for Inactive)
REMARK    1  A    between atoms: C4_4  and  C7_7 
ROOT
HETATM    1  C1  UNL     1     -33.412  18.212  -0.605  1.00 20.00     0.075 C 
HETATM    2  C2  UNL     1     -33.272  18.264  -3.066  1.00 20.00     0.105 C 
HETATM    3  C3  UNL     1     -33.495  17.408  -1.828  1.00 20.00     0.164 C 
HETATM    4  C4  UNL     1     -34.949  16.222  -3.777  1.00 20.00     0.113 C 
HETATM    5  N8  UNL     1     -33.348  18.850   0.363  1.00 20.00    -0.196 NA
HETATM    6  S9  UNL     1     -33.672  17.278  -4.538  1.00 20.00    -0.151 SA
HETATM    7  S10 UNL     1     -35.138  16.661  -2.022  1.00 20.00    -0.133 SA
ENDROOT
BRANCH   4   8
HETATM    8  C7  UNL     1     -34.549  14.759  -3.909  1.00 20.00     0.001 C 
HETATM    9  C5  UNL     1     -35.519  14.014  -4.828  1.00 20.00     0.011 C 
HETATM   10  C6  UNL     1     -33.118  14.634  -4.431  1.00 20.00     0.011 C 
ENDBRANCH   4   8
TORSDOF 1
ENDMDL
MODEL 4
REMARK VINA RESULT:      -3.6      1.843      2.130
REMARK  1 active torsions:
REMARK  status: ('A' for Active; 'I' for Inactive)
REMARK    1  A    between atoms: C4_4  and  C7_7 
ROOT
HETATM    1  C1  UNL     1     -34.457  14.385  -6.795  1.00 20.00     0.075 C 
HETATM    2  C2  UNL     1     -33.614  16.503  -5.855  1.00 20.00     0.105 C 
HETATM    3  C3  UNL     1     -34.620  15.370  -5.721  1.00 20.00     0.164 C 
HETATM    4  C4  UNL     1     -34.151  16.198  -3.189  1.00 20.00     0.113 C 
HETATM    5  N8  UNL     1     -34.325  13.605  -7.645  1.00 20.00    -0.196 NA
HETATM    6  S9  UNL     1     -33.677  17.520  -4.352  1.00 20.00    -0.151 SA
HETATM    7  S10 UNL     1     -34.330  14.629  -4.090  1.00 20.00    -0.133 SA
ENDROOT
BRANCH   4   8
HETATM    8  C7  UNL     1     -35.463  16.562  -2.507  1.00 20.00     0.001 C 
HETATM    9  C5  UNL     1     -35.216  17.021  -1.069  1.00 20.00     0.011 C 
HETATM   10  C6  UNL     1     -36.199  17.646  -3.294  1.00 20.00     0.011 C 
ENDBRANCH   4   8
TORSDOF 1
ENDMDL
MODEL 5
REMARK VINA RESULT:      -3.6      2.658      4.833
REMARK  1 active torsions:
REMARK  status: ('A' for Active; 'I' for Inactive)
REMARK    1  A    between atoms: C4_4  and  C7_7 
ROOT
HETATM    1  C1  UNL     1     -34.259  16.425  -3.107  1.00 20.00     0.075 C 
HETATM    2  C2  UNL     1     -36.561  15.791  -3.722  1.00 20.00     0.105 C 
HETATM    3  C3  UNL     1     -35.097  15.804  -4.137  1.00 20.00     0.164 C 
HETATM    4  C4  UNL     1     -36.144  13.606  -5.317  1.00 20.00     0.113 C 
HETATM    5  N8  UNL     1     -33.596  16.916  -2.291  1.00 20.00    -0.196 NA
HETATM    6  S9  UNL     1     -37.491  14.761  -4.894  1.00 20.00    -0.151 SA
HETATM    7  S10 UNL     1     -34.636  14.070  -4.413  1.00 20.00    -0.133 SA
ENDROOT
BRANCH   4   8
HETATM    8  C7  UNL     1     -35.887  13.647  -6.817  1.00 20.00     0.001 C 
HETATM    9  C5  UNL     1     -36.604  14.837  -7.456  1.00 20.00     0.011 C 
HETATM   10  C6  UNL     1     -34.388  13.708  -7.108  1.00 20.00     0.011 C 
ENDBRANCH   4   8
TORSDOF 1
ENDMDL
MODEL 6
REMARK VINA RESULT:      -3.6      2.544      4.700
REMARK  1 active torsions:
REMARK  status: ('A' for Active; 'I' for Inactive)
REMARK    1  A    between atoms: C4_4  and  C7_7 
ROOT
HETATM    1  C1  UNL     1     -35.156  16.700  -1.793  1.00 20.00     0.075 C 
HETATM    2  C2  UNL     1     -33.615  16.918  -3.705  1.00 20.00     0.105 C 
HETATM    3  C3  UNL     1     -34.677  16.067  -3.026  1.00 20.00     0.164 C 
HETATM    4  C4  UNL     1     -34.941  15.547  -5.668  1.00 20.00     0.113 C 
HETATM    5  N8  UNL     1     -35.536  17.202  -0.819  1.00 20.00    -0.196 NA
HETATM    6  S9  UNL     1     -33.279  16.229  -5.352  1.00 20.00    -0.151 SA
HETATM    7  S10 UNL     1     -36.015  15.870  -4.236  1.00 20.00    -0.133 SA
ENDROOT
BRANCH   4   8
HETATM    8  C7  UNL     1     -34.840  14.048  -5.917  1.00 20.00     0.001 C 
HETATM    9  C5  UNL     1     -36.038  13.318  -5.308  1.00 20.00     0.011 C 
HETATM   10  C6  UNL     1     -34.742  13.755  -7.414  1.00 20.00     0.011 C 
ENDBRANCH   4   8
TORSDOF 1
ENDMDL
MODEL 7
REMARK VINA RESULT:      -3.6      1.529      1.767
REMARK  1 active torsions:
REMARK  status: ('A' for Active; 'I' for Inactive)
REMARK    1  A    between atoms: C4_4  and  C7_7 
ROOT
HETATM    1  C1  UNL     1     -37.171  14.793  -4.871  1.00 20.00     0.075 C 
HETATM    2  C2  UNL     1     -35.652  16.314  -6.080  1.00 20.00     0.105 C 
HETATM    3  C3  UNL     1     -36.144  15.829  -4.724  1.00 20.00     0.164 C 
HETATM    4  C4  UNL     1     -33.571  16.560  -4.320  1.00 20.00     0.113 C 
HETATM    5  N8  UNL     1     -37.983  13.972  -4.988  1.00 20.00    -0.196 NA
HETATM    6  S9  UNL     1     -34.196  17.370  -5.829  1.00 20.00    -0.151 SA
HETATM    7  S10 UNL     1     -34.682  15.197  -3.854  1.00 20.00    -0.133 SA
ENDROOT
BRANCH   4   8
HETATM    8  C7  UNL     1     -33.488  17.576  -3.190  1.00 20.00     0.001 C 
HETATM    9  C5  UNL     1     -34.261  18.846  -3.548  1.00 20.00     0.011 C 
HETATM   10  C6  UNL     1     -34.017  16.980  -1.886  1.00 20.00     0.011 C 
ENDBRANCH   4   8
TORSDOF 1
ENDMDL
MODEL 8
REMARK VINA RESULT:      -3.5      2.640      3.696
REMARK  1 active torsions:
REMARK  status: ('A' for Active; 'I' for Inactive)
REMARK    1  A    between atoms: C4_4  and  C7_7 
ROOT
HETATM    1  C1  UNL     1     -37.890  14.477  -5.356  1.00 20.00     0.075 C 
HETATM    2  C2  UNL     1     -36.194  13.882  -7.044  1.00 20.00     0.105 C 
HETATM    3  C3  UNL     1     -36.548  14.776  -5.865  1.00 20.00     0.164 C 
HETATM    4  C4  UNL     1     -33.861  14.486  -5.747  1.00 20.00     0.113 C 
HETATM    5  N8  UNL     1     -38.952  14.238  -4.953  1.00 20.00    -0.196 NA
HETATM    6  S9  UNL     1     -34.434  14.101  -7.435  1.00 20.00    -0.151 SA
HETATM    7  S10 UNL     1     -35.277  14.476  -4.605  1.00 20.00    -0.133 SA
ENDROOT
BRANCH   4   8
HETATM    8  C7  UNL     1     -33.189  15.852  -5.733  1.00 20.00     0.001 C 
HETATM    9  C5  UNL     1     -33.661  16.698  -6.917  1.00 20.00     0.011 C 
HETATM   10  C6  UNL     1     -33.463  16.577  -4.416  1.00 20.00     0.011 C 
ENDBRANCH   4   8
TORSDOF 1
ENDMDL
MODEL 9
REMARK VINA RESULT:      -3.4      5.601      7.366
REMARK  1 active torsions:
REMARK  status: ('A' for Active; 'I' for Inactive)
REMARK    1  A    between atoms: C4_4  and  C7_7 
ROOT
HETATM    1  C1  UNL     1     -33.152  18.669   4.329  1.00 20.00     0.075 C 
HETATM    2  C2  UNL     1     -31.785  18.970   2.299  1.00 20.00     0.105 C 
HETATM    3  C3  UNL     1     -33.048  18.368   2.898  1.00 20.00     0.164 C 
HETATM    4  C4  UNL     1     -33.675  18.907   0.322  1.00 20.00     0.113 C 
HETATM    5  N8  UNL     1     -33.235  18.909   5.461  1.00 20.00    -0.196 NA
HETATM    6  S9  UNL     1     -31.862  18.811   0.492  1.00 20.00    -0.151 SA
HETATM    7  S10 UNL     1     -34.434  19.078   1.966  1.00 20.00    -0.133 SA
ENDROOT
BRANCH   4   8
HETATM    8  C7  UNL     1     -34.192  17.649  -0.363  1.00 20.00     0.001 C 
HETATM    9  C5  UNL     1     -35.721  17.648  -0.409  1.00 20.00     0.011 C 
HETATM   10  C6  UNL     1     -33.616  17.526  -1.773  1.00 20.00     0.011 C 
ENDBRANCH   4   8
TORSDOF 1
ENDMDL
