MODEL 1
REMARK VINA RESULT:      -4.8      0.000      0.000
REMARK  1 active torsions:
REMARK  status: ('A' for Active; 'I' for Inactive)
REMARK    1  A    between atoms: C9_9  and  C12_12 
ROOT
HETATM    1  C1  UNL     1     -37.731  15.244  -4.545  1.00 20.00     0.012 C 
HETATM    2  C2  UNL     1     -37.555  14.057  -5.130  1.00 20.00     0.052 C 
HETATM    3  C3  UNL     1     -33.911  15.893  -3.033  1.00 20.00    -0.025 C 
HETATM    4  C4  UNL     1     -34.129  15.035  -4.044  1.00 20.00    -0.008 C 
HETATM    5  C5  UNL     1     -36.285  16.733  -3.189  1.00 20.00    -0.014 C 
HETATM    6  C6  UNL     1     -36.480  15.856  -4.184  1.00 20.00    -0.041 C 
HETATM    7  C7  UNL     1     -36.088  13.874  -5.218  1.00 20.00     0.166 C 
HETATM    8  C8  UNL     1     -34.899  16.971  -2.644  1.00 20.00     0.054 C 
HETATM    9  C9  UNL     1     -35.348  15.163  -4.907  1.00 20.00     0.071 C 
HETATM   10  O13 UNL     1     -35.572  12.819  -5.559  1.00 20.00    -0.292 OA
ENDROOT
BRANCH   9  11
HETATM   11  C12 UNL     1     -34.994  15.859  -6.229  1.00 20.00     0.002 C 
HETATM   12  C10 UNL     1     -35.290  17.352  -6.137  1.00 20.00     0.011 C 
HETATM   13  C11 UNL     1     -33.530  15.616  -6.579  1.00 20.00     0.011 C 
ENDBRANCH   9  11
TORSDOF 1
ENDMDL
MODEL 2
REMARK VINA RESULT:      -4.8      1.290      3.289
REMARK  1 active torsions:
REMARK  status: ('A' for Active; 'I' for Inactive)
REMARK    1  A    between atoms: C9_9  and  C12_12 
ROOT
HETATM    1  C1  UNL     1     -34.437  13.646  -7.225  1.00 20.00     0.012 C 
HETATM    2  C2  UNL     1     -35.489  12.981  -6.743  1.00 20.00     0.052 C 
HETATM    3  C3  UNL     1     -35.363  17.501  -5.970  1.00 20.00    -0.025 C 
HETATM    4  C4  UNL     1     -35.905  16.421  -5.380  1.00 20.00    -0.008 C 
HETATM    5  C5  UNL     1     -33.777  16.034  -7.273  1.00 20.00    -0.014 C 
HETATM    6  C6  UNL     1     -34.346  14.975  -6.682  1.00 20.00    -0.041 C 
HETATM    7  C7  UNL     1     -36.125  13.900  -5.771  1.00 20.00     0.166 C 
HETATM    8  C8  UNL     1     -34.110  17.432  -6.815  1.00 20.00     0.054 C 
HETATM    9  C9  UNL     1     -35.229  15.086  -5.461  1.00 20.00     0.071 C 
HETATM   10  O13 UNL     1     -37.211  13.672  -5.258  1.00 20.00    -0.292 OA
ENDROOT
BRANCH   9  11
HETATM   11  C12 UNL     1     -34.462  14.798  -4.163  1.00 20.00     0.002 C 
HETATM   12  C10 UNL     1     -32.961  14.774  -4.430  1.00 20.00     0.011 C 
HETATM   13  C11 UNL     1     -34.809  15.836  -3.102  1.00 20.00     0.011 C 
ENDBRANCH   9  11
TORSDOF 1
ENDMDL
MODEL 3
REMARK VINA RESULT:      -4.7      1.345      1.538
REMARK  1 active torsions:
REMARK  status: ('A' for Active; 'I' for Inactive)
REMARK    1  A    between atoms: C9_9  and  C12_12 
ROOT
HETATM    1  C1  UNL     1     -37.055  15.668  -4.777  1.00 20.00     0.012 C 
HETATM    2  C2  UNL     1     -37.325  14.363  -4.842  1.00 20.00     0.052 C 
HETATM    3  C3  UNL     1     -32.898  15.567  -4.866  1.00 20.00    -0.025 C 
HETATM    4  C4  UNL     1     -33.635  14.538  -5.318  1.00 20.00    -0.008 C 
HETATM    5  C5  UNL     1     -34.966  16.996  -4.649  1.00 20.00    -0.014 C 
HETATM    6  C6  UNL     1     -35.678  15.949  -5.087  1.00 20.00    -0.041 C 
HETATM    7  C7  UNL     1     -36.062  13.720  -5.275  1.00 20.00     0.166 C 
HETATM    8  C8  UNL     1     -33.459  16.961  -4.685  1.00 20.00     0.054 C 
HETATM    9  C9  UNL     1     -35.053  14.747  -5.756  1.00 20.00     0.071 C 
HETATM   10  O13 UNL     1     -35.906  12.507  -5.283  1.00 20.00    -0.292 OA
ENDROOT
BRANCH   9  11
HETATM   11  C12 UNL     1     -35.130  14.832  -7.288  1.00 20.00     0.002 C 
HETATM   12  C10 UNL     1     -35.134  16.289  -7.736  1.00 20.00     0.011 C 
HETATM   13  C11 UNL     1     -33.969  14.072  -7.918  1.00 20.00     0.011 C 
ENDBRANCH   9  11
TORSDOF 1
ENDMDL
MODEL 4
REMARK VINA RESULT:      -4.6      1.275      1.891
REMARK  1 active torsions:
REMARK  status: ('A' for Active; 'I' for Inactive)
REMARK    1  A    between atoms: C9_9  and  C12_12 
ROOT
HETATM    1  C1  UNL     1     -36.589  15.369  -7.153  1.00 20.00     0.012 C 
HETATM    2  C2  UNL     1     -36.580  14.039  -7.037  1.00 20.00     0.052 C 
HETATM    3  C3  UNL     1     -35.751  16.459  -3.229  1.00 20.00    -0.025 C 
HETATM    4  C4  UNL     1     -35.444  15.237  -3.699  1.00 20.00    -0.008 C 
HETATM    5  C5  UNL     1     -36.332  17.245  -5.554  1.00 20.00    -0.014 C 
HETATM    6  C6  UNL     1     -36.034  16.014  -5.993  1.00 20.00    -0.041 C 
HETATM    7  C7  UNL     1     -35.930  13.762  -5.735  1.00 20.00     0.166 C 
HETATM    8  C8  UNL     1     -36.024  17.641  -4.132  1.00 20.00     0.054 C 
HETATM    9  C9  UNL     1     -35.269  15.006  -5.169  1.00 20.00     0.071 C 
HETATM   10  O13 UNL     1     -35.898  12.646  -5.236  1.00 20.00    -0.292 OA
ENDROOT
BRANCH   9  11
HETATM   11  C12 UNL     1     -33.776  14.978  -5.530  1.00 20.00     0.002 C 
HETATM   12  C10 UNL     1     -33.323  16.350  -6.012  1.00 20.00     0.011 C 
HETATM   13  C11 UNL     1     -32.952  14.524  -4.330  1.00 20.00     0.011 C 
ENDBRANCH   9  11
TORSDOF 1
ENDMDL
MODEL 5
REMARK VINA RESULT:      -4.5      2.350      3.801
REMARK  1 active torsions:
REMARK  status: ('A' for Active; 'I' for Inactive)
REMARK    1  A    between atoms: C9_9  and  C12_12 
ROOT
HETATM    1  C1  UNL     1     -35.236  16.683  -1.564  1.00 20.00     0.012 C 
HETATM    2  C2  UNL     1     -34.118  17.398  -1.415  1.00 20.00     0.052 C 
HETATM    3  C3  UNL     1     -36.018  17.365  -5.591  1.00 20.00    -0.025 C 
HETATM    4  C4  UNL     1     -34.787  17.534  -5.076  1.00 20.00    -0.008 C 
HETATM    5  C5  UNL     1     -36.807  16.304  -3.442  1.00 20.00    -0.014 C 
HETATM    6  C6  UNL     1     -35.577  16.499  -2.949  1.00 20.00    -0.041 C 
HETATM    7  C7  UNL     1     -33.640  17.673  -2.790  1.00 20.00     0.166 C 
HETATM    8  C8  UNL     1     -37.089  16.548  -4.904  1.00 20.00     0.054 C 
HETATM    9  C9  UNL     1     -34.384  16.834  -3.814  1.00 20.00     0.071 C 
HETATM   10  O13 UNL     1     -32.721  18.443  -3.030  1.00 20.00    -0.292 OA
ENDROOT
BRANCH   9  11
HETATM   11  C12 UNL     1     -33.539  15.593  -4.140  1.00 20.00     0.002 C 
HETATM   12  C10 UNL     1     -34.398  14.335  -4.067  1.00 20.00     0.011 C 
HETATM   13  C11 UNL     1     -32.900  15.736  -5.516  1.00 20.00     0.011 C 
ENDBRANCH   9  11
TORSDOF 1
ENDMDL
MODEL 6
REMARK VINA RESULT:      -4.5      1.581      3.350
REMARK  1 active torsions:
REMARK  status: ('A' for Active; 'I' for Inactive)
REMARK    1  A    between atoms: C9_9  and  C12_12 
ROOT
HETATM    1  C1  UNL     1     -36.741  13.900  -5.463  1.00 20.00     0.012 C 
HETATM    2  C2  UNL     1     -37.439  14.709  -4.663  1.00 20.00     0.052 C 
HETATM    3  C3  UNL     1     -33.878  16.559  -6.887  1.00 20.00    -0.025 C 
HETATM    4  C4  UNL     1     -34.551  16.796  -5.747  1.00 20.00    -0.008 C 
HETATM    5  C5  UNL     1     -34.823  14.223  -6.999  1.00 20.00    -0.014 C 
HETATM    6  C6  UNL     1     -35.494  14.491  -5.871  1.00 20.00    -0.041 C 
HETATM    7  C7  UNL     1     -36.588  15.907  -4.474  1.00 20.00     0.166 C 
HETATM    8  C8  UNL     1     -33.782  15.185  -7.512  1.00 20.00     0.054 C 
HETATM    9  C9  UNL     1     -35.177  15.670  -4.981  1.00 20.00     0.071 C 
HETATM   10  O13 UNL     1     -36.988  16.923  -3.923  1.00 20.00    -0.292 OA
ENDROOT
BRANCH   9  11
HETATM   11  C12 UNL     1     -34.287  15.275  -3.793  1.00 20.00     0.002 C 
HETATM   12  C10 UNL     1     -33.186  14.325  -4.250  1.00 20.00     0.011 C 
HETATM   13  C11 UNL     1     -33.694  16.519  -3.141  1.00 20.00     0.011 C 
ENDBRANCH   9  11
TORSDOF 1
ENDMDL
MODEL 7
REMARK VINA RESULT:      -4.4      1.250      3.328
REMARK  1 active torsions:
REMARK  status: ('A' for Active; 'I' for Inactive)
REMARK    1  A    between atoms: C9_9  and  C12_12 
ROOT
HETATM    1  C1  UNL     1     -33.935  15.243  -4.205  1.00 20.00     0.012 C 
HETATM    2  C2  UNL     1     -34.217  13.939  -4.152  1.00 20.00     0.052 C 
HETATM    3  C3  UNL     1     -36.401  16.403  -7.346  1.00 20.00    -0.025 C 
HETATM    4  C4  UNL     1     -36.632  15.275  -6.652  1.00 20.00    -0.008 C 
HETATM    5  C5  UNL     1     -34.635  17.102  -5.686  1.00 20.00    -0.014 C 
HETATM    6  C6  UNL     1     -34.874  15.963  -5.023  1.00 20.00    -0.041 C 
HETATM    7  C7  UNL     1     -35.457  13.771  -4.944  1.00 20.00     0.166 C 
HETATM    8  C8  UNL     1     -35.532  17.525  -6.822  1.00 20.00     0.054 C 
HETATM    9  C9  UNL     1     -36.098  15.110  -5.261  1.00 20.00     0.071 C 
HETATM   10  O13 UNL     1     -35.911  12.674  -5.238  1.00 20.00    -0.292 OA
ENDROOT
BRANCH   9  11
HETATM   11  C12 UNL     1     -37.203  15.383  -4.231  1.00 20.00     0.002 C 
HETATM   12  C10 UNL     1     -37.187  16.849  -3.814  1.00 20.00     0.011 C 
HETATM   13  C11 UNL     1     -38.564  14.994  -4.799  1.00 20.00     0.011 C 
ENDBRANCH   9  11
TORSDOF 1
ENDMDL
MODEL 8
REMARK VINA RESULT:      -4.4      2.089      3.506
REMARK  1 active torsions:
REMARK  status: ('A' for Active; 'I' for Inactive)
REMARK    1  A    between atoms: C9_9  and  C12_12 
ROOT
HETATM    1  C1  UNL     1     -33.284  18.663  -4.619  1.00 20.00     0.012 C 
HETATM    2  C2  UNL     1     -34.149  18.370  -5.593  1.00 20.00     0.052 C 
HETATM    3  C3  UNL     1     -35.160  16.829  -1.392  1.00 20.00    -0.025 C 
HETATM    4  C4  UNL     1     -35.430  16.468  -2.658  1.00 20.00    -0.008 C 
HETATM    5  C5  UNL     1     -33.235  18.259  -2.174  1.00 20.00    -0.014 C 
HETATM    6  C6  UNL     1     -33.536  17.895  -3.428  1.00 20.00    -0.041 C 
HETATM    7  C7  UNL     1     -35.012  17.298  -5.045  1.00 20.00     0.166 C 
HETATM    8  C8  UNL     1     -33.912  17.591  -1.004  1.00 20.00     0.054 C 
HETATM    9  C9  UNL     1     -34.444  16.733  -3.756  1.00 20.00     0.071 C 
HETATM   10  O13 UNL     1     -36.019  16.902  -5.616  1.00 20.00    -0.292 OA
ENDROOT
BRANCH   9  11
HETATM   11  C12 UNL     1     -33.655  15.456  -4.083  1.00 20.00     0.002 C 
HETATM   12  C10 UNL     1     -34.578  14.244  -4.056  1.00 20.00     0.011 C 
HETATM   13  C11 UNL     1     -32.973  15.591  -5.439  1.00 20.00     0.011 C 
ENDBRANCH   9  11
TORSDOF 1
ENDMDL
MODEL 9
REMARK VINA RESULT:      -4.3      1.465      3.258
REMARK  1 active torsions:
REMARK  status: ('A' for Active; 'I' for Inactive)
REMARK    1  A    between atoms: C9_9  and  C12_12 
ROOT
HETATM    1  C1  UNL     1     -35.326  16.321  -3.963  1.00 20.00     0.012 C 
HETATM    2  C2  UNL     1     -34.472  15.469  -3.391  1.00 20.00     0.052 C 
HETATM    3  C3  UNL     1     -34.063  16.087  -7.918  1.00 20.00    -0.025 C 
HETATM    4  C4  UNL     1     -33.785  15.114  -7.034  1.00 20.00    -0.008 C 
HETATM    5  C5  UNL     1     -35.617  17.191  -6.265  1.00 20.00    -0.014 C 
HETATM    6  C6  UNL     1     -35.309  16.217  -5.397  1.00 20.00    -0.041 C 
HETATM    7  C7  UNL     1     -33.873  14.702  -4.507  1.00 20.00     0.166 C 
HETATM    8  C8  UNL     1     -35.162  17.104  -7.700  1.00 20.00     0.054 C 
HETATM    9  C9  UNL     1     -34.625  14.933  -5.805  1.00 20.00     0.071 C 
HETATM   10  O13 UNL     1     -32.927  13.942  -4.355  1.00 20.00    -0.292 OA
ENDROOT
BRANCH   9  11
HETATM   11  C12 UNL     1     -35.624  13.784  -6.007  1.00 20.00     0.002 C 
HETATM   12  C10 UNL     1     -37.026  14.336  -6.232  1.00 20.00     0.011 C 
HETATM   13  C11 UNL     1     -35.190  12.907  -7.177  1.00 20.00     0.011 C 
ENDBRANCH   9  11
TORSDOF 1
ENDMDL
