MODEL 1
REMARK VINA RESULT:      -5.6      0.000      0.000
REMARK  1 active torsions:
REMARK  status: ('A' for Active; 'I' for Inactive)
REMARK    1  A    between atoms: C5_5  and  C8_8 
ROOT
HETATM    1  C1  UNL     1     -33.611   5.855   2.756  1.00 20.00     0.006 A 
HETATM    2  C2  UNL     1     -33.955   5.316   3.923  1.00 20.00     0.076 A 
HETATM    3  C3  UNL     1     -34.114   6.421   4.875  1.00 20.00     0.171 A 
HETATM    4  C4  UNL     1     -33.865   7.747   4.209  1.00 20.00     0.093 A 
HETATM    5  C5  UNL     1     -33.485   7.352   2.775  1.00 20.00     0.020 A 
HETATM    6  O9  UNL     1     -34.418   6.279   6.049  1.00 20.00    -0.291 OA
HETATM    7 CL10 UNL     1     -34.191   3.694   4.309  1.00 20.00    -0.081 Cl
ENDROOT
BRANCH   5   8
HETATM    8  C8  UNL     1     -32.075   7.800   2.408  1.00 20.00    -0.015 C 
HETATM    9  C6  UNL     1     -32.116   8.863   1.311  1.00 20.00     0.010 C 
HETATM   10  C7  UNL     1     -31.339   8.328   3.639  1.00 20.00     0.010 C 
ENDBRANCH   5   8
TORSDOF 1
ENDMDL
MODEL 2
REMARK VINA RESULT:      -5.1      1.750      2.375
REMARK  1 active torsions:
REMARK  status: ('A' for Active; 'I' for Inactive)
REMARK    1  A    between atoms: C5_5  and  C8_8 
ROOT
HETATM    1  C1  UNL     1     -32.448   7.798   3.924  1.00 20.00     0.006 A 
HETATM    2  C2  UNL     1     -33.445   7.212   4.581  1.00 20.00     0.076 A 
HETATM    3  C3  UNL     1     -34.106   6.306   3.635  1.00 20.00     0.171 A 
HETATM    4  C4  UNL     1     -33.425   6.333   2.294  1.00 20.00     0.093 A 
HETATM    5  C5  UNL     1     -32.319   7.382   2.486  1.00 20.00     0.020 A 
HETATM    6  O9  UNL     1     -35.074   5.613   3.909  1.00 20.00    -0.291 OA
HETATM    7 CL10 UNL     1     -33.916   7.413   6.185  1.00 20.00    -0.081 Cl
ENDROOT
BRANCH   5   8
HETATM    8  C8  UNL     1     -32.480   8.568   1.542  1.00 20.00    -0.015 C 
HETATM    9  C6  UNL     1     -32.415   9.884   2.316  1.00 20.00     0.010 C 
HETATM   10  C7  UNL     1     -31.412   8.537   0.450  1.00 20.00     0.010 C 
ENDBRANCH   5   8
TORSDOF 1
ENDMDL
MODEL 3
REMARK VINA RESULT:      -5.0      1.864      2.580
REMARK  1 active torsions:
REMARK  status: ('A' for Active; 'I' for Inactive)
REMARK    1  A    between atoms: C5_5  and  C8_8 
ROOT
HETATM    1  C1  UNL     1     -33.462   6.224   2.698  1.00 20.00     0.006 A 
HETATM    2  C2  UNL     1     -33.379   4.901   2.815  1.00 20.00     0.076 A 
HETATM    3  C3  UNL     1     -34.176   4.525   3.988  1.00 20.00     0.171 A 
HETATM    4  C4  UNL     1     -34.817   5.732   4.616  1.00 20.00     0.093 A 
HETATM    5  C5  UNL     1     -34.295   6.892   3.755  1.00 20.00     0.020 A 
HETATM    6  O9  UNL     1     -34.309   3.379   4.390  1.00 20.00    -0.291 OA
HETATM    7 CL10 UNL     1     -32.548   3.804   1.845  1.00 20.00    -0.081 Cl
ENDROOT
BRANCH   5   8
HETATM    8  C8  UNL     1     -33.476   7.889   4.567  1.00 20.00    -0.015 C 
HETATM    9  C6  UNL     1     -33.436   7.481   6.039  1.00 20.00     0.010 C 
HETATM   10  C7  UNL     1     -32.060   8.008   4.005  1.00 20.00     0.010 C 
ENDBRANCH   5   8
TORSDOF 1
ENDMDL
MODEL 4
REMARK VINA RESULT:      -4.9      2.628      4.093
REMARK  1 active torsions:
REMARK  status: ('A' for Active; 'I' for Inactive)
REMARK    1  A    between atoms: C5_5  and  C8_8 
ROOT
HETATM    1  C1  UNL     1     -33.963   7.170   4.771  1.00 20.00     0.006 A 
HETATM    2  C2  UNL     1     -32.889   7.658   4.155  1.00 20.00     0.076 A 
HETATM    3  C3  UNL     1     -32.871   7.083   2.806  1.00 20.00     0.171 A 
HETATM    4  C4  UNL     1     -34.059   6.186   2.585  1.00 20.00     0.093 A 
HETATM    5  C5  UNL     1     -34.779   6.219   3.942  1.00 20.00     0.020 A 
HETATM    6  O9  UNL     1     -32.010   7.314   1.971  1.00 20.00    -0.291 OA
HETATM    7 CL10 UNL     1     -31.734   8.735   4.740  1.00 20.00    -0.081 Cl
ENDROOT
BRANCH   5   8
HETATM    8  C8  UNL     1     -34.858   4.840   4.585  1.00 20.00    -0.015 C 
HETATM    9  C6  UNL     1     -33.876   3.877   3.918  1.00 20.00     0.010 C 
HETATM   10  C7  UNL     1     -34.585   4.928   6.086  1.00 20.00     0.010 C 
ENDBRANCH   5   8
TORSDOF 1
ENDMDL
MODEL 5
REMARK VINA RESULT:      -4.7      2.589      3.953
REMARK  1 active torsions:
REMARK  status: ('A' for Active; 'I' for Inactive)
REMARK    1  A    between atoms: C5_5  and  C8_8 
ROOT
HETATM    1  C1  UNL     1     -33.898   7.360   3.606  1.00 20.00     0.006 A 
HETATM    2  C2  UNL     1     -32.970   6.888   2.777  1.00 20.00     0.076 A 
HETATM    3  C3  UNL     1     -33.173   5.438   2.689  1.00 20.00     0.171 A 
HETATM    4  C4  UNL     1     -34.348   5.005   3.524  1.00 20.00     0.093 A 
HETATM    5  C5  UNL     1     -34.814   6.315   4.176  1.00 20.00     0.020 A 
HETATM    6  O9  UNL     1     -32.484   4.686   2.017  1.00 20.00    -0.291 OA
HETATM    7 CL10 UNL     1     -31.769   7.727   1.947  1.00 20.00    -0.081 Cl
ENDROOT
BRANCH   5   8
HETATM    8  C8  UNL     1     -34.727   6.264   5.697  1.00 20.00    -0.015 C 
HETATM    9  C6  UNL     1     -34.425   4.843   6.171  1.00 20.00     0.010 C 
HETATM   10  C7  UNL     1     -33.666   7.236   6.210  1.00 20.00     0.010 C 
ENDBRANCH   5   8
TORSDOF 1
ENDMDL
MODEL 6
REMARK VINA RESULT:      -4.4     11.307     12.059
REMARK  1 active torsions:
REMARK  status: ('A' for Active; 'I' for Inactive)
REMARK    1  A    between atoms: C5_5  and  C8_8 
ROOT
HETATM    1  C1  UNL     1     -36.420  15.642  -3.868  1.00 20.00     0.006 A 
HETATM    2  C2  UNL     1     -36.832  14.658  -4.663  1.00 20.00     0.076 A 
HETATM    3  C3  UNL     1     -35.681  13.774  -4.880  1.00 20.00     0.171 A 
HETATM    4  C4  UNL     1     -34.475  14.262  -4.124  1.00 20.00     0.093 A 
HETATM    5  C5  UNL     1     -34.975  15.557  -3.467  1.00 20.00     0.020 A 
HETATM    6  O9  UNL     1     -35.706  12.769  -5.574  1.00 20.00    -0.291 OA
HETATM    7 CL10 UNL     1     -38.359  14.401  -5.325  1.00 20.00    -0.081 Cl
ENDROOT
BRANCH   5   8
HETATM    8  C8  UNL     1     -34.192  16.779  -3.933  1.00 20.00    -0.015 C 
HETATM    9  C6  UNL     1     -33.438  17.413  -2.765  1.00 20.00     0.010 C 
HETATM   10  C7  UNL     1     -33.224  16.404  -5.055  1.00 20.00     0.010 C 
ENDBRANCH   5   8
TORSDOF 1
ENDMDL
MODEL 7
REMARK VINA RESULT:      -4.4     11.913     12.419
REMARK  1 active torsions:
REMARK  status: ('A' for Active; 'I' for Inactive)
REMARK    1  A    between atoms: C5_5  and  C8_8 
ROOT
HETATM    1  C1  UNL     1     -34.037  18.545   1.005  1.00 20.00     0.006 A 
HETATM    2  C2  UNL     1     -32.924  18.656   1.726  1.00 20.00     0.076 A 
HETATM    3  C3  UNL     1     -31.807  18.738   0.779  1.00 20.00     0.171 A 
HETATM    4  C4  UNL     1     -32.299  18.697  -0.642  1.00 20.00     0.093 A 
HETATM    5  C5  UNL     1     -33.817  18.527  -0.481  1.00 20.00     0.020 A 
HETATM    6  O9  UNL     1     -30.634  18.838   1.106  1.00 20.00    -0.291 OA
HETATM    7 CL10 UNL     1     -32.751  18.708   3.401  1.00 20.00    -0.081 Cl
ENDROOT
BRANCH   5   8
HETATM    8  C8  UNL     1     -34.321  17.231  -1.106  1.00 20.00    -0.015 C 
HETATM    9  C6  UNL     1     -35.828  17.300  -1.348  1.00 20.00     0.010 C 
HETATM   10  C7  UNL     1     -33.581  16.938  -2.410  1.00 20.00     0.010 C 
ENDBRANCH   5   8
TORSDOF 1
ENDMDL
MODEL 8
REMARK VINA RESULT:      -4.3      2.954      4.093
REMARK  1 active torsions:
REMARK  status: ('A' for Active; 'I' for Inactive)
REMARK    1  A    between atoms: C5_5  and  C8_8 
ROOT
HETATM    1  C1  UNL     1     -33.342   7.008   1.996  1.00 20.00     0.006 A 
HETATM    2  C2  UNL     1     -32.896   8.182   1.559  1.00 20.00     0.076 A 
HETATM    3  C3  UNL     1     -32.126   8.782   2.654  1.00 20.00     0.171 A 
HETATM    4  C4  UNL     1     -32.087   7.869   3.849  1.00 20.00     0.093 A 
HETATM    5  C5  UNL     1     -32.950   6.678   3.408  1.00 20.00     0.020 A 
HETATM    6  O9  UNL     1     -31.580   9.873   2.594  1.00 20.00    -0.291 OA
HETATM    7 CL10 UNL     1     -33.122   8.906   0.055  1.00 20.00    -0.081 Cl
ENDROOT
BRANCH   5   8
HETATM    8  C8  UNL     1     -34.173   6.491   4.299  1.00 20.00    -0.015 C 
HETATM    9  C6  UNL     1     -34.548   5.013   4.395  1.00 20.00     0.010 C 
HETATM   10  C7  UNL     1     -33.920   7.071   5.690  1.00 20.00     0.010 C 
ENDBRANCH   5   8
TORSDOF 1
ENDMDL
MODEL 9
REMARK VINA RESULT:      -4.3     11.582     12.158
REMARK  1 active torsions:
REMARK  status: ('A' for Active; 'I' for Inactive)
REMARK    1  A    between atoms: C5_5  and  C8_8 
ROOT
HETATM    1  C1  UNL     1     -35.226  16.594  -2.044  1.00 20.00     0.006 A 
HETATM    2  C2  UNL     1     -34.440  17.369  -1.302  1.00 20.00     0.076 A 
HETATM    3  C3  UNL     1     -33.327  17.795  -2.159  1.00 20.00     0.171 A 
HETATM    4  C4  UNL     1     -33.475  17.242  -3.550  1.00 20.00     0.093 A 
HETATM    5  C5  UNL     1     -34.751  16.393  -3.455  1.00 20.00     0.020 A 
HETATM    6  O9  UNL     1     -32.410  18.512  -1.789  1.00 20.00    -0.291 OA
HETATM    7 CL10 UNL     1     -34.621  17.826   0.309  1.00 20.00    -0.081 Cl
ENDROOT
BRANCH   5   8
HETATM    8  C8  UNL     1     -34.488  14.922  -3.754  1.00 20.00    -0.015 C 
HETATM    9  C6  UNL     1     -35.588  14.348  -4.646  1.00 20.00     0.010 C 
HETATM   10  C7  UNL     1     -33.119  14.741  -4.408  1.00 20.00     0.010 C 
ENDBRANCH   5   8
TORSDOF 1
ENDMDL
