MODEL 1
REMARK VINA RESULT:      -4.9      0.000      0.000
REMARK  3 active torsions:
REMARK  status: ('A' for Active; 'I' for Inactive)
REMARK    1  A    between atoms: C1_1  and  C7_7 
REMARK    2  A    between atoms: C1_1  and  N9_9 
REMARK    3  A    between atoms: C7_7  and  C8_8 
ROOT
HETATM    1  C2  UNL     1     -34.082   4.403   4.039  1.00 20.00     0.021 C 
HETATM    2  C3  UNL     1     -34.897   5.408   4.838  1.00 20.00     0.021 C 
HETATM    3  C4  UNL     1     -33.478   5.260   2.930  1.00 20.00     0.123 C 
HETATM    4  C5  UNL     1     -34.015   6.652   4.823  1.00 20.00     0.123 C 
HETATM    5  N9  UNL     1     -33.312   6.571   3.547  1.00 20.00    -0.375 N 
ENDROOT
BRANCH   5   6
HETATM    6  C1  UNL     1     -32.594   7.588   3.003  1.00 20.00     0.075 C 
HETATM    7  S10 UNL     1     -31.333   8.323   3.816  1.00 20.00    -0.066 SA
BRANCH   6   8
HETATM    8  C7  UNL     1     -33.005   7.990   1.603  1.00 20.00     0.069 C 
BRANCH   8   9
HETATM    9  C8  UNL     1     -32.010   8.985   1.006  1.00 20.00     0.002 C 
HETATM   10  C6  UNL     1     -32.638  10.358   0.824  1.00 20.00     0.005 C 
ENDBRANCH   8   9
ENDBRANCH   6   8
ENDBRANCH   5   6
TORSDOF 3
ENDMDL
MODEL 2
REMARK VINA RESULT:      -4.2      1.487      4.531
REMARK  3 active torsions:
REMARK  status: ('A' for Active; 'I' for Inactive)
REMARK    1  A    between atoms: C1_1  and  C7_7 
REMARK    2  A    between atoms: C1_1  and  N9_9 
REMARK    3  A    between atoms: C7_7  and  C8_8 
ROOT
HETATM    1  C2  UNL     1     -31.103   8.599   2.422  1.00 20.00     0.021 C 
HETATM    2  C3  UNL     1     -32.282   8.753   1.474  1.00 20.00     0.021 C 
HETATM    3  C4  UNL     1     -31.777   8.330   3.764  1.00 20.00     0.123 C 
HETATM    4  C5  UNL     1     -33.261   7.696   1.974  1.00 20.00     0.123 C 
HETATM    5  N9  UNL     1     -33.003   7.625   3.409  1.00 20.00    -0.375 N 
ENDROOT
BRANCH   5   6
HETATM    6  C1  UNL     1     -33.803   6.984   4.300  1.00 20.00     0.075 C 
HETATM    7  S10 UNL     1     -33.699   7.252   5.946  1.00 20.00    -0.066 SA
BRANCH   6   8
HETATM    8  C7  UNL     1     -34.807   6.028   3.692  1.00 20.00     0.069 C 
BRANCH   8   9
HETATM    9  C8  UNL     1     -34.993   4.795   4.578  1.00 20.00     0.002 C 
HETATM   10  C6  UNL     1     -33.907   3.762   4.328  1.00 20.00     0.005 C 
ENDBRANCH   8   9
ENDBRANCH   6   8
ENDBRANCH   5   6
TORSDOF 3
ENDMDL
MODEL 3
REMARK VINA RESULT:      -4.0      1.313      4.659
REMARK  3 active torsions:
REMARK  status: ('A' for Active; 'I' for Inactive)
REMARK    1  A    between atoms: C1_1  and  C7_7 
REMARK    2  A    between atoms: C1_1  and  N9_9 
REMARK    3  A    between atoms: C7_7  and  C8_8 
ROOT
HETATM    1  C2  UNL     1     -32.539   9.908   1.014  1.00 20.00     0.021 C 
HETATM    2  C3  UNL     1     -31.400   8.920   0.813  1.00 20.00     0.021 C 
HETATM    3  C4  UNL     1     -33.591   9.073   1.737  1.00 20.00     0.123 C 
HETATM    4  C5  UNL     1     -31.409   8.122   2.113  1.00 20.00     0.123 C 
HETATM    5  N9  UNL     1     -32.811   8.119   2.518  1.00 20.00    -0.375 N 
ENDROOT
BRANCH   5   6
HETATM    6  C1  UNL     1     -33.324   7.329   3.496  1.00 20.00     0.075 C 
HETATM    7  S10 UNL     1     -33.193   7.718   5.116  1.00 20.00    -0.066 SA
BRANCH   6   8
HETATM    8  C7  UNL     1     -34.038   6.086   3.012  1.00 20.00     0.069 C 
BRANCH   8   9
HETATM    9  C8  UNL     1     -35.010   5.566   4.072  1.00 20.00     0.002 C 
HETATM   10  C6  UNL     1     -34.488   4.298   4.730  1.00 20.00     0.005 C 
ENDBRANCH   8   9
ENDBRANCH   6   8
ENDBRANCH   5   6
TORSDOF 3
ENDMDL
MODEL 4
REMARK VINA RESULT:      -4.0      1.598      2.096
REMARK  3 active torsions:
REMARK  status: ('A' for Active; 'I' for Inactive)
REMARK    1  A    between atoms: C1_1  and  C7_7 
REMARK    2  A    between atoms: C1_1  and  N9_9 
REMARK    3  A    between atoms: C7_7  and  C8_8 
ROOT
HETATM    1  C2  UNL     1     -34.094   7.170   6.291  1.00 20.00     0.021 C 
HETATM    2  C3  UNL     1     -34.524   5.776   5.860  1.00 20.00     0.021 C 
HETATM    3  C4  UNL     1     -33.069   7.554   5.228  1.00 20.00     0.123 C 
HETATM    4  C5  UNL     1     -34.567   5.888   4.339  1.00 20.00     0.123 C 
HETATM    5  N9  UNL     1     -33.529   6.866   4.027  1.00 20.00    -0.375 N 
ENDROOT
BRANCH   5   6
HETATM    6  C1  UNL     1     -33.054   7.105   2.777  1.00 20.00     0.075 C 
HETATM    7  S10 UNL     1     -33.536   6.208   1.453  1.00 20.00    -0.066 SA
BRANCH   6   8
HETATM    8  C7  UNL     1     -32.075   8.254   2.670  1.00 20.00     0.069 C 
BRANCH   8   9
HETATM    9  C8  UNL     1     -32.031   8.803   1.244  1.00 20.00     0.002 C 
HETATM   10  C6  UNL     1     -32.635  10.196   1.165  1.00 20.00     0.005 C 
ENDBRANCH   8   9
ENDBRANCH   6   8
ENDBRANCH   5   6
TORSDOF 3
ENDMDL
MODEL 5
REMARK VINA RESULT:      -4.0      1.719      4.406
REMARK  3 active torsions:
REMARK  status: ('A' for Active; 'I' for Inactive)
REMARK    1  A    between atoms: C1_1  and  C7_7 
REMARK    2  A    between atoms: C1_1  and  N9_9 
REMARK    3  A    between atoms: C7_7  and  C8_8 
ROOT
HETATM    1  C2  UNL     1     -31.309   8.885   2.454  1.00 20.00     0.021 C 
HETATM    2  C3  UNL     1     -32.506   9.259   1.594  1.00 20.00     0.021 C 
HETATM    3  C4  UNL     1     -31.892   7.860   3.422  1.00 20.00     0.123 C 
HETATM    4  C5  UNL     1     -33.228   7.928   1.417  1.00 20.00     0.123 C 
HETATM    5  N9  UNL     1     -32.943   7.203   2.652  1.00 20.00    -0.375 N 
ENDROOT
BRANCH   5   6
HETATM    6  C1  UNL     1     -33.574   6.063   3.034  1.00 20.00     0.075 C 
HETATM    7  S10 UNL     1     -33.006   4.548   2.621  1.00 20.00    -0.066 SA
BRANCH   6   8
HETATM    8  C7  UNL     1     -34.815   6.267   3.876  1.00 20.00     0.069 C 
BRANCH   8   9
HETATM    9  C8  UNL     1     -34.548   5.908   5.338  1.00 20.00     0.002 C 
HETATM   10  C6  UNL     1     -33.932   7.075   6.094  1.00 20.00     0.005 C 
ENDBRANCH   8   9
ENDBRANCH   6   8
ENDBRANCH   5   6
TORSDOF 3
ENDMDL
MODEL 6
REMARK VINA RESULT:      -3.7     11.127     11.770
REMARK  3 active torsions:
REMARK  status: ('A' for Active; 'I' for Inactive)
REMARK    1  A    between atoms: C1_1  and  C7_7 
REMARK    2  A    between atoms: C1_1  and  N9_9 
REMARK    3  A    between atoms: C7_7  and  C8_8 
ROOT
HETATM    1  C2  UNL     1     -33.872  16.220  -3.179  1.00 20.00     0.021 C 
HETATM    2  C3  UNL     1     -35.072  16.616  -2.334  1.00 20.00     0.021 C 
HETATM    3  C4  UNL     1     -34.369  14.980  -3.916  1.00 20.00     0.123 C 
HETATM    4  C5  UNL     1     -36.250  16.336  -3.261  1.00 20.00     0.123 C 
HETATM    5  N9  UNL     1     -35.800  15.212  -4.076  1.00 20.00    -0.375 N 
ENDROOT
BRANCH   5   6
HETATM    6  C1  UNL     1     -36.610  14.477  -4.880  1.00 20.00     0.075 C 
HETATM    7  S10 UNL     1     -38.243  14.797  -5.033  1.00 20.00    -0.066 SA
BRANCH   6   8
HETATM    8  C7  UNL     1     -35.923  13.363  -5.641  1.00 20.00     0.069 C 
BRANCH   8   9
HETATM    9  C8  UNL     1     -35.795  13.713  -7.124  1.00 20.00     0.002 C 
HETATM   10  C6  UNL     1     -34.338  13.809  -7.548  1.00 20.00     0.005 C 
ENDBRANCH   8   9
ENDBRANCH   6   8
ENDBRANCH   5   6
TORSDOF 3
ENDMDL
MODEL 7
REMARK VINA RESULT:      -3.7     11.309     11.925
REMARK  3 active torsions:
REMARK  status: ('A' for Active; 'I' for Inactive)
REMARK    1  A    between atoms: C1_1  and  C7_7 
REMARK    2  A    between atoms: C1_1  and  N9_9 
REMARK    3  A    between atoms: C7_7  and  C8_8 
ROOT
HETATM    1  C2  UNL     1     -34.451  13.702  -7.142  1.00 20.00     0.021 C 
HETATM    2  C3  UNL     1     -35.647  13.313  -6.288  1.00 20.00     0.021 C 
HETATM    3  C4  UNL     1     -34.194  15.148  -6.731  1.00 20.00     0.123 C 
HETATM    4  C5  UNL     1     -35.354  13.999  -4.958  1.00 20.00     0.123 C 
HETATM    5  N9  UNL     1     -34.614  15.198  -5.334  1.00 20.00    -0.375 N 
ENDROOT
BRANCH   5   6
HETATM    6  C1  UNL     1     -34.348  16.230  -4.492  1.00 20.00     0.075 C 
HETATM    7  S10 UNL     1     -33.726  17.684  -5.031  1.00 20.00    -0.066 SA
BRANCH   6   8
HETATM    8  C7  UNL     1     -34.676  15.973  -3.037  1.00 20.00     0.069 C 
BRANCH   8   9
HETATM    9  C8  UNL     1     -33.881  16.909  -2.125  1.00 20.00     0.002 C 
HETATM   10  C6  UNL     1     -34.696  17.325  -0.910  1.00 20.00     0.005 C 
ENDBRANCH   8   9
ENDBRANCH   6   8
ENDBRANCH   5   6
TORSDOF 3
ENDMDL
MODEL 8
REMARK VINA RESULT:      -3.6     10.891     11.587
REMARK  3 active torsions:
REMARK  status: ('A' for Active; 'I' for Inactive)
REMARK    1  A    between atoms: C1_1  and  C7_7 
REMARK    2  A    between atoms: C1_1  and  N9_9 
REMARK    3  A    between atoms: C7_7  and  C8_8 
ROOT
HETATM    1  C2  UNL     1     -35.340  17.101  -0.944  1.00 20.00     0.021 C 
HETATM    2  C3  UNL     1     -34.051  17.880  -1.156  1.00 20.00     0.021 C 
HETATM    3  C4  UNL     1     -35.685  16.625  -2.351  1.00 20.00     0.123 C 
HETATM    4  C5  UNL     1     -33.317  17.048  -2.201  1.00 20.00     0.123 C 
HETATM    5  N9  UNL     1     -34.388  16.453  -2.996  1.00 20.00    -0.375 N 
ENDROOT
BRANCH   5   6
HETATM    6  C1  UNL     1     -34.200  15.821  -4.183  1.00 20.00     0.075 C 
HETATM    7  S10 UNL     1     -33.688  16.629  -5.552  1.00 20.00    -0.066 SA
BRANCH   6   8
HETATM    8  C7  UNL     1     -34.467  14.332  -4.168  1.00 20.00     0.069 C 
BRANCH   8   9
HETATM    9  C8  UNL     1     -35.778  14.004  -4.884  1.00 20.00     0.002 C 
HETATM   10  C6  UNL     1     -35.526  13.361  -6.238  1.00 20.00     0.005 C 
ENDBRANCH   8   9
ENDBRANCH   6   8
ENDBRANCH   5   6
TORSDOF 3
ENDMDL
MODEL 9
REMARK VINA RESULT:      -3.6     11.170     11.615
REMARK  3 active torsions:
REMARK  status: ('A' for Active; 'I' for Inactive)
REMARK    1  A    between atoms: C1_1  and  C7_7 
REMARK    2  A    between atoms: C1_1  and  N9_9 
REMARK    3  A    between atoms: C7_7  and  C8_8 
ROOT
HETATM    1  C2  UNL     1     -37.183  14.294  -5.299  1.00 20.00     0.021 C 
HETATM    2  C3  UNL     1     -35.982  13.367  -5.204  1.00 20.00     0.021 C 
HETATM    3  C4  UNL     1     -36.859  15.377  -4.275  1.00 20.00     0.123 C 
HETATM    4  C5  UNL     1     -34.818  14.335  -5.019  1.00 20.00     0.123 C 
HETATM    5  N9  UNL     1     -35.403  15.457  -4.292  1.00 20.00    -0.375 N 
ENDROOT
BRANCH   5   6
HETATM    6  C1  UNL     1     -34.683  16.449  -3.707  1.00 20.00     0.075 C 
HETATM    7  S10 UNL     1     -33.712  17.485  -4.588  1.00 20.00    -0.066 SA
BRANCH   6   8
HETATM    8  C7  UNL     1     -34.840  16.559  -2.206  1.00 20.00     0.069 C 
BRANCH   8   9
HETATM    9  C8  UNL     1     -33.684  17.348  -1.591  1.00 20.00     0.002 C 
HETATM   10  C6  UNL     1     -34.116  18.075  -0.328  1.00 20.00     0.005 C 
ENDBRANCH   8   9
ENDBRANCH   6   8
ENDBRANCH   5   6
TORSDOF 3
ENDMDL
