MODEL 1
REMARK VINA RESULT:      -5.5      0.000      0.000
REMARK  3 active torsions:
REMARK  status: ('A' for Active; 'I' for Inactive)
REMARK    1  A    between atoms: C4_4  and  C8_8 
REMARK    2  A    between atoms: C7_7  and  C11_11 
REMARK    3  A    between atoms: C8_8  and  O12_12 
ROOT
HETATM    1  C1  UNL     1     -34.383   7.253   4.193  1.00 20.00    -0.022 C 
HETATM    2  C2  UNL     1     -33.459   8.163   3.851  1.00 20.00     0.011 C 
HETATM    3  C5  UNL     1     -33.284   5.563   2.669  1.00 20.00     0.012 C 
HETATM    4  C6  UNL     1     -32.841   6.765   1.833  1.00 20.00     0.047 C 
HETATM    5  C7  UNL     1     -34.515   5.908   3.525  1.00 20.00     0.011 C 
HETATM    6  C8  UNL     1     -32.474   7.967   2.728  1.00 20.00     0.092 C 
ENDROOT
BRANCH   6   7
HETATM    7  C4  UNL     1     -32.356   9.211   1.896  1.00 20.00     0.004 C 
HETATM    8  C3  UNL     1     -31.952   9.224   0.621  1.00 20.00     0.010 C 
ENDBRANCH   6   7
BRANCH   6   9
HETATM    9  O12 UNL     1     -31.203   7.719   3.337  1.00 20.00    -0.382 OA
HETATM   10  H30 UNL     1     -31.318   7.890   4.284  1.00 20.00     0.211 HD
ENDBRANCH   6   9
BRANCH   5  11
HETATM   11  C11 UNL     1     -34.759   4.809   4.558  1.00 20.00    -0.015 C 
HETATM   12  C9  UNL     1     -33.822   3.628   4.315  1.00 20.00     0.010 C 
HETATM   13  C10 UNL     1     -34.579   5.355   5.973  1.00 20.00     0.010 C 
ENDBRANCH   5  11
TORSDOF 3
ENDMDL
MODEL 2
REMARK VINA RESULT:      -5.5      1.499      4.598
REMARK  3 active torsions:
REMARK  status: ('A' for Active; 'I' for Inactive)
REMARK    1  A    between atoms: C4_4  and  C8_8 
REMARK    2  A    between atoms: C7_7  and  C11_11 
REMARK    3  A    between atoms: C8_8  and  O12_12 
ROOT
HETATM    1  C1  UNL     1     -32.812   7.827   4.101  1.00 20.00    -0.022 C 
HETATM    2  C2  UNL     1     -33.791   7.057   4.597  1.00 20.00     0.011 C 
HETATM    3  C5  UNL     1     -32.943   6.579   1.907  1.00 20.00     0.012 C 
HETATM    4  C6  UNL     1     -33.407   5.382   2.739  1.00 20.00     0.047 C 
HETATM    5  C7  UNL     1     -32.152   7.577   2.769  1.00 20.00     0.011 C 
HETATM    6  C8  UNL     1     -34.315   5.826   3.904  1.00 20.00     0.092 C 
ENDROOT
BRANCH   6   7
HETATM    7  C4  UNL     1     -34.492   4.698   4.879  1.00 20.00     0.004 C 
HETATM    8  C3  UNL     1     -34.685   4.865   6.192  1.00 20.00     0.010 C 
ENDBRANCH   6   7
BRANCH   6   9
HETATM    9  O12 UNL     1     -35.603   6.168   3.383  1.00 20.00    -0.382 OA
HETATM   10  H30 UNL     1     -35.460   6.442   2.465  1.00 20.00     0.211 HD
ENDBRANCH   6   9
BRANCH   5  11
HETATM   11  C11 UNL     1     -31.955   8.887   2.005  1.00 20.00    -0.015 C 
HETATM   12  C9  UNL     1     -31.277   8.626   0.662  1.00 20.00     0.010 C 
HETATM   13  C10 UNL     1     -33.293   9.594   1.804  1.00 20.00     0.010 C 
ENDBRANCH   5  11
TORSDOF 3
ENDMDL
MODEL 3
REMARK VINA RESULT:      -5.3     11.327     12.033
REMARK  3 active torsions:
REMARK  status: ('A' for Active; 'I' for Inactive)
REMARK    1  A    between atoms: C4_4  and  C8_8 
REMARK    2  A    between atoms: C7_7  and  C11_11 
REMARK    3  A    between atoms: C8_8  and  O12_12 
ROOT
HETATM    1  C1  UNL     1     -33.448  15.365  -4.158  1.00 20.00    -0.022 C 
HETATM    2  C2  UNL     1     -33.747  14.341  -4.970  1.00 20.00     0.011 C 
HETATM    3  C5  UNL     1     -35.911  15.790  -3.785  1.00 20.00     0.012 C 
HETATM    4  C6  UNL     1     -36.113  15.215  -5.189  1.00 20.00     0.047 C 
HETATM    5  C7  UNL     1     -34.478  16.317  -3.605  1.00 20.00     0.011 C 
HETATM    6  C8  UNL     1     -35.141  14.049  -5.463  1.00 20.00     0.092 C 
ENDROOT
BRANCH   6   7
HETATM    7  C4  UNL     1     -35.132  13.719  -6.928  1.00 20.00     0.004 C 
HETATM    8  C3  UNL     1     -34.172  14.100  -7.776  1.00 20.00     0.010 C 
ENDBRANCH   6   7
BRANCH   6   9
HETATM    9  O12 UNL     1     -35.592  12.893  -4.751  1.00 20.00    -0.382 OA
HETATM   10  H30 UNL     1     -36.492  12.717  -5.062  1.00 20.00     0.211 HD
ENDBRANCH   6   9
BRANCH   5  11
HETATM   11  C11 UNL     1     -34.211  16.610  -2.128  1.00 20.00    -0.015 C 
HETATM   12  C9  UNL     1     -33.202  17.748  -1.983  1.00 20.00     0.010 C 
HETATM   13  C10 UNL     1     -35.513  16.950  -1.407  1.00 20.00     0.010 C 
ENDBRANCH   5  11
TORSDOF 3
ENDMDL
MODEL 4
REMARK VINA RESULT:      -4.6     11.353     12.081
REMARK  3 active torsions:
REMARK  status: ('A' for Active; 'I' for Inactive)
REMARK    1  A    between atoms: C4_4  and  C8_8 
REMARK    2  A    between atoms: C7_7  and  C11_11 
REMARK    3  A    between atoms: C8_8  and  O12_12 
ROOT
HETATM    1  C1  UNL     1     -33.872  14.481  -4.536  1.00 20.00    -0.022 C 
HETATM    2  C2  UNL     1     -33.393  15.604  -3.983  1.00 20.00     0.011 C 
HETATM    3  C5  UNL     1     -36.230  15.346  -4.251  1.00 20.00     0.012 C 
HETATM    4  C6  UNL     1     -35.688  16.112  -3.043  1.00 20.00     0.047 C 
HETATM    5  C7  UNL     1     -35.339  14.137  -4.584  1.00 20.00     0.011 C 
HETATM    6  C8  UNL     1     -34.259  16.633  -3.303  1.00 20.00     0.092 C 
ENDROOT
BRANCH   6   7
HETATM    7  C4  UNL     1     -33.636  17.091  -2.016  1.00 20.00     0.004 C 
HETATM    8  C3  UNL     1     -34.334  17.451  -0.933  1.00 20.00     0.010 C 
ENDBRANCH   6   7
BRANCH   6   9
HETATM    9  O12 UNL     1     -34.330  17.756  -4.186  1.00 20.00    -0.382 OA
HETATM   10  H30 UNL     1     -34.043  17.437  -5.054  1.00 20.00     0.211 HD
ENDBRANCH   6   9
BRANCH   5  11
HETATM   11  C11 UNL     1     -35.720  13.566  -5.950  1.00 20.00    -0.015 C 
HETATM   12  C9  UNL     1     -36.892  14.342  -6.546  1.00 20.00     0.010 C 
HETATM   13  C10 UNL     1     -34.520  13.593  -6.894  1.00 20.00     0.010 C 
ENDBRANCH   5  11
TORSDOF 3
ENDMDL
MODEL 5
REMARK VINA RESULT:      -4.5     11.683     12.566
REMARK  3 active torsions:
REMARK  status: ('A' for Active; 'I' for Inactive)
REMARK    1  A    between atoms: C4_4  and  C8_8 
REMARK    2  A    between atoms: C7_7  and  C11_11 
REMARK    3  A    between atoms: C8_8  and  O12_12 
ROOT
HETATM    1  C1  UNL     1     -35.807  16.183  -4.357  1.00 20.00    -0.022 C 
HETATM    2  C2  UNL     1     -35.386  16.289  -5.626  1.00 20.00     0.011 C 
HETATM    3  C5  UNL     1     -33.423  15.834  -3.595  1.00 20.00     0.012 C 
HETATM    4  C6  UNL     1     -33.183  15.224  -4.977  1.00 20.00     0.047 C 
HETATM    5  C7  UNL     1     -34.912  15.775  -3.215  1.00 20.00     0.011 C 
HETATM    6  C8  UNL     1     -33.981  15.970  -6.066  1.00 20.00     0.092 C 
ENDROOT
BRANCH   6   7
HETATM    7  C4  UNL     1     -33.986  15.172  -7.338  1.00 20.00     0.004 C 
HETATM    8  C3  UNL     1     -34.303  13.874  -7.406  1.00 20.00     0.010 C 
ENDBRANCH   6   7
BRANCH   6   9
HETATM    9  O12 UNL     1     -33.341  17.222  -6.332  1.00 20.00    -0.382 OA
HETATM   10  H30 UNL     1     -32.455  17.162  -5.943  1.00 20.00     0.211 HD
ENDBRANCH   6   9
BRANCH   5  11
HETATM   11  C11 UNL     1     -35.172  16.642  -1.983  1.00 20.00    -0.015 C 
HETATM   12  C9  UNL     1     -33.888  17.336  -1.535  1.00 20.00     0.010 C 
HETATM   13  C10 UNL     1     -36.265  17.669  -2.273  1.00 20.00     0.010 C 
ENDBRANCH   5  11
TORSDOF 3
ENDMDL
MODEL 6
REMARK VINA RESULT:      -4.5     11.347     12.178
REMARK  3 active torsions:
REMARK  status: ('A' for Active; 'I' for Inactive)
REMARK    1  A    between atoms: C4_4  and  C8_8 
REMARK    2  A    between atoms: C7_7  and  C11_11 
REMARK    3  A    between atoms: C8_8  and  O12_12 
ROOT
HETATM    1  C1  UNL     1     -35.864  17.027  -1.859  1.00 20.00    -0.022 C 
HETATM    2  C2  UNL     1     -36.343  16.638  -3.050  1.00 20.00     0.011 C 
HETATM    3  C5  UNL     1     -33.503  16.735  -2.712  1.00 20.00     0.012 C 
HETATM    4  C6  UNL     1     -34.083  15.657  -3.630  1.00 20.00     0.047 C 
HETATM    5  C7  UNL     1     -34.405  16.961  -1.487  1.00 20.00     0.011 C 
HETATM    6  C8  UNL     1     -35.485  16.047  -4.139  1.00 20.00     0.092 C 
ENDROOT
BRANCH   6   7
HETATM    7  C4  UNL     1     -36.156  14.857  -4.762  1.00 20.00     0.004 C 
HETATM    8  C3  UNL     1     -35.597  13.646  -4.856  1.00 20.00     0.010 C 
ENDBRANCH   6   7
BRANCH   6   9
HETATM    9  O12 UNL     1     -35.348  17.056  -5.144  1.00 20.00    -0.382 OA
HETATM   10  H30 UNL     1     -36.234  17.422  -5.284  1.00 20.00     0.211 HD
ENDBRANCH   6   9
BRANCH   5  11
HETATM   11  C11 UNL     1     -33.974  18.227  -0.746  1.00 20.00    -0.015 C 
HETATM   12  C9  UNL     1     -34.467  18.196   0.699  1.00 20.00     0.010 C 
HETATM   13  C10 UNL     1     -32.456  18.384  -0.794  1.00 20.00     0.010 C 
ENDBRANCH   5  11
TORSDOF 3
ENDMDL
MODEL 7
REMARK VINA RESULT:      -4.5      1.413      1.964
REMARK  3 active torsions:
REMARK  status: ('A' for Active; 'I' for Inactive)
REMARK    1  A    between atoms: C4_4  and  C8_8 
REMARK    2  A    between atoms: C7_7  and  C11_11 
REMARK    3  A    between atoms: C8_8  and  O12_12 
ROOT
HETATM    1  C1  UNL     1     -33.926   6.590   2.532  1.00 20.00    -0.022 C 
HETATM    2  C2  UNL     1     -33.596   7.527   1.632  1.00 20.00     0.011 C 
HETATM    3  C5  UNL     1     -32.524   7.768   4.273  1.00 20.00     0.012 C 
HETATM    4  C6  UNL     1     -31.666   8.250   3.102  1.00 20.00     0.047 C 
HETATM    5  C7  UNL     1     -33.303   6.495   3.901  1.00 20.00     0.011 C 
HETATM    6  C8  UNL     1     -32.532   8.568   1.865  1.00 20.00     0.092 C 
ENDROOT
BRANCH   6   7
HETATM    7  C4  UNL     1     -31.661   8.725   0.653  1.00 20.00     0.004 C 
HETATM    8  C3  UNL     1     -32.119   9.051  -0.561  1.00 20.00     0.010 C 
ENDBRANCH   6   7
BRANCH   6   9
HETATM    9  O12 UNL     1     -33.214   9.807   2.085  1.00 20.00    -0.382 OA
HETATM   10  H30 UNL     1     -32.551  10.505   1.973  1.00 20.00     0.211 HD
ENDBRANCH   6   9
BRANCH   5  11
HETATM   11  C11 UNL     1     -34.363   6.202   4.963  1.00 20.00    -0.015 C 
HETATM   12  C9  UNL     1     -34.454   4.701   5.228  1.00 20.00     0.010 C 
HETATM   13  C10 UNL     1     -34.052   6.958   6.252  1.00 20.00     0.010 C 
ENDBRANCH   5  11
TORSDOF 3
ENDMDL
MODEL 8
REMARK VINA RESULT:      -4.4      0.596      1.183
REMARK  3 active torsions:
REMARK  status: ('A' for Active; 'I' for Inactive)
REMARK    1  A    between atoms: C4_4  and  C8_8 
REMARK    2  A    between atoms: C7_7  and  C11_11 
REMARK    3  A    between atoms: C8_8  and  O12_12 
ROOT
HETATM    1  C1  UNL     1     -33.667   7.453   4.592  1.00 20.00    -0.022 C 
HETATM    2  C2  UNL     1     -32.890   8.407   4.060  1.00 20.00     0.011 C 
HETATM    3  C5  UNL     1     -33.008   5.877   2.730  1.00 20.00     0.012 C 
HETATM    4  C6  UNL     1     -32.834   7.133   1.874  1.00 20.00     0.047 C 
HETATM    5  C7  UNL     1     -33.958   6.140   3.911  1.00 20.00     0.011 C 
HETATM    6  C8  UNL     1     -32.253   8.299   2.699  1.00 20.00     0.092 C 
ENDROOT
BRANCH   6   7
HETATM    7  C4  UNL     1     -32.390   9.586   1.939  1.00 20.00     0.004 C 
HETATM    8  C3  UNL     1     -32.419   9.669   0.604  1.00 20.00     0.010 C 
ENDBRANCH   6   7
BRANCH   6   9
HETATM    9  O12 UNL     1     -30.859   8.060   2.918  1.00 20.00    -0.382 OA
HETATM   10  H30 UNL     1     -30.424   8.925   2.868  1.00 20.00     0.211 HD
ENDBRANCH   6   9
BRANCH   5  11
HETATM   11  C11 UNL     1     -33.888   4.983   4.907  1.00 20.00    -0.015 C 
HETATM   12  C9  UNL     1     -34.857   5.214   6.064  1.00 20.00     0.010 C 
HETATM   13  C10 UNL     1     -34.190   3.659   4.209  1.00 20.00     0.010 C 
ENDBRANCH   5  11
TORSDOF 3
ENDMDL
MODEL 9
REMARK VINA RESULT:      -4.3      1.392      4.729
REMARK  3 active torsions:
REMARK  status: ('A' for Active; 'I' for Inactive)
REMARK    1  A    between atoms: C4_4  and  C8_8 
REMARK    2  A    between atoms: C7_7  and  C11_11 
REMARK    3  A    between atoms: C8_8  and  O12_12 
ROOT
HETATM    1  C1  UNL     1     -33.803   7.649   1.733  1.00 20.00    -0.022 C 
HETATM    2  C2  UNL     1     -34.116   6.421   2.167  1.00 20.00     0.011 C 
HETATM    3  C5  UNL     1     -32.079   7.861   3.569  1.00 20.00     0.012 C 
HETATM    4  C6  UNL     1     -32.977   6.918   4.373  1.00 20.00     0.047 C 
HETATM    5  C7  UNL     1     -32.879   8.584   2.472  1.00 20.00     0.011 C 
HETATM    6  C8  UNL     1     -33.618   5.845   3.468  1.00 20.00     0.092 C 
ENDROOT
BRANCH   6   7
HETATM    7  C4  UNL     1     -34.724   5.146   4.203  1.00 20.00     0.004 C 
HETATM    8  C3  UNL     1     -34.715   4.906   5.519  1.00 20.00     0.010 C 
ENDBRANCH   6   7
BRANCH   6   9
HETATM    9  O12 UNL     1     -32.625   4.872   3.131  1.00 20.00    -0.382 OA
HETATM   10  H30 UNL     1     -32.440   4.379   3.944  1.00 20.00     0.211 HD
ENDBRANCH   6   9
BRANCH   5  11
HETATM   11  C11 UNL     1     -31.925   9.284   1.505  1.00 20.00    -0.015 C 
HETATM   12  C9  UNL     1     -31.382   8.293   0.477  1.00 20.00     0.010 C 
HETATM   13  C10 UNL     1     -32.628  10.448   0.810  1.00 20.00     0.010 C 
ENDBRANCH   5  11
TORSDOF 3
ENDMDL
