MODEL 1
REMARK VINA RESULT:      -4.5      0.000      0.000
REMARK  0 active torsions:
REMARK  status: ('A' for Active; 'I' for Inactive)
ROOT
HETATM    1  C1  UNL     1     -36.088  13.849  -5.145  1.00 20.00     0.136 C 
HETATM    2  C2  UNL     1     -37.448  14.450  -4.904  1.00 20.00     0.080 C 
HETATM    3  C3  UNL     1     -37.096  15.833  -4.368  1.00 20.00     0.017 C 
HETATM    4  C4  UNL     1     -33.846  16.320  -3.547  1.00 20.00     0.002 C 
HETATM    5  C5  UNL     1     -34.242  14.870  -3.783  1.00 20.00     0.018 C 
HETATM    6  C6  UNL     1     -34.932  17.174  -4.204  1.00 20.00     0.010 C 
HETATM    7  C7  UNL     1     -34.982  14.893  -5.125  1.00 20.00     0.024 C 
HETATM    8  C8  UNL     1     -35.777  16.225  -5.077  1.00 20.00    -0.029 C 
HETATM    9  C9  UNL     1     -34.034  14.727  -6.308  1.00 20.00     0.024 C 
HETATM   10  C10 UNL     1     -36.086  16.858  -6.439  1.00 20.00     0.016 C 
HETATM   11  O11 UNL     1     -35.906  12.654  -5.343  1.00 20.00    -0.297 OA
ENDROOT
TORSDOF 0
ENDMDL
MODEL 2
REMARK VINA RESULT:      -4.4      1.054      2.723
REMARK  0 active torsions:
REMARK  status: ('A' for Active; 'I' for Inactive)
ROOT
HETATM    1  C1  UNL     1     -35.397  13.896  -4.789  1.00 20.00     0.136 C 
HETATM    2  C2  UNL     1     -34.031  14.022  -4.167  1.00 20.00     0.080 C 
HETATM    3  C3  UNL     1     -33.781  15.524  -4.247  1.00 20.00     0.017 C 
HETATM    4  C4  UNL     1     -35.948  17.285  -6.165  1.00 20.00     0.002 C 
HETATM    5  C5  UNL     1     -36.015  15.775  -6.336  1.00 20.00     0.018 C 
HETATM    6  C6  UNL     1     -35.236  17.536  -4.834  1.00 20.00     0.010 C 
HETATM    7  C7  UNL     1     -36.107  15.236  -4.904  1.00 20.00     0.024 C 
HETATM    8  C8  UNL     1     -35.174  16.181  -4.101  1.00 20.00    -0.029 C 
HETATM    9  C9  UNL     1     -37.549  15.150  -4.413  1.00 20.00     0.024 C 
HETATM   10  C10 UNL     1     -35.520  16.343  -2.615  1.00 20.00     0.016 C 
HETATM   11  O11 UNL     1     -35.875  12.827  -5.150  1.00 20.00    -0.297 OA
ENDROOT
TORSDOF 0
ENDMDL
MODEL 3
REMARK VINA RESULT:      -4.3      1.280      2.835
REMARK  0 active torsions:
REMARK  status: ('A' for Active; 'I' for Inactive)
ROOT
HETATM    1  C1  UNL     1     -35.447  13.625  -5.862  1.00 20.00     0.136 C 
HETATM    2  C2  UNL     1     -34.621  13.410  -7.102  1.00 20.00     0.080 C 
HETATM    3  C3  UNL     1     -34.483  14.828  -7.645  1.00 20.00     0.017 C 
HETATM    4  C4  UNL     1     -36.472  17.163  -6.209  1.00 20.00     0.002 C 
HETATM    5  C5  UNL     1     -36.831  15.721  -5.883  1.00 20.00     0.018 C 
HETATM    6  C6  UNL     1     -35.031  17.142  -6.722  1.00 20.00     0.010 C 
HETATM    7  C7  UNL     1     -35.503  15.089  -5.450  1.00 20.00     0.024 C 
HETATM    8  C8  UNL     1     -34.464  15.745  -6.399  1.00 20.00    -0.029 C 
HETATM    9  C9  UNL     1     -35.243  15.262  -3.958  1.00 20.00     0.024 C 
HETATM   10  C10 UNL     1     -33.037  15.844  -5.846  1.00 20.00     0.016 C 
HETATM   11  O11 UNL     1     -36.000  12.716  -5.255  1.00 20.00    -0.297 OA
ENDROOT
TORSDOF 0
ENDMDL
MODEL 4
REMARK VINA RESULT:      -4.3      1.170      1.924
REMARK  0 active torsions:
REMARK  status: ('A' for Active; 'I' for Inactive)
ROOT
HETATM    1  C1  UNL     1     -35.756  13.732  -5.685  1.00 20.00     0.136 C 
HETATM    2  C2  UNL     1     -36.086  14.074  -7.114  1.00 20.00     0.080 C 
HETATM    3  C3  UNL     1     -36.059  15.598  -7.093  1.00 20.00     0.017 C 
HETATM    4  C4  UNL     1     -35.941  17.035  -4.028  1.00 20.00     0.002 C 
HETATM    5  C5  UNL     1     -36.275  15.550  -4.033  1.00 20.00     0.018 C 
HETATM    6  C6  UNL     1     -35.303  17.336  -5.385  1.00 20.00     0.010 C 
HETATM    7  C7  UNL     1     -35.195  14.922  -4.920  1.00 20.00     0.024 C 
HETATM    8  C8  UNL     1     -34.989  15.976  -6.041  1.00 20.00    -0.029 C 
HETATM    9  C9  UNL     1     -33.949  14.542  -4.128  1.00 20.00     0.024 C 
HETATM   10  C10 UNL     1     -33.600  15.984  -6.691  1.00 20.00     0.016 C 
HETATM   11  O11 UNL     1     -35.915  12.616  -5.206  1.00 20.00    -0.297 OA
ENDROOT
TORSDOF 0
ENDMDL
MODEL 5
REMARK VINA RESULT:      -4.3      1.291      1.606
REMARK  0 active torsions:
REMARK  status: ('A' for Active; 'I' for Inactive)
ROOT
HETATM    1  C1  UNL     1     -36.770  14.654  -5.134  1.00 20.00     0.136 C 
HETATM    2  C2  UNL     1     -37.129  16.111  -5.009  1.00 20.00     0.080 C 
HETATM    3  C3  UNL     1     -35.757  16.771  -4.922  1.00 20.00     0.017 C 
HETATM    4  C4  UNL     1     -33.135  14.680  -4.449  1.00 20.00     0.002 C 
HETATM    5  C5  UNL     1     -34.506  14.056  -4.229  1.00 20.00     0.018 C 
HETATM    6  C6  UNL     1     -33.367  15.949  -5.270  1.00 20.00     0.010 C 
HETATM    7  C7  UNL     1     -35.303  14.445  -5.478  1.00 20.00     0.024 C 
HETATM    8  C8  UNL     1     -34.821  15.889  -5.781  1.00 20.00    -0.029 C 
HETATM    9  C9  UNL     1     -35.131  13.436  -6.608  1.00 20.00     0.024 C 
HETATM   10  C10 UNL     1     -34.906  16.317  -7.252  1.00 20.00     0.016 C 
HETATM   11  O11 UNL     1     -37.580  13.747  -4.982  1.00 20.00    -0.297 OA
ENDROOT
TORSDOF 0
ENDMDL
MODEL 6
REMARK VINA RESULT:      -4.3      1.572      2.101
REMARK  0 active torsions:
REMARK  status: ('A' for Active; 'I' for Inactive)
ROOT
HETATM    1  C1  UNL     1     -34.402  14.216  -6.910  1.00 20.00     0.136 C 
HETATM    2  C2  UNL     1     -35.511  13.285  -6.496  1.00 20.00     0.080 C 
HETATM    3  C3  UNL     1     -35.766  13.714  -5.055  1.00 20.00     0.017 C 
HETATM    4  C4  UNL     1     -33.463  15.794  -3.699  1.00 20.00     0.002 C 
HETATM    5  C5  UNL     1     -33.047  15.135  -5.006  1.00 20.00     0.018 C 
HETATM    6  C6  UNL     1     -34.986  15.675  -3.622  1.00 20.00     0.010 C 
HETATM    7  C7  UNL     1     -34.233  15.380  -5.947  1.00 20.00     0.024 C 
HETATM    8  C8  UNL     1     -35.468  15.232  -5.018  1.00 20.00    -0.029 C 
HETATM    9  C9  UNL     1     -34.114  16.708  -6.687  1.00 20.00     0.024 C 
HETATM   10  C10 UNL     1     -36.713  16.018  -5.447  1.00 20.00     0.016 C 
HETATM   11  O11 UNL     1     -33.725  14.048  -7.917  1.00 20.00    -0.297 OA
ENDROOT
TORSDOF 0
ENDMDL
MODEL 7
REMARK VINA RESULT:      -4.2      1.519      2.973
REMARK  0 active torsions:
REMARK  status: ('A' for Active; 'I' for Inactive)
ROOT
HETATM    1  C1  UNL     1     -34.982  15.400  -6.582  1.00 20.00     0.136 C 
HETATM    2  C2  UNL     1     -33.673  16.124  -6.757  1.00 20.00     0.080 C 
HETATM    3  C3  UNL     1     -33.367  16.580  -5.336  1.00 20.00     0.017 C 
HETATM    4  C4  UNL     1     -35.895  16.265  -3.103  1.00 20.00     0.002 C 
HETATM    5  C5  UNL     1     -36.298  16.101  -4.561  1.00 20.00     0.018 C 
HETATM    6  C6  UNL     1     -34.379  16.067  -3.051  1.00 20.00     0.010 C 
HETATM    7  C7  UNL     1     -35.285  15.097  -5.123  1.00 20.00     0.024 C 
HETATM    8  C8  UNL     1     -33.959  15.486  -4.416  1.00 20.00    -0.029 C 
HETATM    9  C9  UNL     1     -35.741  13.654  -4.933  1.00 20.00     0.024 C 
HETATM   10  C10 UNL     1     -32.946  14.347  -4.242  1.00 20.00     0.016 C 
HETATM   11  O11 UNL     1     -35.709  15.088  -7.518  1.00 20.00    -0.297 OA
ENDROOT
TORSDOF 0
ENDMDL
MODEL 8
REMARK VINA RESULT:      -4.2      1.692      3.335
REMARK  0 active torsions:
REMARK  status: ('A' for Active; 'I' for Inactive)
ROOT
HETATM    1  C1  UNL     1     -35.164  15.904  -3.675  1.00 20.00     0.136 C 
HETATM    2  C2  UNL     1     -33.675  15.875  -3.450  1.00 20.00     0.080 C 
HETATM    3  C3  UNL     1     -33.197  14.985  -4.591  1.00 20.00     0.017 C 
HETATM    4  C4  UNL     1     -35.612  13.317  -6.281  1.00 20.00     0.002 C 
HETATM    5  C5  UNL     1     -36.060  13.948  -4.971  1.00 20.00     0.018 C 
HETATM    6  C6  UNL     1     -34.309  14.016  -6.673  1.00 20.00     0.010 C 
HETATM    7  C7  UNL     1     -35.551  15.392  -5.054  1.00 20.00     0.024 C 
HETATM    8  C8  UNL     1     -34.176  15.252  -5.759  1.00 20.00    -0.029 C 
HETATM    9  C9  UNL     1     -36.555  16.317  -5.733  1.00 20.00     0.024 C 
HETATM   10  C10 UNL     1     -33.715  16.479  -6.555  1.00 20.00     0.016 C 
HETATM   11  O11 UNL     1     -35.964  16.305  -2.838  1.00 20.00    -0.297 OA
ENDROOT
TORSDOF 0
ENDMDL
MODEL 9
REMARK VINA RESULT:      -4.2      1.520      2.787
REMARK  0 active torsions:
REMARK  status: ('A' for Active; 'I' for Inactive)
ROOT
HETATM    1  C1  UNL     1     -36.502  14.386  -5.174  1.00 20.00     0.136 C 
HETATM    2  C2  UNL     1     -35.697  15.100  -4.120  1.00 20.00     0.080 C 
HETATM    3  C3  UNL     1     -34.431  15.472  -4.883  1.00 20.00     0.017 C 
HETATM    4  C4  UNL     1     -34.049  14.018  -7.918  1.00 20.00     0.002 C 
HETATM    5  C5  UNL     1     -35.140  13.414  -7.046  1.00 20.00     0.018 C 
HETATM    6  C6  UNL     1     -33.757  15.405  -7.343  1.00 20.00     0.010 C 
HETATM    7  C7  UNL     1     -35.960  14.620  -6.575  1.00 20.00     0.024 C 
HETATM    8  C8  UNL     1     -34.887  15.718  -6.341  1.00 20.00    -0.029 C 
HETATM    9  C9  UNL     1     -37.073  14.976  -7.555  1.00 20.00     0.024 C 
HETATM   10  C10 UNL     1     -35.378  17.163  -6.498  1.00 20.00     0.016 C 
HETATM   11  O11 UNL     1     -37.488  13.703  -4.920  1.00 20.00    -0.297 OA
ENDROOT
TORSDOF 0
ENDMDL
