MODEL 1
REMARK VINA RESULT:      -5.4      0.000      0.000
REMARK  0 active torsions:
REMARK  status: ('A' for Active; 'I' for Inactive)
ROOT
HETATM    1  C1  UNL     1     -33.747   6.723   5.323  1.00 20.00     0.146 C 
HETATM    2  C2  UNL     1     -34.599   5.537   5.762  1.00 20.00     0.084 C 
HETATM    3  C3  UNL     1     -35.221   6.067   3.386  1.00 20.00     0.034 C 
HETATM    4  C4  UNL     1     -33.498   4.906   3.593  1.00 20.00     0.034 C 
HETATM    5  C5  UNL     1     -34.868   4.890   4.375  1.00 20.00    -0.004 C 
HETATM    6  C6  UNL     1     -33.741   6.454   3.759  1.00 20.00     0.079 C 
HETATM    7  O7  UNL     1     -33.261   7.572   6.043  1.00 20.00    -0.296 OA
HETATM    8 BR8  UNL     1     -32.786   7.680   2.695  1.00 20.00    -0.077 Br
ENDROOT
TORSDOF 0
ENDMDL
MODEL 2
REMARK VINA RESULT:      -4.8      1.783      2.423
REMARK  0 active torsions:
REMARK  status: ('A' for Active; 'I' for Inactive)
ROOT
HETATM    1  C1  UNL     1     -33.379   4.868   3.298  1.00 20.00     0.146 C 
HETATM    2  C2  UNL     1     -34.257   4.146   4.316  1.00 20.00     0.084 C 
HETATM    3  C3  UNL     1     -33.792   6.445   5.220  1.00 20.00     0.034 C 
HETATM    4  C4  UNL     1     -35.342   6.359   3.825  1.00 20.00     0.034 C 
HETATM    5  C5  UNL     1     -34.929   5.376   4.988  1.00 20.00    -0.004 C 
HETATM    6  C6  UNL     1     -33.777   6.363   3.648  1.00 20.00     0.079 C 
HETATM    7  O7  UNL     1     -32.628   4.352   2.495  1.00 20.00    -0.296 OA
HETATM    8 BR8  UNL     1     -32.944   7.717   2.639  1.00 20.00    -0.077 Br
ENDROOT
TORSDOF 0
ENDMDL
MODEL 3
REMARK VINA RESULT:      -4.5      1.474      1.718
REMARK  0 active torsions:
REMARK  status: ('A' for Active; 'I' for Inactive)
ROOT
HETATM    1  C1  UNL     1     -33.162   6.976   4.429  1.00 20.00     0.146 C 
HETATM    2  C2  UNL     1     -33.968   7.137   5.713  1.00 20.00     0.084 C 
HETATM    3  C3  UNL     1     -35.349   5.761   4.127  1.00 20.00     0.034 C 
HETATM    4  C4  UNL     1     -33.899   4.683   5.173  1.00 20.00     0.034 C 
HETATM    5  C5  UNL     1     -34.850   5.860   5.620  1.00 20.00    -0.004 C 
HETATM    6  C6  UNL     1     -33.796   5.618   3.910  1.00 20.00     0.079 C 
HETATM    7  O7  UNL     1     -32.303   7.729   4.014  1.00 20.00    -0.296 OA
HETATM    8 BR8  UNL     1     -33.127   4.940   2.284  1.00 20.00    -0.077 Br
ENDROOT
TORSDOF 0
ENDMDL
MODEL 4
REMARK VINA RESULT:      -4.4      1.862      2.617
REMARK  0 active torsions:
REMARK  status: ('A' for Active; 'I' for Inactive)
ROOT
HETATM    1  C1  UNL     1     -33.251   7.164   4.519  1.00 20.00     0.146 C 
HETATM    2  C2  UNL     1     -32.896   7.652   3.119  1.00 20.00     0.084 C 
HETATM    3  C3  UNL     1     -33.152   5.155   3.002  1.00 20.00     0.034 C 
HETATM    4  C4  UNL     1     -34.948   6.215   2.914  1.00 20.00     0.034 C 
HETATM    5  C5  UNL     1     -33.531   6.507   2.282  1.00 20.00    -0.004 C 
HETATM    6  C6  UNL     1     -34.019   5.833   4.127  1.00 20.00     0.079 C 
HETATM    7  O7  UNL     1     -32.979   7.713   5.568  1.00 20.00    -0.296 OA
HETATM    8 BR8  UNL     1     -34.699   4.800   5.548  1.00 20.00    -0.077 Br
ENDROOT
TORSDOF 0
ENDMDL
MODEL 5
REMARK VINA RESULT:      -4.0      1.865      2.520
REMARK  0 active torsions:
REMARK  status: ('A' for Active; 'I' for Inactive)
ROOT
HETATM    1  C1  UNL     1     -32.966   6.339   3.420  1.00 20.00     0.146 C 
HETATM    2  C2  UNL     1     -33.359   5.066   2.679  1.00 20.00     0.084 C 
HETATM    3  C3  UNL     1     -33.795   4.676   5.123  1.00 20.00     0.034 C 
HETATM    4  C4  UNL     1     -35.305   5.720   4.128  1.00 20.00     0.034 C 
HETATM    5  C5  UNL     1     -34.407   4.503   3.679  1.00 20.00    -0.004 C 
HETATM    6  C6  UNL     1     -33.908   6.185   4.687  1.00 20.00     0.079 C 
HETATM    7  O7  UNL     1     -32.155   7.168   3.058  1.00 20.00    -0.296 OA
HETATM    8 BR8  UNL     1     -33.815   7.552   5.980  1.00 20.00    -0.077 Br
ENDROOT
TORSDOF 0
ENDMDL
MODEL 6
REMARK VINA RESULT:      -3.7     12.244     12.822
REMARK  0 active torsions:
REMARK  status: ('A' for Active; 'I' for Inactive)
ROOT
HETATM    1  C1  UNL     1     -35.058  14.027  -4.637  1.00 20.00     0.146 C 
HETATM    2  C2  UNL     1     -33.581  14.330  -4.407  1.00 20.00     0.084 C 
HETATM    3  C3  UNL     1     -34.709  16.497  -4.996  1.00 20.00     0.034 C 
HETATM    4  C4  UNL     1     -34.904  15.934  -2.995  1.00 20.00     0.034 C 
HETATM    5  C5  UNL     1     -33.690  15.825  -3.997  1.00 20.00    -0.004 C 
HETATM    6  C6  UNL     1     -35.657  15.455  -4.293  1.00 20.00     0.079 C 
HETATM    7  O7  UNL     1     -35.534  12.964  -4.983  1.00 20.00    -0.296 OA
HETATM    8 BR8  UNL     1     -37.527  15.640  -4.423  1.00 20.00    -0.077 Br
ENDROOT
TORSDOF 0
ENDMDL
MODEL 7
REMARK VINA RESULT:      -3.7     12.627     13.385
REMARK  0 active torsions:
REMARK  status: ('A' for Active; 'I' for Inactive)
ROOT
HETATM    1  C1  UNL     1     -35.070  14.012  -5.096  1.00 20.00     0.146 C 
HETATM    2  C2  UNL     1     -34.959  14.932  -3.885  1.00 20.00     0.084 C 
HETATM    3  C3  UNL     1     -33.058  15.493  -5.430  1.00 20.00     0.034 C 
HETATM    4  C4  UNL     1     -34.878  16.381  -5.937  1.00 20.00     0.034 C 
HETATM    5  C5  UNL     1     -34.198  16.120  -4.537  1.00 20.00    -0.004 C 
HETATM    6  C6  UNL     1     -34.329  14.923  -6.164  1.00 20.00     0.079 C 
HETATM    7  O7  UNL     1     -35.596  12.918  -5.129  1.00 20.00    -0.296 OA
HETATM    8 BR8  UNL     1     -34.182  14.229  -7.909  1.00 20.00    -0.077 Br
ENDROOT
TORSDOF 0
ENDMDL
MODEL 8
REMARK VINA RESULT:      -3.7     12.818     13.610
REMARK  0 active torsions:
REMARK  status: ('A' for Active; 'I' for Inactive)
ROOT
HETATM    1  C1  UNL     1     -35.279  13.663  -5.800  1.00 20.00     0.146 C 
HETATM    2  C2  UNL     1     -34.574  13.581  -7.151  1.00 20.00     0.084 C 
HETATM    3  C3  UNL     1     -35.152  15.994  -6.751  1.00 20.00     0.034 C 
HETATM    4  C4  UNL     1     -33.407  15.352  -5.803  1.00 20.00     0.034 C 
HETATM    5  C5  UNL     1     -34.002  15.024  -7.226  1.00 20.00    -0.004 C 
HETATM    6  C6  UNL     1     -34.926  15.166  -5.432  1.00 20.00     0.079 C 
HETATM    7  O7  UNL     1     -35.902  12.776  -5.253  1.00 20.00    -0.296 OA
HETATM    8 BR8  UNL     1     -35.583  15.808  -3.787  1.00 20.00    -0.077 Br
ENDROOT
TORSDOF 0
ENDMDL
MODEL 9
REMARK VINA RESULT:      -3.6     12.303     12.976
REMARK  0 active torsions:
REMARK  status: ('A' for Active; 'I' for Inactive)
ROOT
HETATM    1  C1  UNL     1     -36.076  13.817  -5.027  1.00 20.00     0.146 C 
HETATM    2  C2  UNL     1     -37.440  14.500  -5.036  1.00 20.00     0.084 C 
HETATM    3  C3  UNL     1     -35.947  15.828  -3.512  1.00 20.00     0.034 C 
HETATM    4  C4  UNL     1     -35.717  16.259  -5.542  1.00 20.00     0.034 C 
HETATM    5  C5  UNL     1     -37.001  15.948  -4.679  1.00 20.00    -0.004 C 
HETATM    6  C6  UNL     1     -35.177  15.072  -4.659  1.00 20.00     0.079 C 
HETATM    7  O7  UNL     1     -35.852  12.645  -5.251  1.00 20.00    -0.296 OA
HETATM    8 BR8  UNL     1     -33.324  14.769  -4.514  1.00 20.00    -0.077 Br
ENDROOT
TORSDOF 0
ENDMDL
