MODEL 1
REMARK VINA RESULT:      -4.4      0.000      0.000
REMARK  1 active torsions:
REMARK  status: ('A' for Active; 'I' for Inactive)
REMARK    1  A    between atoms: C7_7  and  C11_11 
ROOT
HETATM    1  C1  UNL     1     -35.753  15.784  -3.406  1.00 20.00    -0.021 C 
HETATM    2  C2  UNL     1     -36.021  15.194  -4.588  1.00 20.00    -0.053 C 
HETATM    3  C3  UNL     1     -34.369  16.271  -3.057  1.00 20.00     0.034 C 
HETATM    4  C4  UNL     1     -33.912  16.221  -5.503  1.00 20.00     0.050 C 
HETATM    5  C5  UNL     1     -33.076  14.429  -4.263  1.00 20.00     0.174 C 
HETATM    6  C6  UNL     1     -33.319  15.936  -4.138  1.00 20.00     0.016 C 
HETATM    7  C7  UNL     1     -34.887  15.040  -5.599  1.00 20.00     0.087 C 
HETATM    8  C8  UNL     1     -37.375  14.631  -4.893  1.00 20.00     0.046 C 
HETATM    9  O12 UNL     1     -34.097  13.914  -5.149  1.00 20.00    -0.375 OA
ENDROOT
BRANCH   7  10
HETATM   10  C11 UNL     1     -35.325  14.803  -7.041  1.00 20.00     0.016 C 
HETATM   11  C9  UNL     1     -35.218  16.090  -7.856  1.00 20.00     0.013 C 
HETATM   12  C10 UNL     1     -34.493  13.694  -7.682  1.00 20.00     0.013 C 
ENDBRANCH   7  10
TORSDOF 1
ENDMDL
MODEL 2
REMARK VINA RESULT:      -4.3      1.524      3.605
REMARK  1 active torsions:
REMARK  status: ('A' for Active; 'I' for Inactive)
REMARK    1  A    between atoms: C7_7  and  C11_11 
ROOT
HETATM    1  C1  UNL     1     -34.651  14.064  -7.111  1.00 20.00    -0.021 C 
HETATM    2  C2  UNL     1     -35.107  14.298  -5.864  1.00 20.00    -0.053 C 
HETATM    3  C3  UNL     1     -33.857  15.096  -7.872  1.00 20.00     0.034 C 
HETATM    4  C4  UNL     1     -33.407  16.145  -5.660  1.00 20.00     0.050 C 
HETATM    5  C5  UNL     1     -35.062  17.154  -6.962  1.00 20.00     0.174 C 
HETATM    6  C6  UNL     1     -33.719  16.434  -7.115  1.00 20.00     0.016 C 
HETATM    7  C7  UNL     1     -34.784  15.640  -5.210  1.00 20.00     0.087 C 
HETATM    8  C8  UNL     1     -35.972  13.306  -5.149  1.00 20.00     0.046 C 
HETATM    9  O12 UNL     1     -35.701  16.600  -5.789  1.00 20.00    -0.375 OA
ENDROOT
BRANCH   7  10
HETATM   10  C11 UNL     1     -34.914  15.674  -3.691  1.00 20.00     0.016 C 
HETATM   11  C9  UNL     1     -33.687  16.328  -3.059  1.00 20.00     0.013 C 
HETATM   12  C10 UNL     1     -36.186  16.410  -3.274  1.00 20.00     0.013 C 
ENDBRANCH   7  10
TORSDOF 1
ENDMDL
MODEL 3
REMARK VINA RESULT:      -4.2      1.112      3.493
REMARK  1 active torsions:
REMARK  status: ('A' for Active; 'I' for Inactive)
REMARK    1  A    between atoms: C7_7  and  C11_11 
ROOT
HETATM    1  C1  UNL     1     -36.242  15.955  -6.980  1.00 20.00    -0.021 C 
HETATM    2  C2  UNL     1     -34.986  15.920  -6.492  1.00 20.00    -0.053 C 
HETATM    3  C3  UNL     1     -37.387  15.276  -6.272  1.00 20.00     0.034 C 
HETATM    4  C4  UNL     1     -35.946  15.320  -4.243  1.00 20.00     0.050 C 
HETATM    5  C5  UNL     1     -36.065  13.283  -5.377  1.00 20.00     0.174 C 
HETATM    6  C6  UNL     1     -36.944  14.486  -5.021  1.00 20.00     0.016 C 
HETATM    7  C7  UNL     1     -34.735  15.188  -5.175  1.00 20.00     0.087 C 
HETATM    8  C8  UNL     1     -33.837  16.519  -7.246  1.00 20.00     0.046 C 
HETATM    9  O12 UNL     1     -34.711  13.777  -5.499  1.00 20.00    -0.375 OA
ENDROOT
BRANCH   7  10
HETATM   10  C11 UNL     1     -33.442  15.561  -4.457  1.00 20.00     0.016 C 
HETATM   11  C9  UNL     1     -33.744  16.277  -3.141  1.00 20.00     0.013 C 
HETATM   12  C10 UNL     1     -32.587  14.320  -4.207  1.00 20.00     0.013 C 
ENDBRANCH   7  10
TORSDOF 1
ENDMDL
MODEL 4
REMARK VINA RESULT:      -4.2      2.107      4.230
REMARK  1 active torsions:
REMARK  status: ('A' for Active; 'I' for Inactive)
REMARK    1  A    between atoms: C7_7  and  C11_11 
ROOT
HETATM    1  C1  UNL     1     -33.297  15.831  -6.208  1.00 20.00    -0.021 C 
HETATM    2  C2  UNL     1     -33.451  15.660  -4.880  1.00 20.00    -0.053 C 
HETATM    3  C3  UNL     1     -33.793  17.068  -6.913  1.00 20.00     0.034 C 
HETATM    4  C4  UNL     1     -33.801  18.145  -4.669  1.00 20.00     0.050 C 
HETATM    5  C5  UNL     1     -35.872  17.433  -5.477  1.00 20.00     0.174 C 
HETATM    6  C6  UNL     1     -34.555  18.032  -5.979  1.00 20.00     0.016 C 
HETATM    7  C7  UNL     1     -34.130  16.768  -4.077  1.00 20.00     0.087 C 
HETATM    8  C8  UNL     1     -33.037  14.391  -4.200  1.00 20.00     0.046 C 
HETATM    9  O12 UNL     1     -35.550  16.627  -4.320  1.00 20.00    -0.375 OA
ENDROOT
BRANCH   7  10
HETATM   10  C11 UNL     1     -33.871  16.738  -2.574  1.00 20.00     0.016 C 
HETATM   11  C9  UNL     1     -33.046  17.951  -2.144  1.00 20.00     0.013 C 
HETATM   12  C10 UNL     1     -35.187  16.686  -1.801  1.00 20.00     0.013 C 
ENDBRANCH   7  10
TORSDOF 1
ENDMDL
MODEL 5
REMARK VINA RESULT:      -4.1      1.723      3.651
REMARK  1 active torsions:
REMARK  status: ('A' for Active; 'I' for Inactive)
REMARK    1  A    between atoms: C7_7  and  C11_11 
ROOT
HETATM    1  C1  UNL     1     -35.417  14.214  -5.192  1.00 20.00    -0.021 C 
HETATM    2  C2  UNL     1     -36.103  15.125  -4.472  1.00 20.00    -0.053 C 
HETATM    3  C3  UNL     1     -33.920  14.293  -5.353  1.00 20.00     0.034 C 
HETATM    4  C4  UNL     1     -33.944  15.755  -3.338  1.00 20.00     0.050 C 
HETATM    5  C5  UNL     1     -33.743  16.839  -5.396  1.00 20.00     0.174 C 
HETATM    6  C6  UNL     1     -33.306  15.549  -4.697  1.00 20.00     0.016 C 
HETATM    7  C7  UNL     1     -35.326  16.248  -3.789  1.00 20.00     0.087 C 
HETATM    8  C8  UNL     1     -37.599  15.093  -4.392  1.00 20.00     0.046 C 
HETATM    9  O12 UNL     1     -35.019  17.212  -4.825  1.00 20.00    -0.375 OA
ENDROOT
BRANCH   7  10
HETATM   10  C11 UNL     1     -36.059  16.950  -2.651  1.00 20.00     0.016 C 
HETATM   11  C9  UNL     1     -35.233  16.901  -1.366  1.00 20.00     0.013 C 
HETATM   12  C10 UNL     1     -36.379  18.396  -3.025  1.00 20.00     0.013 C 
ENDBRANCH   7  10
TORSDOF 1
ENDMDL
MODEL 6
REMARK VINA RESULT:      -4.0      1.542      2.588
REMARK  1 active torsions:
REMARK  status: ('A' for Active; 'I' for Inactive)
REMARK    1  A    between atoms: C7_7  and  C11_11 
ROOT
HETATM    1  C1  UNL     1     -33.663  16.113  -3.404  1.00 20.00    -0.021 C 
HETATM    2  C2  UNL     1     -33.491  15.160  -4.342  1.00 20.00    -0.053 C 
HETATM    3  C3  UNL     1     -34.567  17.298  -3.632  1.00 20.00     0.034 C 
HETATM    4  C4  UNL     1     -35.626  15.938  -5.427  1.00 20.00     0.050 C 
HETATM    5  C5  UNL     1     -34.108  17.566  -6.129  1.00 20.00     0.174 C 
HETATM    6  C6  UNL     1     -35.172  17.334  -5.052  1.00 20.00     0.016 C 
HETATM    7  C7  UNL     1     -34.256  15.287  -5.658  1.00 20.00     0.087 C 
HETATM    8  C8  UNL     1     -32.523  14.034  -4.146  1.00 20.00     0.046 C 
HETATM    9  O12 UNL     1     -33.543  16.272  -6.444  1.00 20.00    -0.375 OA
ENDROOT
BRANCH   7  10
HETATM   10  C11 UNL     1     -34.386  13.999  -6.465  1.00 20.00     0.016 C 
HETATM   11  C9  UNL     1     -35.813  13.459  -6.392  1.00 20.00     0.013 C 
HETATM   12  C10 UNL     1     -33.975  14.228  -7.918  1.00 20.00     0.013 C 
ENDBRANCH   7  10
TORSDOF 1
ENDMDL
MODEL 7
REMARK VINA RESULT:      -4.0      1.606      3.030
REMARK  1 active torsions:
REMARK  status: ('A' for Active; 'I' for Inactive)
REMARK    1  A    between atoms: C7_7  and  C11_11 
ROOT
HETATM    1  C1  UNL     1     -34.151  16.239  -2.743  1.00 20.00    -0.021 C 
HETATM    2  C2  UNL     1     -34.164  15.671  -3.966  1.00 20.00    -0.053 C 
HETATM    3  C3  UNL     1     -35.358  16.947  -2.183  1.00 20.00     0.034 C 
HETATM    4  C4  UNL     1     -36.681  15.680  -3.869  1.00 20.00     0.050 C 
HETATM    5  C5  UNL     1     -36.211  17.906  -4.390  1.00 20.00     0.174 C 
HETATM    6  C6  UNL     1     -36.534  17.022  -3.181  1.00 20.00     0.016 C 
HETATM    7  C7  UNL     1     -35.452  15.737  -4.786  1.00 20.00     0.087 C 
HETATM    8  C8  UNL     1     -32.935  15.049  -4.554  1.00 20.00     0.046 C 
HETATM    9  O12 UNL     1     -35.507  17.073  -5.340  1.00 20.00    -0.375 OA
ENDROOT
BRANCH   7  10
HETATM   10  C11 UNL     1     -35.559  14.719  -5.916  1.00 20.00     0.016 C 
HETATM   11  C9  UNL     1     -36.066  13.378  -5.388  1.00 20.00     0.013 C 
HETATM   12  C10 UNL     1     -36.473  15.237  -7.024  1.00 20.00     0.013 C 
ENDBRANCH   7  10
TORSDOF 1
ENDMDL
MODEL 8
REMARK VINA RESULT:      -4.0      1.380      2.685
REMARK  1 active torsions:
REMARK  status: ('A' for Active; 'I' for Inactive)
REMARK    1  A    between atoms: C7_7  and  C11_11 
ROOT
HETATM    1  C1  UNL     1     -33.424  17.067  -4.938  1.00 20.00    -0.021 C 
HETATM    2  C2  UNL     1     -34.071  16.614  -6.031  1.00 20.00    -0.053 C 
HETATM    3  C3  UNL     1     -33.665  16.477  -3.571  1.00 20.00     0.034 C 
HETATM    4  C4  UNL     1     -34.586  14.497  -4.767  1.00 20.00     0.050 C 
HETATM    5  C5  UNL     1     -36.151  15.982  -3.878  1.00 20.00     0.174 C 
HETATM    6  C6  UNL     1     -34.771  15.399  -3.563  1.00 20.00     0.016 C 
HETATM    7  C7  UNL     1     -35.055  15.457  -5.868  1.00 20.00     0.087 C 
HETATM    8  C8  UNL     1     -33.895  17.264  -7.369  1.00 20.00     0.046 C 
HETATM    9  O12 UNL     1     -36.265  16.034  -5.319  1.00 20.00    -0.375 OA
ENDROOT
BRANCH   7  10
HETATM   10  C11 UNL     1     -35.395  14.704  -7.150  1.00 20.00     0.016 C 
HETATM   11  C9  UNL     1     -34.705  13.341  -7.173  1.00 20.00     0.013 C 
HETATM   12  C10 UNL     1     -36.907  14.540  -7.295  1.00 20.00     0.013 C 
ENDBRANCH   7  10
TORSDOF 1
ENDMDL
MODEL 9
REMARK VINA RESULT:      -4.0      1.559      4.089
REMARK  1 active torsions:
REMARK  status: ('A' for Active; 'I' for Inactive)
REMARK    1  A    between atoms: C7_7  and  C11_11 
ROOT
HETATM    1  C1  UNL     1     -34.964  16.560  -6.078  1.00 20.00    -0.021 C 
HETATM    2  C2  UNL     1     -34.560  17.249  -4.992  1.00 20.00    -0.053 C 
HETATM    3  C3  UNL     1     -35.323  15.097  -6.002  1.00 20.00     0.034 C 
HETATM    4  C4  UNL     1     -35.595  15.459  -3.554  1.00 20.00     0.050 C 
HETATM    5  C5  UNL     1     -33.605  14.444  -4.231  1.00 20.00     0.174 C 
HETATM    6  C6  UNL     1     -35.090  14.488  -4.603  1.00 20.00     0.016 C 
HETATM    7  C7  UNL     1     -34.491  16.521  -3.651  1.00 20.00     0.087 C 
HETATM    8  C8  UNL     1     -34.117  18.677  -5.091  1.00 20.00     0.046 C 
HETATM    9  O12 UNL     1     -33.273  15.739  -3.681  1.00 20.00    -0.375 OA
ENDROOT
BRANCH   7  10
HETATM   10  C11 UNL     1     -34.482  17.420  -2.420  1.00 20.00     0.016 C 
HETATM   11  C9  UNL     1     -35.473  16.913  -1.373  1.00 20.00     0.013 C 
HETATM   12  C10 UNL     1     -33.077  17.508  -1.827  1.00 20.00     0.013 C 
ENDBRANCH   7  10
TORSDOF 1
ENDMDL
