MODEL 1
REMARK VINA RESULT:      -5.3      0.000      0.000
REMARK  0 active torsions:
REMARK  status: ('A' for Active; 'I' for Inactive)
ROOT
HETATM    1  C1  UNL     1     -33.967   4.632   3.899  1.00 20.00    -0.025 A 
HETATM    2  C2  UNL     1     -33.194   4.896   2.831  1.00 20.00    -0.020 A 
HETATM    3  C3  UNL     1     -34.275   7.007   4.924  1.00 20.00     0.014 C 
HETATM    4  C4  UNL     1     -32.882   7.484   4.524  1.00 20.00     0.070 C 
HETATM    5  C5  UNL     1     -31.641   8.354   1.358  1.00 20.00     0.197 C 
HETATM    6  C6  UNL     1     -32.577   9.420   1.855  1.00 20.00     0.197 C 
HETATM    7  C7  UNL     1     -34.662   5.979   3.857  1.00 20.00     0.021 A 
HETATM    8  C8  UNL     1     -33.782   6.280   2.615  1.00 20.00     0.078 A 
HETATM    9  C9  UNL     1     -32.933   7.497   2.997  1.00 20.00     0.171 C 
HETATM   10  O10 UNL     1     -31.624   7.411   2.429  1.00 20.00    -0.352 OA
HETATM   11  O11 UNL     1     -33.594   8.686   2.536  1.00 20.00    -0.352 OA
ENDROOT
TORSDOF 0
ENDMDL
MODEL 2
REMARK VINA RESULT:      -4.4     10.622     11.877
REMARK  0 active torsions:
REMARK  status: ('A' for Active; 'I' for Inactive)
ROOT
HETATM    1  C1  UNL     1     -34.255  16.562  -2.358  1.00 20.00    -0.025 A 
HETATM    2  C2  UNL     1     -35.582  16.555  -2.577  1.00 20.00    -0.020 A 
HETATM    3  C3  UNL     1     -33.402  14.999  -4.260  1.00 20.00     0.014 C 
HETATM    4  C4  UNL     1     -34.632  14.096  -4.224  1.00 20.00     0.070 C 
HETATM    5  C5  UNL     1     -37.890  14.714  -5.372  1.00 20.00     0.197 C 
HETATM    6  C6  UNL     1     -36.964  14.507  -6.539  1.00 20.00     0.197 C 
HETATM    7  C7  UNL     1     -33.910  16.376  -3.823  1.00 20.00     0.021 A 
HETATM    8  C8  UNL     1     -35.440  16.383  -4.080  1.00 20.00     0.078 A 
HETATM    9  C9  UNL     1     -35.763  15.014  -4.687  1.00 20.00     0.171 C 
HETATM   10  O10 UNL     1     -37.036  14.540  -4.243  1.00 20.00    -0.352 OA
HETATM   11  O11 UNL     1     -35.750  15.128  -6.119  1.00 20.00    -0.352 OA
ENDROOT
TORSDOF 0
ENDMDL
MODEL 3
REMARK VINA RESULT:      -4.3     11.064     11.851
REMARK  0 active torsions:
REMARK  status: ('A' for Active; 'I' for Inactive)
ROOT
HETATM    1  C1  UNL     1     -33.996  18.389  -1.176  1.00 20.00    -0.025 A 
HETATM    2  C2  UNL     1     -33.031  18.067  -2.056  1.00 20.00    -0.020 A 
HETATM    3  C3  UNL     1     -36.024  17.044  -2.107  1.00 20.00     0.014 C 
HETATM    4  C4  UNL     1     -35.608  17.210  -3.567  1.00 20.00     0.070 C 
HETATM    5  C5  UNL     1     -33.002  15.666  -5.337  1.00 20.00     0.197 C 
HETATM    6  C6  UNL     1     -34.106  14.678  -5.082  1.00 20.00     0.197 C 
HETATM    7  C7  UNL     1     -34.711  17.059  -1.319  1.00 20.00     0.021 A 
HETATM    8  C8  UNL     1     -33.590  16.680  -2.323  1.00 20.00     0.078 A 
HETATM    9  C9  UNL     1     -34.299  16.428  -3.657  1.00 20.00     0.171 C 
HETATM   10  O10 UNL     1     -33.500  16.870  -4.757  1.00 20.00    -0.352 OA
HETATM   11  O11 UNL     1     -34.572  15.023  -3.778  1.00 20.00    -0.352 OA
ENDROOT
TORSDOF 0
ENDMDL
MODEL 4
REMARK VINA RESULT:      -4.2     10.756     12.429
REMARK  0 active torsions:
REMARK  status: ('A' for Active; 'I' for Inactive)
ROOT
HETATM    1  C1  UNL     1     -33.413  16.944  -4.761  1.00 20.00    -0.025 A 
HETATM    2  C2  UNL     1     -34.215  16.961  -5.840  1.00 20.00    -0.020 A 
HETATM    3  C3  UNL     1     -33.434  14.415  -4.133  1.00 20.00     0.014 C 
HETATM    4  C4  UNL     1     -34.880  14.202  -4.574  1.00 20.00     0.070 C 
HETATM    5  C5  UNL     1     -36.227  14.028  -7.810  1.00 20.00     0.197 C 
HETATM    6  C6  UNL     1     -35.446  12.778  -7.509  1.00 20.00     0.197 C 
HETATM    7  C7  UNL     1     -32.910  15.539  -5.032  1.00 20.00     0.021 A 
HETATM    8  C8  UNL     1     -33.822  15.563  -6.286  1.00 20.00     0.078 A 
HETATM    9  C9  UNL     1     -34.830  14.428  -6.084  1.00 20.00     0.171 C 
HETATM   10  O10 UNL     1     -36.115  14.780  -6.603  1.00 20.00    -0.352 OA
HETATM   11  O11 UNL     1     -34.338  13.249  -6.742  1.00 20.00    -0.352 OA
ENDROOT
TORSDOF 0
ENDMDL
MODEL 5
REMARK VINA RESULT:      -4.2     10.751     11.857
REMARK  0 active torsions:
REMARK  status: ('A' for Active; 'I' for Inactive)
ROOT
HETATM    1  C1  UNL     1     -35.912  16.223  -3.052  1.00 20.00    -0.025 A 
HETATM    2  C2  UNL     1     -36.603  15.476  -3.931  1.00 20.00    -0.020 A 
HETATM    3  C3  UNL     1     -33.463  15.856  -3.864  1.00 20.00     0.014 C 
HETATM    4  C4  UNL     1     -33.705  14.415  -4.304  1.00 20.00     0.070 C 
HETATM    5  C5  UNL     1     -35.450  13.193  -7.093  1.00 20.00     0.197 C 
HETATM    6  C6  UNL     1     -34.143  13.797  -7.527  1.00 20.00     0.197 C 
HETATM    7  C7  UNL     1     -34.814  16.556  -4.044  1.00 20.00     0.021 A 
HETATM    8  C8  UNL     1     -35.617  15.707  -5.064  1.00 20.00     0.078 A 
HETATM    9  C9  UNL     1     -34.689  14.556  -5.464  1.00 20.00     0.171 C 
HETATM   10  O10 UNL     1     -35.426  13.349  -5.675  1.00 20.00    -0.352 OA
HETATM   11  O11 UNL     1     -33.988  14.922  -6.663  1.00 20.00    -0.352 OA
ENDROOT
TORSDOF 0
ENDMDL
MODEL 6
REMARK VINA RESULT:      -4.2     10.755     11.973
REMARK  0 active torsions:
REMARK  status: ('A' for Active; 'I' for Inactive)
ROOT
HETATM    1  C1  UNL     1     -33.480  18.519  -2.616  1.00 20.00    -0.025 A 
HETATM    2  C2  UNL     1     -33.420  18.131  -3.902  1.00 20.00    -0.020 A 
HETATM    3  C3  UNL     1     -35.057  16.713  -1.596  1.00 20.00     0.014 C 
HETATM    4  C4  UNL     1     -35.899  16.572  -2.861  1.00 20.00     0.070 C 
HETATM    5  C5  UNL     1     -35.109  15.024  -5.910  1.00 20.00     0.197 C 
HETATM    6  C6  UNL     1     -35.345  13.984  -4.851  1.00 20.00     0.197 C 
HETATM    7  C7  UNL     1     -33.663  17.108  -2.092  1.00 20.00     0.021 A 
HETATM    8  C8  UNL     1     -33.578  16.656  -3.574  1.00 20.00     0.078 A 
HETATM    9  C9  UNL     1     -34.921  15.985  -3.878  1.00 20.00     0.171 C 
HETATM   10  O10 UNL     1     -35.339  16.251  -5.219  1.00 20.00    -0.352 OA
HETATM   11  O11 UNL     1     -34.789  14.569  -3.674  1.00 20.00    -0.352 OA
ENDROOT
TORSDOF 0
ENDMDL
MODEL 7
REMARK VINA RESULT:      -4.2     10.737     11.639
REMARK  0 active torsions:
REMARK  status: ('A' for Active; 'I' for Inactive)
ROOT
HETATM    1  C1  UNL     1     -35.176  13.879  -5.953  1.00 20.00    -0.025 A 
HETATM    2  C2  UNL     1     -35.830  14.048  -4.791  1.00 20.00    -0.020 A 
HETATM    3  C3  UNL     1     -33.421  15.803  -5.852  1.00 20.00     0.014 C 
HETATM    4  C4  UNL     1     -34.349  16.762  -5.111  1.00 20.00     0.070 C 
HETATM    5  C5  UNL     1     -35.389  16.722  -1.759  1.00 20.00     0.197 C 
HETATM    6  C6  UNL     1     -33.949  17.145  -1.846  1.00 20.00     0.197 C 
HETATM    7  C7  UNL     1     -33.862  14.405  -5.408  1.00 20.00     0.021 A 
HETATM    8  C8  UNL     1     -34.612  14.586  -4.061  1.00 20.00     0.078 A 
HETATM    9  C9  UNL     1     -34.553  16.086  -3.756  1.00 20.00     0.171 C 
HETATM   10  O10 UNL     1     -35.756  16.531  -3.125  1.00 20.00    -0.352 OA
HETATM   11  O11 UNL     1     -33.425  16.341  -2.904  1.00 20.00    -0.352 OA
ENDROOT
TORSDOF 0
ENDMDL
MODEL 8
REMARK VINA RESULT:      -4.1     10.458     11.816
REMARK  0 active torsions:
REMARK  status: ('A' for Active; 'I' for Inactive)
ROOT
HETATM    1  C1  UNL     1     -34.065  14.776  -7.119  1.00 20.00    -0.025 A 
HETATM    2  C2  UNL     1     -33.455  15.747  -6.416  1.00 20.00    -0.020 A 
HETATM    3  C3  UNL     1     -35.657  13.754  -5.327  1.00 20.00     0.014 C 
HETATM    4  C4  UNL     1     -34.690  13.990  -4.170  1.00 20.00     0.070 C 
HETATM    5  C5  UNL     1     -33.820  16.985  -2.560  1.00 20.00     0.197 C 
HETATM    6  C6  UNL     1     -35.214  16.578  -2.172  1.00 20.00     0.197 C 
HETATM    7  C7  UNL     1     -35.355  14.874  -6.327  1.00 20.00     0.021 A 
HETATM    8  C8  UNL     1     -34.659  16.005  -5.526  1.00 20.00     0.078 A 
HETATM    9  C9  UNL     1     -34.608  15.513  -4.077  1.00 20.00     0.171 C 
HETATM   10  O10 UNL     1     -33.404  15.934  -3.431  1.00 20.00    -0.352 OA
HETATM   11  O11 UNL     1     -35.751  16.025  -3.373  1.00 20.00    -0.352 OA
ENDROOT
TORSDOF 0
ENDMDL
MODEL 9
REMARK VINA RESULT:      -4.1     10.632     12.356
REMARK  0 active torsions:
REMARK  status: ('A' for Active; 'I' for Inactive)
ROOT
HETATM    1  C1  UNL     1     -33.212  14.522  -4.597  1.00 20.00    -0.025 A 
HETATM    2  C2  UNL     1     -34.371  14.377  -3.932  1.00 20.00    -0.020 A 
HETATM    3  C3  UNL     1     -34.049  14.911  -7.033  1.00 20.00     0.014 C 
HETATM    4  C4  UNL     1     -35.255  13.987  -6.885  1.00 20.00     0.070 C 
HETATM    5  C5  UNL     1     -38.254  14.492  -5.134  1.00 20.00     0.197 C 
HETATM    6  C6  UNL     1     -38.232  15.343  -6.373  1.00 20.00     0.197 C 
HETATM    7  C7  UNL     1     -33.803  15.465  -5.627  1.00 20.00     0.021 A 
HETATM    8  C8  UNL     1     -35.138  15.312  -4.852  1.00 20.00     0.078 A 
HETATM    9  C9  UNL     1     -36.125  14.698  -5.850  1.00 20.00     0.171 C 
HETATM   10  O10 UNL     1     -37.015  13.787  -5.201  1.00 20.00    -0.352 OA
HETATM   11  O11 UNL     1     -36.870  15.756  -6.474  1.00 20.00    -0.352 OA
ENDROOT
TORSDOF 0
ENDMDL
