MODEL 1
REMARK VINA RESULT:      -4.9      0.000      0.000
REMARK  1 active torsions:
REMARK  status: ('A' for Active; 'I' for Inactive)
REMARK    1  A    between atoms: C6_6  and  C10_10 
ROOT
HETATM    1  C1  UNL     1     -33.704   4.318   3.823  1.00 20.00     0.014 C 
HETATM    2  C2  UNL     1     -32.929   5.077   2.734  1.00 20.00     0.039 C 
HETATM    3  C3  UNL     1     -33.303   6.534   4.601  1.00 20.00     0.049 C 
HETATM    4  C4  UNL     1     -35.420   6.120   3.701  1.00 20.00     0.177 C 
HETATM    5  C5  UNL     1     -34.381   5.457   4.613  1.00 20.00    -0.020 C 
HETATM    6  C6  UNL     1     -33.243   6.540   3.079  1.00 20.00     0.064 C 
HETATM    7  C7  UNL     1     -34.905   5.048   5.969  1.00 20.00     0.017 C 
HETATM    8  O11 UNL     1     -34.618   6.775   2.689  1.00 20.00    -0.379 OA
ENDROOT
BRANCH   6   9
HETATM    9  C10 UNL     1     -32.320   7.556   2.450  1.00 20.00     0.012 C 
HETATM   10  C8  UNL     1     -33.107   8.592   1.638  1.00 20.00     0.012 C 
HETATM   11  C9  UNL     1     -31.468   8.263   3.511  1.00 20.00     0.012 C 
ENDBRANCH   6   9
TORSDOF 1
ENDMDL
MODEL 2
REMARK VINA RESULT:      -4.7      1.384      3.883
REMARK  1 active torsions:
REMARK  status: ('A' for Active; 'I' for Inactive)
REMARK    1  A    between atoms: C6_6  and  C10_10 
ROOT
HETATM    1  C1  UNL     1     -32.371   6.746   1.646  1.00 20.00     0.014 C 
HETATM    2  C2  UNL     1     -32.995   5.973   2.819  1.00 20.00     0.039 C 
HETATM    3  C3  UNL     1     -33.820   8.225   2.824  1.00 20.00     0.049 C 
HETATM    4  C4  UNL     1     -31.542   8.395   3.318  1.00 20.00     0.177 C 
HETATM    5  C5  UNL     1     -32.472   8.212   2.114  1.00 20.00    -0.020 C 
HETATM    6  C6  UNL     1     -33.397   7.109   3.771  1.00 20.00     0.064 C 
HETATM    7  C7  UNL     1     -32.285   9.231   1.013  1.00 20.00     0.017 C 
HETATM    8  O11 UNL     1     -32.173   7.613   4.359  1.00 20.00    -0.379 OA
ENDROOT
BRANCH   6   9
HETATM    9  C10 UNL     1     -34.393   6.725   4.838  1.00 20.00     0.012 C 
HETATM   10  C8  UNL     1     -34.660   5.215   4.830  1.00 20.00     0.012 C 
HETATM   11  C9  UNL     1     -33.913   7.162   6.228  1.00 20.00     0.012 C 
ENDBRANCH   6   9
TORSDOF 1
ENDMDL
MODEL 3
REMARK VINA RESULT:      -4.6      1.385      2.476
REMARK  1 active torsions:
REMARK  status: ('A' for Active; 'I' for Inactive)
REMARK    1  A    between atoms: C6_6  and  C10_10 
ROOT
HETATM    1  C1  UNL     1     -33.268   7.193   4.915  1.00 20.00     0.014 C 
HETATM    2  C2  UNL     1     -32.256   8.156   4.273  1.00 20.00     0.039 C 
HETATM    3  C3  UNL     1     -34.064   7.770   2.745  1.00 20.00     0.049 C 
HETATM    4  C4  UNL     1     -32.957   5.719   2.931  1.00 20.00     0.177 C 
HETATM    5  C5  UNL     1     -33.975   6.577   3.690  1.00 20.00    -0.020 C 
HETATM    6  C6  UNL     1     -32.556   7.982   2.776  1.00 20.00     0.064 C 
HETATM    7  C7  UNL     1     -35.275   5.876   4.010  1.00 20.00     0.017 C 
HETATM    8  O11 UNL     1     -32.027   6.689   2.393  1.00 20.00    -0.379 OA
ENDROOT
BRANCH   6   9
HETATM    9  C10 UNL     1     -32.016   9.074   1.886  1.00 20.00     0.012 C 
HETATM   10  C8  UNL     1     -31.384   8.494   0.616  1.00 20.00     0.012 C 
HETATM   11  C9  UNL     1     -33.114  10.078   1.512  1.00 20.00     0.012 C 
ENDBRANCH   6   9
TORSDOF 1
ENDMDL
MODEL 4
REMARK VINA RESULT:      -4.4      1.120      1.654
REMARK  1 active torsions:
REMARK  status: ('A' for Active; 'I' for Inactive)
REMARK    1  A    between atoms: C6_6  and  C10_10 
ROOT
HETATM    1  C1  UNL     1     -35.367   6.081   3.579  1.00 20.00     0.014 C 
HETATM    2  C2  UNL     1     -34.617   7.180   2.810  1.00 20.00     0.039 C 
HETATM    3  C3  UNL     1     -33.040   5.571   3.633  1.00 20.00     0.049 C 
HETATM    4  C4  UNL     1     -33.916   6.613   5.533  1.00 20.00     0.177 C 
HETATM    5  C5  UNL     1     -34.279   5.522   4.519  1.00 20.00    -0.020 C 
HETATM    6  C6  UNL     1     -33.200   7.067   3.392  1.00 20.00     0.064 C 
HETATM    7  C7  UNL     1     -34.613   4.182   5.131  1.00 20.00     0.017 C 
HETATM    8  O11 UNL     1     -33.254   7.619   4.730  1.00 20.00    -0.379 OA
ENDROOT
BRANCH   6   9
HETATM    9  C10 UNL     1     -32.120   7.731   2.574  1.00 20.00     0.012 C 
HETATM   10  C8  UNL     1     -32.717   8.707   1.553  1.00 20.00     0.012 C 
HETATM   11  C9  UNL     1     -31.117   8.466   3.473  1.00 20.00     0.012 C 
ENDBRANCH   6   9
TORSDOF 1
ENDMDL
MODEL 5
REMARK VINA RESULT:      -4.3     11.788     12.840
REMARK  1 active torsions:
REMARK  status: ('A' for Active; 'I' for Inactive)
REMARK    1  A    between atoms: C6_6  and  C10_10 
ROOT
HETATM    1  C1  UNL     1     -33.320  15.770  -6.201  1.00 20.00     0.014 C 
HETATM    2  C2  UNL     1     -33.362  16.581  -4.896  1.00 20.00     0.039 C 
HETATM    3  C3  UNL     1     -34.439  14.466  -4.552  1.00 20.00     0.049 C 
HETATM    4  C4  UNL     1     -35.802  15.620  -6.060  1.00 20.00     0.177 C 
HETATM    5  C5  UNL     1     -34.508  14.800  -6.037  1.00 20.00    -0.020 C 
HETATM    6  C6  UNL     1     -34.543  15.933  -4.157  1.00 20.00     0.064 C 
HETATM    7  C7  UNL     1     -34.489  13.627  -6.990  1.00 20.00     0.017 C 
HETATM    8  O11 UNL     1     -35.748  16.377  -4.827  1.00 20.00    -0.379 OA
ENDROOT
BRANCH   6   9
HETATM    9  C10 UNL     1     -34.607  16.225  -2.678  1.00 20.00     0.012 C 
HETATM   10  C8  UNL     1     -33.443  17.121  -2.238  1.00 20.00     0.012 C 
HETATM   11  C9  UNL     1     -35.942  16.880  -2.299  1.00 20.00     0.012 C 
ENDBRANCH   6   9
TORSDOF 1
ENDMDL
MODEL 6
REMARK VINA RESULT:      -4.2     11.393     12.666
REMARK  1 active torsions:
REMARK  status: ('A' for Active; 'I' for Inactive)
REMARK    1  A    between atoms: C6_6  and  C10_10 
ROOT
HETATM    1  C1  UNL     1     -33.678  16.664  -5.257  1.00 20.00     0.014 C 
HETATM    2  C2  UNL     1     -34.333  15.748  -6.303  1.00 20.00     0.039 C 
HETATM    3  C3  UNL     1     -35.212  15.227  -4.133  1.00 20.00     0.049 C 
HETATM    4  C4  UNL     1     -32.961  14.600  -4.060  1.00 20.00     0.177 C 
HETATM    5  C5  UNL     1     -33.834  15.855  -3.953  1.00 20.00    -0.020 C 
HETATM    6  C6  UNL     1     -34.803  14.565  -5.442  1.00 20.00     0.064 C 
HETATM    7  C7  UNL     1     -33.625  16.661  -2.692  1.00 20.00     0.017 C 
HETATM    8  O11 UNL     1     -33.617  13.814  -5.083  1.00 20.00    -0.379 OA
ENDROOT
BRANCH   6   9
HETATM    9  C10 UNL     1     -35.833  13.674  -6.091  1.00 20.00     0.012 C 
HETATM   10  C8  UNL     1     -37.198  14.368  -6.169  1.00 20.00     0.012 C 
HETATM   11  C9  UNL     1     -35.388  13.241  -7.494  1.00 20.00     0.012 C 
ENDBRANCH   6   9
TORSDOF 1
ENDMDL
MODEL 7
REMARK VINA RESULT:      -4.1     12.006     12.803
REMARK  1 active torsions:
REMARK  status: ('A' for Active; 'I' for Inactive)
REMARK    1  A    between atoms: C6_6  and  C10_10 
ROOT
HETATM    1  C1  UNL     1     -35.586  16.206  -3.095  1.00 20.00     0.014 C 
HETATM    2  C2  UNL     1     -35.873  15.344  -4.336  1.00 20.00     0.039 C 
HETATM    3  C3  UNL     1     -33.515  15.346  -3.899  1.00 20.00     0.049 C 
HETATM    4  C4  UNL     1     -34.036  17.540  -4.517  1.00 20.00     0.177 C 
HETATM    5  C5  UNL     1     -34.113  16.613  -3.299  1.00 20.00    -0.020 C 
HETATM    6  C6  UNL     1     -34.513  15.351  -5.050  1.00 20.00     0.064 C 
HETATM    7  C7  UNL     1     -33.438  17.149  -2.057  1.00 20.00     0.017 C 
HETATM    8  O11 UNL     1     -34.353  16.669  -5.629  1.00 20.00    -0.379 OA
ENDROOT
BRANCH   6   9
HETATM    9  C10 UNL     1     -34.335  14.275  -6.093  1.00 20.00     0.012 C 
HETATM   10  C8  UNL     1     -35.596  13.412  -6.221  1.00 20.00     0.012 C 
HETATM   11  C9  UNL     1     -33.976  14.879  -7.457  1.00 20.00     0.012 C 
ENDBRANCH   6   9
TORSDOF 1
ENDMDL
MODEL 8
REMARK VINA RESULT:      -4.1     11.899     13.137
REMARK  1 active torsions:
REMARK  status: ('A' for Active; 'I' for Inactive)
REMARK    1  A    between atoms: C6_6  and  C10_10 
ROOT
HETATM    1  C1  UNL     1     -35.455  15.960  -5.341  1.00 20.00     0.014 C 
HETATM    2  C2  UNL     1     -35.443  15.834  -3.809  1.00 20.00     0.039 C 
HETATM    3  C3  UNL     1     -33.897  17.542  -4.476  1.00 20.00     0.049 C 
HETATM    4  C4  UNL     1     -33.000  15.539  -5.283  1.00 20.00     0.177 C 
HETATM    5  C5  UNL     1     -34.072  16.575  -5.641  1.00 20.00    -0.020 C 
HETATM    6  C6  UNL     1     -34.073  16.430  -3.450  1.00 20.00     0.064 C 
HETATM    7  C7  UNL     1     -33.941  17.163  -7.026  1.00 20.00     0.017 C 
HETATM    8  O11 UNL     1     -33.079  15.451  -3.841  1.00 20.00    -0.379 OA
ENDROOT
BRANCH   6   9
HETATM    9  C10 UNL     1     -33.908  16.823  -2.003  1.00 20.00     0.012 C 
HETATM   10  C8  UNL     1     -33.101  18.119  -1.868  1.00 20.00     0.012 C 
HETATM   11  C9  UNL     1     -35.269  16.981  -1.312  1.00 20.00     0.012 C 
ENDBRANCH   6   9
TORSDOF 1
ENDMDL
MODEL 9
REMARK VINA RESULT:      -4.1     11.551     12.747
REMARK  1 active torsions:
REMARK  status: ('A' for Active; 'I' for Inactive)
REMARK    1  A    between atoms: C6_6  and  C10_10 
ROOT
HETATM    1  C1  UNL     1     -35.204  17.108  -1.310  1.00 20.00     0.014 C 
HETATM    2  C2  UNL     1     -35.680  16.316  -2.539  1.00 20.00     0.039 C 
HETATM    3  C3  UNL     1     -33.317  16.691  -2.703  1.00 20.00     0.049 C 
HETATM    4  C4  UNL     1     -34.298  18.805  -2.893  1.00 20.00     0.177 C 
HETATM    5  C5  UNL     1     -33.913  17.781  -1.819  1.00 20.00    -0.020 C 
HETATM    6  C6  UNL     1     -34.573  16.618  -3.560  1.00 20.00     0.064 C 
HETATM    7  C7  UNL     1     -33.020  18.321  -0.726  1.00 20.00     0.017 C 
HETATM    8  O11 UNL     1     -34.767  17.987  -3.991  1.00 20.00    -0.379 OA
ENDROOT
BRANCH   6   9
HETATM    9  C10 UNL     1     -34.523  15.680  -4.742  1.00 20.00     0.012 C 
HETATM   10  C8  UNL     1     -33.322  15.987  -5.644  1.00 20.00     0.012 C 
HETATM   11  C9  UNL     1     -34.472  14.216  -4.286  1.00 20.00     0.012 C 
ENDBRANCH   6   9
TORSDOF 1
ENDMDL
