MODEL 1
REMARK VINA RESULT:      -5.1      0.000      0.000
REMARK  1 active torsions:
REMARK  status: ('A' for Active; 'I' for Inactive)
REMARK    1  A    between atoms: C8_8  and  C11_11 
ROOT
HETATM    1  C1  UNL     1     -34.008  15.986  -3.484  1.00 20.00    -0.079 C 
HETATM    2  C2  UNL     1     -35.715  13.581  -5.152  1.00 20.00     0.132 C 
HETATM    3  C3  UNL     1     -33.653  16.816  -2.504  1.00 20.00     0.015 C 
HETATM    4  C4  UNL     1     -33.327  14.774  -4.189  1.00 20.00     0.047 C 
HETATM    5  C5  UNL     1     -37.045  14.329  -5.021  1.00 20.00     0.080 C 
HETATM    6  C6  UNL     1     -36.686  15.529  -4.071  1.00 20.00     0.022 C 
HETATM    7  C7  UNL     1     -34.775  14.307  -4.201  1.00 20.00     0.072 C 
HETATM    8  C8  UNL     1     -35.219  15.835  -4.386  1.00 20.00    -0.004 C 
HETATM    9  O12 UNL     1     -35.519  12.617  -5.873  1.00 20.00    -0.298 OA
ENDROOT
BRANCH   8  10
HETATM   10  C11 UNL     1     -35.078  16.612  -5.701  1.00 20.00    -0.009 C 
HETATM   11  C9  UNL     1     -36.439  17.122  -6.163  1.00 20.00     0.011 C 
HETATM   12  C10 UNL     1     -34.095  17.764  -5.532  1.00 20.00     0.011 C 
ENDBRANCH   8  10
TORSDOF 1
ENDMDL
MODEL 2
REMARK VINA RESULT:      -4.6      1.077      1.130
REMARK  1 active torsions:
REMARK  status: ('A' for Active; 'I' for Inactive)
REMARK    1  A    between atoms: C8_8  and  C11_11 
ROOT
HETATM    1  C1  UNL     1     -34.819  15.576  -3.651  1.00 20.00    -0.079 C 
HETATM    2  C2  UNL     1     -35.652  13.398  -6.108  1.00 20.00     0.132 C 
HETATM    3  C3  UNL     1     -34.945  16.369  -2.588  1.00 20.00     0.015 C 
HETATM    4  C4  UNL     1     -34.028  14.267  -3.949  1.00 20.00     0.047 C 
HETATM    5  C5  UNL     1     -36.734  14.326  -6.667  1.00 20.00     0.080 C 
HETATM    6  C6  UNL     1     -36.793  15.483  -5.606  1.00 20.00     0.022 C 
HETATM    7  C7  UNL     1     -35.287  14.005  -4.762  1.00 20.00     0.072 C 
HETATM    8  C8  UNL     1     -35.362  15.575  -5.068  1.00 20.00    -0.004 C 
HETATM    9  O12 UNL     1     -35.224  12.400  -6.666  1.00 20.00    -0.298 OA
ENDROOT
BRANCH   8  10
HETATM   10  C11 UNL     1     -34.436  16.298  -6.056  1.00 20.00    -0.009 C 
HETATM   11  C9  UNL     1     -35.231  16.796  -7.258  1.00 20.00     0.011 C 
HETATM   12  C10 UNL     1     -33.720  17.451  -5.363  1.00 20.00     0.011 C 
ENDBRANCH   8  10
TORSDOF 1
ENDMDL
MODEL 3
REMARK VINA RESULT:      -4.6      1.470      3.400
REMARK  1 active torsions:
REMARK  status: ('A' for Active; 'I' for Inactive)
REMARK    1  A    between atoms: C8_8  and  C11_11 
ROOT
HETATM    1  C1  UNL     1     -36.049  17.470  -3.820  1.00 20.00    -0.079 C 
HETATM    2  C2  UNL     1     -34.487  14.505  -4.315  1.00 20.00     0.132 C 
HETATM    3  C3  UNL     1     -36.469  18.714  -4.044  1.00 20.00     0.015 C 
HETATM    4  C4  UNL     1     -36.754  16.088  -3.679  1.00 20.00     0.047 C 
HETATM    5  C5  UNL     1     -33.113  15.166  -4.456  1.00 20.00     0.080 C 
HETATM    6  C6  UNL     1     -33.456  16.700  -4.462  1.00 20.00     0.022 C 
HETATM    7  C7  UNL     1     -35.475  15.659  -4.382  1.00 20.00     0.072 C 
HETATM    8  C8  UNL     1     -34.703  16.811  -3.580  1.00 20.00    -0.004 C 
HETATM    9  O12 UNL     1     -34.680  13.306  -4.188  1.00 20.00    -0.298 OA
ENDROOT
BRANCH   8  10
HETATM   10  C11 UNL     1     -34.346  16.723  -2.090  1.00 20.00    -0.009 C 
HETATM   11  C9  UNL     1     -33.124  17.583  -1.787  1.00 20.00     0.011 C 
HETATM   12  C10 UNL     1     -35.534  17.146  -1.235  1.00 20.00     0.011 C 
ENDBRANCH   8  10
TORSDOF 1
ENDMDL
MODEL 4
REMARK VINA RESULT:      -4.5      1.355      3.095
REMARK  1 active torsions:
REMARK  status: ('A' for Active; 'I' for Inactive)
REMARK    1  A    between atoms: C8_8  and  C11_11 
ROOT
HETATM    1  C1  UNL     1     -36.771  15.798  -4.983  1.00 20.00    -0.079 C 
HETATM    2  C2  UNL     1     -35.192  13.377  -6.750  1.00 20.00     0.132 C 
HETATM    3  C3  UNL     1     -37.368  16.957  -4.707  1.00 20.00     0.015 C 
HETATM    4  C4  UNL     1     -37.238  14.311  -5.019  1.00 20.00     0.047 C 
HETATM    5  C5  UNL     1     -34.032  14.302  -7.124  1.00 20.00     0.080 C 
HETATM    6  C6  UNL     1     -34.508  15.703  -6.594  1.00 20.00     0.022 C 
HETATM    7  C7  UNL     1     -36.252  14.306  -6.178  1.00 20.00     0.072 C 
HETATM    8  C8  UNL     1     -35.368  15.371  -5.371  1.00 20.00    -0.004 C 
HETATM    9  O12 UNL     1     -35.205  12.167  -6.908  1.00 20.00    -0.298 OA
ENDROOT
BRANCH   8  10
HETATM   10  C11 UNL     1     -34.501  15.016  -4.156  1.00 20.00    -0.009 C 
HETATM   11  C9  UNL     1     -33.025  15.027  -4.537  1.00 20.00     0.011 C 
HETATM   12  C10 UNL     1     -34.773  15.983  -3.010  1.00 20.00     0.011 C 
ENDBRANCH   8  10
TORSDOF 1
ENDMDL
MODEL 5
REMARK VINA RESULT:      -4.5      1.109      1.153
REMARK  1 active torsions:
REMARK  status: ('A' for Active; 'I' for Inactive)
REMARK    1  A    between atoms: C8_8  and  C11_11 
ROOT
HETATM    1  C1  UNL     1     -34.951  16.264  -2.823  1.00 20.00    -0.079 C 
HETATM    2  C2  UNL     1     -35.046  14.037  -5.374  1.00 20.00     0.132 C 
HETATM    3  C3  UNL     1     -35.198  16.817  -1.637  1.00 20.00     0.015 C 
HETATM    4  C4  UNL     1     -33.679  15.689  -3.516  1.00 20.00     0.047 C 
HETATM    5  C5  UNL     1     -36.568  14.138  -5.505  1.00 20.00     0.080 C 
HETATM    6  C6  UNL     1     -36.973  15.023  -4.271  1.00 20.00     0.022 C 
HETATM    7  C7  UNL     1     -34.729  14.732  -4.059  1.00 20.00     0.072 C 
HETATM    8  C8  UNL     1     -35.772  15.949  -4.060  1.00 20.00    -0.004 C 
HETATM    9  O12 UNL     1     -34.306  13.496  -6.180  1.00 20.00    -0.298 OA
ENDROOT
BRANCH   8  10
HETATM   10  C11 UNL     1     -35.754  17.088  -5.088  1.00 20.00    -0.009 C 
HETATM   11  C9  UNL     1     -37.026  17.063  -5.927  1.00 20.00     0.011 C 
HETATM   12  C10 UNL     1     -35.592  18.431  -4.387  1.00 20.00     0.011 C 
ENDBRANCH   8  10
TORSDOF 1
ENDMDL
MODEL 6
REMARK VINA RESULT:      -4.3      2.610      4.047
REMARK  1 active torsions:
REMARK  status: ('A' for Active; 'I' for Inactive)
REMARK    1  A    between atoms: C8_8  and  C11_11 
ROOT
HETATM    1  C1  UNL     1     -34.049  15.604  -3.754  1.00 20.00    -0.079 C 
HETATM    2  C2  UNL     1     -35.577  17.506  -1.403  1.00 20.00     0.132 C 
HETATM    3  C3  UNL     1     -33.213  14.721  -4.298  1.00 20.00     0.015 C 
HETATM    4  C4  UNL     1     -35.595  15.674  -3.569  1.00 20.00     0.047 C 
HETATM    5  C5  UNL     1     -34.265  18.178  -0.987  1.00 20.00     0.080 C 
HETATM    6  C6  UNL     1     -33.182  17.376  -1.795  1.00 20.00     0.022 C 
HETATM    7  C7  UNL     1     -35.146  16.338  -2.277  1.00 20.00     0.072 C 
HETATM    8  C8  UNL     1     -33.904  16.955  -3.079  1.00 20.00    -0.004 C 
HETATM    9  O12 UNL     1     -36.691  17.871  -1.066  1.00 20.00    -0.298 OA
ENDROOT
BRANCH   8  10
HETATM   10  C11 UNL     1     -34.021  18.125  -4.066  1.00 20.00    -0.009 C 
HETATM   11  C9  UNL     1     -33.094  19.262  -3.651  1.00 20.00     0.011 C 
HETATM   12  C10 UNL     1     -33.707  17.656  -5.481  1.00 20.00     0.011 C 
ENDBRANCH   8  10
TORSDOF 1
ENDMDL
MODEL 7
REMARK VINA RESULT:      -4.3      1.166      2.929
REMARK  1 active torsions:
REMARK  status: ('A' for Active; 'I' for Inactive)
REMARK    1  A    between atoms: C8_8  and  C11_11 
ROOT
HETATM    1  C1  UNL     1     -35.496  17.216  -5.512  1.00 20.00    -0.079 C 
HETATM    2  C2  UNL     1     -35.286  13.877  -4.977  1.00 20.00     0.132 C 
HETATM    3  C3  UNL     1     -35.136  18.452  -5.853  1.00 20.00     0.015 C 
HETATM    4  C4  UNL     1     -36.525  16.185  -6.067  1.00 20.00     0.047 C 
HETATM    5  C5  UNL     1     -34.118  14.031  -3.999  1.00 20.00     0.080 C 
HETATM    6  C6  UNL     1     -33.760  15.558  -4.110  1.00 20.00     0.022 C 
HETATM    7  C7  UNL     1     -35.412  15.241  -5.638  1.00 20.00     0.072 C 
HETATM    8  C8  UNL     1     -35.097  16.237  -4.423  1.00 20.00    -0.004 C 
HETATM    9  O12 UNL     1     -35.930  12.854  -5.147  1.00 20.00    -0.298 OA
ENDROOT
BRANCH   8  10
HETATM   10  C11 UNL     1     -35.973  16.358  -3.169  1.00 20.00    -0.009 C 
HETATM   11  C9  UNL     1     -35.107  16.628  -1.943  1.00 20.00     0.011 C 
HETATM   12  C10 UNL     1     -37.012  17.458  -3.353  1.00 20.00     0.011 C 
ENDBRANCH   8  10
TORSDOF 1
ENDMDL
MODEL 8
REMARK VINA RESULT:      -4.3      1.288      2.938
REMARK  1 active torsions:
REMARK  status: ('A' for Active; 'I' for Inactive)
REMARK    1  A    between atoms: C8_8  and  C11_11 
ROOT
HETATM    1  C1  UNL     1     -34.965  17.012  -5.462  1.00 20.00    -0.079 C 
HETATM    2  C2  UNL     1     -36.907  14.238  -5.402  1.00 20.00     0.132 C 
HETATM    3  C3  UNL     1     -34.195  17.989  -5.939  1.00 20.00     0.015 C 
HETATM    4  C4  UNL     1     -36.373  16.958  -4.797  1.00 20.00     0.047 C 
HETATM    5  C5  UNL     1     -35.803  13.360  -5.998  1.00 20.00     0.080 C 
HETATM    6  C6  UNL     1     -34.683  14.400  -6.368  1.00 20.00     0.022 C 
HETATM    7  C7  UNL     1     -36.407  15.662  -5.592  1.00 20.00     0.072 C 
HETATM    8  C8  UNL     1     -34.836  15.507  -5.321  1.00 20.00    -0.004 C 
HETATM    9  O12 UNL     1     -37.943  13.824  -4.906  1.00 20.00    -0.298 OA
ENDROOT
BRANCH   8  10
HETATM   10  C11 UNL     1     -34.239  15.089  -3.970  1.00 20.00    -0.009 C 
HETATM   11  C9  UNL     1     -32.976  14.261  -4.184  1.00 20.00     0.011 C 
HETATM   12  C10 UNL     1     -33.946  16.317  -3.118  1.00 20.00     0.011 C 
ENDBRANCH   8  10
TORSDOF 1
ENDMDL
MODEL 9
REMARK VINA RESULT:      -4.3      1.654      2.590
REMARK  1 active torsions:
REMARK  status: ('A' for Active; 'I' for Inactive)
REMARK    1  A    between atoms: C8_8  and  C11_11 
ROOT
HETATM    1  C1  UNL     1     -33.860  16.949  -3.126  1.00 20.00    -0.079 C 
HETATM    2  C2  UNL     1     -33.745  15.529  -6.200  1.00 20.00     0.132 C 
HETATM    3  C3  UNL     1     -33.635  17.137  -1.827  1.00 20.00     0.015 C 
HETATM    4  C4  UNL     1     -33.482  17.726  -4.423  1.00 20.00     0.047 C 
HETATM    5  C5  UNL     1     -34.332  14.208  -5.693  1.00 20.00     0.080 C 
HETATM    6  C6  UNL     1     -34.372  14.410  -4.135  1.00 20.00     0.022 C 
HETATM    7  C7  UNL     1     -33.389  16.297  -4.936  1.00 20.00     0.072 C 
HETATM    8  C8  UNL     1     -34.597  15.914  -3.956  1.00 20.00    -0.004 C 
HETATM    9  O12 UNL     1     -33.612  15.835  -7.374  1.00 20.00    -0.298 OA
ENDROOT
BRANCH   8  10
HETATM   10  C11 UNL     1     -36.061  16.298  -4.214  1.00 20.00    -0.009 C 
HETATM   11  C9  UNL     1     -36.913  15.045  -4.390  1.00 20.00     0.011 C 
HETATM   12  C10 UNL     1     -36.591  17.160  -3.076  1.00 20.00     0.011 C 
ENDBRANCH   8  10
TORSDOF 1
ENDMDL
