MODEL 1
REMARK VINA RESULT:      -5.6      0.000      0.000
REMARK  1 active torsions:
REMARK  status: ('A' for Active; 'I' for Inactive)
REMARK    1  A    between atoms: C4_4  and  C10_10 
ROOT
HETATM    1  C1  UNL     1     -33.171   5.775   2.749  1.00 20.00     0.132 C 
HETATM    2  C2  UNL     1     -32.454   6.750   1.852  1.00 20.00     0.087 C 
HETATM    3  C3  UNL     1     -33.873   7.943   3.418  1.00 20.00     0.021 C 
HETATM    4  C4  UNL     1     -34.081   6.458   3.740  1.00 20.00     0.059 C 
HETATM    5  C5  UNL     1     -32.540   8.061   2.647  1.00 20.00    -0.041 C 
HETATM    6  C6  UNL     1     -31.343   8.199   3.600  1.00 20.00     0.015 C 
HETATM    7  C7  UNL     1     -32.561   9.273   1.709  1.00 20.00     0.015 C 
HETATM    8  O11 UNL     1     -33.046   4.559   2.663  1.00 20.00    -0.298 OA
ENDROOT
BRANCH   4   9
HETATM    9  C10 UNL     1     -33.780   6.131   5.193  1.00 20.00    -0.011 C 
HETATM   10  C8  UNL     1     -33.892   7.380   6.071  1.00 20.00     0.010 C 
HETATM   11  C9  UNL     1     -34.713   5.034   5.713  1.00 20.00     0.010 C 
ENDBRANCH   4   9
TORSDOF 1
ENDMDL
MODEL 2
REMARK VINA RESULT:      -4.2     10.992     12.310
REMARK  1 active torsions:
REMARK  status: ('A' for Active; 'I' for Inactive)
REMARK    1  A    between atoms: C4_4  and  C10_10 
ROOT
HETATM    1  C1  UNL     1     -35.924  13.700  -5.129  1.00 20.00     0.132 C 
HETATM    2  C2  UNL     1     -37.308  14.251  -5.355  1.00 20.00     0.087 C 
HETATM    3  C3  UNL     1     -36.067  15.699  -3.855  1.00 20.00     0.021 C 
HETATM    4  C4  UNL     1     -35.106  14.553  -4.191  1.00 20.00     0.059 C 
HETATM    5  C5  UNL     1     -37.151  15.725  -4.954  1.00 20.00    -0.041 C 
HETATM    6  C6  UNL     1     -36.715  16.573  -6.160  1.00 20.00     0.015 C 
HETATM    7  C7  UNL     1     -38.466  16.290  -4.408  1.00 20.00     0.015 C 
HETATM    8  O11 UNL     1     -35.520  12.659  -5.632  1.00 20.00    -0.298 OA
ENDROOT
BRANCH   4   9
HETATM    9  C10 UNL     1     -33.796  15.049  -4.781  1.00 20.00    -0.011 C 
HETATM   10  C8  UNL     1     -33.551  16.515  -4.418  1.00 20.00     0.010 C 
HETATM   11  C9  UNL     1     -32.622  14.186  -4.312  1.00 20.00     0.010 C 
ENDBRANCH   4   9
TORSDOF 1
ENDMDL
MODEL 3
REMARK VINA RESULT:      -4.1     11.457     12.519
REMARK  1 active torsions:
REMARK  status: ('A' for Active; 'I' for Inactive)
REMARK    1  A    between atoms: C4_4  and  C10_10 
ROOT
HETATM    1  C1  UNL     1     -37.067  14.316  -4.774  1.00 20.00     0.132 C 
HETATM    2  C2  UNL     1     -36.675  15.458  -3.872  1.00 20.00     0.087 C 
HETATM    3  C3  UNL     1     -34.697  14.270  -4.624  1.00 20.00     0.021 C 
HETATM    4  C4  UNL     1     -35.877  13.529  -5.265  1.00 20.00     0.059 C 
HETATM    5  C5  UNL     1     -35.199  15.677  -4.233  1.00 20.00    -0.041 C 
HETATM    6  C6  UNL     1     -35.064  16.671  -5.397  1.00 20.00     0.015 C 
HETATM    7  C7  UNL     1     -34.414  16.219  -3.033  1.00 20.00     0.015 C 
HETATM    8  O11 UNL     1     -38.228  14.044  -5.054  1.00 20.00    -0.298 OA
ENDROOT
BRANCH   4   9
HETATM    9  C10 UNL     1     -35.761  13.453  -6.778  1.00 20.00    -0.011 C 
HETATM   10  C8  UNL     1     -36.656  14.497  -7.451  1.00 20.00     0.010 C 
HETATM   11  C9  UNL     1     -34.308  13.635  -7.226  1.00 20.00     0.010 C 
ENDBRANCH   4   9
TORSDOF 1
ENDMDL
MODEL 4
REMARK VINA RESULT:      -4.1     11.225     12.925
REMARK  1 active torsions:
REMARK  status: ('A' for Active; 'I' for Inactive)
REMARK    1  A    between atoms: C4_4  and  C10_10 
ROOT
HETATM    1  C1  UNL     1     -34.605  14.513  -4.561  1.00 20.00     0.132 C 
HETATM    2  C2  UNL     1     -34.662  15.418  -3.358  1.00 20.00     0.087 C 
HETATM    3  C3  UNL     1     -33.260  16.401  -5.077  1.00 20.00     0.021 C 
HETATM    4  C4  UNL     1     -33.735  15.066  -5.662  1.00 20.00     0.059 C 
HETATM    5  C5  UNL     1     -34.235  16.773  -3.938  1.00 20.00    -0.041 C 
HETATM    6  C6  UNL     1     -35.453  17.548  -4.465  1.00 20.00     0.015 C 
HETATM    7  C7  UNL     1     -33.531  17.628  -2.879  1.00 20.00     0.015 C 
HETATM    8  O11 UNL     1     -35.182  13.433  -4.624  1.00 20.00    -0.298 OA
ENDROOT
BRANCH   4   9
HETATM    9  C10 UNL     1     -34.447  15.237  -6.994  1.00 20.00    -0.011 C 
HETATM   10  C8  UNL     1     -34.027  16.540  -7.678  1.00 20.00     0.010 C 
HETATM   11  C9  UNL     1     -34.177  14.046  -7.917  1.00 20.00     0.010 C 
ENDBRANCH   4   9
TORSDOF 1
ENDMDL
MODEL 5
REMARK VINA RESULT:      -4.1     11.666     12.935
REMARK  1 active torsions:
REMARK  status: ('A' for Active; 'I' for Inactive)
REMARK    1  A    between atoms: C4_4  and  C10_10 
ROOT
HETATM    1  C1  UNL     1     -34.947  17.837  -4.418  1.00 20.00     0.132 C 
HETATM    2  C2  UNL     1     -35.224  18.345  -3.027  1.00 20.00     0.087 C 
HETATM    3  C3  UNL     1     -34.857  15.946  -2.984  1.00 20.00     0.021 C 
HETATM    4  C4  UNL     1     -34.722  16.346  -4.459  1.00 20.00     0.059 C 
HETATM    5  C5  UNL     1     -34.655  17.225  -2.143  1.00 20.00    -0.041 C 
HETATM    6  C6  UNL     1     -33.169  17.475  -1.839  1.00 20.00     0.015 C 
HETATM    7  C7  UNL     1     -35.417  17.130  -0.817  1.00 20.00     0.015 C 
HETATM    8  O11 UNL     1     -34.932  18.557  -5.410  1.00 20.00    -0.298 OA
ENDROOT
BRANCH   4   9
HETATM    9  C10 UNL     1     -33.386  15.932  -5.052  1.00 20.00    -0.011 C 
HETATM   10  C8  UNL     1     -32.871  14.646  -4.401  1.00 20.00     0.010 C 
HETATM   11  C9  UNL     1     -33.491  15.750  -6.568  1.00 20.00     0.010 C 
ENDBRANCH   4   9
TORSDOF 1
ENDMDL
MODEL 6
REMARK VINA RESULT:      -4.0     11.204     12.128
REMARK  1 active torsions:
REMARK  status: ('A' for Active; 'I' for Inactive)
REMARK    1  A    between atoms: C4_4  and  C10_10 
ROOT
HETATM    1  C1  UNL     1     -34.802  14.762  -4.183  1.00 20.00     0.132 C 
HETATM    2  C2  UNL     1     -33.731  15.503  -3.427  1.00 20.00     0.087 C 
HETATM    3  C3  UNL     1     -35.386  17.062  -4.275  1.00 20.00     0.021 C 
HETATM    4  C4  UNL     1     -35.857  15.681  -4.747  1.00 20.00     0.059 C 
HETATM    5  C5  UNL     1     -34.418  16.835  -3.094  1.00 20.00    -0.041 C 
HETATM    6  C6  UNL     1     -35.168  16.741  -1.756  1.00 20.00     0.015 C 
HETATM    7  C7  UNL     1     -33.396  17.974  -3.003  1.00 20.00     0.015 C 
HETATM    8  O11 UNL     1     -34.800  13.547  -4.342  1.00 20.00    -0.298 OA
ENDROOT
BRANCH   4   9
HETATM    9  C10 UNL     1     -37.271  15.363  -4.291  1.00 20.00    -0.011 C 
HETATM   10  C8  UNL     1     -38.087  16.644  -4.097  1.00 20.00     0.010 C 
HETATM   11  C9  UNL     1     -37.974  14.436  -5.286  1.00 20.00     0.010 C 
ENDBRANCH   4   9
TORSDOF 1
ENDMDL
MODEL 7
REMARK VINA RESULT:      -4.0     11.407     12.235
REMARK  1 active torsions:
REMARK  status: ('A' for Active; 'I' for Inactive)
REMARK    1  A    between atoms: C4_4  and  C10_10 
ROOT
HETATM    1  C1  UNL     1     -36.036  15.842  -4.159  1.00 20.00     0.132 C 
HETATM    2  C2  UNL     1     -35.420  15.233  -5.392  1.00 20.00     0.087 C 
HETATM    3  C3  UNL     1     -33.980  16.976  -4.511  1.00 20.00     0.021 C 
HETATM    4  C4  UNL     1     -35.190  16.943  -3.570  1.00 20.00     0.059 C 
HETATM    5  C5  UNL     1     -33.941  15.623  -5.254  1.00 20.00    -0.041 C 
HETATM    6  C6  UNL     1     -33.171  14.559  -4.457  1.00 20.00     0.015 C 
HETATM    7  C7  UNL     1     -33.282  15.777  -6.629  1.00 20.00     0.015 C 
HETATM    8  O11 UNL     1     -37.119  15.494  -3.702  1.00 20.00    -0.298 OA
ENDROOT
BRANCH   4   9
HETATM    9  C10 UNL     1     -34.793  16.719  -2.121  1.00 20.00    -0.011 C 
HETATM   10  C8  UNL     1     -33.389  17.264  -1.846  1.00 20.00     0.010 C 
HETATM   11  C9  UNL     1     -35.805  17.362  -1.169  1.00 20.00     0.010 C 
ENDBRANCH   4   9
TORSDOF 1
ENDMDL
MODEL 8
REMARK VINA RESULT:      -4.0     10.877     12.793
REMARK  1 active torsions:
REMARK  status: ('A' for Active; 'I' for Inactive)
REMARK    1  A    between atoms: C4_4  and  C10_10 
ROOT
HETATM    1  C1  UNL     1     -35.183  14.021  -5.143  1.00 20.00     0.132 C 
HETATM    2  C2  UNL     1     -34.559  14.417  -3.830  1.00 20.00     0.087 C 
HETATM    3  C3  UNL     1     -34.654  16.330  -5.319  1.00 20.00     0.021 C 
HETATM    4  C4  UNL     1     -35.259  15.169  -6.119  1.00 20.00     0.059 C 
HETATM    5  C5  UNL     1     -34.726  15.943  -3.826  1.00 20.00    -0.041 C 
HETATM    6  C6  UNL     1     -36.073  16.341  -3.201  1.00 20.00     0.015 C 
HETATM    7  C7  UNL     1     -33.601  16.618  -3.035  1.00 20.00     0.015 C 
HETATM    8  O11 UNL     1     -35.563  12.884  -5.396  1.00 20.00    -0.298 OA
ENDROOT
BRANCH   4   9
HETATM    9  C10 UNL     1     -36.662  15.476  -6.615  1.00 20.00    -0.011 C 
HETATM   10  C8  UNL     1     -36.857  16.981  -6.815  1.00 20.00     0.010 C 
HETATM   11  C9  UNL     1     -36.959  14.727  -7.917  1.00 20.00     0.010 C 
ENDBRANCH   4   9
TORSDOF 1
ENDMDL
MODEL 9
REMARK VINA RESULT:      -4.0     11.703     12.666
REMARK  1 active torsions:
REMARK  status: ('A' for Active; 'I' for Inactive)
REMARK    1  A    between atoms: C4_4  and  C10_10 
ROOT
HETATM    1  C1  UNL     1     -33.305  18.334  -2.691  1.00 20.00     0.132 C 
HETATM    2  C2  UNL     1     -33.939  17.896  -3.985  1.00 20.00     0.087 C 
HETATM    3  C3  UNL     1     -34.705  16.490  -2.161  1.00 20.00     0.021 C 
HETATM    4  C4  UNL     1     -33.734  17.488  -1.518  1.00 20.00     0.059 C 
HETATM    5  C5  UNL     1     -35.160  17.098  -3.506  1.00 20.00    -0.041 C 
HETATM    6  C6  UNL     1     -36.377  18.020  -3.329  1.00 20.00     0.015 C 
HETATM    7  C7  UNL     1     -35.523  15.994  -4.505  1.00 20.00     0.015 C 
HETATM    8  O11 UNL     1     -32.508  19.261  -2.608  1.00 20.00    -0.298 OA
ENDROOT
BRANCH   4   9
HETATM    9  C10 UNL     1     -34.374  18.271  -0.383  1.00 20.00    -0.011 C 
HETATM   10  C8  UNL     1     -35.536  17.489   0.236  1.00 20.00     0.010 C 
HETATM   11  C9  UNL     1     -33.342  18.622   0.691  1.00 20.00     0.010 C 
ENDBRANCH   4   9
TORSDOF 1
ENDMDL
