MODEL 1
REMARK VINA RESULT:      -5.1      0.000      0.000
REMARK  1 active torsions:
REMARK  status: ('A' for Active; 'I' for Inactive)
REMARK    1  A    between atoms: C7_7  and  C11_11 
ROOT
HETATM    1  C1  UNL     1     -33.655   7.090   5.254  1.00 20.00     0.131 C 
HETATM    2  C2  UNL     1     -32.893   8.368   4.990  1.00 20.00     0.079 C 
HETATM    3  C3  UNL     1     -31.935   8.154   3.829  1.00 20.00     0.017 C 
HETATM    4  C4  UNL     1     -32.612   6.140   2.369  1.00 20.00     0.016 A 
HETATM    5  C5  UNL     1     -34.531   6.592   4.112  1.00 20.00     0.056 C 
HETATM    6  C6  UNL     1     -33.905   6.802   2.759  1.00 20.00     0.006 A 
HETATM    7  C7  UNL     1     -32.646   7.638   2.594  1.00 20.00    -0.032 A 
HETATM    8  C8  UNL     1     -34.941   5.135   4.308  1.00 20.00     0.018 C 
HETATM    9  O12 UNL     1     -33.621   6.546   6.356  1.00 20.00    -0.298 OA
ENDROOT
BRANCH   7  10
HETATM   10  C11 UNL     1     -32.558   8.535   1.390  1.00 20.00    -0.014 C 
HETATM   11  C9  UNL     1     -32.831  10.000   1.761  1.00 20.00     0.010 C 
HETATM   12  C10 UNL     1     -31.189   8.421   0.705  1.00 20.00     0.010 C 
ENDBRANCH   7  10
TORSDOF 1
ENDMDL
MODEL 2
REMARK VINA RESULT:      -4.8     10.973     11.893
REMARK  1 active torsions:
REMARK  status: ('A' for Active; 'I' for Inactive)
REMARK    1  A    between atoms: C7_7  and  C11_11 
ROOT
HETATM    1  C1  UNL     1     -34.133  15.146  -5.933  1.00 20.00     0.131 C 
HETATM    2  C2  UNL     1     -33.186  16.225  -5.460  1.00 20.00     0.079 C 
HETATM    3  C3  UNL     1     -33.919  17.161  -4.514  1.00 20.00     0.017 C 
HETATM    4  C4  UNL     1     -36.037  16.077  -3.520  1.00 20.00     0.016 A 
HETATM    5  C5  UNL     1     -34.701  14.240  -4.849  1.00 20.00     0.056 C 
HETATM    6  C6  UNL     1     -35.013  14.976  -3.574  1.00 20.00     0.006 A 
HETATM    7  C7  UNL     1     -34.568  16.415  -3.365  1.00 20.00    -0.032 A 
HETATM    8  C8  UNL     1     -35.915  13.459  -5.344  1.00 20.00     0.018 C 
HETATM    9  O12 UNL     1     -34.354  14.975  -7.130  1.00 20.00    -0.298 OA
ENDROOT
BRANCH   7  10
HETATM   10  C11 UNL     1     -34.073  16.800  -1.999  1.00 20.00    -0.014 C 
HETATM   11  C9  UNL     1     -33.088  17.977  -2.069  1.00 20.00     0.010 C 
HETATM   12  C10 UNL     1     -35.236  17.154  -1.060  1.00 20.00     0.010 C 
ENDBRANCH   7  10
TORSDOF 1
ENDMDL
MODEL 3
REMARK VINA RESULT:      -4.6     11.309     12.393
REMARK  1 active torsions:
REMARK  status: ('A' for Active; 'I' for Inactive)
REMARK    1  A    between atoms: C7_7  and  C11_11 
ROOT
HETATM    1  C1  UNL     1     -33.685  16.859  -5.794  1.00 20.00     0.131 C 
HETATM    2  C2  UNL     1     -33.491  18.101  -4.956  1.00 20.00     0.079 C 
HETATM    3  C3  UNL     1     -34.489  18.099  -3.811  1.00 20.00     0.017 C 
HETATM    4  C4  UNL     1     -35.407  15.740  -3.326  1.00 20.00     0.016 A 
HETATM    5  C5  UNL     1     -33.456  15.534  -5.080  1.00 20.00     0.056 C 
HETATM    6  C6  UNL     1     -33.954  15.541  -3.659  1.00 20.00     0.006 A 
HETATM    7  C7  UNL     1     -34.409  16.828  -2.989  1.00 20.00    -0.032 A 
HETATM    8  C8  UNL     1     -34.042  14.362  -5.862  1.00 20.00     0.018 C 
HETATM    9  O12 UNL     1     -33.932  16.935  -6.997  1.00 20.00    -0.298 OA
ENDROOT
BRANCH   7  10
HETATM   10  C11 UNL     1     -34.043  17.029  -1.544  1.00 20.00    -0.014 C 
HETATM   11  C9  UNL     1     -32.975  18.120  -1.382  1.00 20.00     0.010 C 
HETATM   12  C10 UNL     1     -35.275  17.381  -0.698  1.00 20.00     0.010 C 
ENDBRANCH   7  10
TORSDOF 1
ENDMDL
MODEL 4
REMARK VINA RESULT:      -4.6     10.346     11.855
REMARK  1 active torsions:
REMARK  status: ('A' for Active; 'I' for Inactive)
REMARK    1  A    between atoms: C7_7  and  C11_11 
ROOT
HETATM    1  C1  UNL     1     -35.539  13.781  -4.809  1.00 20.00     0.131 C 
HETATM    2  C2  UNL     1     -34.258  14.063  -4.059  1.00 20.00     0.079 C 
HETATM    3  C3  UNL     1     -33.708  15.412  -4.489  1.00 20.00     0.017 C 
HETATM    4  C4  UNL     1     -35.517  16.902  -5.563  1.00 20.00     0.016 A 
HETATM    5  C5  UNL     1     -36.679  14.761  -4.568  1.00 20.00     0.056 C 
HETATM    6  C6  UNL     1     -36.209  16.185  -4.437  1.00 20.00     0.006 A 
HETATM    7  C7  UNL     1     -34.729  16.520  -4.327  1.00 20.00    -0.032 A 
HETATM    8  C8  UNL     1     -37.766  14.637  -5.631  1.00 20.00     0.018 C 
HETATM    9  O12 UNL     1     -35.661  12.772  -5.502  1.00 20.00    -0.298 OA
ENDROOT
BRANCH   7  10
HETATM   10  C11 UNL     1     -34.332  17.616  -3.377  1.00 20.00    -0.014 C 
HETATM   11  C9  UNL     1     -33.682  17.049  -2.106  1.00 20.00     0.010 C 
HETATM   12  C10 UNL     1     -33.376  18.617  -4.043  1.00 20.00     0.010 C 
ENDBRANCH   7  10
TORSDOF 1
ENDMDL
MODEL 5
REMARK VINA RESULT:      -4.5     11.125     12.204
REMARK  1 active torsions:
REMARK  status: ('A' for Active; 'I' for Inactive)
REMARK    1  A    between atoms: C7_7  and  C11_11 
ROOT
HETATM    1  C1  UNL     1     -35.733  13.982  -5.313  1.00 20.00     0.131 C 
HETATM    2  C2  UNL     1     -36.165  14.914  -4.206  1.00 20.00     0.079 C 
HETATM    3  C3  UNL     1     -34.948  15.626  -3.641  1.00 20.00     0.017 C 
HETATM    4  C4  UNL     1     -32.956  15.594  -5.279  1.00 20.00     0.016 A 
HETATM    5  C5  UNL     1     -35.074  14.641  -6.517  1.00 20.00     0.056 C 
HETATM    6  C6  UNL     1     -34.176  15.787  -6.138  1.00 20.00     0.006 A 
HETATM    7  C7  UNL     1     -34.153  16.336  -4.719  1.00 20.00    -0.032 A 
HETATM    8  C8  UNL     1     -34.333  13.625  -7.382  1.00 20.00     0.018 C 
HETATM    9  O12 UNL     1     -35.982  12.778  -5.264  1.00 20.00    -0.298 OA
ENDROOT
BRANCH   7  10
HETATM   10  C11 UNL     1     -34.044  17.826  -4.550  1.00 20.00    -0.014 C 
HETATM   11  C9  UNL     1     -35.422  18.500  -4.613  1.00 20.00     0.010 C 
HETATM   12  C10 UNL     1     -33.350  18.191  -3.229  1.00 20.00     0.010 C 
ENDBRANCH   7  10
TORSDOF 1
ENDMDL
MODEL 6
REMARK VINA RESULT:      -4.5     11.047     12.044
REMARK  1 active torsions:
REMARK  status: ('A' for Active; 'I' for Inactive)
REMARK    1  A    between atoms: C7_7  and  C11_11 
ROOT
HETATM    1  C1  UNL     1     -35.892  16.411  -3.171  1.00 20.00     0.131 C 
HETATM    2  C2  UNL     1     -36.703  15.653  -4.195  1.00 20.00     0.079 C 
HETATM    3  C3  UNL     1     -36.075  15.828  -5.567  1.00 20.00     0.017 C 
HETATM    4  C4  UNL     1     -33.605  16.552  -5.420  1.00 20.00     0.016 A 
HETATM    5  C5  UNL     1     -34.449  15.958  -2.999  1.00 20.00     0.056 C 
HETATM    6  C6  UNL     1     -33.799  15.568  -4.299  1.00 20.00     0.006 A 
HETATM    7  C7  UNL     1     -34.612  15.432  -5.578  1.00 20.00    -0.032 A 
HETATM    8  C8  UNL     1     -33.614  16.999  -2.258  1.00 20.00     0.018 C 
HETATM    9  O12 UNL     1     -36.406  17.282  -2.470  1.00 20.00    -0.298 OA
ENDROOT
BRANCH   7  10
HETATM   10  C11 UNL     1     -34.268  14.299  -6.505  1.00 20.00    -0.014 C 
HETATM   11  C9  UNL     1     -35.432  13.304  -6.631  1.00 20.00     0.010 C 
HETATM   12  C10 UNL     1     -33.876  14.814  -7.898  1.00 20.00     0.010 C 
ENDBRANCH   7  10
TORSDOF 1
ENDMDL
MODEL 7
REMARK VINA RESULT:      -4.4     10.691     11.761
REMARK  1 active torsions:
REMARK  status: ('A' for Active; 'I' for Inactive)
REMARK    1  A    between atoms: C7_7  and  C11_11 
ROOT
HETATM    1  C1  UNL     1     -36.487  17.742  -1.896  1.00 20.00     0.131 C 
HETATM    2  C2  UNL     1     -36.730  17.049  -3.216  1.00 20.00     0.079 C 
HETATM    3  C3  UNL     1     -35.482  17.150  -4.077  1.00 20.00     0.017 C 
HETATM    4  C4  UNL     1     -33.374  17.646  -2.677  1.00 20.00     0.016 A 
HETATM    5  C5  UNL     1     -35.373  17.160  -1.036  1.00 20.00     0.056 C 
HETATM    6  C6  UNL     1     -34.191  16.696  -1.844  1.00 20.00     0.006 A 
HETATM    7  C7  UNL     1     -34.255  16.620  -3.363  1.00 20.00    -0.032 A 
HETATM    8  C8  UNL     1     -34.942  18.128   0.062  1.00 20.00     0.018 C 
HETATM    9  O12 UNL     1     -37.208  18.664  -1.519  1.00 20.00    -0.298 OA
ENDROOT
BRANCH   7  10
HETATM   10  C11 UNL     1     -33.588  15.450  -4.030  1.00 20.00    -0.014 C 
HETATM   11  C9  UNL     1     -34.545  14.256  -4.157  1.00 20.00     0.010 C 
HETATM   12  C10 UNL     1     -33.047  15.829  -5.417  1.00 20.00     0.010 C 
ENDBRANCH   7  10
TORSDOF 1
ENDMDL
MODEL 8
REMARK VINA RESULT:      -4.3      1.507      2.514
REMARK  1 active torsions:
REMARK  status: ('A' for Active; 'I' for Inactive)
REMARK    1  A    between atoms: C7_7  and  C11_11 
ROOT
HETATM    1  C1  UNL     1     -34.025   4.704   4.128  1.00 20.00     0.131 C 
HETATM    2  C2  UNL     1     -33.195   4.637   2.867  1.00 20.00     0.079 C 
HETATM    3  C3  UNL     1     -33.399   5.907   2.059  1.00 20.00     0.017 C 
HETATM    4  C4  UNL     1     -34.309   7.841   3.500  1.00 20.00     0.016 A 
HETATM    5  C5  UNL     1     -33.685   5.837   5.087  1.00 20.00     0.056 C 
HETATM    6  C6  UNL     1     -33.328   7.116   4.380  1.00 20.00     0.006 A 
HETATM    7  C7  UNL     1     -33.113   7.152   2.874  1.00 20.00    -0.032 A 
HETATM    8  C8  UNL     1     -34.795   6.065   6.109  1.00 20.00     0.018 C 
HETATM    9  O12 UNL     1     -34.864   3.842   4.384  1.00 20.00    -0.298 OA
ENDROOT
BRANCH   7  10
HETATM   10  C11 UNL     1     -31.998   8.012   2.349  1.00 20.00    -0.014 C 
HETATM   11  C9  UNL     1     -32.536   9.173   1.500  1.00 20.00     0.010 C 
HETATM   12  C10 UNL     1     -31.132   8.565   3.491  1.00 20.00     0.010 C 
ENDBRANCH   7  10
TORSDOF 1
ENDMDL
MODEL 9
REMARK VINA RESULT:      -4.3     11.098     12.408
REMARK  1 active torsions:
REMARK  status: ('A' for Active; 'I' for Inactive)
REMARK    1  A    between atoms: C7_7  and  C11_11 
ROOT
HETATM    1  C1  UNL     1     -33.718  17.830  -4.495  1.00 20.00     0.131 C 
HETATM    2  C2  UNL     1     -34.136  17.573  -5.924  1.00 20.00     0.079 C 
HETATM    3  C3  UNL     1     -33.675  16.187  -6.343  1.00 20.00     0.017 C 
HETATM    4  C4  UNL     1     -33.199  14.666  -4.316  1.00 20.00     0.016 A 
HETATM    5  C5  UNL     1     -34.307  16.891  -3.451  1.00 20.00     0.056 C 
HETATM    6  C6  UNL     1     -34.412  15.470  -3.935  1.00 20.00     0.006 A 
HETATM    7  C7  UNL     1     -34.166  15.113  -5.394  1.00 20.00    -0.032 A 
HETATM    8  C8  UNL     1     -33.548  16.967  -2.130  1.00 20.00     0.018 C 
HETATM    9  O12 UNL     1     -33.011  18.793  -4.203  1.00 20.00    -0.298 OA
ENDROOT
BRANCH   7  10
HETATM   10  C11 UNL     1     -35.058  14.074  -6.016  1.00 20.00    -0.014 C 
HETATM   11  C9  UNL     1     -36.449  14.644  -6.331  1.00 20.00     0.010 C 
HETATM   12  C10 UNL     1     -34.435  13.495  -7.295  1.00 20.00     0.010 C 
ENDBRANCH   7  10
TORSDOF 1
ENDMDL
