MODEL 1
REMARK VINA RESULT:      -4.3      0.000      0.000
REMARK  2 active torsions:
REMARK  status: ('A' for Active; 'I' for Inactive)
REMARK    1  A    between atoms: C2_2  and  C4_4 
REMARK    2  A    between atoms: C4_4  and  C5_5 
ROOT
HETATM    1  C1  UNL     1     -34.628   4.963   4.293  1.00 20.00     0.147 A 
HETATM    2  C2  UNL     1     -34.148   5.991   3.298  1.00 20.00     0.151 A 
HETATM    3  C3  UNL     1     -34.544   5.153   5.765  1.00 20.00     0.042 C 
HETATM    4  O6  UNL     1     -35.538   5.847   3.624  1.00 20.00    -0.376 OA
ENDROOT
BRANCH   2   5
HETATM    5  C4  UNL     1     -33.546   7.290   3.694  1.00 20.00     0.049 C 
BRANCH   5   6
HETATM    6  C5  UNL     1     -32.173   7.581   3.064  1.00 20.00     0.117 C 
HETATM    7 CL7  UNL     1     -32.297   8.771   1.749  1.00 20.00    -0.130 Cl
ENDBRANCH   5   6
ENDBRANCH   2   5
TORSDOF 2
ENDMDL
MODEL 2
REMARK VINA RESULT:      -4.3      2.611      3.767
REMARK  2 active torsions:
REMARK  status: ('A' for Active; 'I' for Inactive)
REMARK    1  A    between atoms: C2_2  and  C4_4 
REMARK    2  A    between atoms: C4_4  and  C5_5 
ROOT
HETATM    1  C1  UNL     1     -32.788   7.557   2.558  1.00 20.00     0.147 A 
HETATM    2  C2  UNL     1     -33.779   6.924   3.505  1.00 20.00     0.151 A 
HETATM    3  C3  UNL     1     -31.627   8.365   3.015  1.00 20.00     0.042 C 
HETATM    4  O6  UNL     1     -32.723   6.165   2.899  1.00 20.00    -0.376 OA
ENDROOT
BRANCH   2   5
HETATM    5  C4  UNL     1     -33.687   7.049   4.984  1.00 20.00     0.049 C 
BRANCH   5   6
HETATM    6  C5  UNL     1     -34.455   5.971   5.768  1.00 20.00     0.117 C 
HETATM    7 CL7  UNL     1     -34.607   4.467   4.832  1.00 20.00    -0.130 Cl
ENDBRANCH   5   6
ENDBRANCH   2   5
TORSDOF 2
ENDMDL
MODEL 3
REMARK VINA RESULT:      -4.3      1.224      1.302
REMARK  2 active torsions:
REMARK  status: ('A' for Active; 'I' for Inactive)
REMARK    1  A    between atoms: C2_2  and  C4_4 
REMARK    2  A    between atoms: C4_4  and  C5_5 
ROOT
HETATM    1  C1  UNL     1     -34.844   5.764   4.586  1.00 20.00     0.147 A 
HETATM    2  C2  UNL     1     -34.124   6.911   3.920  1.00 20.00     0.151 A 
HETATM    3  C3  UNL     1     -34.406   4.349   4.467  1.00 20.00     0.042 C 
HETATM    4  O6  UNL     1     -33.944   6.613   5.312  1.00 20.00    -0.376 OA
ENDROOT
BRANCH   2   5
HETATM    5  C4  UNL     1     -32.908   6.734   3.082  1.00 20.00     0.049 C 
BRANCH   5   6
HETATM    6  C5  UNL     1     -31.959   7.945   3.063  1.00 20.00     0.117 C 
HETATM    7 CL7  UNL     1     -31.885   8.691   1.451  1.00 20.00    -0.130 Cl
ENDBRANCH   5   6
ENDBRANCH   2   5
TORSDOF 2
ENDMDL
MODEL 4
REMARK VINA RESULT:      -4.2      3.104      4.276
REMARK  2 active torsions:
REMARK  status: ('A' for Active; 'I' for Inactive)
REMARK    1  A    between atoms: C2_2  and  C4_4 
REMARK    2  A    between atoms: C4_4  and  C5_5 
ROOT
HETATM    1  C1  UNL     1     -31.855   8.278   2.054  1.00 20.00     0.147 A 
HETATM    2  C2  UNL     1     -32.340   7.259   3.057  1.00 20.00     0.151 A 
HETATM    3  C3  UNL     1     -32.680   9.426   1.595  1.00 20.00     0.042 C 
HETATM    4  O6  UNL     1     -31.465   8.332   3.433  1.00 20.00    -0.376 OA
ENDROOT
BRANCH   2   5
HETATM    5  C4  UNL     1     -33.688   7.307   3.680  1.00 20.00     0.049 C 
BRANCH   5   6
HETATM    6  C5  UNL     1     -33.689   7.216   5.216  1.00 20.00     0.117 C 
HETATM    7 CL7  UNL     1     -34.530   5.756   5.783  1.00 20.00    -0.130 Cl
ENDBRANCH   5   6
ENDBRANCH   2   5
TORSDOF 2
ENDMDL
MODEL 5
REMARK VINA RESULT:      -4.0      1.497      1.801
REMARK  2 active torsions:
REMARK  status: ('A' for Active; 'I' for Inactive)
REMARK    1  A    between atoms: C2_2  and  C4_4 
REMARK    2  A    between atoms: C4_4  and  C5_5 
ROOT
HETATM    1  C1  UNL     1     -33.685   6.506   4.459  1.00 20.00     0.147 A 
HETATM    2  C2  UNL     1     -32.930   6.835   3.194  1.00 20.00     0.151 A 
HETATM    3  C3  UNL     1     -33.652   7.363   5.674  1.00 20.00     0.042 C 
HETATM    4  O6  UNL     1     -34.335   7.097   3.325  1.00 20.00    -0.376 OA
ENDROOT
BRANCH   2   5
HETATM    5  C4  UNL     1     -32.082   8.047   3.043  1.00 20.00     0.049 C 
BRANCH   5   6
HETATM    6  C5  UNL     1     -31.897   8.524   1.592  1.00 20.00     0.117 C 
HETATM    7 CL7  UNL     1     -32.589  10.143   1.344  1.00 20.00    -0.130 Cl
ENDBRANCH   5   6
ENDBRANCH   2   5
TORSDOF 2
ENDMDL
MODEL 6
REMARK VINA RESULT:      -3.9      1.793      2.277
REMARK  2 active torsions:
REMARK  status: ('A' for Active; 'I' for Inactive)
REMARK    1  A    between atoms: C2_2  and  C4_4 
REMARK    2  A    between atoms: C4_4  and  C5_5 
ROOT
HETATM    1  C1  UNL     1     -33.848   6.248   3.100  1.00 20.00     0.147 A 
HETATM    2  C2  UNL     1     -33.339   7.668   3.030  1.00 20.00     0.151 A 
HETATM    3  C3  UNL     1     -33.013   5.066   2.760  1.00 20.00     0.042 C 
HETATM    4  O6  UNL     1     -33.432   6.959   4.274  1.00 20.00    -0.376 OA
ENDROOT
BRANCH   2   5
HETATM    5  C4  UNL     1     -31.956   8.019   2.613  1.00 20.00     0.049 C 
BRANCH   5   6
HETATM    6  C5  UNL     1     -31.855   8.723   1.249  1.00 20.00     0.117 C 
HETATM    7 CL7  UNL     1     -32.767  10.250   1.235  1.00 20.00    -0.130 Cl
ENDBRANCH   5   6
ENDBRANCH   2   5
TORSDOF 2
ENDMDL
MODEL 7
REMARK VINA RESULT:      -3.9      3.223      4.646
REMARK  2 active torsions:
REMARK  status: ('A' for Active; 'I' for Inactive)
REMARK    1  A    between atoms: C2_2  and  C4_4 
REMARK    2  A    between atoms: C4_4  and  C5_5 
ROOT
HETATM    1  C1  UNL     1     -32.543   9.195   0.817  1.00 20.00     0.147 A 
HETATM    2  C2  UNL     1     -32.381   7.962   1.671  1.00 20.00     0.151 A 
HETATM    3  C3  UNL     1     -32.679  10.564   1.380  1.00 20.00     0.042 C 
HETATM    4  O6  UNL     1     -31.262   8.585   1.025  1.00 20.00    -0.376 OA
ENDROOT
BRANCH   2   5
HETATM    5  C4  UNL     1     -32.342   7.999   3.157  1.00 20.00     0.049 C 
BRANCH   5   6
HETATM    6  C5  UNL     1     -33.429   7.158   3.849  1.00 20.00     0.117 C 
HETATM    7 CL7  UNL     1     -33.454   7.439   5.604  1.00 20.00    -0.130 Cl
ENDBRANCH   5   6
ENDBRANCH   2   5
TORSDOF 2
ENDMDL
MODEL 8
REMARK VINA RESULT:      -3.7      2.303      3.362
REMARK  2 active torsions:
REMARK  status: ('A' for Active; 'I' for Inactive)
REMARK    1  A    between atoms: C2_2  and  C4_4 
REMARK    2  A    between atoms: C4_4  and  C5_5 
ROOT
HETATM    1  C1  UNL     1     -32.975   6.590   2.298  1.00 20.00     0.147 A 
HETATM    2  C2  UNL     1     -34.105   5.696   2.749  1.00 20.00     0.151 A 
HETATM    3  C3  UNL     1     -32.685   7.910   2.917  1.00 20.00     0.042 C 
HETATM    4  O6  UNL     1     -32.749   5.463   3.155  1.00 20.00    -0.376 OA
ENDROOT
BRANCH   2   5
HETATM    5  C4  UNL     1     -35.034   6.051   3.853  1.00 20.00     0.049 C 
BRANCH   5   6
HETATM    6  C5  UNL     1     -34.527   5.690   5.260  1.00 20.00     0.117 C 
HETATM    7 CL7  UNL     1     -33.895   7.117   6.113  1.00 20.00    -0.130 Cl
ENDBRANCH   5   6
ENDBRANCH   2   5
TORSDOF 2
ENDMDL
MODEL 9
REMARK VINA RESULT:      -3.7      1.133      1.138
REMARK  2 active torsions:
REMARK  status: ('A' for Active; 'I' for Inactive)
REMARK    1  A    between atoms: C2_2  and  C4_4 
REMARK    2  A    between atoms: C4_4  and  C5_5 
ROOT
HETATM    1  C1  UNL     1     -35.050   5.351   4.421  1.00 20.00     0.147 A 
HETATM    2  C2  UNL     1     -34.437   5.831   3.127  1.00 20.00     0.151 A 
HETATM    3  C3  UNL     1     -34.256   5.093   5.651  1.00 20.00     0.042 C 
HETATM    4  O6  UNL     1     -35.111   6.727   4.022  1.00 20.00    -0.376 OA
ENDROOT
BRANCH   2   5
HETATM    5  C4  UNL     1     -32.984   6.092   2.961  1.00 20.00     0.049 C 
BRANCH   5   6
HETATM    6  C5  UNL     1     -32.633   7.532   2.549  1.00 20.00     0.117 C 
HETATM    7 CL7  UNL     1     -31.409   8.240   3.627  1.00 20.00    -0.130 Cl
ENDBRANCH   5   6
ENDBRANCH   2   5
TORSDOF 2
ENDMDL
