MODEL 1
REMARK VINA RESULT:      -5.3      0.000      0.000
REMARK  1 active torsions:
REMARK  status: ('A' for Active; 'I' for Inactive)
REMARK    1  A    between atoms: C7_7  and  C10_10 
ROOT
HETATM    1  C1  UNL     1     -34.580   4.465   5.176  1.00 20.00    -0.018 C 
HETATM    2  C2  UNL     1     -34.359   5.593   5.871  1.00 20.00    -0.024 C 
HETATM    3  C3  UNL     1     -33.383   5.330   3.301  1.00 20.00     0.139 C 
HETATM    4  C4  UNL     1     -35.432   6.213   3.918  1.00 20.00     0.025 C 
HETATM    5  C5  UNL     1     -34.763   4.849   3.732  1.00 20.00     0.078 C 
HETATM    6  C6  UNL     1     -34.357   6.745   4.880  1.00 20.00     0.020 C 
HETATM    7  C7  UNL     1     -33.053   6.637   4.038  1.00 20.00     0.067 C 
HETATM    8  O11 UNL     1     -32.641   4.748   2.525  1.00 20.00    -0.297 OA
ENDROOT
BRANCH   7   9
HETATM    9  C10 UNL     1     -32.835   7.790   3.077  1.00 20.00    -0.011 C 
HETATM   10  C8  UNL     1     -31.441   8.396   3.258  1.00 20.00     0.010 C 
HETATM   11  C9  UNL     1     -33.031   7.341   1.628  1.00 20.00     0.010 C 
ENDBRANCH   7   9
TORSDOF 1
ENDMDL
MODEL 2
REMARK VINA RESULT:      -5.2      1.599      2.369
REMARK  1 active torsions:
REMARK  status: ('A' for Active; 'I' for Inactive)
REMARK    1  A    between atoms: C7_7  and  C10_10 
ROOT
HETATM    1  C1  UNL     1     -35.255   5.557   4.575  1.00 20.00    -0.018 C 
HETATM    2  C2  UNL     1     -35.471   5.893   3.292  1.00 20.00    -0.024 C 
HETATM    3  C3  UNL     1     -33.350   6.992   4.677  1.00 20.00     0.139 C 
HETATM    4  C4  UNL     1     -33.319   5.056   3.408  1.00 20.00     0.025 C 
HETATM    5  C5  UNL     1     -33.766   5.530   4.792  1.00 20.00     0.078 C 
HETATM    6  C6  UNL     1     -34.116   6.130   2.649  1.00 20.00     0.020 C 
HETATM    7  C7  UNL     1     -33.547   7.457   3.227  1.00 20.00     0.067 C 
HETATM    8  O11 UNL     1     -32.961   7.691   5.600  1.00 20.00    -0.297 OA
ENDROOT
BRANCH   7   9
HETATM    9  C10 UNL     1     -32.244   7.905   2.593  1.00 20.00    -0.011 C 
HETATM   10  C8  UNL     1     -32.485   9.030   1.583  1.00 20.00     0.010 C 
HETATM   11  C9  UNL     1     -31.243   8.358   3.659  1.00 20.00     0.010 C 
ENDBRANCH   7   9
TORSDOF 1
ENDMDL
MODEL 3
REMARK VINA RESULT:      -5.0     11.746     12.753
REMARK  1 active torsions:
REMARK  status: ('A' for Active; 'I' for Inactive)
REMARK    1  A    between atoms: C7_7  and  C10_10 
ROOT
HETATM    1  C1  UNL     1     -34.330  14.921  -6.308  1.00 20.00    -0.018 C 
HETATM    2  C2  UNL     1     -33.488  15.910  -5.968  1.00 20.00    -0.024 C 
HETATM    3  C3  UNL     1     -35.573  15.225  -4.292  1.00 20.00     0.139 C 
HETATM    4  C4  UNL     1     -33.424  14.363  -4.251  1.00 20.00     0.025 C 
HETATM    5  C5  UNL     1     -34.724  14.206  -5.044  1.00 20.00     0.078 C 
HETATM    6  C6  UNL     1     -33.341  15.885  -4.457  1.00 20.00     0.020 C 
HETATM    7  C7  UNL     1     -34.679  16.391  -3.846  1.00 20.00     0.067 C 
HETATM    8  O11 UNL     1     -36.778  15.145  -4.111  1.00 20.00    -0.297 OA
ENDROOT
BRANCH   7   9
HETATM    9  C10 UNL     1     -34.657  16.544  -2.337  1.00 20.00    -0.011 C 
HETATM   10  C8  UNL     1     -33.382  17.254  -1.878  1.00 20.00     0.010 C 
HETATM   11  C9  UNL     1     -35.891  17.303  -1.845  1.00 20.00     0.010 C 
ENDBRANCH   7   9
TORSDOF 1
ENDMDL
MODEL 4
REMARK VINA RESULT:      -5.0     11.590     12.870
REMARK  1 active torsions:
REMARK  status: ('A' for Active; 'I' for Inactive)
REMARK    1  A    between atoms: C7_7  and  C10_10 
ROOT
HETATM    1  C1  UNL     1     -33.194  15.157  -5.242  1.00 20.00    -0.018 C 
HETATM    2  C2  UNL     1     -33.840  16.308  -5.492  1.00 20.00    -0.024 C 
HETATM    3  C3  UNL     1     -35.258  14.038  -4.810  1.00 20.00     0.139 C 
HETATM    4  C4  UNL     1     -34.450  15.653  -3.360  1.00 20.00     0.025 C 
HETATM    5  C5  UNL     1     -33.945  14.443  -4.150  1.00 20.00     0.078 C 
HETATM    6  C6  UNL     1     -35.059  16.352  -4.587  1.00 20.00     0.020 C 
HETATM    7  C7  UNL     1     -36.076  15.302  -5.116  1.00 20.00     0.067 C 
HETATM    8  O11 UNL     1     -35.588  12.896  -5.088  1.00 20.00    -0.297 OA
ENDROOT
BRANCH   7   9
HETATM    9  C10 UNL     1     -37.409  15.304  -4.391  1.00 20.00    -0.011 C 
HETATM   10  C8  UNL     1     -37.847  16.731  -4.057  1.00 20.00     0.010 C 
HETATM   11  C9  UNL     1     -38.485  14.602  -5.222  1.00 20.00     0.010 C 
ENDBRANCH   7   9
TORSDOF 1
ENDMDL
MODEL 5
REMARK VINA RESULT:      -4.9     12.216     13.231
REMARK  1 active torsions:
REMARK  status: ('A' for Active; 'I' for Inactive)
REMARK    1  A    between atoms: C7_7  and  C10_10 
ROOT
HETATM    1  C1  UNL     1     -33.715  16.566  -4.274  1.00 20.00    -0.018 C 
HETATM    2  C2  UNL     1     -34.154  15.727  -3.321  1.00 20.00    -0.024 C 
HETATM    3  C3  UNL     1     -33.415  18.307  -2.668  1.00 20.00     0.139 C 
HETATM    4  C4  UNL     1     -35.533  17.583  -3.262  1.00 20.00     0.025 C 
HETATM    5  C5  UNL     1     -34.202  17.946  -3.924  1.00 20.00     0.078 C 
HETATM    6  C6  UNL     1     -34.913  16.556  -2.299  1.00 20.00     0.020 C 
HETATM    7  C7  UNL     1     -33.871  17.402  -1.513  1.00 20.00     0.067 C 
HETATM    8  O11 UNL     1     -32.535  19.151  -2.603  1.00 20.00    -0.297 OA
ENDROOT
BRANCH   7   9
HETATM    9  C10 UNL     1     -34.456  18.201  -0.364  1.00 20.00    -0.011 C 
HETATM   10  C8  UNL     1     -35.613  17.446   0.293  1.00 20.00     0.010 C 
HETATM   11  C9  UNL     1     -33.383  18.532   0.675  1.00 20.00     0.010 C 
ENDBRANCH   7   9
TORSDOF 1
ENDMDL
MODEL 6
REMARK VINA RESULT:      -4.9     11.349     13.110
REMARK  1 active torsions:
REMARK  status: ('A' for Active; 'I' for Inactive)
REMARK    1  A    between atoms: C7_7  and  C10_10 
ROOT
HETATM    1  C1  UNL     1     -33.014  14.467  -4.473  1.00 20.00    -0.018 C 
HETATM    2  C2  UNL     1     -33.054  15.628  -5.148  1.00 20.00    -0.024 C 
HETATM    3  C3  UNL     1     -35.218  13.913  -5.203  1.00 20.00     0.139 C 
HETATM    4  C4  UNL     1     -34.857  15.637  -3.701  1.00 20.00     0.025 C 
HETATM    5  C5  UNL     1     -34.399  14.198  -3.950  1.00 20.00     0.078 C 
HETATM    6  C6  UNL     1     -34.488  16.127  -5.111  1.00 20.00     0.020 C 
HETATM    7  C7  UNL     1     -35.332  15.200  -6.033  1.00 20.00     0.067 C 
HETATM    8  O11 UNL     1     -35.674  12.824  -5.518  1.00 20.00    -0.297 OA
ENDROOT
BRANCH   7   9
HETATM    9  C10 UNL     1     -36.774  15.638  -6.205  1.00 20.00    -0.011 C 
HETATM   10  C8  UNL     1     -36.895  17.162  -6.131  1.00 20.00     0.010 C 
HETATM   11  C9  UNL     1     -37.348  15.125  -7.527  1.00 20.00     0.010 C 
ENDBRANCH   7   9
TORSDOF 1
ENDMDL
MODEL 7
REMARK VINA RESULT:      -4.8     11.563     12.775
REMARK  1 active torsions:
REMARK  status: ('A' for Active; 'I' for Inactive)
REMARK    1  A    between atoms: C7_7  and  C10_10 
ROOT
HETATM    1  C1  UNL     1     -38.171  14.873  -4.821  1.00 20.00    -0.018 C 
HETATM    2  C2  UNL     1     -37.534  15.915  -4.260  1.00 20.00    -0.024 C 
HETATM    3  C3  UNL     1     -36.094  13.778  -5.255  1.00 20.00     0.139 C 
HETATM    4  C4  UNL     1     -36.694  15.697  -6.403  1.00 20.00     0.025 C 
HETATM    5  C5  UNL     1     -37.313  14.373  -5.952  1.00 20.00     0.078 C 
HETATM    6  C6  UNL     1     -36.217  16.094  -4.996  1.00 20.00     0.020 C 
HETATM    7  C7  UNL     1     -35.291  14.910  -4.597  1.00 20.00     0.067 C 
HETATM    8  O11 UNL     1     -35.824  12.589  -5.195  1.00 20.00    -0.297 OA
ENDROOT
BRANCH   7   9
HETATM    9  C10 UNL     1     -33.883  15.004  -5.154  1.00 20.00    -0.011 C 
HETATM   10  C8  UNL     1     -33.458  16.465  -5.320  1.00 20.00     0.010 C 
HETATM   11  C9  UNL     1     -32.889  14.262  -4.259  1.00 20.00     0.010 C 
ENDBRANCH   7   9
TORSDOF 1
ENDMDL
MODEL 8
REMARK VINA RESULT:      -4.8      1.045      3.607
REMARK  1 active torsions:
REMARK  status: ('A' for Active; 'I' for Inactive)
REMARK    1  A    between atoms: C7_7  and  C10_10 
ROOT
HETATM    1  C1  UNL     1     -32.527   8.200   1.490  1.00 20.00    -0.018 C 
HETATM    2  C2  UNL     1     -33.359   8.881   2.296  1.00 20.00    -0.024 C 
HETATM    3  C3  UNL     1     -32.790   6.228   2.810  1.00 20.00     0.139 C 
HETATM    4  C4  UNL     1     -31.655   8.071   3.632  1.00 20.00     0.025 C 
HETATM    5  C5  UNL     1     -31.748   7.241   2.350  1.00 20.00     0.078 C 
HETATM    6  C6  UNL     1     -33.165   8.350   3.706  1.00 20.00     0.020 C 
HETATM    7  C7  UNL     1     -33.780   6.922   3.759  1.00 20.00     0.067 C 
HETATM    8  O11 UNL     1     -32.852   5.063   2.450  1.00 20.00    -0.297 OA
ENDROOT
BRANCH   7   9
HETATM    9  C10 UNL     1     -33.778   6.294   5.139  1.00 20.00    -0.011 C 
HETATM   10  C8  UNL     1     -33.974   7.356   6.223  1.00 20.00     0.010 C 
HETATM   11  C9  UNL     1     -34.860   5.217   5.252  1.00 20.00     0.010 C 
ENDBRANCH   7   9
TORSDOF 1
ENDMDL
MODEL 9
REMARK VINA RESULT:      -4.7     11.893     13.397
REMARK  1 active torsions:
REMARK  status: ('A' for Active; 'I' for Inactive)
REMARK    1  A    between atoms: C7_7  and  C10_10 
ROOT
HETATM    1  C1  UNL     1     -36.330  14.199  -7.909  1.00 20.00    -0.018 C 
HETATM    2  C2  UNL     1     -36.209  15.521  -7.700  1.00 20.00    -0.024 C 
HETATM    3  C3  UNL     1     -35.459  13.728  -5.737  1.00 20.00     0.139 C 
HETATM    4  C4  UNL     1     -34.107  14.603  -7.401  1.00 20.00     0.025 C 
HETATM    5  C5  UNL     1     -35.175  13.523  -7.221  1.00 20.00     0.078 C 
HETATM    6  C6  UNL     1     -34.981  15.733  -6.831  1.00 20.00     0.020 C 
HETATM    7  C7  UNL     1     -35.322  15.221  -5.402  1.00 20.00     0.067 C 
HETATM    8  O11 UNL     1     -35.783  12.852  -4.951  1.00 20.00    -0.297 OA
ENDROOT
BRANCH   7   9
HETATM    9  C10 UNL     1     -34.236  15.474  -4.374  1.00 20.00    -0.011 C 
HETATM   10  C8  UNL     1     -33.309  16.605  -4.825  1.00 20.00     0.010 C 
HETATM   11  C9  UNL     1     -34.842  15.801  -3.007  1.00 20.00     0.010 C 
ENDBRANCH   7   9
TORSDOF 1
ENDMDL
