MODEL 1
REMARK VINA RESULT:      -5.3      0.000      0.000
REMARK  4 active torsions:
REMARK  status: ('A' for Active; 'I' for Inactive)
REMARK    1  A    between atoms: C3_3  and  C4_4 
REMARK    2  A    between atoms: C4_4  and  C5_5 
REMARK    3  A    between atoms: C5_5  and  C6_6 
REMARK    4  A    between atoms: C6_6  and  C7_7 
ROOT
HETATM    1  C1  UNL     1     -31.966   8.318   2.498  1.00 20.00     0.087 C 
HETATM    2  C2  UNL     1     -32.165   7.985   3.863  1.00 20.00     0.089 C 
HETATM    3  C3  UNL     1     -33.369   7.632   4.332  1.00 20.00    -0.016 C 
HETATM    4  N8  UNL     1     -31.800   8.593   1.382  1.00 20.00    -0.192 NA
ENDROOT
BRANCH   3   5
HETATM    5  C4  UNL     1     -33.631   7.275   5.768  1.00 20.00     0.028 C 
BRANCH   5   6
HETATM    6  C5  UNL     1     -34.440   5.979   5.880  1.00 20.00     0.005 C 
BRANCH   6   7
HETATM    7  C6  UNL     1     -34.893   5.491   4.502  1.00 20.00     0.015 C 
BRANCH   7   8
HETATM    8  C7  UNL     1     -34.161   4.236   4.035  1.00 20.00     0.114 C 
HETATM    9 CL9  UNL     1     -33.080   4.566   2.662  1.00 20.00    -0.130 Cl
ENDBRANCH   7   8
ENDBRANCH   6   7
ENDBRANCH   5   6
ENDBRANCH   3   5
TORSDOF 4
ENDMDL
MODEL 2
REMARK VINA RESULT:      -5.2      2.022      2.531
REMARK  4 active torsions:
REMARK  status: ('A' for Active; 'I' for Inactive)
REMARK    1  A    between atoms: C3_3  and  C4_4 
REMARK    2  A    between atoms: C4_4  and  C5_5 
REMARK    3  A    between atoms: C5_5  and  C6_6 
REMARK    4  A    between atoms: C6_6  and  C7_7 
ROOT
HETATM    1  C1  UNL     1     -32.356   9.568   1.464  1.00 20.00     0.087 C 
HETATM    2  C2  UNL     1     -32.035   8.280   1.967  1.00 20.00     0.089 C 
HETATM    3  C3  UNL     1     -32.969   7.483   2.505  1.00 20.00    -0.016 C 
HETATM    4  N8  UNL     1     -32.615  10.622   1.053  1.00 20.00    -0.192 NA
ENDROOT
BRANCH   3   5
HETATM    5  C4  UNL     1     -32.678   6.115   3.055  1.00 20.00     0.028 C 
BRANCH   5   6
HETATM    6  C5  UNL     1     -33.938   5.245   3.075  1.00 20.00     0.005 C 
BRANCH   6   7
HETATM    7  C6  UNL     1     -34.971   5.791   4.065  1.00 20.00     0.015 C 
BRANCH   7   8
HETATM    8  C7  UNL     1     -34.506   5.728   5.517  1.00 20.00     0.114 C 
HETATM    9 CL9  UNL     1     -33.851   7.284   6.076  1.00 20.00    -0.130 Cl
ENDBRANCH   7   8
ENDBRANCH   6   7
ENDBRANCH   5   6
ENDBRANCH   3   5
TORSDOF 4
ENDMDL
MODEL 3
REMARK VINA RESULT:      -5.0      1.632      2.374
REMARK  4 active torsions:
REMARK  status: ('A' for Active; 'I' for Inactive)
REMARK    1  A    between atoms: C3_3  and  C4_4 
REMARK    2  A    between atoms: C4_4  and  C5_5 
REMARK    3  A    between atoms: C5_5  and  C6_6 
REMARK    4  A    between atoms: C6_6  and  C7_7 
ROOT
HETATM    1  C1  UNL     1     -32.847   9.331   0.218  1.00 20.00     0.087 C 
HETATM    2  C2  UNL     1     -32.292   9.205   1.518  1.00 20.00     0.089 C 
HETATM    3  C3  UNL     1     -32.507   8.119   2.273  1.00 20.00    -0.016 C 
HETATM    4  N8  UNL     1     -33.300   9.437  -0.846  1.00 20.00    -0.192 NA
ENDROOT
BRANCH   3   5
HETATM    5  C4  UNL     1     -31.947   7.943   3.655  1.00 20.00     0.028 C 
BRANCH   5   6
HETATM    6  C5  UNL     1     -33.027   7.478   4.637  1.00 20.00     0.005 C 
BRANCH   6   7
HETATM    7  C6  UNL     1     -34.121   6.683   3.919  1.00 20.00     0.015 C 
BRANCH   7   8
HETATM    8  C7  UNL     1     -34.785   5.633   4.804  1.00 20.00     0.114 C 
HETATM    9 CL9  UNL     1     -34.266   3.984   4.387  1.00 20.00    -0.130 Cl
ENDBRANCH   7   8
ENDBRANCH   6   7
ENDBRANCH   5   6
ENDBRANCH   3   5
TORSDOF 4
ENDMDL
MODEL 4
REMARK VINA RESULT:      -4.7      3.205      5.026
REMARK  4 active torsions:
REMARK  status: ('A' for Active; 'I' for Inactive)
REMARK    1  A    between atoms: C3_3  and  C4_4 
REMARK    2  A    between atoms: C4_4  and  C5_5 
REMARK    3  A    between atoms: C5_5  and  C6_6 
REMARK    4  A    between atoms: C6_6  and  C7_7 
ROOT
HETATM    1  C1  UNL     1     -34.334   4.808   4.193  1.00 20.00     0.087 C 
HETATM    2  C2  UNL     1     -34.250   6.164   3.781  1.00 20.00     0.089 C 
HETATM    3  C3  UNL     1     -33.115   6.681   3.291  1.00 20.00    -0.016 C 
HETATM    4  N8  UNL     1     -34.406   3.700   4.532  1.00 20.00    -0.192 NA
ENDROOT
BRANCH   3   5
HETATM    5  C4  UNL     1     -32.975   8.110   2.847  1.00 20.00     0.028 C 
BRANCH   5   6
HETATM    6  C5  UNL     1     -31.532   8.427   2.444  1.00 20.00     0.005 C 
BRANCH   6   7
HETATM    7  C6  UNL     1     -31.449   8.847   0.974  1.00 20.00     0.015 C 
BRANCH   7   8
HETATM    8  C7  UNL     1     -32.397   9.989   0.618  1.00 20.00     0.114 C 
HETATM    9 CL9  UNL     1     -33.462   9.572  -0.744  1.00 20.00    -0.130 Cl
ENDBRANCH   7   8
ENDBRANCH   6   7
ENDBRANCH   5   6
ENDBRANCH   3   5
TORSDOF 4
ENDMDL
MODEL 5
REMARK VINA RESULT:      -4.6      3.392      5.164
REMARK  4 active torsions:
REMARK  status: ('A' for Active; 'I' for Inactive)
REMARK    1  A    between atoms: C3_3  and  C4_4 
REMARK    2  A    between atoms: C4_4  and  C5_5 
REMARK    3  A    between atoms: C5_5  and  C6_6 
REMARK    4  A    between atoms: C6_6  and  C7_7 
ROOT
HETATM    1  C1  UNL     1     -34.445   4.937   4.279  1.00 20.00     0.087 C 
HETATM    2  C2  UNL     1     -34.312   6.263   3.792  1.00 20.00     0.089 C 
HETATM    3  C3  UNL     1     -33.235   6.653   3.097  1.00 20.00    -0.016 C 
HETATM    4  N8  UNL     1     -34.555   3.853   4.681  1.00 20.00    -0.192 NA
ENDROOT
BRANCH   3   5
HETATM    5  C4  UNL     1     -33.047   8.046   2.566  1.00 20.00     0.028 C 
BRANCH   5   6
HETATM    6  C5  UNL     1     -31.623   8.252   2.040  1.00 20.00     0.005 C 
BRANCH   6   7
HETATM    7  C6  UNL     1     -31.637   8.851   0.631  1.00 20.00     0.015 C 
BRANCH   7   8
HETATM    8  C7  UNL     1     -32.733   9.893   0.429  1.00 20.00     0.114 C 
HETATM    9 CL9  UNL     1     -32.640  11.201   1.630  1.00 20.00    -0.130 Cl
ENDBRANCH   7   8
ENDBRANCH   6   7
ENDBRANCH   5   6
ENDBRANCH   3   5
TORSDOF 4
ENDMDL
MODEL 6
REMARK VINA RESULT:      -4.5      3.008      4.838
REMARK  4 active torsions:
REMARK  status: ('A' for Active; 'I' for Inactive)
REMARK    1  A    between atoms: C3_3  and  C4_4 
REMARK    2  A    between atoms: C4_4  and  C5_5 
REMARK    3  A    between atoms: C5_5  and  C6_6 
REMARK    4  A    between atoms: C6_6  and  C7_7 
ROOT
HETATM    1  C1  UNL     1     -34.400   5.951   3.742  1.00 20.00     0.087 C 
HETATM    2  C2  UNL     1     -33.355   6.660   3.094  1.00 20.00     0.089 C 
HETATM    3  C3  UNL     1     -32.608   7.562   3.745  1.00 20.00    -0.016 C 
HETATM    4  N8  UNL     1     -35.257   5.371   4.268  1.00 20.00    -0.192 NA
ENDROOT
BRANCH   3   5
HETATM    5  C4  UNL     1     -31.496   8.340   3.102  1.00 20.00     0.028 C 
BRANCH   5   6
HETATM    6  C5  UNL     1     -31.764   8.564   1.610  1.00 20.00     0.005 C 
BRANCH   6   7
HETATM    7  C6  UNL     1     -32.395   9.938   1.363  1.00 20.00     0.015 C 
BRANCH   7   8
HETATM    8  C7  UNL     1     -33.148  10.027   0.039  1.00 20.00     0.114 C 
HETATM    9 CL9  UNL     1     -32.732   8.688  -1.056  1.00 20.00    -0.130 Cl
ENDBRANCH   7   8
ENDBRANCH   6   7
ENDBRANCH   5   6
ENDBRANCH   3   5
TORSDOF 4
ENDMDL
MODEL 7
REMARK VINA RESULT:      -3.9     11.952     12.461
REMARK  4 active torsions:
REMARK  status: ('A' for Active; 'I' for Inactive)
REMARK    1  A    between atoms: C3_3  and  C4_4 
REMARK    2  A    between atoms: C4_4  and  C5_5 
REMARK    3  A    between atoms: C5_5  and  C6_6 
REMARK    4  A    between atoms: C6_6  and  C7_7 
ROOT
HETATM    1  C1  UNL     1     -35.651  13.836  -4.921  1.00 20.00     0.087 C 
HETATM    2  C2  UNL     1     -35.334  14.992  -4.162  1.00 20.00     0.089 C 
HETATM    3  C3  UNL     1     -34.067  15.394  -3.990  1.00 20.00    -0.016 C 
HETATM    4  N8  UNL     1     -35.915  12.890  -5.540  1.00 20.00    -0.192 NA
ENDROOT
BRANCH   3   5
HETATM    5  C4  UNL     1     -33.680  16.607  -3.192  1.00 20.00     0.028 C 
BRANCH   5   6
HETATM    6  C5  UNL     1     -34.504  16.710  -1.905  1.00 20.00     0.005 C 
BRANCH   6   7
HETATM    7  C6  UNL     1     -34.046  17.895  -1.050  1.00 20.00     0.015 C 
BRANCH   7   8
HETATM    8  C7  UNL     1     -32.541  18.141  -1.115  1.00 20.00     0.114 C 
HETATM    9 CL9  UNL     1     -31.916  18.852   0.391  1.00 20.00    -0.130 Cl
ENDBRANCH   7   8
ENDBRANCH   6   7
ENDBRANCH   5   6
ENDBRANCH   3   5
TORSDOF 4
ENDMDL
MODEL 8
REMARK VINA RESULT:      -3.8     11.696     12.127
REMARK  4 active torsions:
REMARK  status: ('A' for Active; 'I' for Inactive)
REMARK    1  A    between atoms: C3_3  and  C4_4 
REMARK    2  A    between atoms: C4_4  and  C5_5 
REMARK    3  A    between atoms: C5_5  and  C6_6 
REMARK    4  A    between atoms: C6_6  and  C7_7 
ROOT
HETATM    1  C1  UNL     1     -35.206  13.683  -4.841  1.00 20.00     0.087 C 
HETATM    2  C2  UNL     1     -34.351  14.653  -4.255  1.00 20.00     0.089 C 
HETATM    3  C3  UNL     1     -34.787  15.496  -3.310  1.00 20.00    -0.016 C 
HETATM    4  N8  UNL     1     -35.904  12.891  -5.323  1.00 20.00    -0.192 NA
ENDROOT
BRANCH   3   5
HETATM    5  C4  UNL     1     -33.922  16.541  -2.664  1.00 20.00     0.028 C 
BRANCH   5   6
HETATM    6  C5  UNL     1     -34.668  17.259  -1.535  1.00 20.00     0.005 C 
BRANCH   6   7
HETATM    7  C6  UNL     1     -33.714  18.120  -0.702  1.00 20.00     0.015 C 
BRANCH   7   8
HETATM    8  C7  UNL     1     -34.164  18.292   0.745  1.00 20.00     0.114 C 
HETATM    9 CL9  UNL     1     -35.728  17.506   1.056  1.00 20.00    -0.130 Cl
ENDBRANCH   7   8
ENDBRANCH   6   7
ENDBRANCH   5   6
ENDBRANCH   3   5
TORSDOF 4
ENDMDL
MODEL 9
REMARK VINA RESULT:      -3.6     11.831     12.212
REMARK  4 active torsions:
REMARK  status: ('A' for Active; 'I' for Inactive)
REMARK    1  A    between atoms: C3_3  and  C4_4 
REMARK    2  A    between atoms: C4_4  and  C5_5 
REMARK    3  A    between atoms: C5_5  and  C6_6 
REMARK    4  A    between atoms: C6_6  and  C7_7 
ROOT
HETATM    1  C1  UNL     1     -32.952  17.773  -1.469  1.00 20.00     0.087 C 
HETATM    2  C2  UNL     1     -34.017  16.940  -1.902  1.00 20.00     0.089 C 
HETATM    3  C3  UNL     1     -34.087  16.484  -3.160  1.00 20.00    -0.016 C 
HETATM    4  N8  UNL     1     -32.083  18.455  -1.113  1.00 20.00    -0.192 NA
ENDROOT
BRANCH   3   5
HETATM    5  C4  UNL     1     -35.195  15.605  -3.666  1.00 20.00     0.028 C 
BRANCH   5   6
HETATM    6  C5  UNL     1     -34.648  14.291  -4.230  1.00 20.00     0.005 C 
BRANCH   6   7
HETATM    7  C6  UNL     1     -35.722  13.539  -5.020  1.00 20.00     0.015 C 
BRANCH   7   8
HETATM    8  C7  UNL     1     -35.482  13.548  -6.527  1.00 20.00     0.114 C 
HETATM    9 CL9  UNL     1     -34.044  14.497  -6.967  1.00 20.00    -0.130 Cl
ENDBRANCH   7   8
ENDBRANCH   6   7
ENDBRANCH   5   6
ENDBRANCH   3   5
TORSDOF 4
ENDMDL
