MODEL 1
REMARK VINA RESULT:      -5.9      0.000      0.000
REMARK  2 active torsions:
REMARK  status: ('A' for Active; 'I' for Inactive)
REMARK    1  A    between atoms: C2_2  and  C3_3 
REMARK    2  A    between atoms: C3_3  and  O11_11 
ROOT
HETATM    1  C1  UNL     1     -33.027   6.445   2.751  1.00 20.00    -0.069 C 
HETATM    2  C2  UNL     1     -32.634   7.370   1.878  1.00 20.00     0.084 C 
HETATM    3  C4  UNL     1     -33.541   4.991   2.634  1.00 20.00     0.040 C 
HETATM    4  C5  UNL     1     -34.613   6.226   6.103  1.00 20.00     0.001 C 
HETATM    5  C6  UNL     1     -33.852   7.257   5.233  1.00 20.00     0.009 C 
HETATM    6  C7  UNL     1     -34.668   4.929   5.260  1.00 20.00     0.005 C 
HETATM    7  C8  UNL     1     -33.137   6.364   4.249  1.00 20.00     0.019 C 
HETATM    8  C9  UNL     1     -34.354   5.455   3.877  1.00 20.00    -0.002 C 
ENDROOT
BRANCH   2   9
HETATM    9  C3  UNL     1     -32.173   8.723   2.251  1.00 20.00     0.165 C 
HETATM   10  O10 UNL     1     -31.389   8.932   3.166  1.00 20.00    -0.647 OA
BRANCH   9  11
HETATM   11  O11 UNL     1     -32.713   9.690   1.477  1.00 20.00    -0.773 OA
HETATM   12  H23 UNL     1     -33.680   9.572   1.361  1.00 20.00     0.167 HD
ENDBRANCH   9  11
ENDBRANCH   2   9
TORSDOF 2
ENDMDL
MODEL 2
REMARK VINA RESULT:      -5.7      1.121      2.169
REMARK  2 active torsions:
REMARK  status: ('A' for Active; 'I' for Inactive)
REMARK    1  A    between atoms: C2_2  and  C3_3 
REMARK    2  A    between atoms: C3_3  and  O11_11 
ROOT
HETATM    1  C1  UNL     1     -33.136   7.666   4.510  1.00 20.00    -0.069 C 
HETATM    2  C2  UNL     1     -32.280   8.450   3.859  1.00 20.00     0.084 C 
HETATM    3  C4  UNL     1     -33.573   7.529   5.987  1.00 20.00     0.040 C 
HETATM    4  C5  UNL     1     -34.571   4.248   4.269  1.00 20.00     0.001 C 
HETATM    5  C6  UNL     1     -33.858   5.285   3.366  1.00 20.00     0.009 C 
HETATM    6  C7  UNL     1     -34.701   4.923   5.656  1.00 20.00     0.005 C 
HETATM    7  C8  UNL     1     -34.090   6.568   4.125  1.00 20.00     0.019 C 
HETATM    8  C9  UNL     1     -33.689   6.042   5.543  1.00 20.00    -0.002 C 
ENDROOT
BRANCH   2   9
HETATM    9  C3  UNL     1     -32.035   8.384   2.403  1.00 20.00     0.165 C 
HETATM   10  O10 UNL     1     -31.719   7.354   1.826  1.00 20.00    -0.647 OA
BRANCH   9  11
HETATM   11  O11 UNL     1     -32.197   9.579   1.793  1.00 20.00    -0.773 OA
HETATM   12  H23 UNL     1     -31.836  10.318   2.329  1.00 20.00     0.167 HD
ENDBRANCH   9  11
ENDBRANCH   2   9
TORSDOF 2
ENDMDL
MODEL 3
REMARK VINA RESULT:      -4.8     11.442     12.752
REMARK  2 active torsions:
REMARK  status: ('A' for Active; 'I' for Inactive)
REMARK    1  A    between atoms: C2_2  and  C3_3 
REMARK    2  A    between atoms: C3_3  and  O11_11 
ROOT
HETATM    1  C1  UNL     1     -35.284  15.836  -5.664  1.00 20.00    -0.069 C 
HETATM    2  C2  UNL     1     -35.860  14.735  -6.142  1.00 20.00     0.084 C 
HETATM    3  C4  UNL     1     -34.461  16.987  -6.285  1.00 20.00     0.040 C 
HETATM    4  C5  UNL     1     -33.731  17.065  -2.521  1.00 20.00     0.001 C 
HETATM    5  C6  UNL     1     -34.690  15.943  -2.992  1.00 20.00     0.009 C 
HETATM    6  C7  UNL     1     -33.381  17.876  -3.792  1.00 20.00     0.005 C 
HETATM    7  C8  UNL     1     -35.178  16.488  -4.312  1.00 20.00     0.019 C 
HETATM    8  C9  UNL     1     -33.785  16.912  -4.886  1.00 20.00    -0.002 C 
ENDROOT
BRANCH   2   9
HETATM    9  C3  UNL     1     -36.613  13.766  -5.320  1.00 20.00     0.165 C 
HETATM   10  O10 UNL     1     -37.759  13.960  -4.942  1.00 20.00    -0.647 OA
BRANCH   9  11
HETATM   11  O11 UNL     1     -35.897  12.656  -5.036  1.00 20.00    -0.773 OA
HETATM   12  H23 UNL     1     -35.133  12.851  -4.452  1.00 20.00     0.167 HD
ENDBRANCH   9  11
ENDBRANCH   2   9
TORSDOF 2
ENDMDL
MODEL 4
REMARK VINA RESULT:      -4.7     11.484     12.147
REMARK  2 active torsions:
REMARK  status: ('A' for Active; 'I' for Inactive)
REMARK    1  A    between atoms: C2_2  and  C3_3 
REMARK    2  A    between atoms: C3_3  and  O11_11 
ROOT
HETATM    1  C1  UNL     1     -36.110  14.487  -5.172  1.00 20.00    -0.069 C 
HETATM    2  C2  UNL     1     -36.156  13.936  -6.382  1.00 20.00     0.084 C 
HETATM    3  C4  UNL     1     -37.149  15.164  -4.248  1.00 20.00     0.040 C 
HETATM    4  C5  UNL     1     -33.705  16.281  -2.981  1.00 20.00     0.001 C 
HETATM    5  C6  UNL     1     -33.692  15.352  -4.220  1.00 20.00     0.009 C 
HETATM    6  C7  UNL     1     -35.196  16.441  -2.596  1.00 20.00     0.005 C 
HETATM    7  C8  UNL     1     -35.046  14.693  -4.128  1.00 20.00     0.019 C 
HETATM    8  C9  UNL     1     -35.885  15.986  -3.864  1.00 20.00    -0.002 C 
ENDROOT
BRANCH   2   9
HETATM    9  C3  UNL     1     -34.991  13.339  -7.069  1.00 20.00     0.165 C 
HETATM   10  O10 UNL     1     -34.097  14.006  -7.569  1.00 20.00    -0.647 OA
BRANCH   9  11
HETATM   11  O11 UNL     1     -35.030  11.988  -7.082  1.00 20.00    -0.773 OA
HETATM   12  H23 UNL     1     -34.793  11.621  -7.961  1.00 20.00     0.167 HD
ENDBRANCH   9  11
ENDBRANCH   2   9
TORSDOF 2
ENDMDL
MODEL 5
REMARK VINA RESULT:      -4.7     11.582     12.187
REMARK  2 active torsions:
REMARK  status: ('A' for Active; 'I' for Inactive)
REMARK    1  A    between atoms: C2_2  and  C3_3 
REMARK    2  A    between atoms: C3_3  and  O11_11 
ROOT
HETATM    1  C1  UNL     1     -34.813  14.899  -5.029  1.00 20.00    -0.069 C 
HETATM    2  C2  UNL     1     -35.543  14.027  -5.721  1.00 20.00     0.084 C 
HETATM    3  C4  UNL     1     -33.301  15.076  -4.761  1.00 20.00     0.040 C 
HETATM    4  C5  UNL     1     -35.108  17.063  -2.024  1.00 20.00     0.001 C 
HETATM    5  C6  UNL     1     -36.026  16.320  -3.026  1.00 20.00     0.009 C 
HETATM    6  C7  UNL     1     -33.662  16.786  -2.499  1.00 20.00     0.005 C 
HETATM    7  C8  UNL     1     -35.103  16.123  -4.204  1.00 20.00     0.019 C 
HETATM    8  C9  UNL     1     -33.866  15.593  -3.407  1.00 20.00    -0.002 C 
ENDROOT
BRANCH   2   9
HETATM    9  C3  UNL     1     -37.017  14.074  -5.825  1.00 20.00     0.165 C 
HETATM   10  O10 UNL     1     -37.760  13.809  -4.892  1.00 20.00    -0.647 OA
BRANCH   9  11
HETATM   11  O11 UNL     1     -37.441  14.437  -7.055  1.00 20.00    -0.773 OA
HETATM   12  H23 UNL     1     -36.693  14.648  -7.655  1.00 20.00     0.167 HD
ENDBRANCH   9  11
ENDBRANCH   2   9
TORSDOF 2
ENDMDL
MODEL 6
REMARK VINA RESULT:      -4.5     11.731     12.393
REMARK  2 active torsions:
REMARK  status: ('A' for Active; 'I' for Inactive)
REMARK    1  A    between atoms: C2_2  and  C3_3 
REMARK    2  A    between atoms: C3_3  and  O11_11 
ROOT
HETATM    1  C1  UNL     1     -34.634  16.910  -2.635  1.00 20.00    -0.069 C 
HETATM    2  C2  UNL     1     -34.662  16.724  -3.953  1.00 20.00     0.084 C 
HETATM    3  C4  UNL     1     -35.697  16.873  -1.512  1.00 20.00     0.040 C 
HETATM    4  C5  UNL     1     -32.717  18.831  -0.099  1.00 20.00     0.001 C 
HETATM    5  C6  UNL     1     -32.561  18.340  -1.560  1.00 20.00     0.009 C 
HETATM    6  C7  UNL     1     -34.095  18.308   0.372  1.00 20.00     0.005 C 
HETATM    7  C8  UNL     1     -33.569  17.219  -1.618  1.00 20.00     0.019 C 
HETATM    8  C9  UNL     1     -34.760  17.979  -0.947  1.00 20.00    -0.002 C 
ENDROOT
BRANCH   2   9
HETATM    9  C3  UNL     1     -33.477  16.816  -4.830  1.00 20.00     0.165 C 
HETATM   10  O10 UNL     1     -32.856  15.837  -5.218  1.00 20.00    -0.647 OA
BRANCH   9  11
HETATM   11  O11 UNL     1     -33.162  18.091  -5.148  1.00 20.00    -0.773 OA
HETATM   12  H23 UNL     1     -33.858  18.723  -4.868  1.00 20.00     0.167 HD
ENDBRANCH   9  11
ENDBRANCH   2   9
TORSDOF 2
ENDMDL
MODEL 7
REMARK VINA RESULT:      -4.5     11.264     11.930
REMARK  2 active torsions:
REMARK  status: ('A' for Active; 'I' for Inactive)
REMARK    1  A    between atoms: C2_2  and  C3_3 
REMARK    2  A    between atoms: C3_3  and  O11_11 
ROOT
HETATM    1  C1  UNL     1     -35.163  15.851  -3.763  1.00 20.00    -0.069 C 
HETATM    2  C2  UNL     1     -34.609  15.244  -4.810  1.00 20.00     0.084 C 
HETATM    3  C4  UNL     1     -36.573  16.404  -3.450  1.00 20.00     0.040 C 
HETATM    4  C5  UNL     1     -34.189  18.088  -0.962  1.00 20.00     0.001 C 
HETATM    5  C6  UNL     1     -33.525  17.115  -1.969  1.00 20.00     0.009 C 
HETATM    6  C7  UNL     1     -35.704  18.037  -1.271  1.00 20.00     0.005 C 
HETATM    7  C8  UNL     1     -34.696  16.263  -2.393  1.00 20.00     0.019 C 
HETATM    8  C9  UNL     1     -35.710  17.426  -2.655  1.00 20.00    -0.002 C 
ENDROOT
BRANCH   2   9
HETATM    9  C3  UNL     1     -33.201  14.798  -4.864  1.00 20.00     0.165 C 
HETATM   10  O10 UNL     1     -32.787  13.820  -4.260  1.00 20.00    -0.647 OA
BRANCH   9  11
HETATM   11  O11 UNL     1     -32.435  15.589  -5.647  1.00 20.00    -0.773 OA
HETATM   12  H23 UNL     1     -32.913  15.886  -6.451  1.00 20.00     0.167 HD
ENDBRANCH   9  11
ENDBRANCH   2   9
TORSDOF 2
ENDMDL
MODEL 8
REMARK VINA RESULT:      -4.4     10.997     12.499
REMARK  2 active torsions:
REMARK  status: ('A' for Active; 'I' for Inactive)
REMARK    1  A    between atoms: C2_2  and  C3_3 
REMARK    2  A    between atoms: C3_3  and  O11_11 
ROOT
HETATM    1  C1  UNL     1     -33.572  16.779  -4.496  1.00 20.00    -0.069 C 
HETATM    2  C2  UNL     1     -33.160  15.638  -5.043  1.00 20.00     0.084 C 
HETATM    3  C4  UNL     1     -33.492  18.269  -4.904  1.00 20.00     0.040 C 
HETATM    4  C5  UNL     1     -34.195  18.231  -1.134  1.00 20.00     0.001 C 
HETATM    5  C6  UNL     1     -34.048  16.840  -1.800  1.00 20.00     0.009 C 
HETATM    6  C7  UNL     1     -34.043  19.260  -2.280  1.00 20.00     0.005 C 
HETATM    7  C8  UNL     1     -34.322  17.160  -3.249  1.00 20.00     0.019 C 
HETATM    8  C9  UNL     1     -33.397  18.417  -3.358  1.00 20.00    -0.002 C 
ENDROOT
BRANCH   2   9
HETATM    9  C3  UNL     1     -33.365  14.305  -4.439  1.00 20.00     0.165 C 
HETATM   10  O10 UNL     1     -34.467  13.872  -4.136  1.00 20.00    -0.647 OA
BRANCH   9  11
HETATM   11  O11 UNL     1     -32.208  13.630  -4.260  1.00 20.00    -0.773 OA
HETATM   12  H23 UNL     1     -31.636  13.663  -5.057  1.00 20.00     0.167 HD
ENDBRANCH   9  11
ENDBRANCH   2   9
TORSDOF 2
ENDMDL
MODEL 9
REMARK VINA RESULT:      -4.4      2.498      4.839
REMARK  2 active torsions:
REMARK  status: ('A' for Active; 'I' for Inactive)
REMARK    1  A    between atoms: C2_2  and  C3_3 
REMARK    2  A    between atoms: C3_3  and  O11_11 
ROOT
HETATM    1  C1  UNL     1     -32.416   7.862   2.869  1.00 20.00    -0.069 C 
HETATM    2  C2  UNL     1     -32.942   6.914   3.642  1.00 20.00     0.084 C 
HETATM    3  C4  UNL     1     -31.592   9.144   3.133  1.00 20.00     0.040 C 
HETATM    4  C5  UNL     1     -33.071   9.531  -0.385  1.00 20.00     0.001 C 
HETATM    5  C6  UNL     1     -33.453   8.228   0.361  1.00 20.00     0.009 C 
HETATM    6  C7  UNL     1     -32.120  10.293   0.569  1.00 20.00     0.005 C 
HETATM    7  C8  UNL     1     -32.354   8.126   1.389  1.00 20.00     0.019 C 
HETATM    8  C9  UNL     1     -32.402   9.607   1.888  1.00 20.00    -0.002 C 
ENDROOT
BRANCH   2   9
HETATM    9  C3  UNL     1     -33.708   5.757   3.133  1.00 20.00     0.165 C 
HETATM   10  O10 UNL     1     -33.187   4.812   2.560  1.00 20.00    -0.647 OA
BRANCH   9  11
HETATM   11  O11 UNL     1     -35.034   5.865   3.370  1.00 20.00    -0.773 OA
HETATM   12  H23 UNL     1     -35.336   5.239   4.063  1.00 20.00     0.167 HD
ENDBRANCH   9  11
ENDBRANCH   2   9
TORSDOF 2
ENDMDL
