MODEL 1
REMARK VINA RESULT:      -4.4      0.000      0.000
REMARK  1 active torsions:
REMARK  status: ('A' for Active; 'I' for Inactive)
REMARK    1  A    between atoms: C4_4  and  C7_7 
ROOT
HETATM    1  C1  UNL     1     -37.206  14.521  -5.021  1.00 20.00     0.075 C 
HETATM    2  C2  UNL     1     -34.829  14.214  -4.449  1.00 20.00     0.105 C 
HETATM    3  C3  UNL     1     -35.873  15.131  -5.068  1.00 20.00     0.164 C 
HETATM    4  C4  UNL     1     -34.085  16.684  -3.674  1.00 20.00     0.113 C 
HETATM    5  N8  UNL     1     -38.261  14.039  -4.983  1.00 20.00    -0.196 NA
HETATM    6  S9  UNL     1     -33.301  15.170  -4.307  1.00 20.00    -0.151 SA
HETATM    7  S10 UNL     1     -35.842  16.712  -4.160  1.00 20.00    -0.133 SA
ENDROOT
BRANCH   4   8
HETATM    8  C7  UNL     1     -33.971  16.735  -2.156  1.00 20.00     0.001 C 
HETATM    9  C5  UNL     1     -33.054  17.879  -1.721  1.00 20.00     0.011 C 
HETATM   10  C6  UNL     1     -35.350  16.882  -1.514  1.00 20.00     0.011 C 
ENDBRANCH   4   8
TORSDOF 1
ENDMDL
MODEL 2
REMARK VINA RESULT:      -4.3      1.400      1.456
REMARK  1 active torsions:
REMARK  status: ('A' for Active; 'I' for Inactive)
REMARK    1  A    between atoms: C4_4  and  C7_7 
ROOT
HETATM    1  C1  UNL     1     -35.645  13.908  -5.176  1.00 20.00     0.075 C 
HETATM    2  C2  UNL     1     -33.800  15.510  -4.857  1.00 20.00     0.105 C 
HETATM    3  C3  UNL     1     -35.304  15.323  -4.991  1.00 20.00     0.164 C 
HETATM    4  C4  UNL     1     -34.847  17.274  -3.111  1.00 20.00     0.113 C 
HETATM    5  N8  UNL     1     -35.915  12.789  -5.324  1.00 20.00    -0.196 NA
HETATM    6  S9  UNL     1     -33.523  17.226  -4.356  1.00 20.00    -0.151 SA
HETATM    7  S10 UNL     1     -36.091  15.995  -3.490  1.00 20.00    -0.133 SA
ENDROOT
BRANCH   4   8
HETATM    8  C7  UNL     1     -34.268  17.031  -1.723  1.00 20.00     0.001 C 
HETATM    9  C5  UNL     1     -33.024  17.891  -1.498  1.00 20.00     0.011 C 
HETATM   10  C6  UNL     1     -35.313  17.311  -0.644  1.00 20.00     0.011 C 
ENDBRANCH   4   8
TORSDOF 1
ENDMDL
MODEL 3
REMARK VINA RESULT:      -3.6      2.943      4.544
REMARK  1 active torsions:
REMARK  status: ('A' for Active; 'I' for Inactive)
REMARK    1  A    between atoms: C4_4  and  C7_7 
ROOT
HETATM    1  C1  UNL     1     -33.044  18.118  -1.841  1.00 20.00     0.075 C 
HETATM    2  C2  UNL     1     -35.002  16.667  -2.203  1.00 20.00     0.105 C 
HETATM    3  C3  UNL     1     -34.163  17.817  -2.740  1.00 20.00     0.164 C 
HETATM    4  C4  UNL     1     -34.955  16.267  -4.866  1.00 20.00     0.113 C 
HETATM    5  N8  UNL     1     -32.158  18.357  -1.129  1.00 20.00    -0.196 NA
HETATM    6  S9  UNL     1     -36.164  16.204  -3.509  1.00 20.00    -0.151 SA
HETATM    7  S10 UNL     1     -33.566  17.351  -4.398  1.00 20.00    -0.133 SA
ENDROOT
BRANCH   4   8
HETATM    8  C7  UNL     1     -34.435  14.868  -5.169  1.00 20.00     0.001 C 
HETATM    9  C5  UNL     1     -33.096  14.626  -4.472  1.00 20.00     0.011 C 
HETATM   10  C6  UNL     1     -35.454  13.810  -4.749  1.00 20.00     0.011 C 
ENDBRANCH   4   8
TORSDOF 1
ENDMDL
MODEL 4
REMARK VINA RESULT:      -3.6      2.503      4.571
REMARK  1 active torsions:
REMARK  status: ('A' for Active; 'I' for Inactive)
REMARK    1  A    between atoms: C4_4  and  C7_7 
ROOT
HETATM    1  C1  UNL     1     -34.184  16.678  -2.437  1.00 20.00     0.075 C 
HETATM    2  C2  UNL     1     -34.337  17.134  -4.854  1.00 20.00     0.105 C 
HETATM    3  C3  UNL     1     -33.657  16.323  -3.759  1.00 20.00     0.164 C 
HETATM    4  C4  UNL     1     -34.027  14.687  -5.935  1.00 20.00     0.113 C 
HETATM    5  N8  UNL     1     -34.599  16.959  -1.390  1.00 20.00    -0.196 NA
HETATM    6  S9  UNL     1     -33.823  16.423  -6.435  1.00 20.00    -0.151 SA
HETATM    7  S10 UNL     1     -33.925  14.557  -4.119  1.00 20.00    -0.133 SA
ENDROOT
BRANCH   4   8
HETATM    8  C7  UNL     1     -35.374  14.160  -6.414  1.00 20.00     0.001 C 
HETATM    9  C5  UNL     1     -35.185  13.093  -7.492  1.00 20.00     0.011 C 
HETATM   10  C6  UNL     1     -36.182  13.600  -5.244  1.00 20.00     0.011 C 
ENDBRANCH   4   8
TORSDOF 1
ENDMDL
MODEL 5
REMARK VINA RESULT:      -3.5      2.862      4.421
REMARK  1 active torsions:
REMARK  status: ('A' for Active; 'I' for Inactive)
REMARK    1  A    between atoms: C4_4  and  C7_7 
ROOT
HETATM    1  C1  UNL     1     -34.253  16.424  -2.798  1.00 20.00     0.075 C 
HETATM    2  C2  UNL     1     -34.620  14.349  -4.075  1.00 20.00     0.105 C 
HETATM    3  C3  UNL     1     -35.190  15.698  -3.662  1.00 20.00     0.164 C 
HETATM    4  C4  UNL     1     -35.900  15.230  -6.276  1.00 20.00     0.113 C 
HETATM    5  N8  UNL     1     -33.512  16.998  -2.113  1.00 20.00    -0.196 NA
HETATM    6  S9  UNL     1     -35.718  13.678  -5.347  1.00 20.00    -0.151 SA
HETATM    7  S10 UNL     1     -35.549  16.644  -5.179  1.00 20.00    -0.133 SA
ENDROOT
BRANCH   4   8
HETATM    8  C7  UNL     1     -34.939  15.247  -7.458  1.00 20.00     0.001 C 
HETATM    9  C5  UNL     1     -33.825  16.269  -7.235  1.00 20.00     0.011 C 
HETATM   10  C6  UNL     1     -34.350  13.857  -7.696  1.00 20.00     0.011 C 
ENDBRANCH   4   8
TORSDOF 1
ENDMDL
MODEL 6
REMARK VINA RESULT:      -3.5      1.746      2.379
REMARK  1 active torsions:
REMARK  status: ('A' for Active; 'I' for Inactive)
REMARK    1  A    between atoms: C4_4  and  C7_7 
ROOT
HETATM    1  C1  UNL     1     -38.211  14.891  -4.994  1.00 20.00     0.075 C 
HETATM    2  C2  UNL     1     -36.137  13.688  -5.563  1.00 20.00     0.105 C 
HETATM    3  C3  UNL     1     -36.975  14.939  -5.782  1.00 20.00     0.164 C 
HETATM    4  C4  UNL     1     -34.328  15.677  -5.728  1.00 20.00     0.113 C 
HETATM    5  N8  UNL     1     -39.190  14.852  -4.371  1.00 20.00    -0.196 NA
HETATM    6  S9  UNL     1     -34.534  13.980  -6.347  1.00 20.00    -0.151 SA
HETATM    7  S10 UNL     1     -35.960  16.383  -5.323  1.00 20.00    -0.133 SA
ENDROOT
BRANCH   4   8
HETATM    8  C7  UNL     1     -33.447  15.677  -4.485  1.00 20.00     0.001 C 
HETATM    9  C5  UNL     1     -34.255  16.068  -3.248  1.00 20.00     0.011 C 
HETATM   10  C6  UNL     1     -32.793  14.310  -4.286  1.00 20.00     0.011 C 
ENDBRANCH   4   8
TORSDOF 1
ENDMDL
MODEL 7
REMARK VINA RESULT:      -3.5      1.762      2.644
REMARK  1 active torsions:
REMARK  status: ('A' for Active; 'I' for Inactive)
REMARK    1  A    between atoms: C4_4  and  C7_7 
ROOT
HETATM    1  C1  UNL     1     -35.446  13.271  -6.274  1.00 20.00     0.075 C 
HETATM    2  C2  UNL     1     -36.613  15.262  -5.410  1.00 20.00     0.105 C 
HETATM    3  C3  UNL     1     -35.859  13.987  -5.062  1.00 20.00     0.164 C 
HETATM    4  C4  UNL     1     -35.123  15.936  -3.270  1.00 20.00     0.113 C 
HETATM    5  N8  UNL     1     -35.120  12.704  -7.233  1.00 20.00    -0.196 NA
HETATM    6  S9  UNL     1     -36.819  16.192  -3.873  1.00 20.00    -0.151 SA
HETATM    7  S10 UNL     1     -34.415  14.447  -4.048  1.00 20.00    -0.133 SA
ENDROOT
BRANCH   4   8
HETATM    8  C7  UNL     1     -34.263  17.148  -3.601  1.00 20.00     0.001 C 
HETATM    9  C5  UNL     1     -33.390  17.535  -2.407  1.00 20.00     0.011 C 
HETATM   10  C6  UNL     1     -33.396  16.877  -4.830  1.00 20.00     0.011 C 
ENDBRANCH   4   8
TORSDOF 1
ENDMDL
MODEL 8
REMARK VINA RESULT:      -3.4     10.869     11.576
REMARK  1 active torsions:
REMARK  status: ('A' for Active; 'I' for Inactive)
REMARK    1  A    between atoms: C4_4  and  C7_7 
ROOT
HETATM    1  C1  UNL     1     -32.454   9.467   1.458  1.00 20.00     0.075 C 
HETATM    2  C2  UNL     1     -33.574   7.276   1.589  1.00 20.00     0.105 C 
HETATM    3  C3  UNL     1     -32.343   8.093   1.958  1.00 20.00     0.164 C 
HETATM    4  C4  UNL     1     -32.938   6.437   4.069  1.00 20.00     0.113 C 
HETATM    5  N8  UNL     1     -32.541  10.555   1.062  1.00 20.00    -0.196 NA
HETATM    6  S9  UNL     1     -33.457   5.710   2.486  1.00 20.00    -0.151 SA
HETATM    7  S10 UNL     1     -32.173   8.066   3.772  1.00 20.00    -0.133 SA
ENDROOT
BRANCH   4   8
HETATM    8  C7  UNL     1     -34.140   6.595   4.991  1.00 20.00     0.001 C 
HETATM    9  C5  UNL     1     -34.637   5.230   5.469  1.00 20.00     0.011 C 
HETATM   10  C6  UNL     1     -33.796   7.486   6.183  1.00 20.00     0.011 C 
ENDBRANCH   4   8
TORSDOF 1
ENDMDL
MODEL 9
REMARK VINA RESULT:      -3.4      3.943      5.745
REMARK  1 active torsions:
REMARK  status: ('A' for Active; 'I' for Inactive)
REMARK    1  A    between atoms: C4_4  and  C7_7 
ROOT
HETATM    1  C1  UNL     1     -31.997  18.765   0.235  1.00 20.00     0.075 C 
HETATM    2  C2  UNL     1     -34.368  18.093   0.240  1.00 20.00     0.105 C 
HETATM    3  C3  UNL     1     -33.283  18.902  -0.456  1.00 20.00     0.164 C 
HETATM    4  C4  UNL     1     -34.903  17.801  -2.384  1.00 20.00     0.113 C 
HETATM    5  N8  UNL     1     -30.979  18.656   0.782  1.00 20.00    -0.196 NA
HETATM    6  S9  UNL     1     -35.817  18.108  -0.842  1.00 20.00    -0.151 SA
HETATM    7  S10 UNL     1     -33.167  18.321  -2.180  1.00 20.00    -0.133 SA
ENDROOT
BRANCH   4   8
HETATM    8  C7  UNL     1     -34.958  16.321  -2.737  1.00 20.00     0.001 C 
HETATM    9  C5  UNL     1     -36.232  15.998  -3.518  1.00 20.00     0.011 C 
HETATM   10  C6  UNL     1     -33.723  15.909  -3.537  1.00 20.00     0.011 C 
ENDBRANCH   4   8
TORSDOF 1
ENDMDL
