MODEL 1
REMARK VINA RESULT:      -4.7      0.000      0.000
REMARK  0 active torsions:
REMARK  status: ('A' for Active; 'I' for Inactive)
ROOT
HETATM    1  C1  UNL     1     -33.874   6.848   5.190  1.00 20.00     0.154 C 
HETATM    2  C2  UNL     1     -34.856   5.725   5.441  1.00 20.00     0.081 C 
HETATM    3  C3  UNL     1     -34.381   4.418   4.814  1.00 20.00     0.018 C 
HETATM    4  C4  UNL     1     -33.578   4.559   3.523  1.00 20.00     0.076 C 
HETATM    5  C5  UNL     1     -33.673   7.304   3.757  1.00 20.00     0.212 C 
HETATM    6  O6  UNL     1     -33.324   7.408   6.139  1.00 20.00    -0.295 OA
HETATM    7  S7  UNL     1     -34.079   6.008   2.554  1.00 20.00    -0.141 SA
HETATM    8 CL8  UNL     1     -31.986   7.830   3.552  1.00 20.00    -0.105 Cl
ENDROOT
TORSDOF 0
ENDMDL
MODEL 2
REMARK VINA RESULT:      -4.5      2.036      2.605
REMARK  0 active torsions:
REMARK  status: ('A' for Active; 'I' for Inactive)
ROOT
HETATM    1  C1  UNL     1     -33.039   7.127   3.609  1.00 20.00     0.154 C 
HETATM    2  C2  UNL     1     -33.612   7.948   4.742  1.00 20.00     0.081 C 
HETATM    3  C3  UNL     1     -33.876   7.090   5.975  1.00 20.00     0.018 C 
HETATM    4  C4  UNL     1     -34.278   5.643   5.697  1.00 20.00     0.076 C 
HETATM    5  C5  UNL     1     -33.921   6.055   2.996  1.00 20.00     0.212 C 
HETATM    6  O6  UNL     1     -31.920   7.388   3.164  1.00 20.00    -0.295 OA
HETATM    7  S7  UNL     1     -35.197   5.469   4.144  1.00 20.00    -0.141 SA
HETATM    8 CL8  UNL     1     -32.896   4.700   2.468  1.00 20.00    -0.105 Cl
ENDROOT
TORSDOF 0
ENDMDL
MODEL 3
REMARK VINA RESULT:      -3.7     13.038     13.725
REMARK  0 active torsions:
REMARK  status: ('A' for Active; 'I' for Inactive)
ROOT
HETATM    1  C1  UNL     1     -35.734  13.661  -5.960  1.00 20.00     0.154 C 
HETATM    2  C2  UNL     1     -35.512  13.466  -7.444  1.00 20.00     0.081 C 
HETATM    3  C3  UNL     1     -34.186  14.070  -7.893  1.00 20.00     0.018 C 
HETATM    4  C4  UNL     1     -33.738  15.316  -7.133  1.00 20.00     0.076 C 
HETATM    5  C5  UNL     1     -35.909  15.080  -5.453  1.00 20.00     0.212 C 
HETATM    6  O6  UNL     1     -35.841  12.682  -5.220  1.00 20.00    -0.295 OA
HETATM    7  S7  UNL     1     -35.139  16.307  -6.545  1.00 20.00    -0.141 SA
HETATM    8 CL8  UNL     1     -35.224  15.194  -3.815  1.00 20.00    -0.105 Cl
ENDROOT
TORSDOF 0
ENDMDL
MODEL 4
REMARK VINA RESULT:      -3.6      1.788      2.199
REMARK  0 active torsions:
REMARK  status: ('A' for Active; 'I' for Inactive)
ROOT
HETATM    1  C1  UNL     1     -34.385   5.363   4.917  1.00 20.00     0.154 C 
HETATM    2  C2  UNL     1     -34.404   4.559   3.636  1.00 20.00     0.081 C 
HETATM    3  C3  UNL     1     -33.136   4.781   2.818  1.00 20.00     0.018 C 
HETATM    4  C4  UNL     1     -32.517   6.172   2.928  1.00 20.00     0.076 C 
HETATM    5  C5  UNL     1     -34.411   6.875   4.802  1.00 20.00     0.212 C 
HETATM    6  O6  UNL     1     -34.423   4.787   6.006  1.00 20.00    -0.295 OA
HETATM    7  S7  UNL     1     -33.760   7.461   3.213  1.00 20.00    -0.141 SA
HETATM    8 CL8  UNL     1     -33.476   7.571   6.146  1.00 20.00    -0.105 Cl
ENDROOT
TORSDOF 0
ENDMDL
MODEL 5
REMARK VINA RESULT:      -3.6      2.739      3.613
REMARK  0 active torsions:
REMARK  status: ('A' for Active; 'I' for Inactive)
ROOT
HETATM    1  C1  UNL     1     -33.340   5.579   2.820  1.00 20.00     0.154 C 
HETATM    2  C2  UNL     1     -32.860   6.930   2.336  1.00 20.00     0.081 C 
HETATM    3  C3  UNL     1     -32.224   7.733   3.466  1.00 20.00     0.018 C 
HETATM    4  C4  UNL     1     -32.814   7.498   4.855  1.00 20.00     0.076 C 
HETATM    5  C5  UNL     1     -34.472   5.551   3.828  1.00 20.00     0.212 C 
HETATM    6  O6  UNL     1     -32.863   4.549   2.340  1.00 20.00    -0.295 OA
HETATM    7  S7  UNL     1     -34.578   7.083   4.794  1.00 20.00    -0.141 SA
HETATM    8 CL8  UNL     1     -34.246   4.155   4.908  1.00 20.00    -0.105 Cl
ENDROOT
TORSDOF 0
ENDMDL
MODEL 6
REMARK VINA RESULT:      -3.6     12.588     13.369
REMARK  0 active torsions:
REMARK  status: ('A' for Active; 'I' for Inactive)
ROOT
HETATM    1  C1  UNL     1     -35.102  13.649  -5.324  1.00 20.00     0.154 C 
HETATM    2  C2  UNL     1     -34.484  14.214  -4.065  1.00 20.00     0.081 C 
HETATM    3  C3  UNL     1     -34.795  15.699  -3.909  1.00 20.00     0.018 C 
HETATM    4  C4  UNL     1     -34.919  16.487  -5.211  1.00 20.00     0.076 C 
HETATM    5  C5  UNL     1     -34.589  14.163  -6.656  1.00 20.00     0.212 C 
HETATM    6  O6  UNL     1     -35.939  12.747  -5.247  1.00 20.00    -0.295 OA
HETATM    7  S7  UNL     1     -33.862  15.820  -6.525  1.00 20.00    -0.141 SA
HETATM    8 CL8  UNL     1     -35.929  14.168  -7.825  1.00 20.00    -0.105 Cl
ENDROOT
TORSDOF 0
ENDMDL
MODEL 7
REMARK VINA RESULT:      -3.6     12.712     13.086
REMARK  0 active torsions:
REMARK  status: ('A' for Active; 'I' for Inactive)
ROOT
HETATM    1  C1  UNL     1     -35.690  13.911  -5.177  1.00 20.00     0.154 C 
HETATM    2  C2  UNL     1     -34.326  14.428  -4.775  1.00 20.00     0.081 C 
HETATM    3  C3  UNL     1     -34.410  15.329  -3.548  1.00 20.00     0.018 C 
HETATM    4  C4  UNL     1     -35.691  16.150  -3.419  1.00 20.00     0.076 C 
HETATM    5  C5  UNL     1     -36.713  14.920  -5.664  1.00 20.00     0.212 C 
HETATM    6  O6  UNL     1     -35.916  12.700  -5.171  1.00 20.00    -0.295 OA
HETATM    7  S7  UNL     1     -36.393  16.591  -5.032  1.00 20.00    -0.141 SA
HETATM    8 CL8  UNL     1     -38.335  14.377  -5.179  1.00 20.00    -0.105 Cl
ENDROOT
TORSDOF 0
ENDMDL
MODEL 8
REMARK VINA RESULT:      -3.5     12.569     13.475
REMARK  0 active torsions:
REMARK  status: ('A' for Active; 'I' for Inactive)
ROOT
HETATM    1  C1  UNL     1     -36.092  13.844  -5.240  1.00 20.00     0.154 C 
HETATM    2  C2  UNL     1     -37.237  14.382  -6.069  1.00 20.00     0.081 C 
HETATM    3  C3  UNL     1     -36.741  15.331  -7.156  1.00 20.00     0.018 C 
HETATM    4  C4  UNL     1     -35.503  16.151  -6.800  1.00 20.00     0.076 C 
HETATM    5  C5  UNL     1     -35.312  14.828  -4.389  1.00 20.00     0.212 C 
HETATM    6  O6  UNL     1     -35.867  12.633  -5.214  1.00 20.00    -0.295 OA
HETATM    7  S7  UNL     1     -35.409  16.524  -5.028  1.00 20.00    -0.141 SA
HETATM    8 CL8  UNL     1     -33.616  14.297  -4.303  1.00 20.00    -0.105 Cl
ENDROOT
TORSDOF 0
ENDMDL
MODEL 9
REMARK VINA RESULT:      -3.4     12.471     12.794
REMARK  0 active torsions:
REMARK  status: ('A' for Active; 'I' for Inactive)
ROOT
HETATM    1  C1  UNL     1     -34.001  14.705  -4.358  1.00 20.00     0.154 C 
HETATM    2  C2  UNL     1     -33.539  15.947  -3.629  1.00 20.00     0.081 C 
HETATM    3  C3  UNL     1     -34.613  16.470  -2.682  1.00 20.00     0.018 C 
HETATM    4  C4  UNL     1     -36.055  16.249  -3.134  1.00 20.00     0.076 C 
HETATM    5  C5  UNL     1     -35.158  14.846  -5.330  1.00 20.00     0.212 C 
HETATM    6  O6  UNL     1     -33.396  13.642  -4.210  1.00 20.00    -0.295 OA
HETATM    7  S7  UNL     1     -36.222  16.263  -4.939  1.00 20.00    -0.141 SA
HETATM    8 CL8  UNL     1     -36.106  13.341  -5.318  1.00 20.00    -0.105 Cl
ENDROOT
TORSDOF 0
ENDMDL
