MODEL 1
REMARK VINA RESULT:      -5.5      0.000      0.000
REMARK  0 active torsions:
REMARK  status: ('A' for Active; 'I' for Inactive)
ROOT
HETATM    1  C1  UNL     1     -33.007   4.932   2.758  1.00 20.00     0.050 C 
HETATM    2  C2  UNL     1     -32.516   6.133   2.436  1.00 20.00    -0.014 C 
HETATM    3  C3  UNL     1     -33.940   4.774   3.900  1.00 20.00     0.188 C 
HETATM    4  C4  UNL     1     -33.348   7.110   4.601  1.00 20.00     0.064 C 
HETATM    5  C5  UNL     1     -32.788   7.415   3.191  1.00 20.00    -0.026 C 
HETATM    6  C6  UNL     1     -34.434   6.029   4.607  1.00 20.00     0.164 C 
HETATM    7  C7  UNL     1     -33.766   8.275   2.372  1.00 20.00     0.019 C 
HETATM    8  C8  UNL     1     -31.470   8.198   3.351  1.00 20.00     0.019 C 
HETATM    9  C9  UNL     1     -34.858   5.712   6.038  1.00 20.00     0.060 C 
HETATM   10  O10 UNL     1     -34.339   3.647   4.192  1.00 20.00    -0.290 OA
HETATM   11  F11 UNL     1     -35.536   6.512   3.964  1.00 20.00    -0.235 F 
ENDROOT
TORSDOF 0
ENDMDL
MODEL 2
REMARK VINA RESULT:      -5.5      2.142      3.831
REMARK  0 active torsions:
REMARK  status: ('A' for Active; 'I' for Inactive)
ROOT
HETATM    1  C1  UNL     1     -33.476   7.251   5.901  1.00 20.00     0.050 C 
HETATM    2  C2  UNL     1     -34.250   6.206   5.591  1.00 20.00    -0.014 C 
HETATM    3  C3  UNL     1     -32.682   7.944   4.858  1.00 20.00     0.188 C 
HETATM    4  C4  UNL     1     -33.189   6.030   3.316  1.00 20.00     0.064 C 
HETATM    5  C5  UNL     1     -34.368   5.588   4.215  1.00 20.00    -0.026 C 
HETATM    6  C6  UNL     1     -32.878   7.528   3.406  1.00 20.00     0.164 C 
HETATM    7  C7  UNL     1     -35.722   5.992   3.605  1.00 20.00     0.019 C 
HETATM    8  C8  UNL     1     -34.331   4.053   4.344  1.00 20.00     0.019 C 
HETATM    9  C9  UNL     1     -31.643   7.864   2.576  1.00 20.00     0.060 C 
HETATM   10  O10 UNL     1     -31.949   8.876   5.188  1.00 20.00    -0.290 OA
HETATM   11  F11 UNL     1     -33.920   8.225   2.868  1.00 20.00    -0.235 F 
ENDROOT
TORSDOF 0
ENDMDL
MODEL 3
REMARK VINA RESULT:      -5.0     11.583     12.389
REMARK  0 active torsions:
REMARK  status: ('A' for Active; 'I' for Inactive)
ROOT
HETATM    1  C1  UNL     1     -34.293  14.008  -4.240  1.00 20.00     0.050 C 
HETATM    2  C2  UNL     1     -33.942  15.157  -3.653  1.00 20.00    -0.014 C 
HETATM    3  C3  UNL     1     -35.647  13.832  -4.818  1.00 20.00     0.188 C 
HETATM    4  C4  UNL     1     -36.336  15.936  -3.636  1.00 20.00     0.064 C 
HETATM    5  C5  UNL     1     -34.855  16.348  -3.459  1.00 20.00    -0.026 C 
HETATM    6  C6  UNL     1     -36.579  15.036  -4.852  1.00 20.00     0.164 C 
HETATM    7  C7  UNL     1     -34.454  17.447  -4.458  1.00 20.00     0.019 C 
HETATM    8  C8  UNL     1     -34.672  16.899  -2.032  1.00 20.00     0.019 C 
HETATM    9  C9  UNL     1     -38.037  14.589  -4.898  1.00 20.00     0.060 C 
HETATM   10  O10 UNL     1     -35.946  12.747  -5.315  1.00 20.00    -0.290 OA
HETATM   11  F11 UNL     1     -36.349  15.759  -5.986  1.00 20.00    -0.235 F 
ENDROOT
TORSDOF 0
ENDMDL
MODEL 4
REMARK VINA RESULT:      -4.3     12.189     13.620
REMARK  0 active torsions:
REMARK  status: ('A' for Active; 'I' for Inactive)
ROOT
HETATM    1  C1  UNL     1     -35.815  13.679  -4.986  1.00 20.00     0.050 C 
HETATM    2  C2  UNL     1     -34.647  14.068  -5.507  1.00 20.00    -0.014 C 
HETATM    3  C3  UNL     1     -37.098  14.155  -5.557  1.00 20.00     0.188 C 
HETATM    4  C4  UNL     1     -35.790  15.846  -6.873  1.00 20.00     0.064 C 
HETATM    5  C5  UNL     1     -34.487  15.041  -6.654  1.00 20.00    -0.026 C 
HETATM    6  C6  UNL     1     -37.056  14.982  -6.836  1.00 20.00     0.164 C 
HETATM    7  C7  UNL     1     -34.091  14.258  -7.917  1.00 20.00     0.019 C 
HETATM    8  C8  UNL     1     -33.355  16.033  -6.322  1.00 20.00     0.019 C 
HETATM    9  C9  UNL     1     -38.299  15.858  -6.954  1.00 20.00     0.060 C 
HETATM   10  O10 UNL     1     -38.152  13.808  -5.026  1.00 20.00    -0.290 OA
HETATM   11  F11 UNL     1     -37.051  14.151  -7.917  1.00 20.00    -0.235 F 
ENDROOT
TORSDOF 0
ENDMDL
MODEL 5
REMARK VINA RESULT:      -4.3     12.074     12.802
REMARK  0 active torsions:
REMARK  status: ('A' for Active; 'I' for Inactive)
ROOT
HETATM    1  C1  UNL     1     -37.182  15.887  -3.991  1.00 20.00     0.050 C 
HETATM    2  C2  UNL     1     -36.178  16.747  -3.787  1.00 20.00    -0.014 C 
HETATM    3  C3  UNL     1     -36.960  14.625  -4.736  1.00 20.00     0.188 C 
HETATM    4  C4  UNL     1     -34.733  15.533  -5.452  1.00 20.00     0.064 C 
HETATM    5  C5  UNL     1     -34.770  16.582  -4.315  1.00 20.00    -0.026 C 
HETATM    6  C6  UNL     1     -35.537  14.266  -5.141  1.00 20.00     0.164 C 
HETATM    7  C7  UNL     1     -33.849  16.180  -3.150  1.00 20.00     0.019 C 
HETATM    8  C8  UNL     1     -34.280  17.928  -4.881  1.00 20.00     0.019 C 
HETATM    9  C9  UNL     1     -35.538  13.330  -6.346  1.00 20.00     0.060 C 
HETATM   10  O10 UNL     1     -37.917  13.877  -4.938  1.00 20.00    -0.290 OA
HETATM   11  F11 UNL     1     -34.926  13.598  -4.120  1.00 20.00    -0.235 F 
ENDROOT
TORSDOF 0
ENDMDL
MODEL 6
REMARK VINA RESULT:      -4.2     12.144     13.283
REMARK  0 active torsions:
REMARK  status: ('A' for Active; 'I' for Inactive)
ROOT
HETATM    1  C1  UNL     1     -36.224  14.889  -4.282  1.00 20.00     0.050 C 
HETATM    2  C2  UNL     1     -35.891  16.184  -4.296  1.00 20.00    -0.014 C 
HETATM    3  C3  UNL     1     -35.615  13.938  -5.244  1.00 20.00     0.188 C 
HETATM    4  C4  UNL     1     -34.733  15.915  -6.514  1.00 20.00     0.064 C 
HETATM    5  C5  UNL     1     -34.943  16.828  -5.283  1.00 20.00    -0.026 C 
HETATM    6  C6  UNL     1     -34.502  14.444  -6.152  1.00 20.00     0.164 C 
HETATM    7  C7  UNL     1     -33.612  17.125  -4.570  1.00 20.00     0.019 C 
HETATM    8  C8  UNL     1     -35.543  18.162  -5.766  1.00 20.00     0.019 C 
HETATM    9  C9  UNL     1     -34.408  13.594  -7.416  1.00 20.00     0.060 C 
HETATM   10  O10 UNL     1     -35.975  12.762  -5.227  1.00 20.00    -0.290 OA
HETATM   11  F11 UNL     1     -33.303  14.333  -5.509  1.00 20.00    -0.235 F 
ENDROOT
TORSDOF 0
ENDMDL
MODEL 7
REMARK VINA RESULT:      -4.2     11.963     13.241
REMARK  0 active torsions:
REMARK  status: ('A' for Active; 'I' for Inactive)
ROOT
HETATM    1  C1  UNL     1     -35.077  13.935  -4.604  1.00 20.00     0.050 C 
HETATM    2  C2  UNL     1     -35.249  14.922  -3.718  1.00 20.00    -0.014 C 
HETATM    3  C3  UNL     1     -34.458  14.200  -5.925  1.00 20.00     0.188 C 
HETATM    4  C4  UNL     1     -34.727  16.653  -5.470  1.00 20.00     0.064 C 
HETATM    5  C5  UNL     1     -34.905  16.376  -3.957  1.00 20.00    -0.026 C 
HETATM    6  C6  UNL     1     -33.895  15.589  -6.193  1.00 20.00     0.164 C 
HETATM    7  C7  UNL     1     -33.628  16.719  -3.170  1.00 20.00     0.019 C 
HETATM    8  C8  UNL     1     -36.051  17.261  -3.433  1.00 20.00     0.019 C 
HETATM    9  C9  UNL     1     -33.854  15.876  -7.691  1.00 20.00     0.060 C 
HETATM   10  O10 UNL     1     -34.353  13.275  -6.729  1.00 20.00    -0.290 OA
HETATM   11  F11 UNL     1     -32.610  15.656  -5.741  1.00 20.00    -0.235 F 
ENDROOT
TORSDOF 0
ENDMDL
MODEL 8
REMARK VINA RESULT:      -4.1     12.187     13.283
REMARK  0 active torsions:
REMARK  status: ('A' for Active; 'I' for Inactive)
ROOT
HETATM    1  C1  UNL     1     -34.691  17.149  -5.708  1.00 20.00     0.050 C 
HETATM    2  C2  UNL     1     -35.593  16.162  -5.694  1.00 20.00    -0.014 C 
HETATM    3  C3  UNL     1     -33.863  17.438  -4.512  1.00 20.00     0.188 C 
HETATM    4  C4  UNL     1     -35.386  15.940  -3.196  1.00 20.00     0.064 C 
HETATM    5  C5  UNL     1     -35.912  15.291  -4.499  1.00 20.00    -0.026 C 
HETATM    6  C6  UNL     1     -33.964  16.496  -3.320  1.00 20.00     0.164 C 
HETATM    7  C7  UNL     1     -35.297  13.899  -4.722  1.00 20.00     0.019 C 
HETATM    8  C8  UNL     1     -37.440  15.134  -4.380  1.00 20.00     0.019 C 
HETATM    9  C9  UNL     1     -33.559  17.208  -2.033  1.00 20.00     0.060 C 
HETATM   10  O10 UNL     1     -33.072  18.380  -4.549  1.00 20.00    -0.290 OA
HETATM   11  F11 UNL     1     -33.099  15.454  -3.487  1.00 20.00    -0.235 F 
ENDROOT
TORSDOF 0
ENDMDL
MODEL 9
REMARK VINA RESULT:      -4.1     12.277     13.200
REMARK  0 active torsions:
REMARK  status: ('A' for Active; 'I' for Inactive)
ROOT
HETATM    1  C1  UNL     1     -35.120  18.219  -4.462  1.00 20.00     0.050 C 
HETATM    2  C2  UNL     1     -34.754  18.401  -3.188  1.00 20.00    -0.014 C 
HETATM    3  C3  UNL     1     -35.061  16.875  -5.084  1.00 20.00     0.188 C 
HETATM    4  C4  UNL     1     -33.727  16.105  -3.103  1.00 20.00     0.064 C 
HETATM    5  C5  UNL     1     -34.205  17.324  -2.279  1.00 20.00    -0.026 C 
HETATM    6  C6  UNL     1     -34.710  15.685  -4.200  1.00 20.00     0.164 C 
HETATM    7  C7  UNL     1     -35.294  16.927  -1.268  1.00 20.00     0.019 C 
HETATM    8  C8  UNL     1     -33.000  17.886  -1.499  1.00 20.00     0.019 C 
HETATM    9  C9  UNL     1     -34.123  14.549  -5.032  1.00 20.00     0.060 C 
HETATM   10  O10 UNL     1     -35.367  16.753  -6.270  1.00 20.00    -0.290 OA
HETATM   11  F11 UNL     1     -35.843  15.203  -3.613  1.00 20.00    -0.235 F 
ENDROOT
TORSDOF 0
ENDMDL
