MODEL 1
REMARK VINA RESULT:      -5.4      0.000      0.000
REMARK  1 active torsions:
REMARK  status: ('A' for Active; 'I' for Inactive)
REMARK    1  A    between atoms: C3_3  and  C8_8 
ROOT
HETATM    1  C1  UNL     1     -34.135   4.834   4.039  1.00 20.00     0.145 C 
HETATM    2  C4  UNL     1     -33.681   4.798   2.594  1.00 20.00     0.080 C 
HETATM    3  C5  UNL     1     -32.618   5.859   2.336  1.00 20.00     0.016 C 
HETATM    4  C6  UNL     1     -33.455   7.233   4.276  1.00 20.00     0.036 C 
HETATM    5  C7  UNL     1     -34.542   6.200   4.564  1.00 20.00     0.152 C 
HETATM    6  C8  UNL     1     -33.083   7.251   2.786  1.00 20.00     0.009 C 
HETATM    7  O9  UNL     1     -34.249   3.794   4.686  1.00 20.00    -0.296 OA
HETATM    8 CL10 UNL     1     -34.846   6.110   6.315  1.00 20.00    -0.117 Cl
ENDROOT
BRANCH   6   9
HETATM    9  C3  UNL     1     -32.026   8.279   2.523  1.00 20.00    -0.032 C 
HETATM   10  C2  UNL     1     -31.837   8.872   1.339  1.00 20.00     0.007 C 
ENDBRANCH   6   9
TORSDOF 1
ENDMDL
MODEL 2
REMARK VINA RESULT:      -4.7      1.898      2.762
REMARK  1 active torsions:
REMARK  status: ('A' for Active; 'I' for Inactive)
REMARK    1  A    between atoms: C3_3  and  C8_8 
ROOT
HETATM    1  C1  UNL     1     -33.072   7.428   4.605  1.00 20.00     0.145 C 
HETATM    2  C4  UNL     1     -31.808   8.246   4.445  1.00 20.00     0.080 C 
HETATM    3  C5  UNL     1     -31.841   9.041   3.145  1.00 20.00     0.016 C 
HETATM    4  C6  UNL     1     -33.463   7.401   2.132  1.00 20.00     0.036 C 
HETATM    5  C7  UNL     1     -33.452   6.569   3.412  1.00 20.00     0.152 C 
HETATM    6  C8  UNL     1     -32.132   8.141   1.936  1.00 20.00     0.009 C 
HETATM    7  O9  UNL     1     -33.673   7.407   5.679  1.00 20.00    -0.296 OA
HETATM    8 CL10 UNL     1     -35.054   5.839   3.676  1.00 20.00    -0.117 Cl
ENDROOT
BRANCH   6   9
HETATM    9  C3  UNL     1     -32.158   8.940   0.669  1.00 20.00    -0.032 C 
HETATM   10  C2  UNL     1     -32.556  10.215   0.596  1.00 20.00     0.007 C 
ENDBRANCH   6   9
TORSDOF 1
ENDMDL
MODEL 3
REMARK VINA RESULT:      -4.6     11.567     11.992
REMARK  1 active torsions:
REMARK  status: ('A' for Active; 'I' for Inactive)
REMARK    1  A    between atoms: C3_3  and  C8_8 
ROOT
HETATM    1  C1  UNL     1     -35.481  13.927  -5.012  1.00 20.00     0.145 C 
HETATM    2  C4  UNL     1     -33.982  14.142  -5.044  1.00 20.00     0.080 C 
HETATM    3  C5  UNL     1     -33.520  14.904  -3.808  1.00 20.00     0.016 C 
HETATM    4  C6  UNL     1     -35.813  15.907  -3.515  1.00 20.00     0.036 C 
HETATM    5  C7  UNL     1     -36.315  15.169  -4.754  1.00 20.00     0.152 C 
HETATM    6  C8  UNL     1     -34.309  16.206  -3.615  1.00 20.00     0.009 C 
HETATM    7  O9  UNL     1     -35.962  12.827  -5.280  1.00 20.00    -0.296 OA
HETATM    8 CL10 UNL     1     -38.024  14.719  -4.542  1.00 20.00    -0.117 Cl
ENDROOT
BRANCH   6   9
HETATM    9  C3  UNL     1     -33.840  16.941  -2.397  1.00 20.00    -0.032 C 
HETATM   10  C2  UNL     1     -34.581  17.119  -1.298  1.00 20.00     0.007 C 
ENDBRANCH   6   9
TORSDOF 1
ENDMDL
MODEL 4
REMARK VINA RESULT:      -4.6      2.912      4.431
REMARK  1 active torsions:
REMARK  status: ('A' for Active; 'I' for Inactive)
REMARK    1  A    between atoms: C3_3  and  C8_8 
ROOT
HETATM    1  C1  UNL     1     -32.168   8.231   4.054  1.00 20.00     0.145 C 
HETATM    2  C4  UNL     1     -32.941   8.032   5.341  1.00 20.00     0.080 C 
HETATM    3  C5  UNL     1     -33.560   6.641   5.389  1.00 20.00     0.016 C 
HETATM    4  C6  UNL     1     -33.531   6.494   2.873  1.00 20.00     0.036 C 
HETATM    5  C7  UNL     1     -32.919   7.889   2.779  1.00 20.00     0.152 C 
HETATM    6  C8  UNL     1     -34.396   6.347   4.134  1.00 20.00     0.009 C 
HETATM    7  O9  UNL     1     -31.044   8.732   4.070  1.00 20.00    -0.296 OA
HETATM    8 CL10 UNL     1     -31.817   7.977   1.385  1.00 20.00    -0.117 Cl
ENDROOT
BRANCH   6   9
HETATM    9  C3  UNL     1     -34.997   4.977   4.201  1.00 20.00    -0.032 C 
HETATM   10  C2  UNL     1     -34.322   3.880   4.561  1.00 20.00     0.007 C 
ENDBRANCH   6   9
TORSDOF 1
ENDMDL
MODEL 5
REMARK VINA RESULT:      -4.5      1.539      2.290
REMARK  1 active torsions:
REMARK  status: ('A' for Active; 'I' for Inactive)
REMARK    1  A    between atoms: C3_3  and  C8_8 
ROOT
HETATM    1  C1  UNL     1     -34.099   6.109   5.298  1.00 20.00     0.145 C 
HETATM    2  C4  UNL     1     -33.488   7.484   5.473  1.00 20.00     0.080 C 
HETATM    3  C5  UNL     1     -33.340   8.184   4.127  1.00 20.00     0.016 C 
HETATM    4  C6  UNL     1     -33.299   5.967   2.930  1.00 20.00     0.036 C 
HETATM    5  C7  UNL     1     -33.436   5.225   4.257  1.00 20.00     0.152 C 
HETATM    6  C8  UNL     1     -32.583   7.314   3.115  1.00 20.00     0.009 C 
HETATM    7  O9  UNL     1     -35.009   5.730   6.035  1.00 20.00    -0.296 OA
HETATM    8 CL10 UNL     1     -34.389   3.740   4.027  1.00 20.00    -0.117 Cl
ENDROOT
BRANCH   6   9
HETATM    9  C3  UNL     1     -32.446   8.019   1.800  1.00 20.00    -0.032 C 
HETATM   10  C2  UNL     1     -32.279   9.339   1.673  1.00 20.00     0.007 C 
ENDBRANCH   6   9
TORSDOF 1
ENDMDL
MODEL 6
REMARK VINA RESULT:      -4.3     12.058     12.491
REMARK  1 active torsions:
REMARK  status: ('A' for Active; 'I' for Inactive)
REMARK    1  A    between atoms: C3_3  and  C8_8 
ROOT
HETATM    1  C1  UNL     1     -34.466  14.489  -5.712  1.00 20.00     0.145 C 
HETATM    2  C4  UNL     1     -33.271  15.188  -5.098  1.00 20.00     0.080 C 
HETATM    3  C5  UNL     1     -33.532  15.518  -3.634  1.00 20.00     0.016 C 
HETATM    4  C6  UNL     1     -36.021  15.498  -4.028  1.00 20.00     0.036 C 
HETATM    5  C7  UNL     1     -35.804  15.177  -5.505  1.00 20.00     0.152 C 
HETATM    6  C8  UNL     1     -34.843  16.297  -3.452  1.00 20.00     0.009 C 
HETATM    7  O9  UNL     1     -34.316  13.487  -6.410  1.00 20.00    -0.296 OA
HETATM    8 CL10 UNL     1     -37.119  14.135  -6.100  1.00 20.00    -0.117 Cl
ENDROOT
BRANCH   6   9
HETATM    9  C3  UNL     1     -35.081  16.614  -2.008  1.00 20.00    -0.032 C 
HETATM   10  C2  UNL     1     -34.228  17.303  -1.242  1.00 20.00     0.007 C 
ENDBRANCH   6   9
TORSDOF 1
ENDMDL
MODEL 7
REMARK VINA RESULT:      -4.2     11.944     12.515
REMARK  1 active torsions:
REMARK  status: ('A' for Active; 'I' for Inactive)
REMARK    1  A    between atoms: C3_3  and  C8_8 
ROOT
HETATM    1  C1  UNL     1     -34.432  18.210   0.583  1.00 20.00     0.145 C 
HETATM    2  C4  UNL     1     -35.647  17.763  -0.202  1.00 20.00     0.080 C 
HETATM    3  C5  UNL     1     -35.245  16.811  -1.323  1.00 20.00     0.016 C 
HETATM    4  C6  UNL     1     -32.915  17.771  -1.360  1.00 20.00     0.036 C 
HETATM    5  C7  UNL     1     -33.279  18.748  -0.245  1.00 20.00     0.152 C 
HETATM    6  C8  UNL     1     -34.143  17.411  -2.209  1.00 20.00     0.009 C 
HETATM    7  O9  UNL     1     -34.450  18.217   1.814  1.00 20.00    -0.296 OA
HETATM    8 CL10 UNL     1     -31.865  19.033   0.799  1.00 20.00    -0.117 Cl
ENDROOT
BRANCH   6   9
HETATM    9  C3  UNL     1     -33.763  16.463  -3.304  1.00 20.00    -0.032 C 
HETATM   10  C2  UNL     1     -34.477  15.383  -3.641  1.00 20.00     0.007 C 
ENDBRANCH   6   9
TORSDOF 1
ENDMDL
MODEL 8
REMARK VINA RESULT:      -4.2     11.755     12.373
REMARK  1 active torsions:
REMARK  status: ('A' for Active; 'I' for Inactive)
REMARK    1  A    between atoms: C3_3  and  C8_8 
ROOT
HETATM    1  C1  UNL     1     -37.074  14.535  -4.890  1.00 20.00     0.145 C 
HETATM    2  C4  UNL     1     -35.661  14.053  -5.142  1.00 20.00     0.080 C 
HETATM    3  C5  UNL     1     -34.730  14.504  -4.023  1.00 20.00     0.016 C 
HETATM    4  C6  UNL     1     -36.261  16.425  -3.464  1.00 20.00     0.036 C 
HETATM    5  C7  UNL     1     -37.217  16.014  -4.582  1.00 20.00     0.152 C 
HETATM    6  C8  UNL     1     -34.816  16.018  -3.788  1.00 20.00     0.009 C 
HETATM    7  O9  UNL     1     -38.030  13.773  -5.032  1.00 20.00    -0.296 OA
HETATM    8 CL10 UNL     1     -38.894  16.377  -4.110  1.00 20.00    -0.117 Cl
ENDROOT
BRANCH   6   9
HETATM    9  C3  UNL     1     -33.893  16.442  -2.687  1.00 20.00    -0.032 C 
HETATM   10  C2  UNL     1     -34.299  17.021  -1.552  1.00 20.00     0.007 C 
ENDBRANCH   6   9
TORSDOF 1
ENDMDL
MODEL 9
REMARK VINA RESULT:      -4.1     12.086     12.576
REMARK  1 active torsions:
REMARK  status: ('A' for Active; 'I' for Inactive)
REMARK    1  A    between atoms: C3_3  and  C8_8 
ROOT
HETATM    1  C1  UNL     1     -33.756  18.489   1.886  1.00 20.00     0.145 C 
HETATM    2  C4  UNL     1     -35.266  18.369   1.887  1.00 20.00     0.080 C 
HETATM    3  C5  UNL     1     -35.736  17.468   0.751  1.00 20.00     0.016 C 
HETATM    4  C6  UNL     1     -33.634  17.943  -0.555  1.00 20.00     0.036 C 
HETATM    5  C7  UNL     1     -33.129  18.862   0.555  1.00 20.00     0.152 C 
HETATM    6  C8  UNL     1     -35.169  17.918  -0.603  1.00 20.00     0.009 C 
HETATM    7  O9  UNL     1     -33.119  18.381   2.933  1.00 20.00    -0.296 OA
HETATM    8 CL10 UNL     1     -31.356  18.760   0.670  1.00 20.00    -0.117 Cl
ENDROOT
BRANCH   6   9
HETATM    9  C3  UNL     1     -35.643  17.022  -1.705  1.00 20.00    -0.032 C 
HETATM   10  C2  UNL     1     -34.832  16.422  -2.584  1.00 20.00     0.007 C 
ENDBRANCH   6   9
TORSDOF 1
ENDMDL
