MODEL 1
REMARK VINA RESULT:      -5.1      0.000      0.000
REMARK  1 active torsions:
REMARK  status: ('A' for Active; 'I' for Inactive)
REMARK    1  A    between atoms: C7_7  and  C10_10 
ROOT
HETATM    1  C1  UNL     1     -34.156   7.039   5.341  1.00 20.00     0.011 C 
HETATM    2  C2  UNL     1     -33.858   7.954   4.409  1.00 20.00    -0.020 C 
HETATM    3  C3  UNL     1     -34.192   5.625   5.046  1.00 20.00     0.000 C 
HETATM    4  C4  UNL     1     -34.026   5.181   3.625  1.00 20.00     0.159 C 
HETATM    5  C5  UNL     1     -34.393   4.694   5.988  1.00 20.00     0.027 C 
HETATM    6  C6  UNL     1     -34.162   6.254   2.561  1.00 20.00     0.092 C 
HETATM    7  C7  UNL     1     -33.558   7.604   2.975  1.00 20.00     0.019 C 
HETATM    8  O11 UNL     1     -33.856   4.002   3.321  1.00 20.00    -0.292 OA
ENDROOT
BRANCH   7   9
HETATM    9  C10 UNL     1     -32.046   7.636   2.738  1.00 20.00    -0.015 C 
HETATM   10  C8  UNL     1     -31.726   8.359   1.433  1.00 20.00     0.010 C 
HETATM   11  C9  UNL     1     -31.336   8.303   3.911  1.00 20.00     0.010 C 
ENDBRANCH   7   9
TORSDOF 1
ENDMDL
MODEL 2
REMARK VINA RESULT:      -5.0      1.754      3.913
REMARK  1 active torsions:
REMARK  status: ('A' for Active; 'I' for Inactive)
REMARK    1  A    between atoms: C7_7  and  C10_10 
ROOT
HETATM    1  C1  UNL     1     -33.050   6.751   2.362  1.00 20.00     0.011 C 
HETATM    2  C2  UNL     1     -34.166   6.014   2.444  1.00 20.00    -0.020 C 
HETATM    3  C3  UNL     1     -32.518   7.467   3.498  1.00 20.00     0.000 C 
HETATM    4  C4  UNL     1     -33.313   7.498   4.768  1.00 20.00     0.159 C 
HETATM    5  C5  UNL     1     -31.353   8.127   3.456  1.00 20.00     0.027 C 
HETATM    6  C6  UNL     1     -34.762   7.057   4.669  1.00 20.00     0.092 C 
HETATM    7  C7  UNL     1     -34.978   5.881   3.706  1.00 20.00     0.019 C 
HETATM    8  O11 UNL     1     -32.847   7.920   5.824  1.00 20.00    -0.292 OA
ENDROOT
BRANCH   7   9
HETATM    9  C10 UNL     1     -34.672   4.543   4.382  1.00 20.00    -0.015 C 
HETATM   10  C8  UNL     1     -33.458   3.884   3.735  1.00 20.00     0.010 C 
HETATM   11  C9  UNL     1     -34.446   4.740   5.877  1.00 20.00     0.010 C 
ENDBRANCH   7   9
TORSDOF 1
ENDMDL
MODEL 3
REMARK VINA RESULT:      -4.9      1.840      2.809
REMARK  1 active torsions:
REMARK  status: ('A' for Active; 'I' for Inactive)
REMARK    1  A    between atoms: C7_7  and  C10_10 
ROOT
HETATM    1  C1  UNL     1     -33.640   5.833   2.639  1.00 20.00     0.011 C 
HETATM    2  C2  UNL     1     -32.815   6.549   1.863  1.00 20.00    -0.020 C 
HETATM    3  C3  UNL     1     -33.987   6.249   3.978  1.00 20.00     0.000 C 
HETATM    4  C4  UNL     1     -33.298   7.442   4.565  1.00 20.00     0.159 C 
HETATM    5  C5  UNL     1     -34.886   5.596   4.728  1.00 20.00     0.027 C 
HETATM    6  C6  UNL     1     -32.054   7.928   3.843  1.00 20.00     0.092 C 
HETATM    7  C7  UNL     1     -32.159   7.828   2.314  1.00 20.00     0.019 C 
HETATM    8  O11 UNL     1     -33.670   7.967   5.613  1.00 20.00    -0.292 OA
ENDROOT
BRANCH   7   9
HETATM    9  C10 UNL     1     -32.904   9.029   1.726  1.00 20.00    -0.015 C 
HETATM   10  C8  UNL     1     -32.330  10.333   2.273  1.00 20.00     0.010 C 
HETATM   11  C9  UNL     1     -32.833   9.007   0.203  1.00 20.00     0.010 C 
ENDBRANCH   7   9
TORSDOF 1
ENDMDL
MODEL 4
REMARK VINA RESULT:      -4.9     11.073     12.670
REMARK  1 active torsions:
REMARK  status: ('A' for Active; 'I' for Inactive)
REMARK    1  A    between atoms: C7_7  and  C10_10 
ROOT
HETATM    1  C1  UNL     1     -33.682  15.375  -6.555  1.00 20.00     0.011 C 
HETATM    2  C2  UNL     1     -33.338  16.002  -5.423  1.00 20.00    -0.020 C 
HETATM    3  C3  UNL     1     -34.589  14.251  -6.566  1.00 20.00     0.000 C 
HETATM    4  C4  UNL     1     -35.050  13.684  -5.258  1.00 20.00     0.159 C 
HETATM    5  C5  UNL     1     -35.017  13.677  -7.699  1.00 20.00     0.027 C 
HETATM    6  C6  UNL     1     -34.279  14.116  -4.024  1.00 20.00     0.092 C 
HETATM    7  C7  UNL     1     -33.839  15.587  -4.064  1.00 20.00     0.019 C 
HETATM    8  O11 UNL     1     -35.960  12.860  -5.183  1.00 20.00    -0.292 OA
ENDROOT
BRANCH   7   9
HETATM    9  C10 UNL     1     -34.968  16.519  -3.619  1.00 20.00    -0.015 C 
HETATM   10  C8  UNL     1     -35.032  16.590  -2.096  1.00 20.00     0.010 C 
HETATM   11  C9  UNL     1     -34.777  17.910  -4.215  1.00 20.00     0.010 C 
ENDBRANCH   7   9
TORSDOF 1
ENDMDL
MODEL 5
REMARK VINA RESULT:      -4.9     11.436     12.082
REMARK  1 active torsions:
REMARK  status: ('A' for Active; 'I' for Inactive)
REMARK    1  A    between atoms: C7_7  and  C10_10 
ROOT
HETATM    1  C1  UNL     1     -36.365  15.618  -4.170  1.00 20.00     0.011 C 
HETATM    2  C2  UNL     1     -35.955  16.763  -3.609  1.00 20.00    -0.020 C 
HETATM    3  C3  UNL     1     -35.445  14.562  -4.522  1.00 20.00     0.000 C 
HETATM    4  C4  UNL     1     -33.974  14.811  -4.382  1.00 20.00     0.159 C 
HETATM    5  C5  UNL     1     -35.851  13.374  -4.992  1.00 20.00     0.027 C 
HETATM    6  C6  UNL     1     -33.548  16.256  -4.197  1.00 20.00     0.092 C 
HETATM    7  C7  UNL     1     -34.509  17.068  -3.316  1.00 20.00     0.019 C 
HETATM    8  O11 UNL     1     -33.143  13.910  -4.478  1.00 20.00    -0.292 OA
ENDROOT
BRANCH   7   9
HETATM    9  C10 UNL     1     -34.223  16.849  -1.829  1.00 20.00    -0.015 C 
HETATM   10  C8  UNL     1     -33.069  17.737  -1.371  1.00 20.00     0.010 C 
HETATM   11  C9  UNL     1     -35.474  17.121  -1.000  1.00 20.00     0.010 C 
ENDBRANCH   7   9
TORSDOF 1
ENDMDL
MODEL 6
REMARK VINA RESULT:      -4.4     11.999     13.174
REMARK  1 active torsions:
REMARK  status: ('A' for Active; 'I' for Inactive)
REMARK    1  A    between atoms: C7_7  and  C10_10 
ROOT
HETATM    1  C1  UNL     1     -33.115  15.588  -5.360  1.00 20.00     0.011 C 
HETATM    2  C2  UNL     1     -33.268  15.396  -4.043  1.00 20.00    -0.020 C 
HETATM    3  C3  UNL     1     -34.205  16.020  -6.204  1.00 20.00     0.000 C 
HETATM    4  C4  UNL     1     -35.577  16.124  -5.613  1.00 20.00     0.159 C 
HETATM    5  C5  UNL     1     -34.043  16.310  -7.502  1.00 20.00     0.027 C 
HETATM    6  C6  UNL     1     -35.786  15.456  -4.266  1.00 20.00     0.092 C 
HETATM    7  C7  UNL     1     -34.579  15.587  -3.326  1.00 20.00     0.019 C 
HETATM    8  O11 UNL     1     -36.510  16.661  -6.208  1.00 20.00    -0.292 OA
ENDROOT
BRANCH   7   9
HETATM    9  C10 UNL     1     -34.582  16.933  -2.598  1.00 20.00    -0.015 C 
HETATM   10  C8  UNL     1     -35.583  16.914  -1.446  1.00 20.00     0.010 C 
HETATM   11  C9  UNL     1     -33.184  17.268  -2.091  1.00 20.00     0.010 C 
ENDBRANCH   7   9
TORSDOF 1
ENDMDL
MODEL 7
REMARK VINA RESULT:      -4.3     11.419     12.321
REMARK  1 active torsions:
REMARK  status: ('A' for Active; 'I' for Inactive)
REMARK    1  A    between atoms: C7_7  and  C10_10 
ROOT
HETATM    1  C1  UNL     1     -33.323  17.702  -3.193  1.00 20.00     0.011 C 
HETATM    2  C2  UNL     1     -33.797  16.976  -4.214  1.00 20.00    -0.020 C 
HETATM    3  C3  UNL     1     -33.932  17.672  -1.883  1.00 20.00     0.000 C 
HETATM    4  C4  UNL     1     -35.211  16.915  -1.699  1.00 20.00     0.159 C 
HETATM    5  C5  UNL     1     -33.412  18.316  -0.829  1.00 20.00     0.027 C 
HETATM    6  C6  UNL     1     -35.945  16.510  -2.964  1.00 20.00     0.092 C 
HETATM    7  C7  UNL     1     -35.009  16.087  -4.105  1.00 20.00     0.019 C 
HETATM    8  O11 UNL     1     -35.684  16.685  -0.587  1.00 20.00    -0.292 OA
ENDROOT
BRANCH   7   9
HETATM    9  C10 UNL     1     -34.572  14.628  -3.956  1.00 20.00    -0.015 C 
HETATM   10  C8  UNL     1     -35.444  13.720  -4.818  1.00 20.00     0.010 C 
HETATM   11  C9  UNL     1     -33.101  14.472  -4.328  1.00 20.00     0.010 C 
ENDBRANCH   7   9
TORSDOF 1
ENDMDL
MODEL 8
REMARK VINA RESULT:      -4.3     11.393     12.561
REMARK  1 active torsions:
REMARK  status: ('A' for Active; 'I' for Inactive)
REMARK    1  A    between atoms: C7_7  and  C10_10 
ROOT
HETATM    1  C1  UNL     1     -36.049  16.190  -3.299  1.00 20.00     0.011 C 
HETATM    2  C2  UNL     1     -36.897  15.509  -4.081  1.00 20.00    -0.020 C 
HETATM    3  C3  UNL     1     -34.627  15.935  -3.303  1.00 20.00     0.000 C 
HETATM    4  C4  UNL     1     -34.104  14.781  -4.104  1.00 20.00     0.159 C 
HETATM    5  C5  UNL     1     -33.757  16.672  -2.600  1.00 20.00     0.027 C 
HETATM    6  C6  UNL     1     -35.130  13.771  -4.584  1.00 20.00     0.092 C 
HETATM    7  C7  UNL     1     -36.460  14.408  -5.012  1.00 20.00     0.019 C 
HETATM    8  O11 UNL     1     -32.903  14.616  -4.310  1.00 20.00    -0.292 OA
ENDROOT
BRANCH   7   9
HETATM    9  C10 UNL     1     -36.390  14.938  -6.446  1.00 20.00    -0.015 C 
HETATM   10  C8  UNL     1     -35.863  13.859  -7.388  1.00 20.00     0.010 C 
HETATM   11  C9  UNL     1     -37.761  15.428  -6.901  1.00 20.00     0.010 C 
ENDBRANCH   7   9
TORSDOF 1
ENDMDL
MODEL 9
REMARK VINA RESULT:      -4.2     11.202     12.785
REMARK  1 active torsions:
REMARK  status: ('A' for Active; 'I' for Inactive)
REMARK    1  A    between atoms: C7_7  and  C10_10 
ROOT
HETATM    1  C1  UNL     1     -33.592  15.238  -6.705  1.00 20.00     0.011 C 
HETATM    2  C2  UNL     1     -33.265  15.968  -5.630  1.00 20.00    -0.020 C 
HETATM    3  C3  UNL     1     -34.532  14.143  -6.632  1.00 20.00     0.000 C 
HETATM    4  C4  UNL     1     -35.049  13.725  -5.290  1.00 20.00     0.159 C 
HETATM    5  C5  UNL     1     -34.943  13.468  -7.715  1.00 20.00     0.027 C 
HETATM    6  C6  UNL     1     -34.303  14.260  -4.081  1.00 20.00     0.092 C 
HETATM    7  C7  UNL     1     -33.818  15.707  -4.254  1.00 20.00     0.019 C 
HETATM    8  O11 UNL     1     -35.985  12.937  -5.162  1.00 20.00    -0.292 OA
ENDROOT
BRANCH   7   9
HETATM    9  C10 UNL     1     -34.932  16.709  -3.943  1.00 20.00    -0.015 C 
HETATM   10  C8  UNL     1     -35.345  17.457  -5.207  1.00 20.00     0.010 C 
HETATM   11  C9  UNL     1     -36.130  15.999  -3.322  1.00 20.00     0.010 C 
ENDBRANCH   7   9
TORSDOF 1
ENDMDL
