MODEL 1
REMARK VINA RESULT:      -5.4      0.000      0.000
REMARK  1 active torsions:
REMARK  status: ('A' for Active; 'I' for Inactive)
REMARK    1  A    between atoms: C5_5  and  C10_10 
ROOT
HETATM    1  C1  UNL     1     -33.695   6.980   4.832  1.00 20.00     0.166 C 
HETATM    2  C2  UNL     1     -33.273   8.170   3.997  1.00 20.00     0.086 C 
HETATM    3  C3  UNL     1     -32.919   6.589   2.055  1.00 20.00     0.009 C 
HETATM    4  C4  UNL     1     -33.271   5.401   2.949  1.00 20.00     0.052 C 
HETATM    5  C5  UNL     1     -32.322   7.739   2.880  1.00 20.00    -0.004 C 
HETATM    6  C6  UNL     1     -34.223   5.766   4.089  1.00 20.00     0.159 C 
HETATM    7  C7  UNL     1     -35.648   6.022   3.616  1.00 20.00     0.060 C 
HETATM    8  O11 UNL     1     -33.677   7.022   6.062  1.00 20.00    -0.294 OA
HETATM    9  F12 UNL     1     -34.273   4.689   4.931  1.00 20.00    -0.235 F 
ENDROOT
BRANCH   5  10
HETATM   10  C10 UNL     1     -31.977   8.924   1.981  1.00 20.00    -0.018 C 
HETATM   11  C8  UNL     1     -31.356   8.443   0.671  1.00 20.00     0.010 C 
HETATM   12  C9  UNL     1     -33.220   9.768   1.706  1.00 20.00     0.010 C 
ENDBRANCH   5  10
TORSDOF 1
ENDMDL
MODEL 2
REMARK VINA RESULT:      -5.3     11.239     12.099
REMARK  1 active torsions:
REMARK  status: ('A' for Active; 'I' for Inactive)
REMARK    1  A    between atoms: C5_5  and  C10_10 
ROOT
HETATM    1  C1  UNL     1     -35.087  14.124  -5.100  1.00 20.00     0.166 C 
HETATM    2  C2  UNL     1     -35.087  15.017  -3.877  1.00 20.00     0.086 C 
HETATM    3  C3  UNL     1     -33.346  16.454  -5.017  1.00 20.00     0.009 C 
HETATM    4  C4  UNL     1     -33.313  15.487  -6.200  1.00 20.00     0.052 C 
HETATM    5  C5  UNL     1     -33.741  15.726  -3.724  1.00 20.00    -0.004 C 
HETATM    6  C6  UNL     1     -34.632  14.744  -6.409  1.00 20.00     0.159 C 
HETATM    7  C7  UNL     1     -35.733  15.632  -6.976  1.00 20.00     0.060 C 
HETATM    8  O11 UNL     1     -35.505  12.967  -5.048  1.00 20.00    -0.294 OA
HETATM    9  F12 UNL     1     -34.400  13.763  -7.333  1.00 20.00    -0.235 F 
ENDROOT
BRANCH   5  10
HETATM   10  C10 UNL     1     -33.777  16.699  -2.548  1.00 20.00    -0.018 C 
HETATM   11  C8  UNL     1     -33.395  18.107  -3.003  1.00 20.00     0.010 C 
HETATM   12  C9  UNL     1     -35.159  16.703  -1.897  1.00 20.00     0.010 C 
ENDBRANCH   5  10
TORSDOF 1
ENDMDL
MODEL 3
REMARK VINA RESULT:      -5.1     10.875     11.611
REMARK  1 active torsions:
REMARK  status: ('A' for Active; 'I' for Inactive)
REMARK    1  A    between atoms: C5_5  and  C10_10 
ROOT
HETATM    1  C1  UNL     1     -36.753  14.768  -4.528  1.00 20.00     0.166 C 
HETATM    2  C2  UNL     1     -36.482  16.025  -3.730  1.00 20.00     0.086 C 
HETATM    3  C3  UNL     1     -34.030  15.408  -3.725  1.00 20.00     0.009 C 
HETATM    4  C4  UNL     1     -34.349  14.107  -4.461  1.00 20.00     0.052 C 
HETATM    5  C5  UNL     1     -35.224  15.865  -2.876  1.00 20.00    -0.004 C 
HETATM    6  C6  UNL     1     -35.598  14.200  -5.336  1.00 20.00     0.159 C 
HETATM    7  C7  UNL     1     -35.384  15.031  -6.595  1.00 20.00     0.060 C 
HETATM    8  O11 UNL     1     -37.876  14.268  -4.576  1.00 20.00    -0.294 OA
HETATM    9  F12 UNL     1     -35.898  12.930  -5.747  1.00 20.00    -0.235 F 
ENDROOT
BRANCH   5  10
HETATM   10  C10 UNL     1     -34.900  17.168  -2.149  1.00 20.00    -0.018 C 
HETATM   11  C8  UNL     1     -35.547  17.188  -0.765  1.00 20.00     0.010 C 
HETATM   12  C9  UNL     1     -33.388  17.357  -2.035  1.00 20.00     0.010 C 
ENDBRANCH   5  10
TORSDOF 1
ENDMDL
MODEL 4
REMARK VINA RESULT:      -5.1     11.094     12.004
REMARK  1 active torsions:
REMARK  status: ('A' for Active; 'I' for Inactive)
REMARK    1  A    between atoms: C5_5  and  C10_10 
ROOT
HETATM    1  C1  UNL     1     -34.718  14.509  -4.470  1.00 20.00     0.166 C 
HETATM    2  C2  UNL     1     -34.962  15.487  -3.340  1.00 20.00     0.086 C 
HETATM    3  C3  UNL     1     -33.508  17.154  -4.565  1.00 20.00     0.009 C 
HETATM    4  C4  UNL     1     -33.217  16.114  -5.648  1.00 20.00     0.052 C 
HETATM    5  C5  UNL     1     -33.803  16.476  -3.219  1.00 20.00    -0.004 C 
HETATM    6  C6  UNL     1     -34.340  15.093  -5.820  1.00 20.00     0.159 C 
HETATM    7  C7  UNL     1     -35.574  15.673  -6.501  1.00 20.00     0.060 C 
HETATM    8  O11 UNL     1     -34.887  13.299  -4.318  1.00 20.00    -0.294 OA
HETATM    9  F12 UNL     1     -33.865  14.105  -6.638  1.00 20.00    -0.235 F 
ENDROOT
BRANCH   5  10
HETATM   10  C10 UNL     1     -34.098  17.520  -2.145  1.00 20.00    -0.018 C 
HETATM   11  C8  UNL     1     -35.158  17.007  -1.173  1.00 20.00     0.010 C 
HETATM   12  C9  UNL     1     -32.821  17.895  -1.396  1.00 20.00     0.010 C 
ENDBRANCH   5  10
TORSDOF 1
ENDMDL
MODEL 5
REMARK VINA RESULT:      -4.7     11.490     12.127
REMARK  1 active torsions:
REMARK  status: ('A' for Active; 'I' for Inactive)
REMARK    1  A    between atoms: C5_5  and  C10_10 
ROOT
HETATM    1  C1  UNL     1     -33.962  15.623  -5.134  1.00 20.00     0.166 C 
HETATM    2  C2  UNL     1     -33.558  15.856  -3.694  1.00 20.00     0.086 C 
HETATM    3  C3  UNL     1     -35.987  16.318  -3.163  1.00 20.00     0.009 C 
HETATM    4  C4  UNL     1     -36.347  16.155  -4.640  1.00 20.00     0.052 C 
HETATM    5  C5  UNL     1     -34.539  16.804  -3.003  1.00 20.00    -0.004 C 
HETATM    6  C6  UNL     1     -35.403  15.217  -5.391  1.00 20.00     0.159 C 
HETATM    7  C7  UNL     1     -35.605  13.751  -5.027  1.00 20.00     0.060 C 
HETATM    8  O11 UNL     1     -33.141  15.689  -6.049  1.00 20.00    -0.294 OA
HETATM    9  F12 UNL     1     -35.691  15.338  -6.723  1.00 20.00    -0.235 F 
ENDROOT
BRANCH   5  10
HETATM   10  C10 UNL     1     -34.184  16.959  -1.526  1.00 20.00    -0.018 C 
HETATM   11  C8  UNL     1     -33.097  18.017  -1.342  1.00 20.00     0.010 C 
HETATM   12  C9  UNL     1     -35.425  17.318  -0.711  1.00 20.00     0.010 C 
ENDBRANCH   5  10
TORSDOF 1
ENDMDL
MODEL 6
REMARK VINA RESULT:      -4.6      1.628      2.423
REMARK  1 active torsions:
REMARK  status: ('A' for Active; 'I' for Inactive)
REMARK    1  A    between atoms: C5_5  and  C10_10 
ROOT
HETATM    1  C1  UNL     1     -34.959   5.990   3.933  1.00 20.00     0.166 C 
HETATM    2  C2  UNL     1     -33.976   6.429   2.869  1.00 20.00     0.086 C 
HETATM    3  C3  UNL     1     -32.654   7.602   4.677  1.00 20.00     0.009 C 
HETATM    4  C4  UNL     1     -33.709   7.211   5.712  1.00 20.00     0.052 C 
HETATM    5  C5  UNL     1     -33.276   7.725   3.279  1.00 20.00    -0.004 C 
HETATM    6  C6  UNL     1     -34.447   5.919   5.361  1.00 20.00     0.159 C 
HETATM    7  C7  UNL     1     -33.589   4.673   5.546  1.00 20.00     0.060 C 
HETATM    8  O11 UNL     1     -36.103   5.638   3.643  1.00 20.00    -0.294 OA
HETATM    9  F12 UNL     1     -35.498   5.808   6.229  1.00 20.00    -0.235 F 
ENDROOT
BRANCH   5  10
HETATM   10  C10 UNL     1     -32.216   8.112   2.250  1.00 20.00    -0.018 C 
HETATM   11  C8  UNL     1     -32.687   9.299   1.412  1.00 20.00     0.010 C 
HETATM   12  C9  UNL     1     -30.892   8.433   2.940  1.00 20.00     0.010 C 
ENDBRANCH   5  10
TORSDOF 1
ENDMDL
MODEL 7
REMARK VINA RESULT:      -4.3     10.979     11.862
REMARK  1 active torsions:
REMARK  status: ('A' for Active; 'I' for Inactive)
REMARK    1  A    between atoms: C5_5  and  C10_10 
ROOT
HETATM    1  C1  UNL     1     -33.185  17.835  -1.642  1.00 20.00     0.166 C 
HETATM    2  C2  UNL     1     -33.299  17.304  -3.055  1.00 20.00     0.086 C 
HETATM    3  C3  UNL     1     -35.513  16.265  -2.409  1.00 20.00     0.009 C 
HETATM    4  C4  UNL     1     -35.327  16.748  -0.971  1.00 20.00     0.052 C 
HETATM    5  C5  UNL     1     -34.156  16.037  -3.091  1.00 20.00    -0.004 C 
HETATM    6  C6  UNL     1     -34.478  18.014  -0.864  1.00 20.00     0.159 C 
HETATM    7  C7  UNL     1     -35.207  19.263  -1.346  1.00 20.00     0.060 C 
HETATM    8  O11 UNL     1     -32.100  18.173  -1.169  1.00 20.00    -0.294 OA
HETATM    9  F12 UNL     1     -34.202  18.204   0.462  1.00 20.00    -0.235 F 
ENDROOT
BRANCH   5  10
HETATM   10  C10 UNL     1     -34.349  15.561  -4.528  1.00 20.00    -0.018 C 
HETATM   11  C8  UNL     1     -34.878  14.128  -4.554  1.00 20.00     0.010 C 
HETATM   12  C9  UNL     1     -35.296  16.494  -5.280  1.00 20.00     0.010 C 
ENDBRANCH   5  10
TORSDOF 1
ENDMDL
MODEL 8
REMARK VINA RESULT:      -4.3     11.193     12.566
REMARK  1 active torsions:
REMARK  status: ('A' for Active; 'I' for Inactive)
REMARK    1  A    between atoms: C5_5  and  C10_10 
ROOT
HETATM    1  C1  UNL     1     -33.698  17.345  -4.469  1.00 20.00     0.166 C 
HETATM    2  C2  UNL     1     -34.169  16.955  -5.854  1.00 20.00     0.086 C 
HETATM    3  C3  UNL     1     -33.937  14.531  -5.173  1.00 20.00     0.009 C 
HETATM    4  C4  UNL     1     -33.388  14.960  -3.812  1.00 20.00     0.052 C 
HETATM    5  C5  UNL     1     -33.622  15.582  -6.247  1.00 20.00    -0.004 C 
HETATM    6  C6  UNL     1     -33.899  16.327  -3.360  1.00 20.00     0.159 C 
HETATM    7  C7  UNL     1     -35.360  16.306  -2.929  1.00 20.00     0.060 C 
HETATM    8  O11 UNL     1     -33.239  18.463  -4.239  1.00 20.00    -0.294 OA
HETATM    9  F12 UNL     1     -33.168  16.687  -2.261  1.00 20.00    -0.235 F 
ENDROOT
BRANCH   5  10
HETATM   10  C10 UNL     1     -34.178  15.150  -7.602  1.00 20.00    -0.018 C 
HETATM   11  C8  UNL     1     -34.419  13.642  -7.628  1.00 20.00     0.010 C 
HETATM   12  C9  UNL     1     -35.467  15.905  -7.918  1.00 20.00     0.010 C 
ENDBRANCH   5  10
TORSDOF 1
ENDMDL
MODEL 9
REMARK VINA RESULT:      -4.3     11.030     12.347
REMARK  1 active torsions:
REMARK  status: ('A' for Active; 'I' for Inactive)
REMARK    1  A    between atoms: C5_5  and  C10_10 
ROOT
HETATM    1  C1  UNL     1     -35.940  13.801  -5.062  1.00 20.00     0.166 C 
HETATM    2  C2  UNL     1     -37.205  14.533  -5.458  1.00 20.00     0.086 C 
HETATM    3  C3  UNL     1     -36.534  16.395  -3.884  1.00 20.00     0.009 C 
HETATM    4  C4  UNL     1     -35.309  15.593  -3.447  1.00 20.00     0.052 C 
HETATM    5  C5  UNL     1     -37.668  15.463  -4.335  1.00 20.00    -0.004 C 
HETATM    6  C6  UNL     1     -34.794  14.642  -4.527  1.00 20.00     0.159 C 
HETATM    7  C7  UNL     1     -34.096  15.363  -5.674  1.00 20.00     0.060 C 
HETATM    8  O11 UNL     1     -35.821  12.588  -5.233  1.00 20.00    -0.294 OA
HETATM    9  F12 UNL     1     -33.859  13.834  -3.940  1.00 20.00    -0.235 F 
ENDROOT
BRANCH   5  10
HETATM   10  C10 UNL     1     -38.886  16.271  -4.775  1.00 20.00    -0.018 C 
HETATM   11  C8  UNL     1     -38.479  17.363  -5.762  1.00 20.00     0.010 C 
HETATM   12  C9  UNL     1     -39.941  15.356  -5.393  1.00 20.00     0.010 C 
ENDBRANCH   5  10
TORSDOF 1
ENDMDL
