MODEL 1
REMARK VINA RESULT:      -6.0      0.000      0.000
REMARK  1 active torsions:
REMARK  status: ('A' for Active; 'I' for Inactive)
REMARK    1  A    between atoms: C6_6  and  C11_11 
ROOT
HETATM    1  C1  UNL     1     -33.831   5.834   4.213  1.00 20.00    -0.014 C 
HETATM    2  C2  UNL     1     -33.589   7.036   4.778  1.00 20.00    -0.074 C 
HETATM    3  C3  UNL     1     -33.310   5.562   2.829  1.00 20.00     0.155 C 
HETATM    4  C4  UNL     1     -32.895   8.166   4.049  1.00 20.00     0.039 C 
HETATM    5  C5  UNL     1     -32.472   6.614   2.142  1.00 20.00     0.088 C 
HETATM    6  C6  UNL     1     -32.935   8.011   2.529  1.00 20.00     0.000 C 
HETATM    7  C7  UNL     1     -34.582   4.696   4.845  1.00 20.00     0.052 C 
HETATM    8  C8  UNL     1     -33.966   7.392   6.194  1.00 20.00     0.044 C 
HETATM    9  O12 UNL     1     -33.508   4.473   2.289  1.00 20.00    -0.293 OA
ENDROOT
BRANCH   6  10
HETATM   10  C11 UNL     1     -32.085   9.080   1.847  1.00 20.00    -0.018 C 
HETATM   11  C9  UNL     1     -31.353   8.497   0.641  1.00 20.00     0.010 C 
HETATM   12  C10 UNL     1     -32.948  10.268   1.429  1.00 20.00     0.010 C 
ENDBRANCH   6  10
TORSDOF 1
ENDMDL
MODEL 2
REMARK VINA RESULT:      -5.4     10.913     11.641
REMARK  1 active torsions:
REMARK  status: ('A' for Active; 'I' for Inactive)
REMARK    1  A    between atoms: C6_6  and  C11_11 
ROOT
HETATM    1  C1  UNL     1     -33.821  18.135   0.020  1.00 20.00    -0.014 C 
HETATM    2  C2  UNL     1     -35.081  17.682  -0.154  1.00 20.00    -0.074 C 
HETATM    3  C3  UNL     1     -32.863  18.085  -1.138  1.00 20.00     0.155 C 
HETATM    4  C4  UNL     1     -35.556  17.037  -1.438  1.00 20.00     0.039 C 
HETATM    5  C5  UNL     1     -33.360  17.598  -2.479  1.00 20.00     0.088 C 
HETATM    6  C6  UNL     1     -34.410  16.512  -2.303  1.00 20.00     0.000 C 
HETATM    7  C7  UNL     1     -33.257  18.713   1.287  1.00 20.00     0.052 C 
HETATM    8  C8  UNL     1     -36.160  17.774   0.895  1.00 20.00     0.044 C 
HETATM    9  O12 UNL     1     -31.709  18.497  -1.014  1.00 20.00    -0.293 OA
ENDROOT
BRANCH   6  10
HETATM   10  C11 UNL     1     -34.926  16.022  -3.655  1.00 20.00    -0.018 C 
HETATM   11  C9  UNL     1     -34.362  14.641  -3.977  1.00 20.00     0.010 C 
HETATM   12  C10 UNL     1     -36.453  15.996  -3.669  1.00 20.00     0.010 C 
ENDBRANCH   6  10
TORSDOF 1
ENDMDL
MODEL 3
REMARK VINA RESULT:      -5.2     10.767     12.213
REMARK  1 active torsions:
REMARK  status: ('A' for Active; 'I' for Inactive)
REMARK    1  A    between atoms: C6_6  and  C11_11 
ROOT
HETATM    1  C1  UNL     1     -34.603  14.631  -6.357  1.00 20.00    -0.014 C 
HETATM    2  C2  UNL     1     -34.111  15.888  -6.385  1.00 20.00    -0.074 C 
HETATM    3  C3  UNL     1     -35.024  14.044  -5.039  1.00 20.00     0.155 C 
HETATM    4  C4  UNL     1     -33.875  16.710  -5.136  1.00 20.00     0.039 C 
HETATM    5  C5  UNL     1     -34.953  14.902  -3.798  1.00 20.00     0.088 C 
HETATM    6  C6  UNL     1     -33.773  15.859  -3.870  1.00 20.00     0.000 C 
HETATM    7  C7  UNL     1     -34.789  13.729  -7.544  1.00 20.00     0.052 C 
HETATM    8  C8  UNL     1     -33.753  16.624  -7.651  1.00 20.00     0.044 C 
HETATM    9  O12 UNL     1     -35.484  12.902  -4.981  1.00 20.00    -0.293 OA
ENDROOT
BRANCH   6  10
HETATM   10  C11 UNL     1     -33.701  16.739  -2.624  1.00 20.00    -0.018 C 
HETATM   11  C9  UNL     1     -33.362  18.178  -3.002  1.00 20.00     0.010 C 
HETATM   12  C10 UNL     1     -35.016  16.682  -1.850  1.00 20.00     0.010 C 
ENDBRANCH   6  10
TORSDOF 1
ENDMDL
MODEL 4
REMARK VINA RESULT:      -5.2     10.850     11.532
REMARK  1 active torsions:
REMARK  status: ('A' for Active; 'I' for Inactive)
REMARK    1  A    between atoms: C6_6  and  C11_11 
ROOT
HETATM    1  C1  UNL     1     -35.415  14.777  -4.359  1.00 20.00    -0.014 C 
HETATM    2  C2  UNL     1     -34.165  15.096  -3.962  1.00 20.00    -0.074 C 
HETATM    3  C3  UNL     1     -36.570  15.599  -3.858  1.00 20.00     0.155 C 
HETATM    4  C4  UNL     1     -33.872  16.189  -2.957  1.00 20.00     0.039 C 
HETATM    5  C5  UNL     1     -36.290  16.799  -2.984  1.00 20.00     0.088 C 
HETATM    6  C6  UNL     1     -35.082  16.549  -2.094  1.00 20.00     0.000 C 
HETATM    7  C7  UNL     1     -35.788  13.657  -5.289  1.00 20.00     0.052 C 
HETATM    8  C8  UNL     1     -32.920  14.417  -4.474  1.00 20.00     0.044 C 
HETATM    9  O12 UNL     1     -37.722  15.339  -4.207  1.00 20.00    -0.293 OA
ENDROOT
BRANCH   6  10
HETATM   10  C11 UNL     1     -34.785  17.763  -1.216  1.00 20.00    -0.018 C 
HETATM   11  C9  UNL     1     -35.411  17.592   0.166  1.00 20.00     0.010 C 
HETATM   12  C10 UNL     1     -33.279  17.986  -1.099  1.00 20.00     0.010 C 
ENDBRANCH   6  10
TORSDOF 1
ENDMDL
MODEL 5
REMARK VINA RESULT:      -5.0      1.490      2.488
REMARK  1 active torsions:
REMARK  status: ('A' for Active; 'I' for Inactive)
REMARK    1  A    between atoms: C6_6  and  C11_11 
ROOT
HETATM    1  C1  UNL     1     -33.830   5.740   4.313  1.00 20.00    -0.014 C 
HETATM    2  C2  UNL     1     -33.434   5.543   3.038  1.00 20.00    -0.074 C 
HETATM    3  C3  UNL     1     -33.783   7.130   4.884  1.00 20.00     0.155 C 
HETATM    4  C4  UNL     1     -32.854   6.642   2.175  1.00 20.00     0.039 C 
HETATM    5  C5  UNL     1     -33.363   8.274   3.991  1.00 20.00     0.088 C 
HETATM    6  C6  UNL     1     -32.314   7.819   2.988  1.00 20.00     0.000 C 
HETATM    7  C7  UNL     1     -34.340   4.684   5.253  1.00 20.00     0.052 C 
HETATM    8  C8  UNL     1     -33.532   4.220   2.321  1.00 20.00     0.044 C 
HETATM    9  O12 UNL     1     -34.144   7.344   6.042  1.00 20.00    -0.293 OA
ENDROOT
BRANCH   6  10
HETATM   10  C11 UNL     1     -31.893   8.968   2.074  1.00 20.00    -0.018 C 
HETATM   11  C9  UNL     1     -31.357   8.431   0.749  1.00 20.00     0.010 C 
HETATM   12  C10 UNL     1     -33.062   9.920   1.834  1.00 20.00     0.010 C 
ENDBRANCH   6  10
TORSDOF 1
ENDMDL
MODEL 6
REMARK VINA RESULT:      -4.8     10.716     11.475
REMARK  1 active torsions:
REMARK  status: ('A' for Active; 'I' for Inactive)
REMARK    1  A    between atoms: C6_6  and  C11_11 
ROOT
HETATM    1  C1  UNL     1     -35.693  14.387  -4.850  1.00 20.00    -0.014 C 
HETATM    2  C2  UNL     1     -36.651  15.157  -4.293  1.00 20.00    -0.074 C 
HETATM    3  C3  UNL     1     -34.277  14.519  -4.363  1.00 20.00     0.155 C 
HETATM    4  C4  UNL     1     -36.355  16.222  -3.259  1.00 20.00     0.039 C 
HETATM    5  C5  UNL     1     -33.981  15.457  -3.217  1.00 20.00     0.088 C 
HETATM    6  C6  UNL     1     -34.894  16.673  -3.265  1.00 20.00     0.000 C 
HETATM    7  C7  UNL     1     -35.900  13.368  -5.936  1.00 20.00     0.052 C 
HETATM    8  C8  UNL     1     -38.119  15.045  -4.620  1.00 20.00     0.044 C 
HETATM    9  O12 UNL     1     -33.381  13.825  -4.846  1.00 20.00    -0.293 OA
ENDROOT
BRANCH   6  10
HETATM   10  C11 UNL     1     -34.610  17.621  -2.102  1.00 20.00    -0.018 C 
HETATM   11  C9  UNL     1     -35.418  17.219  -0.871  1.00 20.00     0.010 C 
HETATM   12  C10 UNL     1     -33.117  17.644  -1.780  1.00 20.00     0.010 C 
ENDBRANCH   6  10
TORSDOF 1
ENDMDL
MODEL 7
REMARK VINA RESULT:      -4.6     11.203     11.897
REMARK  1 active torsions:
REMARK  status: ('A' for Active; 'I' for Inactive)
REMARK    1  A    between atoms: C6_6  and  C11_11 
ROOT
HETATM    1  C1  UNL     1     -35.391  15.475  -4.478  1.00 20.00    -0.014 C 
HETATM    2  C2  UNL     1     -34.106  15.681  -4.119  1.00 20.00    -0.074 C 
HETATM    3  C3  UNL     1     -36.484  16.145  -3.693  1.00 20.00     0.155 C 
HETATM    4  C4  UNL     1     -33.710  16.486  -2.899  1.00 20.00     0.039 C 
HETATM    5  C5  UNL     1     -36.109  17.086  -2.571  1.00 20.00     0.088 C 
HETATM    6  C6  UNL     1     -34.839  16.618  -1.877  1.00 20.00     0.000 C 
HETATM    7  C7  UNL     1     -35.862  14.626  -5.626  1.00 20.00     0.052 C 
HETATM    8  C8  UNL     1     -32.922  15.152  -4.887  1.00 20.00     0.044 C 
HETATM    9  O12 UNL     1     -37.666  15.983  -4.000  1.00 20.00    -0.293 OA
ENDROOT
BRANCH   6  10
HETATM   10  C11 UNL     1     -34.446  17.570  -0.749  1.00 20.00    -0.018 C 
HETATM   11  C9  UNL     1     -33.079  18.191  -1.022  1.00 20.00     0.010 C 
HETATM   12  C10 UNL     1     -35.504  18.657  -0.571  1.00 20.00     0.010 C 
ENDBRANCH   6  10
TORSDOF 1
ENDMDL
MODEL 8
REMARK VINA RESULT:      -4.5     11.140     12.070
REMARK  1 active torsions:
REMARK  status: ('A' for Active; 'I' for Inactive)
REMARK    1  A    between atoms: C6_6  and  C11_11 
ROOT
HETATM    1  C1  UNL     1     -35.813  16.439  -3.179  1.00 20.00    -0.014 C 
HETATM    2  C2  UNL     1     -34.486  16.229  -3.042  1.00 20.00    -0.074 C 
HETATM    3  C3  UNL     1     -36.449  17.581  -2.437  1.00 20.00     0.155 C 
HETATM    4  C4  UNL     1     -33.617  17.033  -2.100  1.00 20.00     0.039 C 
HETATM    5  C5  UNL     1     -35.575  18.501  -1.619  1.00 20.00     0.088 C 
HETATM    6  C6  UNL     1     -34.415  17.735  -1.001  1.00 20.00     0.000 C 
HETATM    7  C7  UNL     1     -36.751  15.633  -4.032  1.00 20.00     0.052 C 
HETATM    8  C8  UNL     1     -33.715  15.186  -3.811  1.00 20.00     0.044 C 
HETATM    9  O12 UNL     1     -37.656  17.804  -2.547  1.00 20.00    -0.293 OA
ENDROOT
BRANCH   6  10
HETATM   10  C11 UNL     1     -33.518  18.661  -0.182  1.00 20.00    -0.018 C 
HETATM   11  C9  UNL     1     -33.807  18.507   1.309  1.00 20.00     0.010 C 
HETATM   12  C10 UNL     1     -32.046  18.382  -0.475  1.00 20.00     0.010 C 
ENDBRANCH   6  10
TORSDOF 1
ENDMDL
MODEL 9
REMARK VINA RESULT:      -4.5     10.700     12.062
REMARK  1 active torsions:
REMARK  status: ('A' for Active; 'I' for Inactive)
REMARK    1  A    between atoms: C6_6  and  C11_11 
ROOT
HETATM    1  C1  UNL     1     -34.450  14.689  -4.539  1.00 20.00    -0.014 C 
HETATM    2  C2  UNL     1     -35.230  15.508  -3.802  1.00 20.00    -0.074 C 
HETATM    3  C3  UNL     1     -35.035  14.025  -5.755  1.00 20.00     0.155 C 
HETATM    4  C4  UNL     1     -36.701  15.723  -4.086  1.00 20.00     0.039 C 
HETATM    5  C5  UNL     1     -36.455  14.351  -6.155  1.00 20.00     0.088 C 
HETATM    6  C6  UNL     1     -37.317  14.605  -4.928  1.00 20.00     0.000 C 
HETATM    7  C7  UNL     1     -33.007  14.367  -4.271  1.00 20.00     0.052 C 
HETATM    8  C8  UNL     1     -34.733  16.311  -2.627  1.00 20.00     0.044 C 
HETATM    9  O12 UNL     1     -34.347  13.278  -6.452  1.00 20.00    -0.293 OA
ENDROOT
BRANCH   6  10
HETATM   10  C11 UNL     1     -38.751  14.947  -5.325  1.00 20.00    -0.018 C 
HETATM   11  C9  UNL     1     -39.403  15.838  -4.271  1.00 20.00     0.010 C 
HETATM   12  C10 UNL     1     -38.783  15.622  -6.694  1.00 20.00     0.010 C 
ENDBRANCH   6  10
TORSDOF 1
ENDMDL
