MODEL 1
REMARK VINA RESULT:      -5.0      0.000      0.000
REMARK  3 active torsions:
REMARK  status: ('A' for Active; 'I' for Inactive)
REMARK    1  A    between atoms: C1_1  and  C5_5 
REMARK    2  A    between atoms: C1_1  and  C6_6 
REMARK    3  A    between atoms: C4_4  and  C5_5 
ROOT
HETATM    1  C1  UNL     1     -31.984   7.973   2.736  1.00 20.00     0.137 C 
HETATM    2  O7  UNL     1     -31.422   8.568   3.656  1.00 20.00    -0.297 OA
ENDROOT
BRANCH   1   3
HETATM    3  C5  UNL     1     -32.860   6.756   2.968  1.00 20.00     0.083 C 
BRANCH   3   4
HETATM    4  C4  UNL     1     -34.026   7.018   3.868  1.00 20.00    -0.008 A 
HETATM    5  C2  UNL     1     -34.683   5.884   4.604  1.00 20.00     0.005 A 
HETATM    6  C3  UNL     1     -33.873   6.901   5.359  1.00 20.00     0.005 A 
ENDBRANCH   3   4
ENDBRANCH   1   3
BRANCH   1   7
HETATM    7  C6  UNL     1     -31.850   8.449   1.314  1.00 20.00     0.163 C 
HETATM    8 BR8  UNL     1     -32.708  10.178   1.220  1.00 20.00    -0.089 Br
ENDBRANCH   1   7
TORSDOF 3
ENDMDL
MODEL 2
REMARK VINA RESULT:      -4.9      2.528      4.089
REMARK  3 active torsions:
REMARK  status: ('A' for Active; 'I' for Inactive)
REMARK    1  A    between atoms: C1_1  and  C5_5 
REMARK    2  A    between atoms: C1_1  and  C6_6 
REMARK    3  A    between atoms: C4_4  and  C5_5 
ROOT
HETATM    1  C1  UNL     1     -32.784   7.360   3.690  1.00 20.00     0.137 C 
HETATM    2  O7  UNL     1     -32.902   7.551   4.901  1.00 20.00    -0.297 OA
ENDROOT
BRANCH   1   3
HETATM    3  C5  UNL     1     -31.926   8.244   2.805  1.00 20.00     0.083 C 
BRANCH   3   4
HETATM    4  C4  UNL     1     -32.633   8.737   1.582  1.00 20.00    -0.008 A 
HETATM    5  C2  UNL     1     -32.615  10.200   1.236  1.00 20.00     0.005 A 
HETATM    6  C3  UNL     1     -31.846   9.219   0.395  1.00 20.00     0.005 A 
ENDBRANCH   3   4
ENDBRANCH   1   3
BRANCH   1   7
HETATM    7  C6  UNL     1     -33.475   6.202   3.022  1.00 20.00     0.163 C 
HETATM    8 BR8  UNL     1     -34.828   5.574   4.251  1.00 20.00    -0.089 Br
ENDBRANCH   1   7
TORSDOF 3
ENDMDL
MODEL 3
REMARK VINA RESULT:      -4.7      2.678      4.208
REMARK  3 active torsions:
REMARK  status: ('A' for Active; 'I' for Inactive)
REMARK    1  A    between atoms: C1_1  and  C5_5 
REMARK    2  A    between atoms: C1_1  and  C6_6 
REMARK    3  A    between atoms: C4_4  and  C5_5 
ROOT
HETATM    1  C1  UNL     1     -33.474   6.967   3.736  1.00 20.00     0.137 C 
HETATM    2  O7  UNL     1     -33.049   7.513   4.754  1.00 20.00    -0.297 OA
ENDROOT
BRANCH   1   3
HETATM    3  C5  UNL     1     -32.793   7.113   2.388  1.00 20.00     0.083 C 
BRANCH   3   4
HETATM    4  C4  UNL     1     -32.033   8.394   2.234  1.00 20.00    -0.008 A 
HETATM    5  C2  UNL     1     -31.427   8.759   0.908  1.00 20.00     0.005 A 
HETATM    6  C3  UNL     1     -32.611   9.524   1.429  1.00 20.00     0.005 A 
ENDBRANCH   3   4
ENDBRANCH   1   3
BRANCH   1   7
HETATM    7  C6  UNL     1     -34.697   6.090   3.783  1.00 20.00     0.163 C 
HETATM    8 BR8  UNL     1     -34.598   5.084   5.430  1.00 20.00    -0.089 Br
ENDBRANCH   1   7
TORSDOF 3
ENDMDL
MODEL 4
REMARK VINA RESULT:      -4.7      2.972      4.167
REMARK  3 active torsions:
REMARK  status: ('A' for Active; 'I' for Inactive)
REMARK    1  A    between atoms: C1_1  and  C5_5 
REMARK    2  A    between atoms: C1_1  and  C6_6 
REMARK    3  A    between atoms: C4_4  and  C5_5 
ROOT
HETATM    1  C1  UNL     1     -33.612   5.280   3.233  1.00 20.00     0.137 C 
HETATM    2  O7  UNL     1     -32.959   4.528   2.508  1.00 20.00    -0.297 OA
ENDROOT
BRANCH   1   3
HETATM    3  C5  UNL     1     -33.593   6.788   3.070  1.00 20.00     0.083 C 
BRANCH   3   4
HETATM    4  C4  UNL     1     -32.286   7.322   2.573  1.00 20.00    -0.008 A 
HETATM    5  C2  UNL     1     -32.193   8.730   2.052  1.00 20.00     0.005 A 
HETATM    6  C3  UNL     1     -31.547   8.368   3.361  1.00 20.00     0.005 A 
ENDBRANCH   3   4
ENDBRANCH   1   3
BRANCH   1   7
HETATM    7  C6  UNL     1     -34.499   4.728   4.316  1.00 20.00     0.163 C 
HETATM    8 BR8  UNL     1     -34.467   6.005   5.767  1.00 20.00    -0.089 Br
ENDBRANCH   1   7
TORSDOF 3
ENDMDL
MODEL 5
REMARK VINA RESULT:      -4.6      1.436      1.817
REMARK  3 active torsions:
REMARK  status: ('A' for Active; 'I' for Inactive)
REMARK    1  A    between atoms: C1_1  and  C5_5 
REMARK    2  A    between atoms: C1_1  and  C6_6 
REMARK    3  A    between atoms: C4_4  and  C5_5 
ROOT
HETATM    1  C1  UNL     1     -32.939   7.222   3.117  1.00 20.00     0.137 C 
HETATM    2  O7  UNL     1     -33.402   6.642   2.134  1.00 20.00    -0.297 OA
ENDROOT
BRANCH   1   3
HETATM    3  C5  UNL     1     -33.396   6.922   4.532  1.00 20.00     0.083 C 
BRANCH   3   4
HETATM    4  C4  UNL     1     -34.567   5.992   4.599  1.00 20.00    -0.008 A 
HETATM    5  C2  UNL     1     -34.364   4.508   4.464  1.00 20.00     0.005 A 
HETATM    6  C3  UNL     1     -34.754   5.096   5.792  1.00 20.00     0.005 A 
ENDBRANCH   3   4
ENDBRANCH   1   3
BRANCH   1   7
HETATM    7  C6  UNL     1     -31.856   8.257   2.962  1.00 20.00     0.163 C 
HETATM    8 BR8  UNL     1     -32.209   9.192   1.307  1.00 20.00    -0.089 Br
ENDBRANCH   1   7
TORSDOF 3
ENDMDL
MODEL 6
REMARK VINA RESULT:      -3.8      1.442      1.950
REMARK  3 active torsions:
REMARK  status: ('A' for Active; 'I' for Inactive)
REMARK    1  A    between atoms: C1_1  and  C5_5 
REMARK    2  A    between atoms: C1_1  and  C6_6 
REMARK    3  A    between atoms: C4_4  and  C5_5 
ROOT
HETATM    1  C1  UNL     1     -31.941   8.705   1.732  1.00 20.00     0.137 C 
HETATM    2  O7  UNL     1     -31.099   8.238   0.963  1.00 20.00    -0.297 OA
ENDROOT
BRANCH   1   3
HETATM    3  C5  UNL     1     -32.156   8.161   3.132  1.00 20.00     0.083 C 
BRANCH   3   4
HETATM    4  C4  UNL     1     -32.677   6.758   3.158  1.00 20.00    -0.008 A 
HETATM    5  C2  UNL     1     -33.895   6.418   3.972  1.00 20.00     0.005 A 
HETATM    6  C3  UNL     1     -33.971   6.418   2.470  1.00 20.00     0.005 A 
ENDBRANCH   3   4
ENDBRANCH   1   3
BRANCH   1   7
HETATM    7  C6  UNL     1     -32.793   9.876   1.323  1.00 20.00     0.163 C 
HETATM    8 BR8  UNL     1     -33.271   9.600  -0.529  1.00 20.00    -0.089 Br
ENDBRANCH   1   7
TORSDOF 3
ENDMDL
MODEL 7
REMARK VINA RESULT:      -3.8     10.582     11.219
REMARK  3 active torsions:
REMARK  status: ('A' for Active; 'I' for Inactive)
REMARK    1  A    between atoms: C1_1  and  C5_5 
REMARK    2  A    between atoms: C1_1  and  C6_6 
REMARK    3  A    between atoms: C4_4  and  C5_5 
ROOT
HETATM    1  C1  UNL     1     -35.423  13.826  -5.206  1.00 20.00     0.137 C 
HETATM    2  O7  UNL     1     -35.918  12.699  -5.216  1.00 20.00    -0.297 OA
ENDROOT
BRANCH   1   3
HETATM    3  C5  UNL     1     -34.589  14.340  -4.047  1.00 20.00     0.083 C 
BRANCH   3   4
HETATM    4  C4  UNL     1     -34.704  15.816  -3.833  1.00 20.00    -0.008 A 
HETATM    5  C2  UNL     1     -35.063  16.358  -2.477  1.00 20.00     0.005 A 
HETATM    6  C3  UNL     1     -33.672  16.545  -3.018  1.00 20.00     0.005 A 
ENDBRANCH   3   4
ENDBRANCH   1   3
BRANCH   1   7
HETATM    7  C6  UNL     1     -35.598  14.756  -6.377  1.00 20.00     0.163 C 
HETATM    8 BR8  UNL     1     -34.299  14.230  -7.708  1.00 20.00    -0.089 Br
ENDBRANCH   1   7
TORSDOF 3
ENDMDL
MODEL 8
REMARK VINA RESULT:      -3.8     10.566     11.163
REMARK  3 active torsions:
REMARK  status: ('A' for Active; 'I' for Inactive)
REMARK    1  A    between atoms: C1_1  and  C5_5 
REMARK    2  A    between atoms: C1_1  and  C6_6 
REMARK    3  A    between atoms: C4_4  and  C5_5 
ROOT
HETATM    1  C1  UNL     1     -35.669  13.851  -5.026  1.00 20.00     0.137 C 
HETATM    2  O7  UNL     1     -35.837  12.648  -5.227  1.00 20.00    -0.297 OA
ENDROOT
BRANCH   1   3
HETATM    3  C5  UNL     1     -34.615  14.379  -4.070  1.00 20.00     0.083 C 
BRANCH   3   4
HETATM    4  C4  UNL     1     -34.718  15.850  -3.815  1.00 20.00    -0.008 A 
HETATM    5  C2  UNL     1     -35.127  16.356  -2.460  1.00 20.00     0.005 A 
HETATM    6  C3  UNL     1     -33.712  16.537  -2.934  1.00 20.00     0.005 A 
ENDBRANCH   3   4
ENDBRANCH   1   3
BRANCH   1   7
HETATM    7  C6  UNL     1     -36.497  14.878  -5.752  1.00 20.00     0.163 C 
HETATM    8 BR8  UNL     1     -38.279  14.784  -5.010  1.00 20.00    -0.089 Br
ENDBRANCH   1   7
TORSDOF 3
ENDMDL
MODEL 9
REMARK VINA RESULT:      -3.6     10.854     11.460
REMARK  3 active torsions:
REMARK  status: ('A' for Active; 'I' for Inactive)
REMARK    1  A    between atoms: C1_1  and  C5_5 
REMARK    2  A    between atoms: C1_1  and  C6_6 
REMARK    3  A    between atoms: C4_4  and  C5_5 
ROOT
HETATM    1  C1  UNL     1     -35.931  13.774  -5.562  1.00 20.00     0.137 C 
HETATM    2  O7  UNL     1     -35.893  12.599  -5.195  1.00 20.00    -0.297 OA
ENDROOT
BRANCH   1   3
HETATM    3  C5  UNL     1     -35.803  14.935  -4.594  1.00 20.00     0.083 C 
BRANCH   3   4
HETATM    4  C4  UNL     1     -34.469  15.012  -3.922  1.00 20.00    -0.008 A 
HETATM    5  C2  UNL     1     -33.451  16.022  -4.375  1.00 20.00     0.005 A 
HETATM    6  C3  UNL     1     -34.130  16.185  -3.044  1.00 20.00     0.005 A 
ENDBRANCH   3   4
ENDBRANCH   1   3
BRANCH   1   7
HETATM    7  C6  UNL     1     -36.079  14.122  -7.019  1.00 20.00     0.163 C 
HETATM    8 BR8  UNL     1     -34.298  14.155  -7.770  1.00 20.00    -0.089 Br
ENDBRANCH   1   7
TORSDOF 3
ENDMDL
