MODEL 1
REMARK VINA RESULT:      -4.8      0.000      0.000
REMARK  1 active torsions:
REMARK  status: ('A' for Active; 'I' for Inactive)
REMARK    1  A    between atoms: C1_1  and  C10_10 
ROOT
HETATM    1  C1  UNL     1     -34.795  15.211  -3.796  1.00 20.00     0.025 C 
HETATM    2  C2  UNL     1     -36.041  15.081  -4.235  1.00 20.00    -0.038 C 
HETATM    3  C3  UNL     1     -34.066  14.082  -4.408  1.00 20.00     0.290 C 
HETATM    4  C4  UNL     1     -37.184  16.022  -4.354  1.00 20.00     0.038 C 
HETATM    5  C5  UNL     1     -37.876  15.508  -5.630  1.00 20.00     0.007 C 
HETATM    6  C6  UNL     1     -36.902  14.507  -6.272  1.00 20.00     0.037 C 
HETATM    7  C7  UNL     1     -36.220  13.884  -5.071  1.00 20.00     0.162 C 
HETATM    8  O11 UNL     1     -32.887  13.826  -4.228  1.00 20.00    -0.260 OA
HETATM    9  O12 UNL     1     -34.902  13.403  -5.262  1.00 20.00    -0.308 OA
ENDROOT
BRANCH   1  10
HETATM   10  C10 UNL     1     -34.135  16.304  -3.053  1.00 20.00     0.017 C 
HETATM   11  C8  UNL     1     -33.890  17.516  -3.959  1.00 20.00     0.015 C 
HETATM   12  C9  UNL     1     -34.954  16.721  -1.824  1.00 20.00     0.015 C 
ENDBRANCH   1  10
TORSDOF 1
ENDMDL
MODEL 2
REMARK VINA RESULT:      -4.7      9.451     10.751
REMARK  1 active torsions:
REMARK  status: ('A' for Active; 'I' for Inactive)
REMARK    1  A    between atoms: C1_1  and  C10_10 
ROOT
HETATM    1  C1  UNL     1     -32.956   7.264   2.529  1.00 20.00     0.025 C 
HETATM    2  C2  UNL     1     -32.607   8.050   1.518  1.00 20.00    -0.038 C 
HETATM    3  C3  UNL     1     -32.429   7.945   3.728  1.00 20.00     0.290 C 
HETATM    4  C4  UNL     1     -33.109   8.207   0.128  1.00 20.00     0.038 C 
HETATM    5  C5  UNL     1     -32.911   9.717  -0.102  1.00 20.00     0.007 C 
HETATM    6  C6  UNL     1     -32.585  10.322   1.273  1.00 20.00     0.037 C 
HETATM    7  C7  UNL     1     -31.815   9.209   1.955  1.00 20.00     0.162 C 
HETATM    8  O11 UNL     1     -32.515   7.526   4.870  1.00 20.00    -0.260 OA
HETATM    9  O12 UNL     1     -31.887   9.155   3.368  1.00 20.00    -0.308 OA
ENDROOT
BRANCH   1  10
HETATM   10  C10 UNL     1     -33.845   6.085   2.582  1.00 20.00     0.017 C 
HETATM   11  C8  UNL     1     -33.035   4.790   2.706  1.00 20.00     0.015 C 
HETATM   12  C9  UNL     1     -34.851   6.190   3.736  1.00 20.00     0.015 C 
ENDBRANCH   1  10
TORSDOF 1
ENDMDL
MODEL 3
REMARK VINA RESULT:      -4.6     10.811     12.087
REMARK  1 active torsions:
REMARK  status: ('A' for Active; 'I' for Inactive)
REMARK    1  A    between atoms: C1_1  and  C10_10 
ROOT
HETATM    1  C1  UNL     1     -33.383   6.564   3.771  1.00 20.00     0.025 C 
HETATM    2  C2  UNL     1     -32.531   7.174   2.956  1.00 20.00    -0.038 C 
HETATM    3  C3  UNL     1     -33.228   7.263   5.062  1.00 20.00     0.290 C 
HETATM    4  C4  UNL     1     -32.427   7.274   1.477  1.00 20.00     0.038 C 
HETATM    5  C5  UNL     1     -31.868   8.698   1.302  1.00 20.00     0.007 C 
HETATM    6  C6  UNL     1     -31.977   9.374   2.679  1.00 20.00     0.037 C 
HETATM    7  C7  UNL     1     -31.754   8.221   3.638  1.00 20.00     0.162 C 
HETATM    8  O11 UNL     1     -33.820   6.981   6.091  1.00 20.00    -0.260 OA
HETATM    9  O12 UNL     1     -32.365   8.322   4.911  1.00 20.00    -0.308 OA
ENDROOT
BRANCH   1  10
HETATM   10  C10 UNL     1     -34.436   5.564   3.504  1.00 20.00     0.017 C 
HETATM   11  C8  UNL     1     -34.316   4.370   4.458  1.00 20.00     0.015 C 
HETATM   12  C9  UNL     1     -35.837   6.181   3.606  1.00 20.00     0.015 C 
ENDBRANCH   1  10
TORSDOF 1
ENDMDL
MODEL 4
REMARK VINA RESULT:      -4.5      1.431      2.127
REMARK  1 active torsions:
REMARK  status: ('A' for Active; 'I' for Inactive)
REMARK    1  A    between atoms: C1_1  and  C10_10 
ROOT
HETATM    1  C1  UNL     1     -35.611  14.885  -4.532  1.00 20.00     0.025 C 
HETATM    2  C2  UNL     1     -36.660  15.647  -4.248  1.00 20.00    -0.038 C 
HETATM    3  C3  UNL     1     -36.190  13.653  -5.104  1.00 20.00     0.290 C 
HETATM    4  C4  UNL     1     -36.831  17.107  -4.029  1.00 20.00     0.038 C 
HETATM    5  C5  UNL     1     -38.237  17.344  -4.614  1.00 20.00     0.007 C 
HETATM    6  C6  UNL     1     -38.611  16.056  -5.366  1.00 20.00     0.037 C 
HETATM    7  C7  UNL     1     -37.936  14.978  -4.542  1.00 20.00     0.162 C 
HETATM    8  O11 UNL     1     -35.553  12.680  -5.469  1.00 20.00    -0.260 OA
HETATM    9  O12 UNL     1     -37.552  13.799  -5.224  1.00 20.00    -0.308 OA
ENDROOT
BRANCH   1  10
HETATM   10  C10 UNL     1     -34.164  15.182  -4.525  1.00 20.00     0.017 C 
HETATM   11  C8  UNL     1     -33.749  15.926  -5.800  1.00 20.00     0.015 C 
HETATM   12  C9  UNL     1     -33.763  15.994  -3.287  1.00 20.00     0.015 C 
ENDBRANCH   1  10
TORSDOF 1
ENDMDL
MODEL 5
REMARK VINA RESULT:      -4.5     11.604     12.626
REMARK  1 active torsions:
REMARK  status: ('A' for Active; 'I' for Inactive)
REMARK    1  A    between atoms: C1_1  and  C10_10 
ROOT
HETATM    1  C1  UNL     1     -33.473   7.220   4.077  1.00 20.00     0.025 C 
HETATM    2  C2  UNL     1     -33.893   6.044   3.627  1.00 20.00    -0.038 C 
HETATM    3  C3  UNL     1     -33.861   7.234   5.501  1.00 20.00     0.290 C 
HETATM    4  C4  UNL     1     -33.524   5.207   2.456  1.00 20.00     0.038 C 
HETATM    5  C5  UNL     1     -33.697   3.786   3.025  1.00 20.00     0.007 C 
HETATM    6  C6  UNL     1     -33.871   3.950   4.544  1.00 20.00     0.037 C 
HETATM    7  C7  UNL     1     -34.605   5.272   4.657  1.00 20.00     0.162 C 
HETATM    8  O11 UNL     1     -33.678   8.162   6.271  1.00 20.00    -0.260 OA
HETATM    9  O12 UNL     1     -34.400   6.017   5.843  1.00 20.00    -0.308 OA
ENDROOT
BRANCH   1  10
HETATM   10  C10 UNL     1     -32.618   8.250   3.451  1.00 20.00     0.017 C 
HETATM   11  C8  UNL     1     -31.134   7.961   3.705  1.00 20.00     0.015 C 
HETATM   12  C9  UNL     1     -32.883   8.361   1.944  1.00 20.00     0.015 C 
ENDBRANCH   1  10
TORSDOF 1
ENDMDL
MODEL 6
REMARK VINA RESULT:      -4.4      4.191      6.120
REMARK  1 active torsions:
REMARK  status: ('A' for Active; 'I' for Inactive)
REMARK    1  A    between atoms: C1_1  and  C10_10 
ROOT
HETATM    1  C1  UNL     1     -33.319  18.296  -0.976  1.00 20.00     0.025 C 
HETATM    2  C2  UNL     1     -34.392  18.566  -0.244  1.00 20.00    -0.038 C 
HETATM    3  C3  UNL     1     -32.185  18.441  -0.043  1.00 20.00     0.290 C 
HETATM    4  C4  UNL     1     -35.837  18.250  -0.394  1.00 20.00     0.038 C 
HETATM    5  C5  UNL     1     -36.267  18.069   1.074  1.00 20.00     0.007 C 
HETATM    6  C6  UNL     1     -34.969  18.017   1.898  1.00 20.00     0.037 C 
HETATM    7  C7  UNL     1     -34.049  18.948   1.135  1.00 20.00     0.162 C 
HETATM    8  O11 UNL     1     -31.009  18.304  -0.337  1.00 20.00    -0.260 OA
HETATM    9  O12 UNL     1     -32.661  18.688   1.223  1.00 20.00    -0.308 OA
ENDROOT
BRANCH   1  10
HETATM   10  C10 UNL     1     -33.188  17.755  -2.345  1.00 20.00     0.017 C 
HETATM   11  C8  UNL     1     -34.055  16.504  -2.528  1.00 20.00     0.015 C 
HETATM   12  C9  UNL     1     -33.551  18.807  -3.402  1.00 20.00     0.015 C 
ENDBRANCH   1  10
TORSDOF 1
ENDMDL
MODEL 7
REMARK VINA RESULT:      -4.3      1.768      2.362
REMARK  1 active torsions:
REMARK  status: ('A' for Active; 'I' for Inactive)
REMARK    1  A    between atoms: C1_1  and  C10_10 
ROOT
HETATM    1  C1  UNL     1     -35.561  15.002  -4.920  1.00 20.00     0.025 C 
HETATM    2  C2  UNL     1     -36.095  16.001  -5.612  1.00 20.00    -0.038 C 
HETATM    3  C3  UNL     1     -36.120  13.782  -5.536  1.00 20.00     0.290 C 
HETATM    4  C4  UNL     1     -35.712  17.423  -5.813  1.00 20.00     0.038 C 
HETATM    5  C5  UNL     1     -36.170  17.663  -7.264  1.00 20.00     0.007 C 
HETATM    6  C6  UNL     1     -36.508  16.279  -7.842  1.00 20.00     0.037 C 
HETATM    7  C7  UNL     1     -37.041  15.532  -6.636  1.00 20.00     0.162 C 
HETATM    8  O11 UNL     1     -35.897  12.642  -5.167  1.00 20.00    -0.260 OA
HETATM    9  O12 UNL     1     -36.876  14.126  -6.631  1.00 20.00    -0.308 OA
ENDROOT
BRANCH   1  10
HETATM   10  C10 UNL     1     -34.488  14.987  -3.905  1.00 20.00     0.017 C 
HETATM   11  C8  UNL     1     -33.107  15.095  -4.563  1.00 20.00     0.015 C 
HETATM   12  C9  UNL     1     -34.670  16.112  -2.877  1.00 20.00     0.015 C 
ENDBRANCH   1  10
TORSDOF 1
ENDMDL
MODEL 8
REMARK VINA RESULT:      -4.3      1.802      2.655
REMARK  1 active torsions:
REMARK  status: ('A' for Active; 'I' for Inactive)
REMARK    1  A    between atoms: C1_1  and  C10_10 
ROOT
HETATM    1  C1  UNL     1     -34.806  15.892  -3.727  1.00 20.00     0.025 C 
HETATM    2  C2  UNL     1     -34.791  14.798  -4.479  1.00 20.00    -0.038 C 
HETATM    3  C3  UNL     1     -33.638  16.672  -4.182  1.00 20.00     0.290 C 
HETATM    4  C4  UNL     1     -35.827  13.797  -4.845  1.00 20.00     0.038 C 
HETATM    5  C5  UNL     1     -35.406  13.428  -6.280  1.00 20.00     0.007 C 
HETATM    6  C6  UNL     1     -34.345  14.461  -6.694  1.00 20.00     0.037 C 
HETATM    7  C7  UNL     1     -33.636  14.758  -5.388  1.00 20.00     0.162 C 
HETATM    8  O11 UNL     1     -33.281  17.741  -3.716  1.00 20.00    -0.260 OA
HETATM    9  O12 UNL     1     -33.054  16.041  -5.254  1.00 20.00    -0.308 OA
ENDROOT
BRANCH   1  10
HETATM   10  C10 UNL     1     -35.821  16.412  -2.788  1.00 20.00     0.017 C 
HETATM   11  C8  UNL     1     -35.178  16.835  -1.462  1.00 20.00     0.015 C 
HETATM   12  C9  UNL     1     -36.601  17.586  -3.394  1.00 20.00     0.015 C 
ENDBRANCH   1  10
TORSDOF 1
ENDMDL
MODEL 9
REMARK VINA RESULT:      -4.3      1.157      3.643
REMARK  1 active torsions:
REMARK  status: ('A' for Active; 'I' for Inactive)
REMARK    1  A    between atoms: C1_1  and  C10_10 
ROOT
HETATM    1  C1  UNL     1     -36.334  14.888  -5.313  1.00 20.00     0.025 C 
HETATM    2  C2  UNL     1     -35.641  15.894  -4.793  1.00 20.00    -0.038 C 
HETATM    3  C3  UNL     1     -35.559  13.681  -4.960  1.00 20.00     0.290 C 
HETATM    4  C4  UNL     1     -35.992  17.290  -4.423  1.00 20.00     0.038 C 
HETATM    5  C5  UNL     1     -35.096  17.516  -3.191  1.00 20.00     0.007 C 
HETATM    6  C6  UNL     1     -34.536  16.136  -2.808  1.00 20.00     0.037 C 
HETATM    7  C7  UNL     1     -34.397  15.446  -4.150  1.00 20.00     0.162 C 
HETATM    8  O11 UNL     1     -35.847  12.541  -5.282  1.00 20.00    -0.260 OA
HETATM    9  O12 UNL     1     -34.501  14.034  -4.157  1.00 20.00    -0.308 OA
ENDROOT
BRANCH   1  10
HETATM   10  C10 UNL     1     -37.678  14.847  -5.925  1.00 20.00     0.017 C 
HETATM   11  C8  UNL     1     -38.769  15.071  -4.871  1.00 20.00     0.015 C 
HETATM   12  C9  UNL     1     -37.814  15.879  -7.052  1.00 20.00     0.015 C 
ENDBRANCH   1  10
TORSDOF 1
ENDMDL
