MODEL 1
REMARK VINA RESULT:      -4.7      0.000      0.000
REMARK  1 active torsions:
REMARK  status: ('A' for Active; 'I' for Inactive)
REMARK    1  A    between atoms: C7_7  and  C11_11 
ROOT
HETATM    1  C1  UNL     1     -33.999   6.836   5.645  1.00 20.00    -0.023 C 
HETATM    2  C2  UNL     1     -33.224   7.560   4.821  1.00 20.00     0.007 C 
HETATM    3  C3  UNL     1     -33.127   5.636   3.223  1.00 20.00     0.050 C 
HETATM    4  C4  UNL     1     -35.248   6.507   2.797  1.00 20.00     0.174 C 
HETATM    5  C5  UNL     1     -34.758   5.623   5.149  1.00 20.00     0.010 C 
HETATM    6  C6  UNL     1     -34.576   5.397   3.618  1.00 20.00     0.020 C 
HETATM    7  C7  UNL     1     -33.088   7.159   3.369  1.00 20.00     0.082 C 
HETATM    8  C8  UNL     1     -34.327   4.385   5.941  1.00 20.00     0.015 C 
HETATM    9  O12 UNL     1     -34.299   7.595   2.710  1.00 20.00    -0.375 OA
ENDROOT
BRANCH   7  10
HETATM   10  C11 UNL     1     -31.877   7.786   2.698  1.00 20.00     0.016 C 
HETATM   11  C9  UNL     1     -32.304   8.710   1.557  1.00 20.00     0.013 C 
HETATM   12  C10 UNL     1     -31.029   8.553   3.714  1.00 20.00     0.013 C 
ENDBRANCH   7  10
TORSDOF 1
ENDMDL
MODEL 2
REMARK VINA RESULT:      -4.6     11.536     12.363
REMARK  1 active torsions:
REMARK  status: ('A' for Active; 'I' for Inactive)
REMARK    1  A    between atoms: C7_7  and  C11_11 
ROOT
HETATM    1  C1  UNL     1     -36.464  15.605  -4.416  1.00 20.00    -0.023 C 
HETATM    2  C2  UNL     1     -35.910  16.324  -3.427  1.00 20.00     0.007 C 
HETATM    3  C3  UNL     1     -33.749  15.103  -3.751  1.00 20.00     0.050 C 
HETATM    4  C4  UNL     1     -33.721  16.610  -5.530  1.00 20.00     0.174 C 
HETATM    5  C5  UNL     1     -35.611  14.886  -5.442  1.00 20.00     0.010 C 
HETATM    6  C6  UNL     1     -34.089  15.150  -5.232  1.00 20.00     0.020 C 
HETATM    7  C7  UNL     1     -34.405  16.415  -3.314  1.00 20.00     0.082 C 
HETATM    8  C8  UNL     1     -35.917  13.386  -5.408  1.00 20.00     0.015 C 
HETATM    9  O12 UNL     1     -33.977  17.361  -4.321  1.00 20.00    -0.375 OA
ENDROOT
BRANCH   7  10
HETATM   10  C11 UNL     1     -33.946  16.876  -1.940  1.00 20.00     0.016 C 
HETATM   11  C9  UNL     1     -33.071  18.125  -2.049  1.00 20.00     0.013 C 
HETATM   12  C10 UNL     1     -35.145  17.145  -1.029  1.00 20.00     0.013 C 
ENDBRANCH   7  10
TORSDOF 1
ENDMDL
MODEL 3
REMARK VINA RESULT:      -4.6     11.200     12.504
REMARK  1 active torsions:
REMARK  status: ('A' for Active; 'I' for Inactive)
REMARK    1  A    between atoms: C7_7  and  C11_11 
ROOT
HETATM    1  C1  UNL     1     -34.928  16.369  -3.003  1.00 20.00    -0.023 C 
HETATM    2  C2  UNL     1     -35.702  15.395  -3.507  1.00 20.00     0.007 C 
HETATM    3  C3  UNL     1     -34.433  15.502  -5.662  1.00 20.00     0.050 C 
HETATM    4  C4  UNL     1     -32.965  14.308  -4.298  1.00 20.00     0.174 C 
HETATM    5  C5  UNL     1     -33.578  16.696  -3.609  1.00 20.00     0.010 C 
HETATM    6  C6  UNL     1     -33.213  15.743  -4.787  1.00 20.00     0.020 C 
HETATM    7  C7  UNL     1     -35.236  14.609  -4.712  1.00 20.00     0.082 C 
HETATM    8  C8  UNL     1     -33.556  18.159  -4.062  1.00 20.00     0.015 C 
HETATM    9  O12 UNL     1     -34.257  13.662  -4.227  1.00 20.00    -0.375 OA
ENDROOT
BRANCH   7  10
HETATM   10  C11 UNL     1     -36.370  13.874  -5.408  1.00 20.00     0.016 C 
HETATM   11  C9  UNL     1     -37.723  14.468  -5.018  1.00 20.00     0.013 C 
HETATM   12  C10 UNL     1     -36.190  13.911  -6.926  1.00 20.00     0.013 C 
ENDBRANCH   7  10
TORSDOF 1
ENDMDL
MODEL 4
REMARK VINA RESULT:      -4.4     11.664     12.475
REMARK  1 active torsions:
REMARK  status: ('A' for Active; 'I' for Inactive)
REMARK    1  A    between atoms: C7_7  and  C11_11 
ROOT
HETATM    1  C1  UNL     1     -33.705  16.722  -2.657  1.00 20.00    -0.023 C 
HETATM    2  C2  UNL     1     -33.618  15.844  -3.669  1.00 20.00     0.007 C 
HETATM    3  C3  UNL     1     -36.104  15.557  -3.633  1.00 20.00     0.050 C 
HETATM    4  C4  UNL     1     -35.873  17.600  -4.732  1.00 20.00     0.174 C 
HETATM    5  C5  UNL     1     -35.009  17.420  -2.329  1.00 20.00     0.010 C 
HETATM    6  C6  UNL     1     -36.146  17.046  -3.327  1.00 20.00     0.020 C 
HETATM    7  C7  UNL     1     -34.842  15.527  -4.498  1.00 20.00     0.082 C 
HETATM    8  C8  UNL     1     -35.417  17.100  -0.888  1.00 20.00     0.015 C 
HETATM    9  O12 UNL     1     -35.023  16.641  -5.402  1.00 20.00    -0.375 OA
ENDROOT
BRANCH   7  10
HETATM   10  C11 UNL     1     -34.697  14.236  -5.288  1.00 20.00     0.016 C 
HETATM   11  C9  UNL     1     -36.013  13.458  -5.305  1.00 20.00     0.013 C 
HETATM   12  C10 UNL     1     -34.231  14.523  -6.717  1.00 20.00     0.013 C 
ENDBRANCH   7  10
TORSDOF 1
ENDMDL
MODEL 5
REMARK VINA RESULT:      -4.4      1.454      2.584
REMARK  1 active torsions:
REMARK  status: ('A' for Active; 'I' for Inactive)
REMARK    1  A    between atoms: C7_7  and  C11_11 
ROOT
HETATM    1  C1  UNL     1     -33.163   5.568   2.895  1.00 20.00    -0.023 C 
HETATM    2  C2  UNL     1     -32.679   6.477   2.033  1.00 20.00     0.007 C 
HETATM    3  C3  UNL     1     -34.033   8.259   3.154  1.00 20.00     0.050 C 
HETATM    4  C4  UNL     1     -32.257   7.998   4.642  1.00 20.00     0.174 C 
HETATM    5  C5  UNL     1     -33.778   5.983   4.216  1.00 20.00     0.010 C 
HETATM    6  C6  UNL     1     -33.704   7.524   4.443  1.00 20.00     0.020 C 
HETATM    7  C7  UNL     1     -32.755   7.949   2.370  1.00 20.00     0.082 C 
HETATM    8  C8  UNL     1     -35.225   5.488   4.290  1.00 20.00     0.015 C 
HETATM    9  O12 UNL     1     -31.700   8.205   3.324  1.00 20.00    -0.375 OA
ENDROOT
BRANCH   7  10
HETATM   10  C11 UNL     1     -32.580   8.840   1.150  1.00 20.00     0.016 C 
HETATM   11  C9  UNL     1     -32.845  10.304   1.503  1.00 20.00     0.013 C 
HETATM   12  C10 UNL     1     -31.178   8.680   0.558  1.00 20.00     0.013 C 
ENDBRANCH   7  10
TORSDOF 1
ENDMDL
MODEL 6
REMARK VINA RESULT:      -4.4     11.311     12.551
REMARK  1 active torsions:
REMARK  status: ('A' for Active; 'I' for Inactive)
REMARK    1  A    between atoms: C7_7  and  C11_11 
ROOT
HETATM    1  C1  UNL     1     -35.172  16.234  -2.739  1.00 20.00    -0.023 C 
HETATM    2  C2  UNL     1     -35.974  15.612  -3.619  1.00 20.00     0.007 C 
HETATM    3  C3  UNL     1     -34.358  16.130  -5.458  1.00 20.00     0.050 C 
HETATM    4  C4  UNL     1     -33.313  14.339  -4.391  1.00 20.00     0.174 C 
HETATM    5  C5  UNL     1     -33.708  16.480  -3.044  1.00 20.00     0.010 C 
HETATM    6  C6  UNL     1     -33.281  15.874  -4.416  1.00 20.00     0.020 C 
HETATM    7  C7  UNL     1     -35.421  15.154  -4.949  1.00 20.00     0.082 C 
HETATM    8  C8  UNL     1     -33.415  17.982  -2.994  1.00 20.00     0.015 C 
HETATM    9  O12 UNL     1     -34.673  13.944  -4.685  1.00 20.00    -0.375 OA
ENDROOT
BRANCH   7  10
HETATM   10  C11 UNL     1     -36.510  14.878  -5.974  1.00 20.00     0.016 C 
HETATM   11  C9  UNL     1     -36.031  13.869  -7.018  1.00 20.00     0.013 C 
HETATM   12  C10 UNL     1     -37.783  14.374  -5.291  1.00 20.00     0.013 C 
ENDBRANCH   7  10
TORSDOF 1
ENDMDL
MODEL 7
REMARK VINA RESULT:      -4.3     11.179     12.505
REMARK  1 active torsions:
REMARK  status: ('A' for Active; 'I' for Inactive)
REMARK    1  A    between atoms: C7_7  and  C11_11 
ROOT
HETATM    1  C1  UNL     1     -36.657  16.026  -6.044  1.00 20.00    -0.023 C 
HETATM    2  C2  UNL     1     -35.370  16.200  -5.704  1.00 20.00     0.007 C 
HETATM    3  C3  UNL     1     -35.337  13.925  -4.662  1.00 20.00     0.050 C 
HETATM    4  C4  UNL     1     -35.182  13.415  -6.932  1.00 20.00     0.174 C 
HETATM    5  C5  UNL     1     -37.274  14.644  -6.113  1.00 20.00     0.010 C 
HETATM    6  C6  UNL     1     -36.235  13.519  -5.820  1.00 20.00     0.020 C 
HETATM    7  C7  UNL     1     -34.511  15.002  -5.367  1.00 20.00     0.082 C 
HETATM    8  C8  UNL     1     -38.460  14.559  -5.149  1.00 20.00     0.015 C 
HETATM    9  O12 UNL     1     -34.155  14.388  -6.628  1.00 20.00    -0.375 OA
ENDROOT
BRANCH   7  10
HETATM   10  C11 UNL     1     -33.253  15.379  -4.601  1.00 20.00     0.016 C 
HETATM   11  C9  UNL     1     -33.591  16.267  -3.404  1.00 20.00     0.013 C 
HETATM   12  C10 UNL     1     -32.502  14.128  -4.140  1.00 20.00     0.013 C 
ENDBRANCH   7  10
TORSDOF 1
ENDMDL
MODEL 8
REMARK VINA RESULT:      -4.3      1.217      3.880
REMARK  1 active torsions:
REMARK  status: ('A' for Active; 'I' for Inactive)
REMARK    1  A    between atoms: C7_7  and  C11_11 
ROOT
HETATM    1  C1  UNL     1     -31.699   8.228   3.356  1.00 20.00    -0.023 C 
HETATM    2  C2  UNL     1     -32.370   7.631   4.354  1.00 20.00     0.007 C 
HETATM    3  C3  UNL     1     -34.344   7.327   2.845  1.00 20.00     0.050 C 
HETATM    4  C4  UNL     1     -32.921   5.628   2.122  1.00 20.00     0.174 C 
HETATM    5  C5  UNL     1     -32.113   8.047   1.909  1.00 20.00     0.010 C 
HETATM    6  C6  UNL     1     -33.314   7.066   1.757  1.00 20.00     0.020 C 
HETATM    7  C7  UNL     1     -33.572   6.768   4.043  1.00 20.00     0.082 C 
HETATM    8  C8  UNL     1     -32.437   9.410   1.291  1.00 20.00     0.015 C 
HETATM    9  O12 UNL     1     -33.056   5.508   3.557  1.00 20.00    -0.375 OA
ENDROOT
BRANCH   7  10
HETATM   10  C11 UNL     1     -34.455   6.533   5.258  1.00 20.00     0.016 C 
HETATM   11  C9  UNL     1     -34.577   5.040   5.561  1.00 20.00     0.013 C 
HETATM   12  C10 UNL     1     -33.913   7.281   6.477  1.00 20.00     0.013 C 
ENDBRANCH   7  10
TORSDOF 1
ENDMDL
MODEL 9
REMARK VINA RESULT:      -4.3     11.423     12.922
REMARK  1 active torsions:
REMARK  status: ('A' for Active; 'I' for Inactive)
REMARK    1  A    between atoms: C7_7  and  C11_11 
ROOT
HETATM    1  C1  UNL     1     -33.652  16.133  -6.285  1.00 20.00    -0.023 C 
HETATM    2  C2  UNL     1     -33.338  16.281  -4.987  1.00 20.00     0.007 C 
HETATM    3  C3  UNL     1     -35.771  16.303  -4.401  1.00 20.00     0.050 C 
HETATM    4  C4  UNL     1     -35.381  14.030  -4.746  1.00 20.00     0.174 C 
HETATM    5  C5  UNL     1     -35.015  15.628  -6.713  1.00 20.00     0.010 C 
HETATM    6  C6  UNL     1     -35.917  15.258  -5.496  1.00 20.00     0.020 C 
HETATM    7  C7  UNL     1     -34.360  15.952  -3.923  1.00 20.00     0.082 C 
HETATM    8  C8  UNL     1     -35.696  16.672  -7.602  1.00 20.00     0.015 C 
HETATM    9  O12 UNL     1     -34.387  14.511  -3.813  1.00 20.00    -0.375 OA
ENDROOT
BRANCH   7  10
HETATM   10  C11 UNL     1     -34.023  16.570  -2.575  1.00 20.00     0.016 C 
HETATM   11  C9  UNL     1     -33.321  17.916  -2.753  1.00 20.00     0.013 C 
HETATM   12  C10 UNL     1     -35.282  16.735  -1.722  1.00 20.00     0.013 C 
ENDBRANCH   7  10
TORSDOF 1
ENDMDL
