MODEL 1
REMARK VINA RESULT:      -6.1      0.000      0.000
REMARK  2 active torsions:
REMARK  status: ('A' for Active; 'I' for Inactive)
REMARK    1  A    between atoms: C1_1  and  C5_5 
REMARK    2  A    between atoms: C2_2  and  C3_3 
ROOT
HETATM    1  C1  UNL     1     -33.049   7.507   4.721  1.00 20.00     0.134 C 
HETATM    2  C2  UNL     1     -34.027   6.721   5.184  1.00 20.00     0.166 C 
HETATM    3  F7  UNL     1     -34.453   6.825   6.462  1.00 20.00    -0.202 F 
ENDROOT
BRANCH   1   4
HETATM    4  C5  UNL     1     -32.515   7.466   3.332  1.00 20.00     0.410 C 
HETATM    5  F8  UNL     1     -32.370   6.209   2.840  1.00 20.00    -0.167 F 
HETATM    6  F9  UNL     1     -31.296   8.058   3.254  1.00 20.00    -0.167 F 
HETATM    7  F10 UNL     1     -33.328   8.130   2.471  1.00 20.00    -0.167 F 
ENDBRANCH   1   4
BRANCH   2   8
HETATM    8  C3  UNL     1     -34.742   5.682   4.399  1.00 20.00     0.183 C 
HETATM    9  C4  UNL     1     -34.370   4.233   4.576  1.00 20.00     0.099 C 
HETATM   10  O6  UNL     1     -35.628   6.022   3.615  1.00 20.00    -0.290 OA
ENDBRANCH   2   8
TORSDOF 2
ENDMDL
MODEL 2
REMARK VINA RESULT:      -5.5      1.397      2.290
REMARK  2 active torsions:
REMARK  status: ('A' for Active; 'I' for Inactive)
REMARK    1  A    between atoms: C1_1  and  C5_5 
REMARK    2  A    between atoms: C2_2  and  C3_3 
ROOT
HETATM    1  C1  UNL     1     -32.566   6.276   2.889  1.00 20.00     0.134 C 
HETATM    2  C2  UNL     1     -33.483   5.337   3.147  1.00 20.00     0.166 C 
HETATM    3  F7  UNL     1     -33.407   4.118   2.570  1.00 20.00    -0.202 F 
ENDROOT
BRANCH   1   4
HETATM    4  C5  UNL     1     -32.566   7.645   3.476  1.00 20.00     0.410 C 
HETATM    5  F8  UNL     1     -32.603   7.656   4.833  1.00 20.00    -0.167 F 
HETATM    6  F9  UNL     1     -33.637   8.364   3.051  1.00 20.00    -0.167 F 
HETATM    7  F10 UNL     1     -31.459   8.339   3.110  1.00 20.00    -0.167 F 
ENDBRANCH   1   4
BRANCH   2   8
HETATM    8  C3  UNL     1     -34.647   5.497   4.055  1.00 20.00     0.183 C 
HETATM    9  C4  UNL     1     -34.538   5.043   5.487  1.00 20.00     0.099 C 
HETATM   10  O6  UNL     1     -35.685   5.999   3.623  1.00 20.00    -0.290 OA
ENDBRANCH   2   8
TORSDOF 2
ENDMDL
MODEL 3
REMARK VINA RESULT:      -5.3      1.814      1.961
REMARK  2 active torsions:
REMARK  status: ('A' for Active; 'I' for Inactive)
REMARK    1  A    between atoms: C1_1  and  C5_5 
REMARK    2  A    between atoms: C2_2  and  C3_3 
ROOT
HETATM    1  C1  UNL     1     -34.332   6.817   2.929  1.00 20.00     0.134 C 
HETATM    2  C2  UNL     1     -35.105   5.984   3.635  1.00 20.00     0.166 C 
HETATM    3  F7  UNL     1     -36.449   6.015   3.513  1.00 20.00    -0.202 F 
ENDROOT
BRANCH   1   4
HETATM    4  C5  UNL     1     -32.845   6.857   2.997  1.00 20.00     0.410 C 
HETATM    5  F8  UNL     1     -32.259   5.645   2.826  1.00 20.00    -0.167 F 
HETATM    6  F9  UNL     1     -32.418   7.332   4.195  1.00 20.00    -0.167 F 
HETATM    7  F10 UNL     1     -32.330   7.676   2.045  1.00 20.00    -0.167 F 
ENDBRANCH   1   4
BRANCH   2   8
HETATM    8  C3  UNL     1     -34.615   4.965   4.599  1.00 20.00     0.183 C 
HETATM    9  C4  UNL     1     -34.446   5.337   6.048  1.00 20.00     0.099 C 
HETATM   10  O6  UNL     1     -34.356   3.831   4.198  1.00 20.00    -0.290 OA
ENDBRANCH   2   8
TORSDOF 2
ENDMDL
MODEL 4
REMARK VINA RESULT:      -5.0      1.999      3.310
REMARK  2 active torsions:
REMARK  status: ('A' for Active; 'I' for Inactive)
REMARK    1  A    between atoms: C1_1  and  C5_5 
REMARK    2  A    between atoms: C2_2  and  C3_3 
ROOT
HETATM    1  C1  UNL     1     -34.186   6.145   5.283  1.00 20.00     0.134 C 
HETATM    2  C2  UNL     1     -33.455   7.248   5.092  1.00 20.00     0.166 C 
HETATM    3  F7  UNL     1     -33.096   8.030   6.133  1.00 20.00    -0.202 F 
ENDROOT
BRANCH   1   4
HETATM    4  C5  UNL     1     -34.628   5.223   4.201  1.00 20.00     0.410 C 
HETATM    5  F8  UNL     1     -33.664   4.957   3.283  1.00 20.00    -0.167 F 
HETATM    6  F9  UNL     1     -35.685   5.733   3.518  1.00 20.00    -0.167 F 
HETATM    7  F10 UNL     1     -35.028   4.027   4.704  1.00 20.00    -0.167 F 
ENDBRANCH   1   4
BRANCH   2   8
HETATM    8  C3  UNL     1     -32.963   7.738   3.779  1.00 20.00     0.183 C 
HETATM    9  C4  UNL     1     -31.495   8.023   3.598  1.00 20.00     0.099 C 
HETATM   10  O6  UNL     1     -33.762   7.903   2.858  1.00 20.00    -0.290 OA
ENDBRANCH   2   8
TORSDOF 2
ENDMDL
MODEL 5
REMARK VINA RESULT:      -5.0      2.002      3.144
REMARK  2 active torsions:
REMARK  status: ('A' for Active; 'I' for Inactive)
REMARK    1  A    between atoms: C1_1  and  C5_5 
REMARK    2  A    between atoms: C2_2  and  C3_3 
ROOT
HETATM    1  C1  UNL     1     -34.187   6.140   5.292  1.00 20.00     0.134 C 
HETATM    2  C2  UNL     1     -33.464   7.249   5.101  1.00 20.00     0.166 C 
HETATM    3  F7  UNL     1     -33.111   8.034   6.141  1.00 20.00    -0.202 F 
ENDROOT
BRANCH   1   4
HETATM    4  C5  UNL     1     -34.623   5.214   4.210  1.00 20.00     0.410 C 
HETATM    5  F8  UNL     1     -35.024   3.998   4.661  1.00 20.00    -0.167 F 
HETATM    6  F9  UNL     1     -33.622   4.990   3.320  1.00 20.00    -0.167 F 
HETATM    7  F10 UNL     1     -35.662   5.732   3.507  1.00 20.00    -0.167 F 
ENDBRANCH   1   4
BRANCH   2   8
HETATM    8  C3  UNL     1     -32.977   7.743   3.787  1.00 20.00     0.183 C 
HETATM    9  C4  UNL     1     -31.508   8.013   3.596  1.00 20.00     0.099 C 
HETATM   10  O6  UNL     1     -33.782   7.923   2.874  1.00 20.00    -0.290 OA
ENDBRANCH   2   8
TORSDOF 2
ENDMDL
MODEL 6
REMARK VINA RESULT:      -4.9      1.914      3.507
REMARK  2 active torsions:
REMARK  status: ('A' for Active; 'I' for Inactive)
REMARK    1  A    between atoms: C1_1  and  C5_5 
REMARK    2  A    between atoms: C2_2  and  C3_3 
ROOT
HETATM    1  C1  UNL     1     -33.791   6.674   5.343  1.00 20.00     0.134 C 
HETATM    2  C2  UNL     1     -32.971   7.341   4.523  1.00 20.00     0.166 C 
HETATM    3  F7  UNL     1     -32.213   8.360   4.979  1.00 20.00    -0.202 F 
ENDROOT
BRANCH   1   4
HETATM    4  C5  UNL     1     -34.663   5.539   4.933  1.00 20.00     0.410 C 
HETATM    5  F8  UNL     1     -33.982   4.495   4.396  1.00 20.00    -0.167 F 
HETATM    6  F9  UNL     1     -35.575   5.928   4.005  1.00 20.00    -0.167 F 
HETATM    7  F10 UNL     1     -35.362   5.048   5.987  1.00 20.00    -0.167 F 
ENDBRANCH   1   4
BRANCH   2   8
HETATM    8  C3  UNL     1     -32.792   7.065   3.075  1.00 20.00     0.183 C 
HETATM    9  C4  UNL     1     -32.753   8.213   2.101  1.00 20.00     0.099 C 
HETATM   10  O6  UNL     1     -32.678   5.901   2.692  1.00 20.00    -0.290 OA
ENDBRANCH   2   8
TORSDOF 2
ENDMDL
MODEL 7
REMARK VINA RESULT:      -4.8      2.167      3.841
REMARK  2 active torsions:
REMARK  status: ('A' for Active; 'I' for Inactive)
REMARK    1  A    between atoms: C1_1  and  C5_5 
REMARK    2  A    between atoms: C2_2  and  C3_3 
ROOT
HETATM    1  C1  UNL     1     -33.841   4.616   3.999  1.00 20.00     0.134 C 
HETATM    2  C2  UNL     1     -33.177   5.150   2.968  1.00 20.00     0.166 C 
HETATM    3  F7  UNL     1     -32.435   4.376   2.147  1.00 20.00    -0.202 F 
ENDROOT
BRANCH   1   4
HETATM    4  C5  UNL     1     -34.682   5.388   4.956  1.00 20.00     0.410 C 
HETATM    5  F8  UNL     1     -34.028   6.419   5.548  1.00 20.00    -0.167 F 
HETATM    6  F9  UNL     1     -35.146   4.594   5.956  1.00 20.00    -0.167 F 
HETATM    7  F10 UNL     1     -35.770   5.917   4.341  1.00 20.00    -0.167 F 
ENDBRANCH   1   4
BRANCH   2   8
HETATM    8  C3  UNL     1     -33.166   6.589   2.604  1.00 20.00     0.183 C 
HETATM    9  C4  UNL     1     -32.093   7.487   3.163  1.00 20.00     0.099 C 
HETATM   10  O6  UNL     1     -34.033   7.027   1.849  1.00 20.00    -0.290 OA
ENDBRANCH   2   8
TORSDOF 2
ENDMDL
MODEL 8
REMARK VINA RESULT:      -4.8      1.705      2.713
REMARK  2 active torsions:
REMARK  status: ('A' for Active; 'I' for Inactive)
REMARK    1  A    between atoms: C1_1  and  C5_5 
REMARK    2  A    between atoms: C2_2  and  C3_3 
ROOT
HETATM    1  C1  UNL     1     -34.036   4.613   3.875  1.00 20.00     0.134 C 
HETATM    2  C2  UNL     1     -34.407   5.405   4.887  1.00 20.00     0.166 C 
HETATM    3  F7  UNL     1     -35.037   4.898   5.968  1.00 20.00    -0.202 F 
ENDROOT
BRANCH   1   4
HETATM    4  C5  UNL     1     -33.338   5.080   2.645  1.00 20.00     0.410 C 
HETATM    5  F8  UNL     1     -34.135   5.778   1.797  1.00 20.00    -0.167 F 
HETATM    6  F9  UNL     1     -32.835   4.036   1.937  1.00 20.00    -0.167 F 
HETATM    7  F10 UNL     1     -32.290   5.887   2.948  1.00 20.00    -0.167 F 
ENDBRANCH   1   4
BRANCH   2   8
HETATM    8  C3  UNL     1     -34.187   6.872   4.956  1.00 20.00     0.183 C 
HETATM    9  C4  UNL     1     -33.471   7.459   6.145  1.00 20.00     0.099 C 
HETATM   10  O6  UNL     1     -34.592   7.588   4.041  1.00 20.00    -0.290 OA
ENDBRANCH   2   8
TORSDOF 2
ENDMDL
MODEL 9
REMARK VINA RESULT:      -4.7      1.600      3.267
REMARK  2 active torsions:
REMARK  status: ('A' for Active; 'I' for Inactive)
REMARK    1  A    between atoms: C1_1  and  C5_5 
REMARK    2  A    between atoms: C2_2  and  C3_3 
ROOT
HETATM    1  C1  UNL     1     -33.452   7.100   4.899  1.00 20.00     0.134 C 
HETATM    2  C2  UNL     1     -33.098   7.003   3.612  1.00 20.00     0.166 C 
HETATM    3  F7  UNL     1     -32.255   7.899   3.056  1.00 20.00    -0.202 F 
ENDROOT
BRANCH   1   4
HETATM    4  C5  UNL     1     -34.373   6.162   5.598  1.00 20.00     0.410 C 
HETATM    5  F8  UNL     1     -33.805   4.969   5.907  1.00 20.00    -0.167 F 
HETATM    6  F9  UNL     1     -35.467   5.889   4.841  1.00 20.00    -0.167 F 
HETATM    7  F10 UNL     1     -34.826   6.692   6.763  1.00 20.00    -0.167 F 
ENDBRANCH   1   4
BRANCH   2   8
HETATM    8  C3  UNL     1     -33.560   5.952   2.670  1.00 20.00     0.183 C 
HETATM    9  C4  UNL     1     -32.873   4.611   2.662  1.00 20.00     0.099 C 
HETATM   10  O6  UNL     1     -34.497   6.192   1.910  1.00 20.00    -0.290 OA
ENDBRANCH   2   8
TORSDOF 2
ENDMDL
