MODEL 1
REMARK VINA RESULT:      -5.2      0.000      0.000
REMARK  0 active torsions:
REMARK  status: ('A' for Active; 'I' for Inactive)
ROOT
HETATM    1  C1  UNL     1     -33.207   4.280   3.463  1.00 20.00    -0.028 C 
HETATM    2  C2  UNL     1     -32.856   5.421   2.846  1.00 20.00     0.003 C 
HETATM    3  C3  UNL     1     -33.243   7.143   4.470  1.00 20.00     0.154 C 
HETATM    4  C4  UNL     1     -34.379   4.223   4.413  1.00 20.00     0.032 C 
HETATM    5  C5  UNL     1     -34.150   6.532   5.522  1.00 20.00     0.085 C 
HETATM    6  C6  UNL     1     -35.130   6.367   3.340  1.00 20.00     0.043 C 
HETATM    7  C7  UNL     1     -35.040   5.602   4.667  1.00 20.00    -0.002 C 
HETATM    8  C8  UNL     1     -33.648   6.675   3.088  1.00 20.00     0.115 C 
HETATM    9  O9  UNL     1     -32.298   7.876   4.730  1.00 20.00    -0.295 OA
HETATM   10 CL10 UNL     1     -33.405   7.914   1.876  1.00 20.00    -0.106 Cl
ENDROOT
TORSDOF 0
ENDMDL
MODEL 2
REMARK VINA RESULT:      -4.6     12.037     13.035
REMARK  0 active torsions:
REMARK  status: ('A' for Active; 'I' for Inactive)
ROOT
HETATM    1  C1  UNL     1     -33.394  15.468  -4.125  1.00 20.00    -0.028 C 
HETATM    2  C2  UNL     1     -34.655  15.157  -3.778  1.00 20.00     0.003 C 
HETATM    3  C3  UNL     1     -35.464  13.778  -5.566  1.00 20.00     0.154 C 
HETATM    4  C4  UNL     1     -33.011  15.729  -5.562  1.00 20.00     0.032 C 
HETATM    5  C5  UNL     1     -34.520  14.007  -6.733  1.00 20.00     0.085 C 
HETATM    6  C6  UNL     1     -35.466  16.075  -5.971  1.00 20.00     0.043 C 
HETATM    7  C7  UNL     1     -34.172  15.503  -6.565  1.00 20.00    -0.002 C 
HETATM    8  C8  UNL     1     -35.722  15.078  -4.833  1.00 20.00     0.115 C 
HETATM    9  O9  UNL     1     -35.907  12.680  -5.257  1.00 20.00    -0.295 OA
HETATM   10 CL10 UNL     1     -37.352  15.166  -4.203  1.00 20.00    -0.106 Cl
ENDROOT
TORSDOF 0
ENDMDL
MODEL 3
REMARK VINA RESULT:      -4.4     11.994     12.761
REMARK  0 active torsions:
REMARK  status: ('A' for Active; 'I' for Inactive)
ROOT
HETATM    1  C1  UNL     1     -35.320  16.320  -2.715  1.00 20.00    -0.028 C 
HETATM    2  C2  UNL     1     -36.161  15.863  -3.658  1.00 20.00     0.003 C 
HETATM    3  C3  UNL     1     -34.935  14.144  -4.796  1.00 20.00     0.154 C 
HETATM    4  C4  UNL     1     -33.836  16.441  -2.969  1.00 20.00     0.032 C 
HETATM    5  C5  UNL     1     -33.476  14.360  -4.436  1.00 20.00     0.085 C 
HETATM    6  C6  UNL     1     -34.423  16.335  -5.410  1.00 20.00     0.043 C 
HETATM    7  C7  UNL     1     -33.397  15.901  -4.355  1.00 20.00    -0.002 C 
HETATM    8  C8  UNL     1     -35.628  15.474  -5.008  1.00 20.00     0.115 C 
HETATM    9  O9  UNL     1     -35.463  13.042  -4.860  1.00 20.00    -0.295 OA
HETATM   10 CL10 UNL     1     -36.851  15.386  -6.257  1.00 20.00    -0.106 Cl
ENDROOT
TORSDOF 0
ENDMDL
MODEL 4
REMARK VINA RESULT:      -4.2     12.193     13.315
REMARK  0 active torsions:
REMARK  status: ('A' for Active; 'I' for Inactive)
ROOT
HETATM    1  C1  UNL     1     -35.772  16.805  -5.602  1.00 20.00    -0.028 C 
HETATM    2  C2  UNL     1     -35.596  15.868  -6.550  1.00 20.00     0.003 C 
HETATM    3  C3  UNL     1     -34.930  13.899  -5.354  1.00 20.00     0.154 C 
HETATM    4  C4  UNL     1     -34.876  16.880  -4.389  1.00 20.00     0.032 C 
HETATM    5  C5  UNL     1     -34.486  14.371  -3.981  1.00 20.00     0.085 C 
HETATM    6  C6  UNL     1     -33.259  15.486  -5.713  1.00 20.00     0.043 C 
HETATM    7  C7  UNL     1     -33.836  15.733  -4.313  1.00 20.00    -0.002 C 
HETATM    8  C8  UNL     1     -34.476  14.875  -6.419  1.00 20.00     0.115 C 
HETATM    9  O9  UNL     1     -35.595  12.889  -5.543  1.00 20.00    -0.295 OA
HETATM   10 CL10 UNL     1     -34.063  14.069  -7.917  1.00 20.00    -0.106 Cl
ENDROOT
TORSDOF 0
ENDMDL
MODEL 5
REMARK VINA RESULT:      -4.0     11.821     12.881
REMARK  0 active torsions:
REMARK  status: ('A' for Active; 'I' for Inactive)
ROOT
HETATM    1  C1  UNL     1     -35.647  16.225  -6.577  1.00 20.00    -0.028 C 
HETATM    2  C2  UNL     1     -35.001  16.351  -5.405  1.00 20.00     0.003 C 
HETATM    3  C3  UNL     1     -34.960  14.137  -4.483  1.00 20.00     0.154 C 
HETATM    4  C4  UNL     1     -36.811  15.278  -6.741  1.00 20.00     0.032 C 
HETATM    5  C5  UNL     1     -36.014  13.348  -5.238  1.00 20.00     0.085 C 
HETATM    6  C6  UNL     1     -36.962  15.307  -4.233  1.00 20.00     0.043 C 
HETATM    7  C7  UNL     1     -37.098  14.422  -5.479  1.00 20.00    -0.002 C 
HETATM    8  C8  UNL     1     -35.446  15.546  -4.217  1.00 20.00     0.115 C 
HETATM    9  O9  UNL     1     -33.863  13.688  -4.180  1.00 20.00    -0.295 OA
HETATM   10 CL10 UNL     1     -34.869  16.163  -2.684  1.00 20.00    -0.106 Cl
ENDROOT
TORSDOF 0
ENDMDL
MODEL 6
REMARK VINA RESULT:      -4.0     11.961     12.999
REMARK  0 active torsions:
REMARK  status: ('A' for Active; 'I' for Inactive)
ROOT
HETATM    1  C1  UNL     1     -35.177  16.552  -6.422  1.00 20.00    -0.028 C 
HETATM    2  C2  UNL     1     -34.307  15.587  -6.078  1.00 20.00     0.003 C 
HETATM    3  C3  UNL     1     -35.643  13.901  -5.019  1.00 20.00     0.154 C 
HETATM    4  C4  UNL     1     -36.350  16.909  -5.541  1.00 20.00     0.032 C 
HETATM    5  C5  UNL     1     -36.956  14.571  -4.658  1.00 20.00     0.085 C 
HETATM    6  C6  UNL     1     -35.099  15.746  -3.699  1.00 20.00     0.043 C 
HETATM    7  C7  UNL     1     -36.490  15.999  -4.294  1.00 20.00    -0.002 C 
HETATM    8  C8  UNL     1     -34.485  14.848  -4.782  1.00 20.00     0.115 C 
HETATM    9  O9  UNL     1     -35.562  12.768  -5.474  1.00 20.00    -0.295 OA
HETATM   10 CL10 UNL     1     -33.049  14.008  -4.239  1.00 20.00    -0.106 Cl
ENDROOT
TORSDOF 0
ENDMDL
MODEL 7
REMARK VINA RESULT:      -3.9     12.258     13.076
REMARK  0 active torsions:
REMARK  status: ('A' for Active; 'I' for Inactive)
ROOT
HETATM    1  C1  UNL     1     -35.189  13.211  -6.824  1.00 20.00    -0.028 C 
HETATM    2  C2  UNL     1     -34.441  14.246  -7.242  1.00 20.00     0.003 C 
HETATM    3  C3  UNL     1     -33.587  15.240  -5.234  1.00 20.00     0.154 C 
HETATM    4  C4  UNL     1     -36.020  13.293  -5.566  1.00 20.00     0.032 C 
HETATM    5  C5  UNL     1     -34.453  14.714  -4.104  1.00 20.00     0.085 C 
HETATM    6  C6  UNL     1     -35.787  15.786  -5.783  1.00 20.00     0.043 C 
HETATM    7  C7  UNL     1     -35.836  14.621  -4.786  1.00 20.00    -0.002 C 
HETATM    8  C8  UNL     1     -34.433  15.527  -6.457  1.00 20.00     0.115 C 
HETATM    9  O9  UNL     1     -32.372  15.367  -5.156  1.00 20.00    -0.295 OA
HETATM   10 CL10 UNL     1     -33.843  16.908  -7.356  1.00 20.00    -0.106 Cl
ENDROOT
TORSDOF 0
ENDMDL
MODEL 8
REMARK VINA RESULT:      -3.9     11.855     12.949
REMARK  0 active torsions:
REMARK  status: ('A' for Active; 'I' for Inactive)
ROOT
HETATM    1  C1  UNL     1     -34.123  16.680  -5.974  1.00 20.00    -0.028 C 
HETATM    2  C2  UNL     1     -35.009  15.678  -6.105  1.00 20.00     0.003 C 
HETATM    3  C3  UNL     1     -36.088  15.527  -3.968  1.00 20.00     0.154 C 
HETATM    4  C4  UNL     1     -33.365  16.903  -4.687  1.00 20.00     0.032 C 
HETATM    5  C5  UNL     1     -35.194  16.271  -2.993  1.00 20.00     0.085 C 
HETATM    6  C6  UNL     1     -33.982  14.535  -4.117  1.00 20.00     0.043 C 
HETATM    7  C7  UNL     1     -33.788  15.944  -3.543  1.00 20.00    -0.002 C 
HETATM    8  C8  UNL     1     -35.251  14.741  -4.955  1.00 20.00     0.115 C 
HETATM    9  O9  UNL     1     -37.309  15.601  -3.962  1.00 20.00    -0.295 OA
HETATM   10 CL10 UNL     1     -36.017  13.236  -5.415  1.00 20.00    -0.106 Cl
ENDROOT
TORSDOF 0
ENDMDL
MODEL 9
REMARK VINA RESULT:      -3.9     12.090     13.149
REMARK  0 active torsions:
REMARK  status: ('A' for Active; 'I' for Inactive)
ROOT
HETATM    1  C1  UNL     1     -33.300  16.789  -4.964  1.00 20.00    -0.028 C 
HETATM    2  C2  UNL     1     -33.617  15.973  -5.983  1.00 20.00     0.003 C 
HETATM    3  C3  UNL     1     -35.890  15.325  -5.571  1.00 20.00     0.154 C 
HETATM    4  C4  UNL     1     -33.811  16.542  -3.565  1.00 20.00     0.032 C 
HETATM    5  C5  UNL     1     -36.160  15.649  -4.113  1.00 20.00     0.085 C 
HETATM    6  C6  UNL     1     -34.268  14.194  -4.333  1.00 20.00     0.043 C 
HETATM    7  C7  UNL     1     -34.792  15.344  -3.464  1.00 20.00    -0.002 C 
HETATM    8  C8  UNL     1     -34.489  14.774  -5.737  1.00 20.00     0.115 C 
HETATM    9  O9  UNL     1     -36.692  15.529  -6.472  1.00 20.00    -0.295 OA
HETATM   10 CL10 UNL     1     -34.404  13.562  -6.997  1.00 20.00    -0.106 Cl
ENDROOT
TORSDOF 0
ENDMDL
