MODEL 1
REMARK VINA RESULT:      -5.3      0.000      0.000
REMARK  1 active torsions:
REMARK  status: ('A' for Active; 'I' for Inactive)
REMARK    1  A    between atoms: C6_6  and  C11_11 
ROOT
HETATM    1  C1  UNL     1     -35.076  13.974  -4.748  1.00 20.00     0.136 C 
HETATM    2  C2  UNL     1     -33.697  14.315  -4.159  1.00 20.00     0.085 C 
HETATM    3  C3  UNL     1     -36.031  16.803  -2.831  1.00 20.00     0.006 C 
HETATM    4  C4  UNL     1     -36.662  15.816  -3.807  1.00 20.00     0.018 C 
HETATM    5  C5  UNL     1     -34.195  15.775  -3.985  1.00 20.00     0.012 C 
HETATM    6  C6  UNL     1     -34.646  16.209  -2.585  1.00 20.00    -0.006 C 
HETATM    7  C7  UNL     1     -35.516  15.458  -4.761  1.00 20.00     0.021 C 
HETATM    8  C8  UNL     1     -35.649  16.074  -6.143  1.00 20.00     0.024 C 
HETATM    9  O12 UNL     1     -35.611  12.935  -5.074  1.00 20.00    -0.297 OA
ENDROOT
BRANCH   6  10
HETATM   10  C11 UNL     1     -33.677  17.200  -1.965  1.00 20.00    -0.018 C 
HETATM   11  C9  UNL     1     -33.355  18.322  -2.950  1.00 20.00     0.010 C 
HETATM   12  C10 UNL     1     -34.247  17.770  -0.669  1.00 20.00     0.010 C 
ENDBRANCH   6  10
TORSDOF 1
ENDMDL
MODEL 2
REMARK VINA RESULT:      -5.2     11.056     12.002
REMARK  1 active torsions:
REMARK  status: ('A' for Active; 'I' for Inactive)
REMARK    1  A    between atoms: C6_6  and  C11_11 
ROOT
HETATM    1  C1  UNL     1     -33.922   4.509   3.813  1.00 20.00     0.136 C 
HETATM    2  C2  UNL     1     -33.069   4.857   2.582  1.00 20.00     0.085 C 
HETATM    3  C3  UNL     1     -33.151   7.866   4.664  1.00 20.00     0.006 C 
HETATM    4  C4  UNL     1     -33.982   6.709   5.209  1.00 20.00     0.018 C 
HETATM    5  C5  UNL     1     -33.424   6.347   2.826  1.00 20.00     0.012 C 
HETATM    6  C6  UNL     1     -32.372   7.224   3.518  1.00 20.00    -0.006 C 
HETATM    7  C7  UNL     1     -34.440   5.961   3.952  1.00 20.00     0.021 C 
HETATM    8  C8  UNL     1     -35.911   6.151   3.623  1.00 20.00     0.024 C 
HETATM    9  O12 UNL     1     -34.113   3.485   4.435  1.00 20.00    -0.297 OA
ENDROOT
BRANCH   6  10
HETATM   10  C11 UNL     1     -31.774   8.242   2.563  1.00 20.00    -0.018 C 
HETATM   11  C9  UNL     1     -32.561   8.276   1.255  1.00 20.00     0.010 C 
HETATM   12  C10 UNL     1     -31.740   9.626   3.207  1.00 20.00     0.010 C 
ENDBRANCH   6  10
TORSDOF 1
ENDMDL
MODEL 3
REMARK VINA RESULT:      -4.9      9.586     10.794
REMARK  1 active torsions:
REMARK  status: ('A' for Active; 'I' for Inactive)
REMARK    1  A    between atoms: C6_6  and  C11_11 
ROOT
HETATM    1  C1  UNL     1     -33.311   5.710   3.044  1.00 20.00     0.136 C 
HETATM    2  C2  UNL     1     -34.172   6.343   1.939  1.00 20.00     0.085 C 
HETATM    3  C3  UNL     1     -31.617   8.817   2.801  1.00 20.00     0.006 C 
HETATM    4  C4  UNL     1     -31.561   7.546   3.641  1.00 20.00     0.018 C 
HETATM    5  C5  UNL     1     -33.732   7.733   2.469  1.00 20.00     0.012 C 
HETATM    6  C6  UNL     1     -32.621   8.465   1.706  1.00 20.00    -0.006 C 
HETATM    7  C7  UNL     1     -33.021   7.081   3.701  1.00 20.00     0.021 C 
HETATM    8  C8  UNL     1     -33.682   7.297   5.051  1.00 20.00     0.024 C 
HETATM    9  O12 UNL     1     -32.986   4.569   3.298  1.00 20.00    -0.297 OA
ENDROOT
BRANCH   6  10
HETATM   10  C11 UNL     1     -33.152   9.684   0.973  1.00 20.00    -0.018 C 
HETATM   11  C9  UNL     1     -32.348  10.927   1.348  1.00 20.00     0.010 C 
HETATM   12  C10 UNL     1     -33.123   9.459  -0.536  1.00 20.00     0.010 C 
ENDBRANCH   6  10
TORSDOF 1
ENDMDL
MODEL 4
REMARK VINA RESULT:      -4.5      1.454      2.584
REMARK  1 active torsions:
REMARK  status: ('A' for Active; 'I' for Inactive)
REMARK    1  A    between atoms: C6_6  and  C11_11 
ROOT
HETATM    1  C1  UNL     1     -34.396  13.911  -5.757  1.00 20.00     0.136 C 
HETATM    2  C2  UNL     1     -35.559  13.841  -4.755  1.00 20.00     0.085 C 
HETATM    3  C3  UNL     1     -33.879  17.038  -4.163  1.00 20.00     0.006 C 
HETATM    4  C4  UNL     1     -33.220  16.178  -5.235  1.00 20.00     0.018 C 
HETATM    5  C5  UNL     1     -34.772  14.832  -3.857  1.00 20.00     0.012 C 
HETATM    6  C6  UNL     1     -35.192  16.307  -3.891  1.00 20.00    -0.006 C 
HETATM    7  C7  UNL     1     -33.519  14.742  -4.789  1.00 20.00     0.021 C 
HETATM    8  C8  UNL     1     -32.314  14.007  -4.227  1.00 20.00     0.024 C 
HETATM    9  O12 UNL     1     -34.233  13.479  -6.880  1.00 20.00    -0.297 OA
ENDROOT
BRANCH   6  10
HETATM   10  C11 UNL     1     -35.850  16.733  -2.590  1.00 20.00    -0.018 C 
HETATM   11  C9  UNL     1     -34.801  16.921  -1.496  1.00 20.00     0.010 C 
HETATM   12  C10 UNL     1     -36.654  18.015  -2.790  1.00 20.00     0.010 C 
ENDBRANCH   6  10
TORSDOF 1
ENDMDL
MODEL 5
REMARK VINA RESULT:      -4.5      1.504      2.531
REMARK  1 active torsions:
REMARK  status: ('A' for Active; 'I' for Inactive)
REMARK    1  A    between atoms: C6_6  and  C11_11 
ROOT
HETATM    1  C1  UNL     1     -35.925  15.980  -6.258  1.00 20.00     0.136 C 
HETATM    2  C2  UNL     1     -36.215  16.946  -5.098  1.00 20.00     0.085 C 
HETATM    3  C3  UNL     1     -33.268  15.010  -4.116  1.00 20.00     0.006 C 
HETATM    4  C4  UNL     1     -33.860  14.603  -5.461  1.00 20.00     0.018 C 
HETATM    5  C5  UNL     1     -35.473  15.956  -4.161  1.00 20.00     0.012 C 
HETATM    6  C6  UNL     1     -34.026  16.291  -3.777  1.00 20.00    -0.006 C 
HETATM    7  C7  UNL     1     -35.357  14.898  -5.308  1.00 20.00     0.021 C 
HETATM    8  C8  UNL     1     -36.218  13.655  -5.165  1.00 20.00     0.024 C 
HETATM    9  O12 UNL     1     -36.083  16.046  -7.459  1.00 20.00    -0.297 OA
ENDROOT
BRANCH   6  10
HETATM   10  C11 UNL     1     -33.910  16.680  -2.313  1.00 20.00    -0.018 C 
HETATM   11  C9  UNL     1     -33.163  18.004  -2.168  1.00 20.00     0.010 C 
HETATM   12  C10 UNL     1     -35.292  16.768  -1.670  1.00 20.00     0.010 C 
ENDBRANCH   6  10
TORSDOF 1
ENDMDL
MODEL 6
REMARK VINA RESULT:      -4.4      1.503      2.699
REMARK  1 active torsions:
REMARK  status: ('A' for Active; 'I' for Inactive)
REMARK    1  A    between atoms: C6_6  and  C11_11 
ROOT
HETATM    1  C1  UNL     1     -35.887  16.279  -4.922  1.00 20.00     0.136 C 
HETATM    2  C2  UNL     1     -36.862  16.555  -3.766  1.00 20.00     0.085 C 
HETATM    3  C3  UNL     1     -33.493  16.950  -2.392  1.00 20.00     0.006 C 
HETATM    4  C4  UNL     1     -33.522  16.520  -3.854  1.00 20.00     0.018 C 
HETATM    5  C5  UNL     1     -35.725  16.161  -2.787  1.00 20.00     0.012 C 
HETATM    6  C6  UNL     1     -34.952  17.296  -2.103  1.00 20.00    -0.006 C 
HETATM    7  C7  UNL     1     -34.812  15.700  -3.971  1.00 20.00     0.021 C 
HETATM    8  C8  UNL     1     -34.582  14.204  -4.099  1.00 20.00     0.024 C 
HETATM    9  O12 UNL     1     -35.944  16.452  -6.122  1.00 20.00    -0.297 OA
ENDROOT
BRANCH   6  10
HETATM   10  C11 UNL     1     -35.262  17.371  -0.618  1.00 20.00    -0.018 C 
HETATM   11  C9  UNL     1     -34.147  18.103   0.126  1.00 20.00     0.010 C 
HETATM   12  C10 UNL     1     -36.605  18.056  -0.384  1.00 20.00     0.010 C 
ENDBRANCH   6  10
TORSDOF 1
ENDMDL
MODEL 7
REMARK VINA RESULT:      -4.4      2.120      4.374
REMARK  1 active torsions:
REMARK  status: ('A' for Active; 'I' for Inactive)
REMARK    1  A    between atoms: C6_6  and  C11_11 
ROOT
HETATM    1  C1  UNL     1     -34.041  16.661  -2.735  1.00 20.00     0.136 C 
HETATM    2  C2  UNL     1     -35.521  16.242  -2.756  1.00 20.00     0.085 C 
HETATM    3  C3  UNL     1     -33.859  14.289  -5.368  1.00 20.00     0.006 C 
HETATM    4  C4  UNL     1     -32.944  15.277  -4.652  1.00 20.00     0.018 C 
HETATM    5  C5  UNL     1     -35.322  15.818  -4.235  1.00 20.00     0.012 C 
HETATM    6  C6  UNL     1     -35.132  14.323  -4.526  1.00 20.00    -0.006 C 
HETATM    7  C7  UNL     1     -33.880  16.425  -4.257  1.00 20.00     0.021 C 
HETATM    8  C8  UNL     1     -33.694  17.685  -5.083  1.00 20.00     0.024 C 
HETATM    9  O12 UNL     1     -33.291  17.032  -1.857  1.00 20.00    -0.297 OA
ENDROOT
BRANCH   6  10
HETATM   10  C11 UNL     1     -36.334  13.734  -5.243  1.00 20.00    -0.018 C 
HETATM   11  C9  UNL     1     -37.588  14.555  -4.950  1.00 20.00     0.010 C 
HETATM   12  C10 UNL     1     -36.079  13.660  -6.746  1.00 20.00     0.010 C 
ENDBRANCH   6  10
TORSDOF 1
ENDMDL
MODEL 8
REMARK VINA RESULT:      -4.4      1.880      2.827
REMARK  1 active torsions:
REMARK  status: ('A' for Active; 'I' for Inactive)
REMARK    1  A    between atoms: C6_6  and  C11_11 
ROOT
HETATM    1  C1  UNL     1     -35.147  13.390  -6.657  1.00 20.00     0.136 C 
HETATM    2  C2  UNL     1     -34.824  14.641  -7.490  1.00 20.00     0.085 C 
HETATM    3  C3  UNL     1     -34.197  15.537  -3.997  1.00 20.00     0.006 C 
HETATM    4  C4  UNL     1     -34.735  14.124  -4.190  1.00 20.00     0.018 C 
HETATM    5  C5  UNL     1     -35.099  15.489  -6.221  1.00 20.00     0.012 C 
HETATM    6  C6  UNL     1     -33.887  15.988  -5.423  1.00 20.00    -0.006 C 
HETATM    7  C7  UNL     1     -35.611  14.232  -5.443  1.00 20.00     0.021 C 
HETATM    8  C8  UNL     1     -37.102  14.177  -5.160  1.00 20.00     0.024 C 
HETATM    9  O12 UNL     1     -35.066  12.199  -6.873  1.00 20.00    -0.297 OA
ENDROOT
BRANCH   6  10
HETATM   10  C11 UNL     1     -33.715  17.492  -5.546  1.00 20.00    -0.018 C 
HETATM   11  C9  UNL     1     -34.945  18.121  -6.195  1.00 20.00     0.010 C 
HETATM   12  C10 UNL     1     -33.450  18.115  -4.178  1.00 20.00     0.010 C 
ENDBRANCH   6  10
TORSDOF 1
ENDMDL
MODEL 9
REMARK VINA RESULT:      -4.3     10.839     12.042
REMARK  1 active torsions:
REMARK  status: ('A' for Active; 'I' for Inactive)
REMARK    1  A    between atoms: C6_6  and  C11_11 
ROOT
HETATM    1  C1  UNL     1     -32.619   8.717   2.138  1.00 20.00     0.136 C 
HETATM    2  C2  UNL     1     -33.273   7.428   1.615  1.00 20.00     0.085 C 
HETATM    3  C3  UNL     1     -33.556   7.322   5.262  1.00 20.00     0.006 C 
HETATM    4  C4  UNL     1     -32.807   8.540   4.731  1.00 20.00     0.018 C 
HETATM    5  C5  UNL     1     -32.979   6.785   2.996  1.00 20.00     0.012 C 
HETATM    6  C6  UNL     1     -34.137   6.694   3.998  1.00 20.00    -0.006 C 
HETATM    7  C7  UNL     1     -32.148   8.032   3.443  1.00 20.00     0.021 C 
HETATM    8  C8  UNL     1     -30.646   7.834   3.556  1.00 20.00     0.024 C 
HETATM    9  O12 UNL     1     -32.516   9.841   1.692  1.00 20.00    -0.297 OA
ENDROOT
BRANCH   6  10
HETATM   10  C11 UNL     1     -34.590   5.259   4.203  1.00 20.00    -0.018 C 
HETATM   11  C9  UNL     1     -33.678   4.296   3.447  1.00 20.00     0.010 C 
HETATM   12  C10 UNL     1     -34.624   4.914   5.689  1.00 20.00     0.010 C 
ENDBRANCH   6  10
TORSDOF 1
ENDMDL
