MODEL 1
REMARK VINA RESULT:      -5.1      0.000      0.000
REMARK  0 active torsions:
REMARK  status: ('A' for Active; 'I' for Inactive)
ROOT
HETATM    1  C1  UNL     1     -32.001   8.416   1.984  1.00 20.00     0.001 C 
HETATM    2  C2  UNL     1     -31.363   8.357   3.370  1.00 20.00     0.001 C 
HETATM    3  C3  UNL     1     -34.756   5.713   5.097  1.00 20.00     0.004 C 
HETATM    4  C4  UNL     1     -34.469   4.330   4.518  1.00 20.00     0.034 C 
HETATM    5  C5  UNL     1     -33.425   7.896   2.153  1.00 20.00     0.012 C 
HETATM    6  C6  UNL     1     -32.389   7.698   4.292  1.00 20.00     0.012 C 
HETATM    7  C7  UNL     1     -34.754   6.784   4.006  1.00 20.00     0.012 C 
HETATM    8  C8  UNL     1     -33.304   4.329   3.583  1.00 20.00     0.152 A 
HETATM    9  C9  UNL     1     -32.776   5.604   2.972  1.00 20.00     0.159 A 
HETATM   10  C10 UNL     1     -33.361   6.946   3.361  1.00 20.00    -0.012 C 
HETATM   11  O11 UNL     1     -33.650   4.735   2.245  1.00 20.00    -0.375 OA
ENDROOT
TORSDOF 0
ENDMDL
MODEL 2
REMARK VINA RESULT:      -4.6     11.546     12.603
REMARK  0 active torsions:
REMARK  status: ('A' for Active; 'I' for Inactive)
ROOT
HETATM    1  C1  UNL     1     -35.539  16.360  -2.786  1.00 20.00     0.001 C 
HETATM    2  C2  UNL     1     -36.179  17.180  -3.905  1.00 20.00     0.001 C 
HETATM    3  C3  UNL     1     -34.044  14.766  -7.237  1.00 20.00     0.004 C 
HETATM    4  C4  UNL     1     -34.814  13.448  -7.281  1.00 20.00     0.034 C 
HETATM    5  C5  UNL     1     -34.414  15.563  -3.439  1.00 20.00     0.012 C 
HETATM    6  C6  UNL     1     -35.488  16.756  -5.202  1.00 20.00     0.012 C 
HETATM    7  C7  UNL     1     -33.628  15.120  -5.809  1.00 20.00     0.012 C 
HETATM    8  C8  UNL     1     -35.878  13.370  -6.236  1.00 20.00     0.152 A 
HETATM    9  C9  UNL     1     -35.884  14.288  -5.038  1.00 20.00     0.159 A 
HETATM   10  C10 UNL     1     -34.849  15.386  -4.902  1.00 20.00    -0.012 C 
HETATM   11  O11 UNL     1     -35.381  12.950  -4.950  1.00 20.00    -0.375 OA
ENDROOT
TORSDOF 0
ENDMDL
MODEL 3
REMARK VINA RESULT:      -4.5     11.495     12.516
REMARK  0 active torsions:
REMARK  status: ('A' for Active; 'I' for Inactive)
ROOT
HETATM    1  C1  UNL     1     -35.068  16.848  -1.838  1.00 20.00     0.001 C 
HETATM    2  C2  UNL     1     -36.049  17.490  -2.816  1.00 20.00     0.001 C 
HETATM    3  C3  UNL     1     -33.846  15.803  -6.529  1.00 20.00     0.004 C 
HETATM    4  C4  UNL     1     -34.242  14.329  -6.548  1.00 20.00     0.034 C 
HETATM    5  C5  UNL     1     -33.876  16.395  -2.676  1.00 20.00     0.012 C 
HETATM    6  C6  UNL     1     -35.461  17.293  -4.214  1.00 20.00     0.012 C 
HETATM    7  C7  UNL     1     -33.341  16.226  -5.150  1.00 20.00     0.012 C 
HETATM    8  C8  UNL     1     -35.091  13.948  -5.380  1.00 20.00     0.152 A 
HETATM    9  C9  UNL     1     -35.169  14.806  -4.141  1.00 20.00     0.159 A 
HETATM   10  C10 UNL     1     -34.449  16.137  -4.078  1.00 20.00    -0.012 C 
HETATM   11  O11 UNL     1     -34.327  13.649  -4.196  1.00 20.00    -0.375 OA
ENDROOT
TORSDOF 0
ENDMDL
MODEL 4
REMARK VINA RESULT:      -4.5      1.416      2.389
REMARK  0 active torsions:
REMARK  status: ('A' for Active; 'I' for Inactive)
ROOT
HETATM    1  C1  UNL     1     -31.771   9.188   2.441  1.00 20.00     0.001 C 
HETATM    2  C2  UNL     1     -32.928   8.963   1.470  1.00 20.00     0.001 C 
HETATM    3  C3  UNL     1     -33.874   4.756   3.173  1.00 20.00     0.004 C 
HETATM    4  C4  UNL     1     -34.577   5.050   4.496  1.00 20.00     0.034 C 
HETATM    5  C5  UNL     1     -31.473   7.826   3.062  1.00 20.00     0.012 C 
HETATM    6  C6  UNL     1     -33.352   7.503   1.631  1.00 20.00     0.012 C 
HETATM    7  C7  UNL     1     -32.564   5.537   3.053  1.00 20.00     0.012 C 
HETATM    8  C8  UNL     1     -34.638   6.511   4.801  1.00 20.00     0.152 A 
HETATM    9  C9  UNL     1     -33.743   7.506   4.105  1.00 20.00     0.159 A 
HETATM   10  C10 UNL     1     -32.804   7.061   3.002  1.00 20.00    -0.012 C 
HETATM   11  O11 UNL     1     -33.436   7.014   5.414  1.00 20.00    -0.375 OA
ENDROOT
TORSDOF 0
ENDMDL
MODEL 5
REMARK VINA RESULT:      -4.5     11.352     12.324
REMARK  0 active torsions:
REMARK  status: ('A' for Active; 'I' for Inactive)
ROOT
HETATM    1  C1  UNL     1     -33.691  16.698  -2.435  1.00 20.00     0.001 C 
HETATM    2  C2  UNL     1     -35.128  16.657  -1.919  1.00 20.00     0.001 C 
HETATM    3  C3  UNL     1     -36.856  15.539  -6.073  1.00 20.00     0.004 C 
HETATM    4  C4  UNL     1     -36.496  14.063  -6.230  1.00 20.00     0.034 C 
HETATM    5  C5  UNL     1     -33.791  16.692  -3.957  1.00 20.00     0.012 C 
HETATM    6  C6  UNL     1     -36.026  16.513  -3.148  1.00 20.00     0.012 C 
HETATM    7  C7  UNL     1     -35.638  16.368  -5.665  1.00 20.00     0.012 C 
HETATM    8  C8  UNL     1     -35.686  13.545  -5.087  1.00 20.00     0.152 A 
HETATM    9  C9  UNL     1     -34.965  14.472  -4.139  1.00 20.00     0.159 A 
HETATM   10  C10 UNL     1     -35.114  15.974  -4.267  1.00 20.00    -0.012 C 
HETATM   11  O11 UNL     1     -34.279  13.824  -5.216  1.00 20.00    -0.375 OA
ENDROOT
TORSDOF 0
ENDMDL
MODEL 6
REMARK VINA RESULT:      -4.4     11.882     12.958
REMARK  0 active torsions:
REMARK  status: ('A' for Active; 'I' for Inactive)
ROOT
HETATM    1  C1  UNL     1     -35.555  17.517  -1.257  1.00 20.00     0.001 C 
HETATM    2  C2  UNL     1     -34.064  17.827  -1.136  1.00 20.00     0.001 C 
HETATM    3  C3  UNL     1     -32.989  15.368  -4.916  1.00 20.00     0.004 C 
HETATM    4  C4  UNL     1     -33.442  16.260  -6.070  1.00 20.00     0.034 C 
HETATM    5  C5  UNL     1     -35.668  16.384  -2.272  1.00 20.00     0.012 C 
HETATM    6  C6  UNL     1     -33.354  16.948  -2.166  1.00 20.00     0.012 C 
HETATM    7  C7  UNL     1     -34.095  15.203  -3.873  1.00 20.00     0.012 C 
HETATM    8  C8  UNL     1     -34.111  17.510  -5.601  1.00 20.00     0.152 A 
HETATM    9  C9  UNL     1     -34.645  17.646  -4.196  1.00 20.00     0.159 A 
HETATM   10  C10 UNL     1     -34.439  16.540  -3.182  1.00 20.00    -0.012 C 
HETATM   11  O11 UNL     1     -35.506  17.327  -5.294  1.00 20.00    -0.375 OA
ENDROOT
TORSDOF 0
ENDMDL
MODEL 7
REMARK VINA RESULT:      -4.3     11.305     12.154
REMARK  0 active torsions:
REMARK  status: ('A' for Active; 'I' for Inactive)
ROOT
HETATM    1  C1  UNL     1     -33.248  18.169  -2.197  1.00 20.00     0.001 C 
HETATM    2  C2  UNL     1     -34.044  17.430  -1.123  1.00 20.00     0.001 C 
HETATM    3  C3  UNL     1     -36.715  15.265  -4.233  1.00 20.00     0.004 C 
HETATM    4  C4  UNL     1     -35.803  14.181  -4.803  1.00 20.00     0.034 C 
HETATM    5  C5  UNL     1     -34.032  17.996  -3.495  1.00 20.00     0.012 C 
HETATM    6  C6  UNL     1     -35.211  16.749  -1.840  1.00 20.00     0.012 C 
HETATM    7  C7  UNL     1     -36.033  16.633  -4.252  1.00 20.00     0.012 C 
HETATM    8  C8  UNL     1     -34.418  14.246  -4.247  1.00 20.00     0.152 A 
HETATM    9  C9  UNL     1     -33.897  15.481  -3.555  1.00 20.00     0.159 A 
HETATM   10  C10 UNL     1     -34.800  16.676  -3.323  1.00 20.00    -0.012 C 
HETATM   11  O11 UNL     1     -33.579  15.202  -4.922  1.00 20.00    -0.375 OA
ENDROOT
TORSDOF 0
ENDMDL
MODEL 8
REMARK VINA RESULT:      -4.2     11.354     12.942
REMARK  0 active torsions:
REMARK  status: ('A' for Active; 'I' for Inactive)
ROOT
HETATM    1  C1  UNL     1     -35.956  13.495  -5.135  1.00 20.00     0.001 C 
HETATM    2  C2  UNL     1     -37.094  14.497  -4.947  1.00 20.00     0.001 C 
HETATM    3  C3  UNL     1     -34.342  17.627  -2.917  1.00 20.00     0.004 C 
HETATM    4  C4  UNL     1     -33.543  18.215  -4.078  1.00 20.00     0.034 C 
HETATM    5  C5  UNL     1     -34.805  13.999  -4.270  1.00 20.00     0.012 C 
HETATM    6  C6  UNL     1     -36.542  15.621  -4.069  1.00 20.00     0.012 C 
HETATM    7  C7  UNL     1     -34.307  16.098  -2.935  1.00 20.00     0.012 C 
HETATM    8  C8  UNL     1     -33.853  17.554  -5.381  1.00 20.00     0.152 A 
HETATM    9  C9  UNL     1     -34.534  16.209  -5.448  1.00 20.00     0.159 A 
HETATM   10  C10 UNL     1     -35.008  15.521  -4.184  1.00 20.00    -0.012 C 
HETATM   11  O11 UNL     1     -33.115  16.334  -5.589  1.00 20.00    -0.375 OA
ENDROOT
TORSDOF 0
ENDMDL
MODEL 9
REMARK VINA RESULT:      -4.2     11.488     13.054
REMARK  0 active torsions:
REMARK  status: ('A' for Active; 'I' for Inactive)
ROOT
HETATM    1  C1  UNL     1     -35.721  13.769  -7.918  1.00 20.00     0.001 C 
HETATM    2  C2  UNL     1     -36.814  14.729  -7.453  1.00 20.00     0.001 C 
HETATM    3  C3  UNL     1     -34.754  15.503  -3.374  1.00 20.00     0.004 C 
HETATM    4  C4  UNL     1     -33.594  16.432  -3.723  1.00 20.00     0.034 C 
HETATM    5  C5  UNL     1     -34.898  13.437  -6.677  1.00 20.00     0.012 C 
HETATM    6  C6  UNL     1     -36.535  15.024  -5.979  1.00 20.00     0.012 C 
HETATM    7  C7  UNL     1     -34.779  14.276  -4.286  1.00 20.00     0.012 C 
HETATM    8  C8  UNL     1     -33.486  16.688  -5.191  1.00 20.00     0.152 A 
HETATM    9  C9  UNL     1     -34.163  15.799  -6.204  1.00 20.00     0.159 A 
HETATM   10  C10 UNL     1     -35.054  14.658  -5.757  1.00 20.00    -0.012 C 
HETATM   11  O11 UNL     1     -32.773  15.655  -5.897  1.00 20.00    -0.375 OA
ENDROOT
TORSDOF 0
ENDMDL
