MODEL 1
REMARK VINA RESULT:      -5.7      0.000      0.000
REMARK  2 active torsions:
REMARK  status: ('A' for Active; 'I' for Inactive)
REMARK    1  A    between atoms: C1_1  and  C2_2 
REMARK    2  A    between atoms: C1_1  and  C3_3 
ROOT
HETATM    1  C1  UNL     1     -33.704   6.690   4.493  1.00 20.00     0.280 C 
HETATM    2  O4  UNL     1     -33.366   7.368   5.465  1.00 20.00    -0.284 OA
ENDROOT
BRANCH   1   3
HETATM    3  C2  UNL     1     -33.104   6.927   3.132  1.00 20.00     0.344 C 
HETATM    4  F5  UNL     1     -32.636   5.767   2.596  1.00 20.00    -0.224 F 
HETATM    5 CL9  UNL     1     -31.761   8.065   3.300  1.00 20.00    -0.081 Cl
ENDBRANCH   1   3
BRANCH   1   6
HETATM    6  C3  UNL     1     -34.704   5.579   4.633  1.00 20.00     0.455 C 
HETATM    7  F6  UNL     1     -34.197   4.384   4.239  1.00 20.00    -0.163 F 
HETATM    8  F7  UNL     1     -35.821   5.799   3.893  1.00 20.00    -0.163 F 
HETATM    9  F8  UNL     1     -35.113   5.424   5.919  1.00 20.00    -0.163 F 
ENDBRANCH   1   6
TORSDOF 2
ENDMDL
MODEL 2
REMARK VINA RESULT:      -5.4      2.148      3.396
REMARK  2 active torsions:
REMARK  status: ('A' for Active; 'I' for Inactive)
REMARK    1  A    between atoms: C1_1  and  C2_2 
REMARK    2  A    between atoms: C1_1  and  C3_3 
ROOT
HETATM    1  C1  UNL     1     -33.802   6.858   4.353  1.00 20.00     0.280 C 
HETATM    2  O4  UNL     1     -33.988   7.363   5.461  1.00 20.00    -0.284 OA
ENDROOT
BRANCH   1   3
HETATM    3  C2  UNL     1     -34.621   5.683   3.885  1.00 20.00     0.344 C 
HETATM    4  F5  UNL     1     -35.922   6.035   3.703  1.00 20.00    -0.224 F 
HETATM    5 CL9  UNL     1     -34.536   4.414   5.114  1.00 20.00    -0.081 Cl
ENDBRANCH   1   3
BRANCH   1   6
HETATM    6  C3  UNL     1     -32.773   7.412   3.410  1.00 20.00     0.455 C 
HETATM    7  F6  UNL     1     -31.758   8.026   4.068  1.00 20.00    -0.163 F 
HETATM    8  F7  UNL     1     -33.301   8.325   2.555  1.00 20.00    -0.163 F 
HETATM    9  F8  UNL     1     -32.212   6.441   2.645  1.00 20.00    -0.163 F 
ENDBRANCH   1   6
TORSDOF 2
ENDMDL
MODEL 3
REMARK VINA RESULT:      -5.4      2.061      3.189
REMARK  2 active torsions:
REMARK  status: ('A' for Active; 'I' for Inactive)
REMARK    1  A    between atoms: C1_1  and  C2_2 
REMARK    2  A    between atoms: C1_1  and  C3_3 
ROOT
HETATM    1  C1  UNL     1     -34.577   5.817   3.972  1.00 20.00     0.280 C 
HETATM    2  O4  UNL     1     -35.773   5.928   3.698  1.00 20.00    -0.284 OA
ENDROOT
BRANCH   1   3
HETATM    3  C2  UNL     1     -34.112   5.703   5.399  1.00 20.00     0.344 C 
HETATM    4  F5  UNL     1     -35.051   5.095   6.173  1.00 20.00    -0.224 F 
HETATM    5 CL9  UNL     1     -33.817   7.330   6.026  1.00 20.00    -0.081 Cl
ENDBRANCH   1   3
BRANCH   1   6
HETATM    6  C3  UNL     1     -33.537   5.760   2.890  1.00 20.00     0.455 C 
HETATM    7  F6  UNL     1     -32.979   4.528   2.785  1.00 20.00    -0.163 F 
HETATM    8  F7  UNL     1     -32.524   6.637   3.107  1.00 20.00    -0.163 F 
HETATM    9  F8  UNL     1     -34.057   6.058   1.671  1.00 20.00    -0.163 F 
ENDBRANCH   1   6
TORSDOF 2
ENDMDL
MODEL 4
REMARK VINA RESULT:      -5.3      2.045      3.310
REMARK  2 active torsions:
REMARK  status: ('A' for Active; 'I' for Inactive)
REMARK    1  A    between atoms: C1_1  and  C2_2 
REMARK    2  A    between atoms: C1_1  and  C3_3 
ROOT
HETATM    1  C1  UNL     1     -33.597   6.663   4.267  1.00 20.00     0.280 C 
HETATM    2  O4  UNL     1     -32.946   7.528   4.854  1.00 20.00    -0.284 OA
ENDROOT
BRANCH   1   3
HETATM    3  C2  UNL     1     -34.660   5.869   4.981  1.00 20.00     0.344 C 
HETATM    4  F5  UNL     1     -34.616   6.090   6.322  1.00 20.00    -0.224 F 
HETATM    5 CL9  UNL     1     -34.381   4.151   4.672  1.00 20.00    -0.081 Cl
ENDBRANCH   1   3
BRANCH   1   6
HETATM    6  C3  UNL     1     -33.379   6.384   2.807  1.00 20.00     0.455 C 
HETATM    7  F6  UNL     1     -34.529   6.037   2.177  1.00 20.00    -0.163 F 
HETATM    8  F7  UNL     1     -32.495   5.373   2.605  1.00 20.00    -0.163 F 
HETATM    9  F8  UNL     1     -32.887   7.468   2.153  1.00 20.00    -0.163 F 
ENDBRANCH   1   6
TORSDOF 2
ENDMDL
MODEL 5
REMARK VINA RESULT:      -5.3      1.724      2.106
REMARK  2 active torsions:
REMARK  status: ('A' for Active; 'I' for Inactive)
REMARK    1  A    between atoms: C1_1  and  C2_2 
REMARK    2  A    between atoms: C1_1  and  C3_3 
ROOT
HETATM    1  C1  UNL     1     -33.555   5.801   3.511  1.00 20.00     0.280 C 
HETATM    2  O4  UNL     1     -33.025   5.082   2.663  1.00 20.00    -0.284 OA
ENDROOT
BRANCH   1   3
HETATM    3  C2  UNL     1     -33.114   7.227   3.709  1.00 20.00     0.344 C 
HETATM    4  F5  UNL     1     -34.182   8.044   3.918  1.00 20.00    -0.224 F 
HETATM    5 CL9  UNL     1     -32.261   7.759   2.254  1.00 20.00    -0.081 Cl
ENDBRANCH   1   3
BRANCH   1   6
HETATM    6  C3  UNL     1     -34.684   5.293   4.362  1.00 20.00     0.455 C 
HETATM    7  F6  UNL     1     -34.587   5.722   5.645  1.00 20.00    -0.163 F 
HETATM    8  F7  UNL     1     -34.728   3.937   4.399  1.00 20.00    -0.163 F 
HETATM    9  F8  UNL     1     -35.892   5.710   3.902  1.00 20.00    -0.163 F 
ENDBRANCH   1   6
TORSDOF 2
ENDMDL
MODEL 6
REMARK VINA RESULT:      -5.2      2.367      3.430
REMARK  2 active torsions:
REMARK  status: ('A' for Active; 'I' for Inactive)
REMARK    1  A    between atoms: C1_1  and  C2_2 
REMARK    2  A    between atoms: C1_1  and  C3_3 
ROOT
HETATM    1  C1  UNL     1     -33.597   5.709   3.291  1.00 20.00     0.280 C 
HETATM    2  O4  UNL     1     -32.983   4.861   2.641  1.00 20.00    -0.284 OA
ENDROOT
BRANCH   1   3
HETATM    3  C2  UNL     1     -34.736   5.321   4.197  1.00 20.00     0.344 C 
HETATM    4  F5  UNL     1     -35.905   5.873   3.776  1.00 20.00    -0.224 F 
HETATM    5 CL9  UNL     1     -34.380   5.904   5.828  1.00 20.00    -0.081 Cl
ENDBRANCH   1   3
BRANCH   1   6
HETATM    6  C3  UNL     1     -33.214   7.160   3.231  1.00 20.00     0.455 C 
HETATM    7  F6  UNL     1     -32.153   7.440   4.028  1.00 20.00    -0.163 F 
HETATM    8  F7  UNL     1     -34.229   7.974   3.619  1.00 20.00    -0.163 F 
HETATM    9  F8  UNL     1     -32.868   7.540   1.973  1.00 20.00    -0.163 F 
ENDBRANCH   1   6
TORSDOF 2
ENDMDL
MODEL 7
REMARK VINA RESULT:      -5.0      1.422      1.778
REMARK  2 active torsions:
REMARK  status: ('A' for Active; 'I' for Inactive)
REMARK    1  A    between atoms: C1_1  and  C2_2 
REMARK    2  A    between atoms: C1_1  and  C3_3 
ROOT
HETATM    1  C1  UNL     1     -33.656   6.881   4.510  1.00 20.00     0.280 C 
HETATM    2  O4  UNL     1     -33.954   7.449   5.561  1.00 20.00    -0.284 OA
ENDROOT
BRANCH   1   3
HETATM    3  C2  UNL     1     -32.477   7.333   3.688  1.00 20.00     0.344 C 
HETATM    4  F5  UNL     1     -31.754   8.276   4.348  1.00 20.00    -0.224 F 
HETATM    5 CL9  UNL     1     -33.078   8.023   2.175  1.00 20.00    -0.081 Cl
ENDBRANCH   1   3
BRANCH   1   6
HETATM    6  C3  UNL     1     -34.437   5.696   4.020  1.00 20.00     0.455 C 
HETATM    7  F6  UNL     1     -34.756   4.845   5.027  1.00 20.00    -0.163 F 
HETATM    8  F7  UNL     1     -33.751   4.977   3.095  1.00 20.00    -0.163 F 
HETATM    9  F8  UNL     1     -35.606   6.066   3.437  1.00 20.00    -0.163 F 
ENDBRANCH   1   6
TORSDOF 2
ENDMDL
MODEL 8
REMARK VINA RESULT:      -5.0      1.409      1.409
REMARK  2 active torsions:
REMARK  status: ('A' for Active; 'I' for Inactive)
REMARK    1  A    between atoms: C1_1  and  C2_2 
REMARK    2  A    between atoms: C1_1  and  C3_3 
ROOT
HETATM    1  C1  UNL     1     -33.666   6.891   4.530  1.00 20.00     0.280 C 
HETATM    2  O4  UNL     1     -33.958   7.474   5.574  1.00 20.00    -0.284 OA
ENDROOT
BRANCH   1   3
HETATM    3  C2  UNL     1     -32.487   7.325   3.699  1.00 20.00     0.344 C 
HETATM    4  F5  UNL     1     -31.755   8.272   4.345  1.00 20.00    -0.224 F 
HETATM    5 CL9  UNL     1     -33.089   8.001   2.180  1.00 20.00    -0.081 Cl
ENDBRANCH   1   3
BRANCH   1   6
HETATM    6  C3  UNL     1     -34.454   5.703   4.058  1.00 20.00     0.455 C 
HETATM    7  F6  UNL     1     -33.759   4.950   3.169  1.00 20.00    -0.163 F 
HETATM    8  F7  UNL     1     -35.613   6.066   3.450  1.00 20.00    -0.163 F 
HETATM    9  F8  UNL     1     -34.794   4.880   5.084  1.00 20.00    -0.163 F 
ENDBRANCH   1   6
TORSDOF 2
ENDMDL
MODEL 9
REMARK VINA RESULT:      -5.0      2.610      3.722
REMARK  2 active torsions:
REMARK  status: ('A' for Active; 'I' for Inactive)
REMARK    1  A    between atoms: C1_1  and  C2_2 
REMARK    2  A    between atoms: C1_1  and  C3_3 
ROOT
HETATM    1  C1  UNL     1     -33.330   6.158   3.230  1.00 20.00     0.280 C 
HETATM    2  O4  UNL     1     -32.896   5.166   2.642  1.00 20.00    -0.284 OA
ENDROOT
BRANCH   1   3
HETATM    3  C2  UNL     1     -34.479   6.049   4.197  1.00 20.00     0.344 C 
HETATM    4  F5  UNL     1     -34.295   6.867   5.269  1.00 20.00    -0.224 F 
HETATM    5 CL9  UNL     1     -34.582   4.377   4.762  1.00 20.00    -0.081 Cl
ENDBRANCH   1   3
BRANCH   1   6
HETATM    6  C3  UNL     1     -32.710   7.511   3.028  1.00 20.00     0.455 C 
HETATM    7  F6  UNL     1     -31.931   7.554   1.919  1.00 20.00    -0.163 F 
HETATM    8  F7  UNL     1     -31.930   7.878   4.077  1.00 20.00    -0.163 F 
HETATM    9  F8  UNL     1     -33.650   8.481   2.883  1.00 20.00    -0.163 F 
ENDBRANCH   1   6
TORSDOF 2
ENDMDL
