MODEL 1
REMARK VINA RESULT:      -4.3      0.000      0.000
REMARK  1 active torsions:
REMARK  status: ('A' for Active; 'I' for Inactive)
REMARK    1  A    between atoms: C4_4  and  C9_9 
ROOT
HETATM    1  C1  UNL     1     -33.379  15.824  -5.673  1.00 20.00     0.174 C 
HETATM    2  C2  UNL     1     -34.899  14.142  -4.449  1.00 20.00     0.083 C 
HETATM    3  C3  UNL     1     -33.951  14.400  -5.628  1.00 20.00     0.015 C 
HETATM    4  C4  UNL     1     -34.414  16.744  -3.700  1.00 20.00     0.108 C 
HETATM    5  C5  UNL     1     -34.605  14.054  -6.968  1.00 20.00     0.012 C 
HETATM    6  C6  UNL     1     -34.796  18.157  -4.148  1.00 20.00     0.058 C 
HETATM    7  O10 UNL     1     -33.199  16.341  -4.359  1.00 20.00    -0.369 OA
HETATM    8  S11 UNL     1     -35.839  15.621  -3.981  1.00 20.00    -0.131 SA
ENDROOT
BRANCH   4   9
HETATM    9  C9  UNL     1     -34.101  16.749  -2.201  1.00 20.00     0.022 C 
HETATM   10  C7  UNL     1     -33.112  17.861  -1.870  1.00 20.00     0.013 C 
HETATM   11  C8  UNL     1     -35.383  16.905  -1.392  1.00 20.00     0.013 C 
ENDBRANCH   4   9
TORSDOF 1
ENDMDL
MODEL 2
REMARK VINA RESULT:      -4.2      1.388      1.631
REMARK  1 active torsions:
REMARK  status: ('A' for Active; 'I' for Inactive)
REMARK    1  A    between atoms: C4_4  and  C9_9 
ROOT
HETATM    1  C1  UNL     1     -34.684  17.096  -5.810  1.00 20.00     0.174 C 
HETATM    2  C2  UNL     1     -33.016  15.240  -5.167  1.00 20.00     0.083 C 
HETATM    3  C3  UNL     1     -33.512  16.207  -6.251  1.00 20.00     0.015 C 
HETATM    4  C4  UNL     1     -34.945  16.333  -3.539  1.00 20.00     0.108 C 
HETATM    5  C5  UNL     1     -33.870  15.472  -7.545  1.00 20.00     0.012 C 
HETATM    6  C6  UNL     1     -36.467  16.286  -3.373  1.00 20.00     0.058 C 
HETATM    7  O10 UNL     1     -34.590  17.410  -4.424  1.00 20.00    -0.369 OA
HETATM    8  S11 UNL     1     -34.352  14.680  -4.076  1.00 20.00    -0.131 SA
ENDROOT
BRANCH   4   9
HETATM    9  C9  UNL     1     -34.293  16.658  -2.192  1.00 20.00     0.022 C 
HETATM   10  C7  UNL     1     -33.281  17.787  -2.353  1.00 20.00     0.013 C 
HETATM   11  C8  UNL     1     -35.356  17.025  -1.164  1.00 20.00     0.013 C 
ENDBRANCH   4   9
TORSDOF 1
ENDMDL
MODEL 3
REMARK VINA RESULT:      -4.2     10.760     11.818
REMARK  1 active torsions:
REMARK  status: ('A' for Active; 'I' for Inactive)
REMARK    1  A    between atoms: C4_4  and  C9_9 
ROOT
HETATM    1  C1  UNL     1     -34.003   7.315   4.812  1.00 20.00     0.174 C 
HETATM    2  C2  UNL     1     -34.302   5.648   2.871  1.00 20.00     0.083 C 
HETATM    3  C3  UNL     1     -34.734   6.074   4.280  1.00 20.00     0.015 C 
HETATM    4  C4  UNL     1     -32.594   7.803   2.918  1.00 20.00     0.108 C 
HETATM    5  C5  UNL     1     -34.610   4.924   5.283  1.00 20.00     0.012 C 
HETATM    6  C6  UNL     1     -31.271   8.205   3.577  1.00 20.00     0.058 C 
HETATM    7  O10 UNL     1     -33.692   8.214   3.751  1.00 20.00    -0.369 OA
HETATM    8  S11 UNL     1     -32.555   6.006   2.544  1.00 20.00    -0.131 SA
ENDROOT
BRANCH   4   9
HETATM    9  C9  UNL     1     -32.758   8.561   1.597  1.00 20.00     0.022 C 
HETATM   10  C7  UNL     1     -33.115  10.019   1.863  1.00 20.00     0.013 C 
HETATM   11  C8  UNL     1     -31.485   8.457   0.765  1.00 20.00     0.013 C 
ENDBRANCH   4   9
TORSDOF 1
ENDMDL
MODEL 4
REMARK VINA RESULT:      -4.1      1.737      4.348
REMARK  1 active torsions:
REMARK  status: ('A' for Active; 'I' for Inactive)
REMARK    1  A    between atoms: C4_4  and  C9_9 
ROOT
HETATM    1  C1  UNL     1     -35.365  16.569  -2.036  1.00 20.00     0.174 C 
HETATM    2  C2  UNL     1     -33.107  17.800  -1.884  1.00 20.00     0.083 C 
HETATM    3  C3  UNL     1     -34.330  17.255  -1.133  1.00 20.00     0.015 C 
HETATM    4  C4  UNL     1     -34.270  16.807  -4.170  1.00 20.00     0.108 C 
HETATM    5  C5  UNL     1     -35.006  18.337  -0.289  1.00 20.00     0.012 C 
HETATM    6  C6  UNL     1     -35.432  17.149  -5.108  1.00 20.00     0.058 C 
HETATM    7  O10 UNL     1     -34.731  15.921  -3.134  1.00 20.00    -0.369 OA
HETATM    8  S11 UNL     1     -33.519  18.366  -3.557  1.00 20.00    -0.131 SA
ENDROOT
BRANCH   4   9
HETATM    9  C9  UNL     1     -33.198  16.033  -4.943  1.00 20.00     0.022 C 
HETATM   10  C7  UNL     1     -33.101  14.603  -4.426  1.00 20.00     0.013 C 
HETATM   11  C8  UNL     1     -33.506  16.051  -6.436  1.00 20.00     0.013 C 
ENDBRANCH   4   9
TORSDOF 1
ENDMDL
MODEL 5
REMARK VINA RESULT:      -4.0      1.919      4.236
REMARK  1 active torsions:
REMARK  status: ('A' for Active; 'I' for Inactive)
REMARK    1  A    between atoms: C4_4  and  C9_9 
ROOT
HETATM    1  C1  UNL     1     -35.629  16.437  -3.731  1.00 20.00     0.174 C 
HETATM    2  C2  UNL     1     -33.359  15.282  -4.121  1.00 20.00     0.083 C 
HETATM    3  C3  UNL     1     -34.316  15.935  -3.114  1.00 20.00     0.015 C 
HETATM    4  C4  UNL     1     -35.280  15.784  -6.025  1.00 20.00     0.108 C 
HETATM    5  C5  UNL     1     -33.636  17.065  -2.337  1.00 20.00     0.012 C 
HETATM    6  C6  UNL     1     -35.839  16.977  -6.804  1.00 20.00     0.058 C 
HETATM    7  O10 UNL     1     -36.034  15.603  -4.812  1.00 20.00    -0.369 OA
HETATM    8  S11 UNL     1     -33.478  16.027  -5.771  1.00 20.00    -0.131 SA
ENDROOT
BRANCH   4   9
HETATM    9  C9  UNL     1     -35.477  14.502  -6.841  1.00 20.00     0.022 C 
HETATM   10  C7  UNL     1     -34.209  14.168  -7.617  1.00 20.00     0.013 C 
HETATM   11  C8  UNL     1     -35.874  13.349  -5.927  1.00 20.00     0.013 C 
ENDBRANCH   4   9
TORSDOF 1
ENDMDL
MODEL 6
REMARK VINA RESULT:      -4.0      1.894      2.572
REMARK  1 active torsions:
REMARK  status: ('A' for Active; 'I' for Inactive)
REMARK    1  A    between atoms: C4_4  and  C9_9 
ROOT
HETATM    1  C1  UNL     1     -35.668  13.719  -5.317  1.00 20.00     0.174 C 
HETATM    2  C2  UNL     1     -35.708  16.093  -6.318  1.00 20.00     0.083 C 
HETATM    3  C3  UNL     1     -36.331  14.690  -6.304  1.00 20.00     0.015 C 
HETATM    4  C4  UNL     1     -33.996  15.173  -4.371  1.00 20.00     0.108 C 
HETATM    5  C5  UNL     1     -36.368  14.072  -7.704  1.00 20.00     0.012 C 
HETATM    6  C6  UNL     1     -32.776  14.255  -4.256  1.00 20.00     0.058 C 
HETATM    7  O10 UNL     1     -35.197  14.409  -4.164  1.00 20.00    -0.369 OA
HETATM    8  S11 UNL     1     -33.927  16.061  -5.977  1.00 20.00    -0.131 SA
ENDROOT
BRANCH   4   9
HETATM    9  C9  UNL     1     -33.959  16.216  -3.249  1.00 20.00     0.022 C 
HETATM   10  C7  UNL     1     -33.525  17.570  -3.799  1.00 20.00     0.013 C 
HETATM   11  C8  UNL     1     -35.321  16.315  -2.573  1.00 20.00     0.013 C 
ENDBRANCH   4   9
TORSDOF 1
ENDMDL
MODEL 7
REMARK VINA RESULT:      -4.0      1.403      4.450
REMARK  1 active torsions:
REMARK  status: ('A' for Active; 'I' for Inactive)
REMARK    1  A    between atoms: C4_4  and  C9_9 
ROOT
HETATM    1  C1  UNL     1     -33.649  14.915  -3.932  1.00 20.00     0.174 C 
HETATM    2  C2  UNL     1     -34.654  17.162  -4.695  1.00 20.00     0.083 C 
HETATM    3  C3  UNL     1     -33.680  16.440  -3.753  1.00 20.00     0.015 C 
HETATM    4  C4  UNL     1     -35.246  14.679  -5.721  1.00 20.00     0.108 C 
HETATM    5  C5  UNL     1     -33.944  16.791  -2.288  1.00 20.00     0.012 C 
HETATM    6  C6  UNL     1     -36.025  13.425  -5.314  1.00 20.00     0.058 C 
HETATM    7  O10 UNL     1     -33.878  14.558  -5.291  1.00 20.00    -0.369 OA
HETATM    8  S11 UNL     1     -36.117  16.160  -5.076  1.00 20.00    -0.131 SA
ENDROOT
BRANCH   4   9
HETATM    9  C9  UNL     1     -35.202  14.780  -7.249  1.00 20.00     0.022 C 
HETATM   10  C7  UNL     1     -33.788  15.105  -7.718  1.00 20.00     0.013 C 
HETATM   11  C8  UNL     1     -35.699  13.486  -7.880  1.00 20.00     0.013 C 
ENDBRANCH   4   9
TORSDOF 1
ENDMDL
MODEL 8
REMARK VINA RESULT:      -3.7      1.208      4.100
REMARK  1 active torsions:
REMARK  status: ('A' for Active; 'I' for Inactive)
REMARK    1  A    between atoms: C4_4  and  C9_9 
ROOT
HETATM    1  C1  UNL     1     -33.573  16.927  -2.729  1.00 20.00     0.174 C 
HETATM    2  C2  UNL     1     -36.024  16.766  -3.506  1.00 20.00     0.083 C 
HETATM    3  C3  UNL     1     -35.032  17.339  -2.485  1.00 20.00     0.015 C 
HETATM    4  C4  UNL     1     -33.851  15.587  -4.712  1.00 20.00     0.108 C 
HETATM    5  C5  UNL     1     -35.439  17.003  -1.049  1.00 20.00     0.012 C 
HETATM    6  C6  UNL     1     -32.897  14.415  -4.464  1.00 20.00     0.058 C 
HETATM    7  O10 UNL     1     -33.312  16.782  -4.121  1.00 20.00    -0.369 OA
HETATM    8  S11 UNL     1     -35.526  15.131  -4.112  1.00 20.00    -0.131 SA
ENDROOT
BRANCH   4   9
HETATM    9  C9  UNL     1     -33.943  15.862  -6.216  1.00 20.00     0.022 C 
HETATM   10  C7  UNL     1     -35.169  15.174  -6.807  1.00 20.00     0.013 C 
HETATM   11  C8  UNL     1     -33.984  17.362  -6.479  1.00 20.00     0.013 C 
ENDBRANCH   4   9
TORSDOF 1
ENDMDL
MODEL 9
REMARK VINA RESULT:      -3.6      1.200      4.119
REMARK  1 active torsions:
REMARK  status: ('A' for Active; 'I' for Inactive)
REMARK    1  A    between atoms: C4_4  and  C9_9 
ROOT
HETATM    1  C1  UNL     1     -33.702  16.663  -2.555  1.00 20.00     0.174 C 
HETATM    2  C2  UNL     1     -36.094  17.435  -3.123  1.00 20.00     0.083 C 
HETATM    3  C3  UNL     1     -34.912  17.517  -2.147  1.00 20.00     0.015 C 
HETATM    4  C4  UNL     1     -34.533  15.732  -4.616  1.00 20.00     0.108 C 
HETATM    5  C5  UNL     1     -35.334  17.178  -0.716  1.00 20.00     0.012 C 
HETATM    6  C6  UNL     1     -34.034  14.285  -4.558  1.00 20.00     0.058 C 
HETATM    7  O10 UNL     1     -33.581  16.597  -3.972  1.00 20.00    -0.369 OA
HETATM    8  S11 UNL     1     -36.228  15.808  -3.912  1.00 20.00    -0.131 SA
ENDROOT
BRANCH   4   9
HETATM    9  C9  UNL     1     -34.603  16.190  -6.076  1.00 20.00     0.022 C 
HETATM   10  C7  UNL     1     -34.000  17.582  -6.223  1.00 20.00     0.013 C 
HETATM   11  C8  UNL     1     -33.890  15.191  -6.979  1.00 20.00     0.013 C 
ENDBRANCH   4   9
TORSDOF 1
ENDMDL
