MODEL 1
REMARK VINA RESULT:      -7.0      0.000      0.000
REMARK  1 active torsions:
REMARK  status: ('A' for Active; 'I' for Inactive)
REMARK    1  A    between atoms: C7_7  and  C10_10 
ROOT
HETATM    1  C1  UNL     1     -34.263   5.844   6.090  1.00 20.00    -0.004 C 
HETATM    2  C2  UNL     1     -33.786   7.192   5.892  1.00 20.00    -0.004 C 
HETATM    3  C3  UNL     1     -34.857   5.047   5.191  1.00 20.00    -0.019 C 
HETATM    4  C4  UNL     1     -33.467   7.832   4.756  1.00 20.00    -0.014 C 
HETATM    5  C5  UNL     1     -33.779   5.876   3.176  1.00 20.00     0.138 C 
HETATM    6  C6  UNL     1     -35.080   5.365   3.752  1.00 20.00     0.106 C 
HETATM    7  C7  UNL     1     -33.503   7.370   3.323  1.00 20.00     0.081 C 
HETATM    8  O11 UNL     1     -32.980   5.101   2.648  1.00 20.00    -0.297 OA
ENDROOT
BRANCH   7   9
HETATM    9  C10 UNL     1     -32.196   7.745   2.619  1.00 20.00    -0.008 C 
HETATM   10  C8  UNL     1     -32.464   8.730   1.484  1.00 20.00     0.010 C 
HETATM   11  C9  UNL     1     -31.201   8.330   3.618  1.00 20.00     0.010 C 
ENDBRANCH   7   9
TORSDOF 1
ENDMDL
MODEL 2
REMARK VINA RESULT:      -4.6     11.850     12.623
REMARK  1 active torsions:
REMARK  status: ('A' for Active; 'I' for Inactive)
REMARK    1  A    between atoms: C7_7  and  C10_10 
ROOT
HETATM    1  C1  UNL     1     -34.482  18.973   0.638  1.00 20.00    -0.004 C 
HETATM    2  C2  UNL     1     -35.215  17.832   0.142  1.00 20.00    -0.004 C 
HETATM    3  C3  UNL     1     -33.186  19.258   0.448  1.00 20.00    -0.019 C 
HETATM    4  C4  UNL     1     -34.938  17.014  -0.884  1.00 20.00    -0.014 C 
HETATM    5  C5  UNL     1     -32.888  18.237  -1.738  1.00 20.00     0.138 C 
HETATM    6  C6  UNL     1     -32.235  18.481  -0.397  1.00 20.00     0.106 C 
HETATM    7  C7  UNL     1     -33.782  17.004  -1.851  1.00 20.00     0.081 C 
HETATM    8  O11 UNL     1     -32.722  19.024  -2.670  1.00 20.00    -0.297 OA
ENDROOT
BRANCH   7   9
HETATM    9  C10 UNL     1     -34.299  16.847  -3.284  1.00 20.00    -0.008 C 
HETATM   10  C8  UNL     1     -33.614  15.669  -3.972  1.00 20.00     0.010 C 
HETATM   11  C9  UNL     1     -35.815  16.668  -3.287  1.00 20.00     0.010 C 
ENDBRANCH   7   9
TORSDOF 1
ENDMDL
MODEL 3
REMARK VINA RESULT:      -4.4     11.775     12.476
REMARK  1 active torsions:
REMARK  status: ('A' for Active; 'I' for Inactive)
REMARK    1  A    between atoms: C7_7  and  C10_10 
ROOT
HETATM    1  C1  UNL     1     -34.085  14.867  -6.121  1.00 20.00    -0.004 C 
HETATM    2  C2  UNL     1     -33.170  15.215  -5.060  1.00 20.00    -0.004 C 
HETATM    3  C3  UNL     1     -35.369  14.497  -6.005  1.00 20.00    -0.019 C 
HETATM    4  C4  UNL     1     -33.423  15.617  -3.805  1.00 20.00    -0.014 C 
HETATM    5  C5  UNL     1     -35.947  15.749  -4.003  1.00 20.00     0.138 C 
HETATM    6  C6  UNL     1     -36.153  14.444  -4.738  1.00 20.00     0.106 C 
HETATM    7  C7  UNL     1     -34.729  15.835  -3.085  1.00 20.00     0.081 C 
HETATM    8  O11 UNL     1     -36.716  16.695  -4.175  1.00 20.00    -0.297 OA
ENDROOT
BRANCH   7   9
HETATM    9  C10 UNL     1     -34.705  17.178  -2.351  1.00 20.00    -0.008 C 
HETATM   10  C8  UNL     1     -35.360  17.048  -0.978  1.00 20.00     0.010 C 
HETATM   11  C9  UNL     1     -33.273  17.689  -2.221  1.00 20.00     0.010 C 
ENDBRANCH   7   9
TORSDOF 1
ENDMDL
MODEL 4
REMARK VINA RESULT:      -4.4     11.635     12.262
REMARK  1 active torsions:
REMARK  status: ('A' for Active; 'I' for Inactive)
REMARK    1  A    between atoms: C7_7  and  C10_10 
ROOT
HETATM    1  C1  UNL     1     -36.321  13.738  -5.380  1.00 20.00    -0.004 C 
HETATM    2  C2  UNL     1     -36.825  14.779  -4.516  1.00 20.00    -0.004 C 
HETATM    3  C3  UNL     1     -35.200  13.756  -6.115  1.00 20.00    -0.019 C 
HETATM    4  C4  UNL     1     -36.179  15.806  -3.943  1.00 20.00    -0.014 C 
HETATM    5  C5  UNL     1     -33.840  15.190  -4.699  1.00 20.00     0.138 C 
HETATM    6  C6  UNL     1     -34.183  14.845  -6.131  1.00 20.00     0.106 C 
HETATM    7  C7  UNL     1     -34.732  16.219  -4.009  1.00 20.00     0.081 C 
HETATM    8  O11 UNL     1     -32.904  14.631  -4.127  1.00 20.00    -0.297 OA
ENDROOT
BRANCH   7   9
HETATM    9  C10 UNL     1     -34.209  16.523  -2.603  1.00 20.00    -0.008 C 
HETATM   10  C8  UNL     1     -33.300  17.749  -2.624  1.00 20.00     0.010 C 
HETATM   11  C9  UNL     1     -35.370  16.729  -1.634  1.00 20.00     0.010 C 
ENDBRANCH   7   9
TORSDOF 1
ENDMDL
MODEL 5
REMARK VINA RESULT:      -4.3     11.100     13.084
REMARK  1 active torsions:
REMARK  status: ('A' for Active; 'I' for Inactive)
REMARK    1  A    between atoms: C7_7  and  C10_10 
ROOT
HETATM    1  C1  UNL     1     -33.166  15.656  -5.770  1.00 20.00    -0.004 C 
HETATM    2  C2  UNL     1     -34.300  16.453  -6.172  1.00 20.00    -0.004 C 
HETATM    3  C3  UNL     1     -33.108  14.761  -4.773  1.00 20.00    -0.019 C 
HETATM    4  C4  UNL     1     -35.608  16.260  -5.947  1.00 20.00    -0.014 C 
HETATM    5  C5  UNL     1     -35.418  14.005  -4.805  1.00 20.00     0.138 C 
HETATM    6  C6  UNL     1     -34.247  14.339  -3.909  1.00 20.00     0.106 C 
HETATM    7  C7  UNL     1     -36.329  15.165  -5.205  1.00 20.00     0.081 C 
HETATM    8  O11 UNL     1     -35.592  12.855  -5.208  1.00 20.00    -0.297 OA
ENDROOT
BRANCH   7   9
HETATM    9  C10 UNL     1     -37.509  14.656  -6.036  1.00 20.00    -0.008 C 
HETATM   10  C8  UNL     1     -38.800  14.717  -5.223  1.00 20.00     0.010 C 
HETATM   11  C9  UNL     1     -37.642  15.465  -7.323  1.00 20.00     0.010 C 
ENDBRANCH   7   9
TORSDOF 1
ENDMDL
MODEL 6
REMARK VINA RESULT:      -4.2     11.166     13.027
REMARK  1 active torsions:
REMARK  status: ('A' for Active; 'I' for Inactive)
REMARK    1  A    between atoms: C7_7  and  C10_10 
ROOT
HETATM    1  C1  UNL     1     -37.034  15.843  -7.256  1.00 20.00    -0.004 C 
HETATM    2  C2  UNL     1     -35.985  16.546  -6.558  1.00 20.00    -0.004 C 
HETATM    3  C3  UNL     1     -36.992  14.601  -7.759  1.00 20.00    -0.019 C 
HETATM    4  C4  UNL     1     -34.907  16.065  -5.920  1.00 20.00    -0.014 C 
HETATM    5  C5  UNL     1     -35.442  13.601  -6.176  1.00 20.00     0.138 C 
HETATM    6  C6  UNL     1     -35.858  13.642  -7.629  1.00 20.00     0.106 C 
HETATM    7  C7  UNL     1     -34.429  14.649  -5.723  1.00 20.00     0.081 C 
HETATM    8  O11 UNL     1     -35.933  12.775  -5.407  1.00 20.00    -0.297 OA
ENDROOT
BRANCH   7   9
HETATM    9  C10 UNL     1     -34.046  14.425  -4.258  1.00 20.00    -0.008 C 
HETATM   10  C8  UNL     1     -32.547  14.166  -4.132  1.00 20.00     0.010 C 
HETATM   11  C9  UNL     1     -34.461  15.623  -3.408  1.00 20.00     0.010 C 
ENDBRANCH   7   9
TORSDOF 1
ENDMDL
MODEL 7
REMARK VINA RESULT:      -4.1     11.515     12.880
REMARK  1 active torsions:
REMARK  status: ('A' for Active; 'I' for Inactive)
REMARK    1  A    between atoms: C7_7  and  C10_10 
ROOT
HETATM    1  C1  UNL     1     -33.459  17.250  -3.910  1.00 20.00    -0.004 C 
HETATM    2  C2  UNL     1     -33.697  17.289  -5.333  1.00 20.00    -0.004 C 
HETATM    3  C3  UNL     1     -34.123  16.536  -2.989  1.00 20.00    -0.019 C 
HETATM    4  C4  UNL     1     -34.329  16.407  -6.123  1.00 20.00    -0.014 C 
HETATM    5  C5  UNL     1     -34.753  14.632  -4.363  1.00 20.00     0.138 C 
HETATM    6  C6  UNL     1     -35.215  15.558  -3.260  1.00 20.00     0.106 C 
HETATM    7  C7  UNL     1     -34.999  15.097  -5.797  1.00 20.00     0.081 C 
HETATM    8  O11 UNL     1     -34.179  13.576  -4.097  1.00 20.00    -0.297 OA
ENDROOT
BRANCH   7   9
HETATM    9  C10 UNL     1     -34.557  14.021  -6.792  1.00 20.00    -0.008 C 
HETATM   10  C8  UNL     1     -35.769  13.284  -7.355  1.00 20.00     0.010 C 
HETATM   11  C9  UNL     1     -33.732  14.641  -7.916  1.00 20.00     0.010 C 
ENDBRANCH   7   9
TORSDOF 1
ENDMDL
MODEL 8
REMARK VINA RESULT:      -4.1      1.517      2.495
REMARK  1 active torsions:
REMARK  status: ('A' for Active; 'I' for Inactive)
REMARK    1  A    between atoms: C7_7  and  C10_10 
ROOT
HETATM    1  C1  UNL     1     -34.697   4.537   4.415  1.00 20.00    -0.004 C 
HETATM    2  C2  UNL     1     -33.803   4.653   3.287  1.00 20.00    -0.004 C 
HETATM    3  C3  UNL     1     -34.642   5.209   5.574  1.00 20.00    -0.019 C 
HETATM    4  C4  UNL     1     -32.977   5.654   2.945  1.00 20.00    -0.014 C 
HETATM    5  C5  UNL     1     -33.656   7.280   4.768  1.00 20.00     0.138 C 
HETATM    6  C6  UNL     1     -33.675   6.292   5.912  1.00 20.00     0.106 C 
HETATM    7  C7  UNL     1     -32.702   6.976   3.615  1.00 20.00     0.081 C 
HETATM    8  O11 UNL     1     -34.406   8.257   4.770  1.00 20.00    -0.297 OA
ENDROOT
BRANCH   7   9
HETATM    9  C10 UNL     1     -32.735   8.104   2.581  1.00 20.00    -0.008 C 
HETATM   10  C8  UNL     1     -31.408   8.859   2.573  1.00 20.00     0.010 C 
HETATM   11  C9  UNL     1     -33.049   7.548   1.195  1.00 20.00     0.010 C 
ENDBRANCH   7   9
TORSDOF 1
ENDMDL
MODEL 9
REMARK VINA RESULT:      -4.1     11.541     12.322
REMARK  1 active torsions:
REMARK  status: ('A' for Active; 'I' for Inactive)
REMARK    1  A    between atoms: C7_7  and  C10_10 
ROOT
HETATM    1  C1  UNL     1     -35.138  17.292  -1.091  1.00 20.00    -0.004 C 
HETATM    2  C2  UNL     1     -33.902  16.977  -1.767  1.00 20.00    -0.004 C 
HETATM    3  C3  UNL     1     -36.311  17.627  -1.645  1.00 20.00    -0.019 C 
HETATM    4  C4  UNL     1     -33.692  16.578  -3.031  1.00 20.00    -0.014 C 
HETATM    5  C5  UNL     1     -36.123  16.376  -3.721  1.00 20.00     0.138 C 
HETATM    6  C6  UNL     1     -36.608  17.669  -3.106  1.00 20.00     0.106 C 
HETATM    7  C7  UNL     1     -34.660  16.331  -4.159  1.00 20.00     0.081 C 
HETATM    8  O11 UNL     1     -36.877  15.408  -3.825  1.00 20.00    -0.297 OA
ENDROOT
BRANCH   7   9
HETATM    9  C10 UNL     1     -34.345  14.995  -4.837  1.00 20.00    -0.008 C 
HETATM   10  C8  UNL     1     -34.333  15.157  -6.355  1.00 20.00     0.010 C 
HETATM   11  C9  UNL     1     -33.010  14.447  -4.341  1.00 20.00     0.010 C 
ENDBRANCH   7   9
TORSDOF 1
ENDMDL
