MODEL 1
REMARK VINA RESULT:      -5.4      0.000      0.000
REMARK  1 active torsions:
REMARK  status: ('A' for Active; 'I' for Inactive)
REMARK    1  A    between atoms: C3_3  and  C9_9 
ROOT
HETATM    1  C1  UNL     1     -33.839   7.880   3.484  1.00 20.00     0.069 C 
HETATM    2  C2  UNL     1     -32.500   7.820   2.760  1.00 20.00     0.069 C 
HETATM    3  C3  UNL     1     -34.083   6.422   3.848  1.00 20.00     0.076 C 
HETATM    4  C4  UNL     1     -32.517   8.653   1.478  1.00 20.00     0.042 C 
HETATM    5  C5  UNL     1     -31.321   8.241   3.638  1.00 20.00     0.042 C 
HETATM    6  C6  UNL     1     -35.521   6.000   3.542  1.00 20.00     0.043 C 
HETATM    7  N10 UNL     1     -32.342   6.401   2.392  1.00 20.00    -0.187 NA
HETATM    8  N11 UNL     1     -33.177   5.662   2.967  1.00 20.00    -0.186 NA
ENDROOT
BRANCH   3   9
HETATM    9  C9  UNL     1     -33.748   6.100   5.304  1.00 20.00     0.009 C 
HETATM   10  C7  UNL     1     -33.876   7.349   6.172  1.00 20.00     0.012 C 
HETATM   11  C8  UNL     1     -34.649   4.985   5.827  1.00 20.00     0.012 C 
ENDBRANCH   3   9
TORSDOF 1
ENDMDL
MODEL 2
REMARK VINA RESULT:      -4.8      1.464      2.275
REMARK  1 active torsions:
REMARK  status: ('A' for Active; 'I' for Inactive)
REMARK    1  A    between atoms: C3_3  and  C9_9 
ROOT
HETATM    1  C1  UNL     1     -33.253   7.485   1.637  1.00 20.00     0.069 C 
HETATM    2  C2  UNL     1     -32.401   8.745   1.714  1.00 20.00     0.069 C 
HETATM    3  C3  UNL     1     -33.043   6.859   3.009  1.00 20.00     0.076 C 
HETATM    4  C4  UNL     1     -31.563   8.935   0.450  1.00 20.00     0.042 C 
HETATM    5  C5  UNL     1     -33.218  10.008   1.992  1.00 20.00     0.042 C 
HETATM    6  C6  UNL     1     -32.780   5.356   2.906  1.00 20.00     0.043 C 
HETATM    7  N10 UNL     1     -31.489   8.505   2.847  1.00 20.00    -0.187 NA
HETATM    8  N11 UNL     1     -31.828   7.510   3.532  1.00 20.00    -0.186 NA
ENDROOT
BRANCH   3   9
HETATM    9  C9  UNL     1     -34.201   7.118   3.974  1.00 20.00     0.009 C 
HETATM   10  C7  UNL     1     -35.189   5.955   3.948  1.00 20.00     0.012 C 
HETATM   11  C8  UNL     1     -33.676   7.349   5.388  1.00 20.00     0.012 C 
ENDBRANCH   3   9
TORSDOF 1
ENDMDL
MODEL 3
REMARK VINA RESULT:      -4.5     11.035     12.411
REMARK  1 active torsions:
REMARK  status: ('A' for Active; 'I' for Inactive)
REMARK    1  A    between atoms: C3_3  and  C9_9 
ROOT
HETATM    1  C1  UNL     1     -34.169  14.844  -5.990  1.00 20.00     0.069 C 
HETATM    2  C2  UNL     1     -33.926  14.559  -4.514  1.00 20.00     0.069 C 
HETATM    3  C3  UNL     1     -35.446  14.067  -6.272  1.00 20.00     0.076 C 
HETATM    4  C4  UNL     1     -32.463  14.211  -4.241  1.00 20.00     0.042 C 
HETATM    5  C5  UNL     1     -34.368  15.702  -3.599  1.00 20.00     0.042 C 
HETATM    6  C6  UNL     1     -35.347  13.276  -7.578  1.00 20.00     0.043 C 
HETATM    7  N10 UNL     1     -34.750  13.370  -4.228  1.00 20.00    -0.187 NA
HETATM    8  N11 UNL     1     -35.554  13.110  -5.155  1.00 20.00    -0.186 NA
ENDROOT
BRANCH   3   9
HETATM    9  C9  UNL     1     -36.696  14.948  -6.294  1.00 20.00     0.009 C 
HETATM   10  C7  UNL     1     -37.198  15.129  -7.723  1.00 20.00     0.012 C 
HETATM   11  C8  UNL     1     -37.788  14.350  -5.411  1.00 20.00     0.012 C 
ENDBRANCH   3   9
TORSDOF 1
ENDMDL
MODEL 4
REMARK VINA RESULT:      -4.2     11.657     12.764
REMARK  1 active torsions:
REMARK  status: ('A' for Active; 'I' for Inactive)
REMARK    1  A    between atoms: C3_3  and  C9_9 
ROOT
HETATM    1  C1  UNL     1     -35.549  15.581  -6.239  1.00 20.00     0.069 C 
HETATM    2  C2  UNL     1     -35.101  14.336  -6.994  1.00 20.00     0.069 C 
HETATM    3  C3  UNL     1     -35.079  15.293  -4.820  1.00 20.00     0.076 C 
HETATM    4  C4  UNL     1     -36.201  13.812  -7.917  1.00 20.00     0.042 C 
HETATM    5  C5  UNL     1     -33.811  14.544  -7.789  1.00 20.00     0.042 C 
HETATM    6  C6  UNL     1     -36.161  15.629  -3.791  1.00 20.00     0.043 C 
HETATM    7  N10 UNL     1     -34.859  13.332  -5.941  1.00 20.00    -0.187 NA
HETATM    8  N11 UNL     1     -34.846  13.838  -4.793  1.00 20.00    -0.186 NA
ENDROOT
BRANCH   3   9
HETATM    9  C9  UNL     1     -33.779  16.012  -4.458  1.00 20.00     0.009 C 
HETATM   10  C7  UNL     1     -33.619  17.281  -5.290  1.00 20.00     0.012 C 
HETATM   11  C8  UNL     1     -33.744  16.337  -2.967  1.00 20.00     0.012 C 
ENDBRANCH   3   9
TORSDOF 1
ENDMDL
MODEL 5
REMARK VINA RESULT:      -4.1     11.496     12.613
REMARK  1 active torsions:
REMARK  status: ('A' for Active; 'I' for Inactive)
REMARK    1  A    between atoms: C3_3  and  C9_9 
ROOT
HETATM    1  C1  UNL     1     -33.319  16.137  -4.566  1.00 20.00     0.069 C 
HETATM    2  C2  UNL     1     -34.510  15.338  -5.079  1.00 20.00     0.069 C 
HETATM    3  C3  UNL     1     -33.980  17.188  -3.685  1.00 20.00     0.076 C 
HETATM    4  C4  UNL     1     -34.402  15.069  -6.580  1.00 20.00     0.042 C 
HETATM    5  C5  UNL     1     -34.722  14.023  -4.329  1.00 20.00     0.042 C 
HETATM    6  C6  UNL     1     -33.395  18.579  -3.936  1.00 20.00     0.043 C 
HETATM    7  N10 UNL     1     -35.671  16.216  -4.845  1.00 20.00    -0.187 NA
HETATM    8  N11 UNL     1     -35.392  17.192  -4.108  1.00 20.00    -0.186 NA
ENDROOT
BRANCH   3   9
HETATM    9  C9  UNL     1     -33.908  16.856  -2.194  1.00 20.00     0.009 C 
HETATM   10  C7  UNL     1     -32.985  17.833  -1.472  1.00 20.00     0.012 C 
HETATM   11  C8  UNL     1     -35.303  16.875  -1.574  1.00 20.00     0.012 C 
ENDBRANCH   3   9
TORSDOF 1
ENDMDL
MODEL 6
REMARK VINA RESULT:      -4.0     11.027     12.921
REMARK  1 active torsions:
REMARK  status: ('A' for Active; 'I' for Inactive)
REMARK    1  A    between atoms: C3_3  and  C9_9 
ROOT
HETATM    1  C1  UNL     1     -35.875  15.523  -5.012  1.00 20.00     0.069 C 
HETATM    2  C2  UNL     1     -37.175  14.852  -5.438  1.00 20.00     0.069 C 
HETATM    3  C3  UNL     1     -34.856  14.404  -5.177  1.00 20.00     0.076 C 
HETATM    4  C4  UNL     1     -38.315  15.169  -4.470  1.00 20.00     0.042 C 
HETATM    5  C5  UNL     1     -37.594  15.202  -6.866  1.00 20.00     0.042 C 
HETATM    6  C6  UNL     1     -33.915  14.320  -3.974  1.00 20.00     0.043 C 
HETATM    7  N10 UNL     1     -36.887  13.407  -5.363  1.00 20.00    -0.187 NA
HETATM    8  N11 UNL     1     -35.662  13.171  -5.226  1.00 20.00    -0.186 NA
ENDROOT
BRANCH   3   9
HETATM    9  C9  UNL     1     -34.041  14.517  -6.466  1.00 20.00     0.009 C 
HETATM   10  C7  UNL     1     -34.535  13.511  -7.502  1.00 20.00     0.012 C 
HETATM   11  C8  UNL     1     -34.108  15.938  -7.019  1.00 20.00     0.012 C 
ENDBRANCH   3   9
TORSDOF 1
ENDMDL
MODEL 7
REMARK VINA RESULT:      -3.9     11.911     12.710
REMARK  1 active torsions:
REMARK  status: ('A' for Active; 'I' for Inactive)
REMARK    1  A    between atoms: C3_3  and  C9_9 
ROOT
HETATM    1  C1  UNL     1     -33.917  14.859  -5.110  1.00 20.00     0.069 C 
HETATM    2  C2  UNL     1     -35.038  14.333  -5.997  1.00 20.00     0.069 C 
HETATM    3  C3  UNL     1     -34.469  16.197  -4.637  1.00 20.00     0.076 C 
HETATM    4  C4  UNL     1     -34.496  13.767  -7.310  1.00 20.00     0.042 C 
HETATM    5  C5  UNL     1     -35.916  13.290  -5.304  1.00 20.00     0.042 C 
HETATM    6  C6  UNL     1     -33.418  17.304  -4.730  1.00 20.00     0.043 C 
HETATM    7  N10 UNL     1     -35.855  15.522  -6.303  1.00 20.00    -0.187 NA
HETATM    8  N11 UNL     1     -35.556  16.505  -5.584  1.00 20.00    -0.186 NA
ENDROOT
BRANCH   3   9
HETATM    9  C9  UNL     1     -35.044  16.145  -3.221  1.00 20.00     0.009 C 
HETATM   10  C7  UNL     1     -34.065  16.759  -2.224  1.00 20.00     0.012 C 
HETATM   11  C8  UNL     1     -36.391  16.860  -3.163  1.00 20.00     0.012 C 
ENDBRANCH   3   9
TORSDOF 1
ENDMDL
MODEL 8
REMARK VINA RESULT:      -3.9     11.604     12.580
REMARK  1 active torsions:
REMARK  status: ('A' for Active; 'I' for Inactive)
REMARK    1  A    between atoms: C3_3  and  C9_9 
ROOT
HETATM    1  C1  UNL     1     -34.888  16.717  -1.734  1.00 20.00     0.069 C 
HETATM    2  C2  UNL     1     -34.268  18.101  -1.590  1.00 20.00     0.069 C 
HETATM    3  C3  UNL     1     -34.985  16.553  -3.244  1.00 20.00     0.076 C 
HETATM    4  C4  UNL     1     -34.984  18.930  -0.525  1.00 20.00     0.042 C 
HETATM    5  C5  UNL     1     -32.768  18.061  -1.297  1.00 20.00     0.042 C 
HETATM    6  C6  UNL     1     -36.346  15.993  -3.662  1.00 20.00     0.043 C 
HETATM    7  N10 UNL     1     -34.483  18.740  -2.902  1.00 20.00    -0.187 NA
HETATM    8  N11 UNL     1     -34.861  17.922  -3.776  1.00 20.00    -0.186 NA
ENDROOT
BRANCH   3   9
HETATM    9  C9  UNL     1     -33.867  15.689  -3.830  1.00 20.00     0.009 C 
HETATM   10  C7  UNL     1     -34.367  14.270  -4.087  1.00 20.00     0.012 C 
HETATM   11  C8  UNL     1     -33.327  16.311  -5.114  1.00 20.00     0.012 C 
ENDBRANCH   3   9
TORSDOF 1
ENDMDL
MODEL 9
REMARK VINA RESULT:      -3.8      1.827      4.532
REMARK  1 active torsions:
REMARK  status: ('A' for Active; 'I' for Inactive)
REMARK    1  A    between atoms: C3_3  and  C9_9 
ROOT
HETATM    1  C1  UNL     1     -33.791   8.338   2.588  1.00 20.00     0.069 C 
HETATM    2  C2  UNL     1     -33.054   7.335   3.467  1.00 20.00     0.069 C 
HETATM    3  C3  UNL     1     -32.652   9.064   1.887  1.00 20.00     0.076 C 
HETATM    4  C4  UNL     1     -33.630   7.298   4.882  1.00 20.00     0.042 C 
HETATM    5  C5  UNL     1     -33.029   5.924   2.878  1.00 20.00     0.042 C 
HETATM    6  C6  UNL     1     -32.866  10.578   1.885  1.00 20.00     0.043 C 
HETATM    7  N10 UNL     1     -31.674   7.850   3.537  1.00 20.00    -0.187 NA
HETATM    8  N11 UNL     1     -31.461   8.762   2.702  1.00 20.00    -0.186 NA
ENDROOT
BRANCH   3   9
HETATM    9  C9  UNL     1     -32.413   8.573   0.458  1.00 20.00     0.009 C 
HETATM   10  C7  UNL     1     -33.156   9.454  -0.542  1.00 20.00     0.012 C 
HETATM   11  C8  UNL     1     -30.920   8.542   0.145  1.00 20.00     0.012 C 
ENDBRANCH   3   9
TORSDOF 1
ENDMDL
