MODEL 1
REMARK VINA RESULT:      -5.7      0.000      0.000
REMARK  1 active torsions:
REMARK  status: ('A' for Active; 'I' for Inactive)
REMARK    1  A    between atoms: C5_5  and  C10_10 
ROOT
HETATM    1  C6  UNL     1     -34.110   4.926   5.093  1.00 20.00     0.005 C 
HETATM    2  C7  UNL     1     -34.193   6.381   5.577  1.00 20.00     0.005 C 
HETATM    3  C8  UNL     1     -32.954   5.641   2.981  1.00 20.00     0.014 C 
HETATM    4  C9  UNL     1     -35.201   6.245   3.440  1.00 20.00     0.010 C 
HETATM    5  C10 UNL     1     -32.934   7.087   3.533  1.00 20.00     0.023 C 
HETATM    6  C11 UNL     1     -34.252   5.058   3.567  1.00 20.00    -0.013 C 
HETATM    7  C12 UNL     1     -34.302   7.177   4.260  1.00 20.00    -0.006 C 
ENDROOT
BRANCH   5   8
HETATM    8  C5  UNL     1     -32.661   8.112   2.445  1.00 20.00    -0.051 A 
HETATM    9  C1  UNL     1     -31.616   7.917   1.549  1.00 20.00     0.026 A 
HETATM   10  C3  UNL     1     -31.409   8.881   0.575  1.00 20.00     0.116 A 
HETATM   11  N13 UNL     1     -32.159   9.998   0.444  1.00 20.00    -0.273 NA
HETATM   12  C4  UNL     1     -33.165  10.154   1.334  1.00 20.00     0.116 A 
HETATM   13  C2  UNL     1     -33.455   9.249   2.343  1.00 20.00     0.026 A 
ENDBRANCH   5   8
TORSDOF 1
ENDMDL
MODEL 2
REMARK VINA RESULT:      -5.3     10.325     11.387
REMARK  1 active torsions:
REMARK  status: ('A' for Active; 'I' for Inactive)
REMARK    1  A    between atoms: C5_5  and  C10_10 
ROOT
HETATM    1  C6  UNL     1     -34.509  14.580  -6.189  1.00 20.00     0.005 C 
HETATM    2  C7  UNL     1     -33.530  15.761  -6.120  1.00 20.00     0.005 C 
HETATM    3  C8  UNL     1     -35.429  15.146  -3.922  1.00 20.00     0.014 C 
HETATM    4  C9  UNL     1     -33.196  14.401  -4.212  1.00 20.00     0.010 C 
HETATM    5  C10 UNL     1     -34.525  16.402  -3.916  1.00 20.00     0.023 C 
HETATM    6  C11 UNL     1     -34.606  14.123  -4.724  1.00 20.00    -0.013 C 
HETATM    7  C12 UNL     1     -33.240  15.881  -4.610  1.00 20.00    -0.006 C 
ENDROOT
BRANCH   5   8
HETATM    8  C5  UNL     1     -34.369  16.990  -2.524  1.00 20.00    -0.051 A 
HETATM    9  C1  UNL     1     -33.204  17.668  -2.179  1.00 20.00     0.026 A 
HETATM   10  C3  UNL     1     -33.112  18.187  -0.898  1.00 20.00     0.116 A 
HETATM   11  N13 UNL     1     -34.081  18.073   0.037  1.00 20.00    -0.273 NA
HETATM   12  C4  UNL     1     -35.198  17.406  -0.334  1.00 20.00     0.116 A 
HETATM   13  C2  UNL     1     -35.389  16.852  -1.589  1.00 20.00     0.026 A 
ENDBRANCH   5   8
TORSDOF 1
ENDMDL
MODEL 3
REMARK VINA RESULT:      -5.2     10.532     11.614
REMARK  1 active torsions:
REMARK  status: ('A' for Active; 'I' for Inactive)
REMARK    1  A    between atoms: C5_5  and  C10_10 
ROOT
HETATM    1  C6  UNL     1     -33.944  18.335  -0.117  1.00 20.00     0.005 C 
HETATM    2  C7  UNL     1     -32.655  18.317  -0.953  1.00 20.00     0.005 C 
HETATM    3  C8  UNL     1     -35.038  16.699  -1.677  1.00 20.00     0.014 C 
HETATM    4  C9  UNL     1     -34.461  18.892  -2.372  1.00 20.00     0.010 C 
HETATM    5  C10 UNL     1     -33.696  16.597  -2.442  1.00 20.00     0.023 C 
HETATM    6  C11 UNL     1     -35.046  18.153  -1.173  1.00 20.00    -0.013 C 
HETATM    7  C12 UNL     1     -33.175  18.057  -2.381  1.00 20.00    -0.006 C 
ENDROOT
BRANCH   5   8
HETATM    8  C5  UNL     1     -33.866  15.980  -3.819  1.00 20.00    -0.051 A 
HETATM    9  C1  UNL     1     -33.286  16.582  -4.931  1.00 20.00     0.026 A 
HETATM   10  C3  UNL     1     -33.469  15.980  -6.165  1.00 20.00     0.116 A 
HETATM   11  N13 UNL     1     -34.178  14.845  -6.355  1.00 20.00    -0.273 NA
HETATM   12  C4  UNL     1     -34.729  14.289  -5.252  1.00 20.00     0.116 A 
HETATM   13  C2  UNL     1     -34.604  14.812  -3.975  1.00 20.00     0.026 A 
ENDBRANCH   5   8
TORSDOF 1
ENDMDL
MODEL 4
REMARK VINA RESULT:      -5.2     10.630     11.461
REMARK  1 active torsions:
REMARK  status: ('A' for Active; 'I' for Inactive)
REMARK    1  A    between atoms: C5_5  and  C10_10 
ROOT
HETATM    1  C6  UNL     1     -34.406  14.347  -6.029  1.00 20.00     0.005 C 
HETATM    2  C7  UNL     1     -35.357  13.945  -4.891  1.00 20.00     0.005 C 
HETATM    3  C8  UNL     1     -33.353  16.115  -4.590  1.00 20.00     0.014 C 
HETATM    4  C9  UNL     1     -35.613  16.263  -5.295  1.00 20.00     0.010 C 
HETATM    5  C10 UNL     1     -34.231  15.621  -3.415  1.00 20.00     0.023 C 
HETATM    6  C11 UNL     1     -34.239  15.862  -5.822  1.00 20.00    -0.013 C 
HETATM    7  C12 UNL     1     -35.562  15.269  -4.129  1.00 20.00    -0.006 C 
ENDROOT
BRANCH   5   8
HETATM    8  C5  UNL     1     -34.300  16.633  -2.284  1.00 20.00    -0.051 A 
HETATM    9  C1  UNL     1     -33.194  17.423  -1.986  1.00 20.00     0.026 A 
HETATM   10  C3  UNL     1     -33.309  18.332  -0.946  1.00 20.00     0.116 A 
HETATM   11  N13 UNL     1     -34.427  18.497  -0.204  1.00 20.00    -0.273 NA
HETATM   12  C4  UNL     1     -35.480  17.711  -0.523  1.00 20.00     0.116 A 
HETATM   13  C2  UNL     1     -35.468  16.774  -1.543  1.00 20.00     0.026 A 
ENDBRANCH   5   8
TORSDOF 1
ENDMDL
MODEL 5
REMARK VINA RESULT:      -5.1     10.607     11.556
REMARK  1 active torsions:
REMARK  status: ('A' for Active; 'I' for Inactive)
REMARK    1  A    between atoms: C5_5  and  C10_10 
ROOT
HETATM    1  C6  UNL     1     -34.354  14.758  -5.916  1.00 20.00     0.005 C 
HETATM    2  C7  UNL     1     -35.063  14.136  -4.703  1.00 20.00     0.005 C 
HETATM    3  C8  UNL     1     -33.438  16.613  -4.492  1.00 20.00     0.014 C 
HETATM    4  C9  UNL     1     -35.763  16.388  -4.906  1.00 20.00     0.010 C 
HETATM    5  C10 UNL     1     -34.056  15.912  -3.258  1.00 20.00     0.023 C 
HETATM    6  C11 UNL     1     -34.422  16.265  -5.623  1.00 20.00    -0.013 C 
HETATM    7  C12 UNL     1     -35.390  15.363  -3.829  1.00 20.00    -0.006 C 
ENDROOT
BRANCH   5   8
HETATM    8  C5  UNL     1     -34.147  16.839  -2.058  1.00 20.00    -0.051 A 
HETATM    9  C1  UNL     1     -35.303  16.869  -1.285  1.00 20.00     0.026 A 
HETATM   10  C3  UNL     1     -35.335  17.730  -0.200  1.00 20.00     0.116 A 
HETATM   11  N13 UNL     1     -34.314  18.544   0.152  1.00 20.00    -0.273 NA
HETATM   12  C4  UNL     1     -33.208  18.488  -0.624  1.00 20.00     0.116 A 
HETATM   13  C2  UNL     1     -33.075  17.662  -1.728  1.00 20.00     0.026 A 
ENDBRANCH   5   8
TORSDOF 1
ENDMDL
MODEL 6
REMARK VINA RESULT:      -5.1      2.169      4.937
REMARK  1 active torsions:
REMARK  status: ('A' for Active; 'I' for Inactive)
REMARK    1  A    between atoms: C5_5  and  C10_10 
ROOT
HETATM    1  C6  UNL     1     -31.695   9.788   0.269  1.00 20.00     0.005 C 
HETATM    2  C7  UNL     1     -32.774   8.780  -0.154  1.00 20.00     0.005 C 
HETATM    3  C8  UNL     1     -31.666   8.853   2.600  1.00 20.00     0.014 C 
HETATM    4  C9  UNL     1     -33.565   9.975   1.729  1.00 20.00     0.010 C 
HETATM    5  C10 UNL     1     -32.663   7.766   2.130  1.00 20.00     0.023 C 
HETATM    6  C11 UNL     1     -32.043  10.072   1.740  1.00 20.00    -0.013 C 
HETATM    7  C12 UNL     1     -33.568   8.556   1.149  1.00 20.00    -0.006 C 
ENDROOT
BRANCH   5   8
HETATM    8  C5  UNL     1     -33.348   7.073   3.295  1.00 20.00    -0.051 A 
HETATM    9  C1  UNL     1     -33.233   7.590   4.581  1.00 20.00     0.026 A 
HETATM   10  C3  UNL     1     -33.877   6.922   5.609  1.00 20.00     0.116 A 
HETATM   11  N13 UNL     1     -34.609   5.798   5.440  1.00 20.00    -0.273 NA
HETATM   12  C4  UNL     1     -34.697   5.323   4.177  1.00 20.00     0.116 A 
HETATM   13  C2  UNL     1     -34.092   5.918   3.081  1.00 20.00     0.026 A 
ENDBRANCH   5   8
TORSDOF 1
ENDMDL
MODEL 7
REMARK VINA RESULT:      -5.1      2.261      4.905
REMARK  1 active torsions:
REMARK  status: ('A' for Active; 'I' for Inactive)
REMARK    1  A    between atoms: C5_5  and  C10_10 
ROOT
HETATM    1  C6  UNL     1     -32.109   9.474   0.612  1.00 20.00     0.005 C 
HETATM    2  C7  UNL     1     -32.976  10.101   1.715  1.00 20.00     0.005 C 
HETATM    3  C8  UNL     1     -32.594   7.166   1.474  1.00 20.00     0.014 C 
HETATM    4  C9  UNL     1     -31.338   8.731   2.737  1.00 20.00     0.010 C 
HETATM    5  C10 UNL     1     -33.559   7.800   2.504  1.00 20.00     0.023 C 
HETATM    6  C11 UNL     1     -31.506   8.240   1.303  1.00 20.00    -0.013 C 
HETATM    7  C12 UNL     1     -32.817   9.108   2.884  1.00 20.00    -0.006 C 
ENDROOT
BRANCH   5   8
HETATM    8  C5  UNL     1     -33.900   6.845   3.635  1.00 20.00    -0.051 A 
HETATM    9  C1  UNL     1     -33.883   7.290   4.953  1.00 20.00     0.026 A 
HETATM   10  C3  UNL     1     -34.203   6.380   5.948  1.00 20.00     0.116 A 
HETATM   11  N13 UNL     1     -34.527   5.088   5.717  1.00 20.00    -0.273 NA
HETATM   12  C4  UNL     1     -34.531   4.692   4.424  1.00 20.00     0.116 A 
HETATM   13  C2  UNL     1     -34.228   5.522   3.358  1.00 20.00     0.026 A 
ENDBRANCH   5   8
TORSDOF 1
ENDMDL
MODEL 8
REMARK VINA RESULT:      -5.0     10.679     11.770
REMARK  1 active torsions:
REMARK  status: ('A' for Active; 'I' for Inactive)
REMARK    1  A    between atoms: C5_5  and  C10_10 
ROOT
HETATM    1  C6  UNL     1     -33.586  18.752  -1.747  1.00 20.00     0.005 C 
HETATM    2  C7  UNL     1     -34.974  19.155  -2.268  1.00 20.00     0.005 C 
HETATM    3  C8  UNL     1     -33.740  16.531  -2.908  1.00 20.00     0.014 C 
HETATM    4  C9  UNL     1     -35.176  17.101  -1.109  1.00 20.00     0.010 C 
HETATM    5  C10 UNL     1     -35.081  16.995  -3.525  1.00 20.00     0.023 C 
HETATM    6  C11 UNL     1     -33.719  17.235  -1.540  1.00 20.00    -0.013 C 
HETATM    7  C12 UNL     1     -35.712  17.804  -2.361  1.00 20.00    -0.006 C 
ENDROOT
BRANCH   5   8
HETATM    8  C5  UNL     1     -35.891  15.834  -4.077  1.00 20.00    -0.051 A 
HETATM    9  C1  UNL     1     -37.276  15.926  -4.161  1.00 20.00     0.026 A 
HETATM   10  C3  UNL     1     -37.968  14.840  -4.673  1.00 20.00     0.116 A 
HETATM   11  N13 UNL     1     -37.381  13.698  -5.095  1.00 20.00    -0.273 NA
HETATM   12  C4  UNL     1     -36.033  13.645  -4.997  1.00 20.00     0.116 A 
HETATM   13  C2  UNL     1     -35.251  14.674  -4.501  1.00 20.00     0.026 A 
ENDBRANCH   5   8
TORSDOF 1
ENDMDL
MODEL 9
REMARK VINA RESULT:      -4.8     10.391     11.543
REMARK  1 active torsions:
REMARK  status: ('A' for Active; 'I' for Inactive)
REMARK    1  A    between atoms: C5_5  and  C10_10 
ROOT
HETATM    1  C6  UNL     1     -33.717  18.447  -0.783  1.00 20.00     0.005 C 
HETATM    2  C7  UNL     1     -32.822  17.817  -1.860  1.00 20.00     0.005 C 
HETATM    3  C8  UNL     1     -35.636  16.967  -1.441  1.00 20.00     0.014 C 
HETATM    4  C9  UNL     1     -34.786  18.631  -2.901  1.00 20.00     0.010 C 
HETATM    5  C10 UNL     1     -34.690  16.257  -2.440  1.00 20.00     0.023 C 
HETATM    6  C11 UNL     1     -35.113  18.414  -1.427  1.00 20.00    -0.013 C 
HETATM    7  C12 UNL     1     -33.829  17.435  -2.965  1.00 20.00    -0.006 C 
ENDROOT
BRANCH   5   8
HETATM    8  C5  UNL     1     -35.452  15.444  -3.473  1.00 20.00    -0.051 A 
HETATM    9  C1  UNL     1     -34.824  14.396  -4.137  1.00 20.00     0.026 A 
HETATM   10  C3  UNL     1     -35.562  13.684  -5.069  1.00 20.00     0.116 A 
HETATM   11  N13 UNL     1     -36.853  13.947  -5.372  1.00 20.00    -0.273 NA
HETATM   12  C4  UNL     1     -37.429  14.974  -4.707  1.00 20.00     0.116 A 
HETATM   13  C2  UNL     1     -36.779  15.745  -3.758  1.00 20.00     0.026 A 
ENDBRANCH   5   8
TORSDOF 1
ENDMDL
