MODEL 1
REMARK VINA RESULT:      -4.8      0.000      0.000
REMARK  4 active torsions:
REMARK  status: ('A' for Active; 'I' for Inactive)
REMARK    1  A    between atoms: C1_1  and  C5_5 
REMARK       I    between atoms: C1_1  and  N9_9 
REMARK    2  A    between atoms: C6_6  and  C8_8 
REMARK    3  A    between atoms: C7_7  and  N9_9 
REMARK    4  A    between atoms: C8_8  and  N9_9 
ROOT
HETATM    1  C1  UNL     1     -33.581   7.010   4.603  1.00 20.00     0.219 C 
HETATM    2  N9  UNL     1     -33.084   7.163   3.304  1.00 20.00    -0.353 N 
HETATM    3  O10 UNL     1     -33.010   7.450   5.605  1.00 20.00    -0.273 OA
ENDROOT
BRANCH   2   4
HETATM    4  C7  UNL     1     -33.337   6.188   2.250  1.00 20.00     0.121 C 
HETATM    5  C4  UNL     1     -32.803   4.846   2.620  1.00 20.00     0.026 C 
ENDBRANCH   2   4
BRANCH   2   6
HETATM    6  C8  UNL     1     -32.274   8.312   2.906  1.00 20.00     0.125 C 
BRANCH   6   7
HETATM    7  C6  UNL     1     -32.384   8.612   1.417  1.00 20.00     0.015 C 
HETATM    8  C3  UNL     1     -32.628  10.087   1.130  1.00 20.00     0.006 C 
ENDBRANCH   6   7
ENDBRANCH   2   6
BRANCH   1   9
HETATM    9  C5  UNL     1     -34.896   6.254   4.734  1.00 20.00     0.098 C 
HETATM   10  C2  UNL     1     -34.768   4.996   5.578  1.00 20.00     0.014 C 
ENDBRANCH   1   9
TORSDOF 4
ENDMDL
MODEL 2
REMARK VINA RESULT:      -4.3      1.744      2.392
REMARK  4 active torsions:
REMARK  status: ('A' for Active; 'I' for Inactive)
REMARK    1  A    between atoms: C1_1  and  C5_5 
REMARK       I    between atoms: C1_1  and  N9_9 
REMARK    2  A    between atoms: C6_6  and  C8_8 
REMARK    3  A    between atoms: C7_7  and  N9_9 
REMARK    4  A    between atoms: C8_8  and  N9_9 
ROOT
HETATM    1  C1  UNL     1     -34.085   6.084   3.126  1.00 20.00     0.219 C 
HETATM    2  N9  UNL     1     -33.370   7.160   3.665  1.00 20.00    -0.353 N 
HETATM    3  O10 UNL     1     -33.996   5.732   1.947  1.00 20.00    -0.273 OA
ENDROOT
BRANCH   2   4
HETATM    4  C7  UNL     1     -33.882   7.965   4.767  1.00 20.00     0.121 C 
HETATM    5  C4  UNL     1     -33.376   7.466   6.078  1.00 20.00     0.026 C 
ENDBRANCH   2   4
BRANCH   2   6
HETATM    6  C8  UNL     1     -32.057   7.557   3.163  1.00 20.00     0.125 C 
BRANCH   6   7
HETATM    7  C6  UNL     1     -32.105   8.860   2.376  1.00 20.00     0.015 C 
HETATM    8  C3  UNL     1     -31.664   8.690   0.929  1.00 20.00     0.006 C 
ENDBRANCH   6   7
ENDBRANCH   2   6
BRANCH   1   9
HETATM    9  C5  UNL     1     -35.007   5.343   4.085  1.00 20.00     0.098 C 
HETATM   10  C2  UNL     1     -34.323   4.168   4.767  1.00 20.00     0.014 C 
ENDBRANCH   1   9
TORSDOF 4
ENDMDL
MODEL 3
REMARK VINA RESULT:      -4.1      1.597      4.447
REMARK  4 active torsions:
REMARK  status: ('A' for Active; 'I' for Inactive)
REMARK    1  A    between atoms: C1_1  and  C5_5 
REMARK       I    between atoms: C1_1  and  N9_9 
REMARK    2  A    between atoms: C6_6  and  C8_8 
REMARK    3  A    between atoms: C7_7  and  N9_9 
REMARK    4  A    between atoms: C8_8  and  N9_9 
ROOT
HETATM    1  C1  UNL     1     -32.736   6.910   2.975  1.00 20.00     0.219 C 
HETATM    2  N9  UNL     1     -33.882   6.953   3.777  1.00 20.00    -0.353 N 
HETATM    3  O10 UNL     1     -32.326   5.881   2.432  1.00 20.00    -0.273 OA
ENDROOT
BRANCH   2   4
HETATM    4  C7  UNL     1     -34.029   7.895   4.880  1.00 20.00     0.121 C 
HETATM    5  C4  UNL     1     -33.429   7.354   6.133  1.00 20.00     0.026 C 
ENDBRANCH   2   4
BRANCH   2   6
HETATM    6  C8  UNL     1     -35.017   6.058   3.569  1.00 20.00     0.125 C 
BRANCH   6   7
HETATM    7  C6  UNL     1     -35.124   4.994   4.654  1.00 20.00     0.015 C 
HETATM    8  C3  UNL     1     -34.087   3.891   4.500  1.00 20.00     0.006 C 
ENDBRANCH   6   7
ENDBRANCH   2   6
BRANCH   1   9
HETATM    9  C5  UNL     1     -31.992   8.226   2.796  1.00 20.00     0.098 C 
HETATM   10  C2  UNL     1     -32.080   8.761   1.375  1.00 20.00     0.014 C 
ENDBRANCH   1   9
TORSDOF 4
ENDMDL
MODEL 4
REMARK VINA RESULT:      -4.0      1.402      4.124
REMARK  4 active torsions:
REMARK  status: ('A' for Active; 'I' for Inactive)
REMARK    1  A    between atoms: C1_1  and  C5_5 
REMARK       I    between atoms: C1_1  and  N9_9 
REMARK    2  A    between atoms: C6_6  and  C8_8 
REMARK    3  A    between atoms: C7_7  and  N9_9 
REMARK    4  A    between atoms: C8_8  and  N9_9 
ROOT
HETATM    1  C1  UNL     1     -32.125   8.582   2.490  1.00 20.00     0.219 C 
HETATM    2  N9  UNL     1     -32.760   7.517   3.136  1.00 20.00    -0.353 N 
HETATM    3  O10 UNL     1     -31.879   9.660   3.039  1.00 20.00    -0.273 OA
ENDROOT
BRANCH   2   4
HETATM    4  C7  UNL     1     -33.597   6.558   2.425  1.00 20.00     0.121 C 
HETATM    5  C4  UNL     1     -33.061   5.173   2.559  1.00 20.00     0.026 C 
ENDBRANCH   2   4
BRANCH   2   6
HETATM    6  C8  UNL     1     -32.632   7.284   4.573  1.00 20.00     0.125 C 
BRANCH   6   7
HETATM    7  C6  UNL     1     -33.975   7.334   5.292  1.00 20.00     0.015 C 
HETATM    8  C3  UNL     1     -34.384   5.986   5.868  1.00 20.00     0.006 C 
ENDBRANCH   6   7
ENDBRANCH   2   6
BRANCH   1   9
HETATM    9  C5  UNL     1     -31.738   8.352   1.035  1.00 20.00     0.098 C 
HETATM   10  C2  UNL     1     -32.456   9.293   0.081  1.00 20.00     0.014 C 
ENDBRANCH   1   9
TORSDOF 4
ENDMDL
MODEL 5
REMARK VINA RESULT:      -4.0     11.313     12.172
REMARK  4 active torsions:
REMARK  status: ('A' for Active; 'I' for Inactive)
REMARK    1  A    between atoms: C1_1  and  C5_5 
REMARK       I    between atoms: C1_1  and  N9_9 
REMARK    2  A    between atoms: C6_6  and  C8_8 
REMARK    3  A    between atoms: C7_7  and  N9_9 
REMARK    4  A    between atoms: C8_8  and  N9_9 
ROOT
HETATM    1  C1  UNL     1     -35.930  13.753  -5.647  1.00 20.00     0.219 C 
HETATM    2  N9  UNL     1     -34.823  14.609  -5.669  1.00 20.00    -0.353 N 
HETATM    3  O10 UNL     1     -35.878  12.585  -5.251  1.00 20.00    -0.273 OA
ENDROOT
BRANCH   2   4
HETATM    4  C7  UNL     1     -34.681  15.678  -6.650  1.00 20.00     0.121 C 
HETATM    5  C4  UNL     1     -34.031  15.182  -7.896  1.00 20.00     0.026 C 
ENDBRANCH   2   4
BRANCH   2   6
HETATM    6  C8  UNL     1     -33.726  14.496  -4.710  1.00 20.00     0.125 C 
BRANCH   6   7
HETATM    7  C6  UNL     1     -33.571  15.746  -3.854  1.00 20.00     0.015 C 
HETATM    8  C3  UNL     1     -34.821  16.066  -3.048  1.00 20.00     0.006 C 
ENDBRANCH   6   7
ENDBRANCH   2   6
BRANCH   1   9
HETATM    9  C5  UNL     1     -37.243  14.340  -6.147  1.00 20.00     0.098 C 
HETATM   10  C2  UNL     1     -38.188  14.713  -5.016  1.00 20.00     0.014 C 
ENDBRANCH   1   9
TORSDOF 4
ENDMDL
MODEL 6
REMARK VINA RESULT:      -4.0     11.218     12.387
REMARK  4 active torsions:
REMARK  status: ('A' for Active; 'I' for Inactive)
REMARK    1  A    between atoms: C1_1  and  C5_5 
REMARK       I    between atoms: C1_1  and  N9_9 
REMARK    2  A    between atoms: C6_6  and  C8_8 
REMARK    3  A    between atoms: C7_7  and  N9_9 
REMARK    4  A    between atoms: C8_8  and  N9_9 
ROOT
HETATM    1  C1  UNL     1     -35.600  13.709  -5.919  1.00 20.00     0.219 C 
HETATM    2  N9  UNL     1     -34.427  14.454  -5.762  1.00 20.00    -0.353 N 
HETATM    3  O10 UNL     1     -35.889  12.740  -5.212  1.00 20.00    -0.273 OA
ENDROOT
BRANCH   2   4
HETATM    4  C7  UNL     1     -33.771  15.125  -6.879  1.00 20.00     0.121 C 
HETATM    5  C4  UNL     1     -33.811  16.606  -6.714  1.00 20.00     0.026 C 
ENDBRANCH   2   4
BRANCH   2   6
HETATM    6  C8  UNL     1     -33.770  14.618  -4.467  1.00 20.00     0.125 C 
BRANCH   6   7
HETATM    7  C6  UNL     1     -34.594  15.460  -3.501  1.00 20.00     0.015 C 
HETATM    8  C3  UNL     1     -33.779  16.563  -2.840  1.00 20.00     0.006 C 
ENDBRANCH   6   7
ENDBRANCH   2   6
BRANCH   1   9
HETATM    9  C5  UNL     1     -36.535  14.154  -7.036  1.00 20.00     0.098 C 
HETATM   10  C2  UNL     1     -37.548  15.190  -6.575  1.00 20.00     0.014 C 
ENDBRANCH   1   9
TORSDOF 4
ENDMDL
MODEL 7
REMARK VINA RESULT:      -3.8     10.944     12.056
REMARK  4 active torsions:
REMARK  status: ('A' for Active; 'I' for Inactive)
REMARK    1  A    between atoms: C1_1  and  C5_5 
REMARK       I    between atoms: C1_1  and  N9_9 
REMARK    2  A    between atoms: C6_6  and  C8_8 
REMARK    3  A    between atoms: C7_7  and  N9_9 
REMARK    4  A    between atoms: C8_8  and  N9_9 
ROOT
HETATM    1  C1  UNL     1     -34.790  14.509  -4.118  1.00 20.00     0.219 C 
HETATM    2  N9  UNL     1     -35.984  14.503  -4.847  1.00 20.00    -0.353 N 
HETATM    3  O10 UNL     1     -33.999  13.561  -4.101  1.00 20.00    -0.273 OA
ENDROOT
BRANCH   2   4
HETATM    4  C7  UNL     1     -37.164  15.245  -4.420  1.00 20.00     0.121 C 
HETATM    5  C4  UNL     1     -38.406  14.656  -4.997  1.00 20.00     0.026 C 
ENDBRANCH   2   4
BRANCH   2   6
HETATM    6  C8  UNL     1     -36.138  13.753  -6.091  1.00 20.00     0.125 C 
BRANCH   6   7
HETATM    7  C6  UNL     1     -35.565  14.495  -7.292  1.00 20.00     0.015 C 
HETATM    8  C3  UNL     1     -34.242  13.913  -7.768  1.00 20.00     0.006 C 
ENDBRANCH   6   7
ENDBRANCH   2   6
BRANCH   1   9
HETATM    9  C5  UNL     1     -34.496  15.772  -3.319  1.00 20.00     0.098 C 
HETATM   10  C2  UNL     1     -33.660  16.776  -4.096  1.00 20.00     0.014 C 
ENDBRANCH   1   9
TORSDOF 4
ENDMDL
MODEL 8
REMARK VINA RESULT:      -3.8     11.060     11.931
REMARK  4 active torsions:
REMARK  status: ('A' for Active; 'I' for Inactive)
REMARK    1  A    between atoms: C1_1  and  C5_5 
REMARK       I    between atoms: C1_1  and  N9_9 
REMARK    2  A    between atoms: C6_6  and  C8_8 
REMARK    3  A    between atoms: C7_7  and  N9_9 
REMARK    4  A    between atoms: C8_8  and  N9_9 
ROOT
HETATM    1  C1  UNL     1     -34.608  14.303  -4.520  1.00 20.00     0.219 C 
HETATM    2  N9  UNL     1     -34.705  15.674  -4.261  1.00 20.00    -0.353 N 
HETATM    3  O10 UNL     1     -33.626  13.621  -4.212  1.00 20.00    -0.273 OA
ENDROOT
BRANCH   2   4
HETATM    4  C7  UNL     1     -35.471  16.578  -5.111  1.00 20.00     0.121 C 
HETATM    5  C4  UNL     1     -34.625  17.129  -6.208  1.00 20.00     0.026 C 
ENDBRANCH   2   4
BRANCH   2   6
HETATM    6  C8  UNL     1     -34.047  16.304  -3.119  1.00 20.00     0.125 C 
BRANCH   6   7
HETATM    7  C6  UNL     1     -35.016  16.605  -1.983  1.00 20.00     0.015 C 
HETATM    8  C3  UNL     1     -34.395  17.466  -0.892  1.00 20.00     0.006 C 
ENDBRANCH   6   7
ENDBRANCH   2   6
BRANCH   1   9
HETATM    9  C5  UNL     1     -35.801  13.665  -5.220  1.00 20.00     0.098 C 
HETATM   10  C2  UNL     1     -35.485  13.238  -6.645  1.00 20.00     0.014 C 
ENDBRANCH   1   9
TORSDOF 4
ENDMDL
MODEL 9
REMARK VINA RESULT:      -3.7     11.265     11.983
REMARK  4 active torsions:
REMARK  status: ('A' for Active; 'I' for Inactive)
REMARK    1  A    between atoms: C1_1  and  C5_5 
REMARK       I    between atoms: C1_1  and  N9_9 
REMARK    2  A    between atoms: C6_6  and  C8_8 
REMARK    3  A    between atoms: C7_7  and  N9_9 
REMARK    4  A    between atoms: C8_8  and  N9_9 
ROOT
HETATM    1  C1  UNL     1     -36.019  13.880  -5.275  1.00 20.00     0.219 C 
HETATM    2  N9  UNL     1     -35.168  14.760  -4.597  1.00 20.00    -0.353 N 
HETATM    3  O10 UNL     1     -37.147  13.581  -4.874  1.00 20.00    -0.273 OA
ENDROOT
BRANCH   2   4
HETATM    4  C7  UNL     1     -33.716  14.647  -4.659  1.00 20.00     0.121 C 
HETATM    5  C4  UNL     1     -33.138  15.650  -5.599  1.00 20.00     0.026 C 
ENDBRANCH   2   4
BRANCH   2   6
HETATM    6  C8  UNL     1     -35.672  15.858  -3.776  1.00 20.00     0.125 C 
BRANCH   6   7
HETATM    7  C6  UNL     1     -34.709  16.236  -2.657  1.00 20.00     0.015 C 
HETATM    8  C3  UNL     1     -35.410  16.881  -1.470  1.00 20.00     0.006 C 
ENDBRANCH   6   7
ENDBRANCH   2   6
BRANCH   1   9
HETATM    9  C5  UNL     1     -35.478  13.287  -6.569  1.00 20.00     0.098 C 
HETATM   10  C2  UNL     1     -36.080  13.932  -7.807  1.00 20.00     0.014 C 
ENDBRANCH   1   9
TORSDOF 4
ENDMDL
