MODEL 1
REMARK VINA RESULT:      -5.8      0.000      0.000
REMARK  0 active torsions:
REMARK  status: ('A' for Active; 'I' for Inactive)
ROOT
HETATM    1  C1  UNL     1     -32.312   8.455   4.504  1.00 20.00     0.017 A 
HETATM    2  C2  UNL     1     -31.721   8.785   3.285  1.00 20.00     0.025 A 
HETATM    3  C3  UNL     1     -32.887   6.956   2.175  1.00 20.00     0.032 A 
HETATM    4  C4  UNL     1     -33.178   7.377   4.518  1.00 20.00     0.016 A 
HETATM    5  C5  UNL     1     -33.473   6.624   3.387  1.00 20.00    -0.038 A 
HETATM    6  C6  UNL     1     -32.006   8.042   2.128  1.00 20.00     0.034 A 
HETATM    7  C7  UNL     1     -33.927   6.835   5.639  1.00 20.00     0.160 A 
HETATM    8  C8  UNL     1     -34.773   5.676   5.168  1.00 20.00     0.093 A 
HETATM    9  C9  UNL     1     -34.440   5.507   3.666  1.00 20.00     0.023 A 
HETATM   10  C10 UNL     1     -33.848   4.134   3.368  1.00 20.00     0.015 C 
HETATM   11  O11 UNL     1     -33.873   7.271   6.774  1.00 20.00    -0.292 OA
HETATM   12 CL12 UNL     1     -31.264   8.473   0.634  1.00 20.00    -0.084 Cl
ENDROOT
TORSDOF 0
ENDMDL
MODEL 2
REMARK VINA RESULT:      -5.0     11.578     12.156
REMARK  0 active torsions:
REMARK  status: ('A' for Active; 'I' for Inactive)
ROOT
HETATM    1  C1  UNL     1     -33.282  16.772  -2.737  1.00 20.00     0.017 A 
HETATM    2  C2  UNL     1     -34.296  16.151  -3.465  1.00 20.00     0.025 A 
HETATM    3  C3  UNL     1     -35.980  16.986  -1.913  1.00 20.00     0.032 A 
HETATM    4  C4  UNL     1     -33.654  17.485  -1.611  1.00 20.00     0.016 A 
HETATM    5  C5  UNL     1     -34.972  17.601  -1.185  1.00 20.00    -0.038 A 
HETATM    6  C6  UNL     1     -35.636  16.258  -3.057  1.00 20.00     0.034 A 
HETATM    7  C7  UNL     1     -32.807  18.226  -0.692  1.00 20.00     0.160 A 
HETATM    8  C8  UNL     1     -33.662  18.876   0.369  1.00 20.00     0.093 A 
HETATM    9  C9  UNL     1     -35.111  18.425   0.064  1.00 20.00     0.023 A 
HETATM   10  C10 UNL     1     -35.715  17.636   1.221  1.00 20.00     0.015 C 
HETATM   11  O11 UNL     1     -31.596  18.306  -0.788  1.00 20.00    -0.292 OA
HETATM   12 CL12 UNL     1     -36.871  15.483  -3.976  1.00 20.00    -0.084 Cl
ENDROOT
TORSDOF 0
ENDMDL
MODEL 3
REMARK VINA RESULT:      -5.0     11.457     12.143
REMARK  0 active torsions:
REMARK  status: ('A' for Active; 'I' for Inactive)
ROOT
HETATM    1  C1  UNL     1     -33.845  14.462  -4.374  1.00 20.00     0.017 A 
HETATM    2  C2  UNL     1     -33.275  15.430  -3.547  1.00 20.00     0.025 A 
HETATM    3  C3  UNL     1     -35.460  16.431  -3.143  1.00 20.00     0.032 A 
HETATM    4  C4  UNL     1     -35.214  14.512  -4.559  1.00 20.00     0.016 A 
HETATM    5  C5  UNL     1     -36.027  15.472  -3.968  1.00 20.00    -0.038 A 
HETATM    6  C6  UNL     1     -34.076  16.407  -2.935  1.00 20.00     0.034 A 
HETATM    7  C7  UNL     1     -36.051  13.627  -5.353  1.00 20.00     0.160 A 
HETATM    8  C8  UNL     1     -37.494  14.048  -5.225  1.00 20.00     0.093 A 
HETATM    9  C9  UNL     1     -37.478  15.310  -4.329  1.00 20.00     0.023 A 
HETATM   10  C10 UNL     1     -38.039  16.528  -5.054  1.00 20.00     0.015 C 
HETATM   11  O11 UNL     1     -35.630  12.689  -6.005  1.00 20.00    -0.292 OA
HETATM   12 CL12 UNL     1     -33.348  17.590  -1.916  1.00 20.00    -0.084 Cl
ENDROOT
TORSDOF 0
ENDMDL
MODEL 4
REMARK VINA RESULT:      -4.9     11.855     12.343
REMARK  0 active torsions:
REMARK  status: ('A' for Active; 'I' for Inactive)
ROOT
HETATM    1  C1  UNL     1     -33.662  19.018   1.270  1.00 20.00     0.017 A 
HETATM    2  C2  UNL     1     -34.691  19.145   2.202  1.00 20.00     0.025 A 
HETATM    3  C3  UNL     1     -36.165  17.777   0.825  1.00 20.00     0.032 A 
HETATM    4  C4  UNL     1     -33.920  18.269   0.137  1.00 20.00     0.016 A 
HETATM    5  C5  UNL     1     -35.143  17.653  -0.105  1.00 20.00    -0.038 A 
HETATM    6  C6  UNL     1     -35.934  18.529   1.982  1.00 20.00     0.034 A 
HETATM    7  C7  UNL     1     -33.030  17.972  -0.973  1.00 20.00     0.160 A 
HETATM    8  C8  UNL     1     -33.739  17.084  -1.966  1.00 20.00     0.093 A 
HETATM    9  C9  UNL     1     -35.170  16.901  -1.406  1.00 20.00     0.023 A 
HETATM   10  C10 UNL     1     -36.227  17.433  -2.368  1.00 20.00     0.015 C 
HETATM   11  O11 UNL     1     -31.886  18.381  -1.061  1.00 20.00    -0.292 OA
HETATM   12 CL12 UNL     1     -37.188  18.699   3.151  1.00 20.00    -0.084 Cl
ENDROOT
TORSDOF 0
ENDMDL
MODEL 5
REMARK VINA RESULT:      -4.9     11.551     12.400
REMARK  0 active torsions:
REMARK  status: ('A' for Active; 'I' for Inactive)
ROOT
HETATM    1  C1  UNL     1     -36.167  13.781  -5.154  1.00 20.00     0.017 A 
HETATM    2  C2  UNL     1     -37.525  14.050  -5.314  1.00 20.00     0.025 A 
HETATM    3  C3  UNL     1     -37.315  16.102  -4.016  1.00 20.00     0.032 A 
HETATM    4  C4  UNL     1     -35.421  14.688  -4.424  1.00 20.00     0.016 A 
HETATM    5  C5  UNL     1     -35.965  15.833  -3.852  1.00 20.00    -0.038 A 
HETATM    6  C6  UNL     1     -38.096  15.202  -4.751  1.00 20.00     0.034 A 
HETATM    7  C7  UNL     1     -34.001  14.653  -4.119  1.00 20.00     0.160 A 
HETATM    8  C8  UNL     1     -33.624  15.879  -3.324  1.00 20.00     0.093 A 
HETATM    9  C9  UNL     1     -34.947  16.653  -3.109  1.00 20.00     0.023 A 
HETATM   10  C10 UNL     1     -35.284  16.801  -1.629  1.00 20.00     0.015 C 
HETATM   11  O11 UNL     1     -33.247  13.764  -4.471  1.00 20.00    -0.292 OA
HETATM   12 CL12 UNL     1     -39.777  15.514  -4.966  1.00 20.00    -0.084 Cl
ENDROOT
TORSDOF 0
ENDMDL
MODEL 6
REMARK VINA RESULT:      -4.9     11.497     12.058
REMARK  0 active torsions:
REMARK  status: ('A' for Active; 'I' for Inactive)
ROOT
HETATM    1  C1  UNL     1     -35.907  17.008  -1.691  1.00 20.00     0.017 A 
HETATM    2  C2  UNL     1     -34.989  17.650  -0.861  1.00 20.00     0.025 A 
HETATM    3  C3  UNL     1     -33.162  17.076  -2.368  1.00 20.00     0.032 A 
HETATM    4  C4  UNL     1     -35.419  16.417  -2.841  1.00 20.00     0.016 A 
HETATM    5  C5  UNL     1     -34.074  16.434  -3.193  1.00 20.00    -0.038 A 
HETATM    6  C6  UNL     1     -33.626  17.685  -1.197  1.00 20.00     0.034 A 
HETATM    7  C7  UNL     1     -36.153  15.702  -3.871  1.00 20.00     0.160 A 
HETATM    8  C8  UNL     1     -35.202  15.265  -4.959  1.00 20.00     0.093 A 
HETATM    9  C9  UNL     1     -33.800  15.720  -4.487  1.00 20.00     0.023 A 
HETATM   10  C10 UNL     1     -32.849  14.541  -4.314  1.00 20.00     0.015 C 
HETATM   11  O11 UNL     1     -37.354  15.505  -3.845  1.00 20.00    -0.292 OA
HETATM   12 CL12 UNL     1     -32.512  18.487  -0.155  1.00 20.00    -0.084 Cl
ENDROOT
TORSDOF 0
ENDMDL
MODEL 7
REMARK VINA RESULT:      -4.8     11.806     12.545
REMARK  0 active torsions:
REMARK  status: ('A' for Active; 'I' for Inactive)
ROOT
HETATM    1  C1  UNL     1     -33.246  16.037  -5.445  1.00 20.00     0.017 A 
HETATM    2  C2  UNL     1     -33.252  16.634  -4.185  1.00 20.00     0.025 A 
HETATM    3  C3  UNL     1     -35.166  15.286  -3.508  1.00 20.00     0.032 A 
HETATM    4  C4  UNL     1     -34.209  15.076  -5.697  1.00 20.00     0.016 A 
HETATM    5  C5  UNL     1     -35.164  14.694  -4.762  1.00 20.00    -0.038 A 
HETATM    6  C6  UNL     1     -34.203  16.261  -3.223  1.00 20.00     0.034 A 
HETATM    7  C7  UNL     1     -34.416  14.301  -6.909  1.00 20.00     0.160 A 
HETATM    8  C8  UNL     1     -35.567  13.346  -6.706  1.00 20.00     0.093 A 
HETATM    9  C9  UNL     1     -36.096  13.635  -5.281  1.00 20.00     0.023 A 
HETATM   10  C10 UNL     1     -37.550  14.094  -5.298  1.00 20.00     0.015 C 
HETATM   11  O11 UNL     1     -33.745  14.415  -7.918  1.00 20.00    -0.292 OA
HETATM   12 CL12 UNL     1     -34.187  17.013  -1.672  1.00 20.00    -0.084 Cl
ENDROOT
TORSDOF 0
ENDMDL
MODEL 8
REMARK VINA RESULT:      -4.8     11.889     12.297
REMARK  0 active torsions:
REMARK  status: ('A' for Active; 'I' for Inactive)
ROOT
HETATM    1  C1  UNL     1     -32.176  18.228  -1.000  1.00 20.00     0.017 A 
HETATM    2  C2  UNL     1     -31.823  18.687   0.268  1.00 20.00     0.025 A 
HETATM    3  C3  UNL     1     -34.068  18.239   1.102  1.00 20.00     0.032 A 
HETATM    4  C4  UNL     1     -33.474  17.786  -1.177  1.00 20.00     0.016 A 
HETATM    5  C5  UNL     1     -34.422  17.786  -0.160  1.00 20.00    -0.038 A 
HETATM    6  C6  UNL     1     -32.761  18.693   1.312  1.00 20.00     0.034 A 
HETATM    7  C7  UNL     1     -34.091  17.253  -2.380  1.00 20.00     0.160 A 
HETATM    8  C8  UNL     1     -35.519  16.865  -2.086  1.00 20.00     0.093 A 
HETATM    9  C9  UNL     1     -35.757  17.259  -0.608  1.00 20.00     0.023 A 
HETATM   10  C10 UNL     1     -36.870  18.291  -0.467  1.00 20.00     0.015 C 
HETATM   11  O11 UNL     1     -33.519  17.137  -3.448  1.00 20.00    -0.292 OA
HETATM   12 CL12 UNL     1     -32.299  19.263   2.871  1.00 20.00    -0.084 Cl
ENDROOT
TORSDOF 0
ENDMDL
MODEL 9
REMARK VINA RESULT:      -4.7     11.927     12.366
REMARK  0 active torsions:
REMARK  status: ('A' for Active; 'I' for Inactive)
ROOT
HETATM    1  C1  UNL     1     -33.025  17.431  -2.231  1.00 20.00     0.017 A 
HETATM    2  C2  UNL     1     -33.350  17.871  -0.949  1.00 20.00     0.025 A 
HETATM    3  C3  UNL     1     -35.623  17.026  -1.189  1.00 20.00     0.032 A 
HETATM    4  C4  UNL     1     -34.018  16.797  -2.956  1.00 20.00     0.016 A 
HETATM    5  C5  UNL     1     -35.303  16.591  -2.466  1.00 20.00    -0.038 A 
HETATM    6  C6  UNL     1     -34.640  17.670  -0.430  1.00 20.00     0.034 A 
HETATM    7  C7  UNL     1     -33.942  16.239  -4.295  1.00 20.00     0.160 A 
HETATM    8  C8  UNL     1     -35.267  15.613  -4.657  1.00 20.00     0.093 A 
HETATM    9  C9  UNL     1     -36.194  15.882  -3.447  1.00 20.00     0.023 A 
HETATM   10  C10 UNL     1     -37.410  16.715  -3.839  1.00 20.00     0.015 C 
HETATM   11  O11 UNL     1     -32.948  16.274  -4.996  1.00 20.00    -0.292 OA
HETATM   12 CL12 UNL     1     -35.015  18.221   1.159  1.00 20.00    -0.084 Cl
ENDROOT
TORSDOF 0
ENDMDL
