MODEL 1
REMARK VINA RESULT:      -3.7      0.000      0.000
REMARK  0 active torsions:
REMARK  status: ('A' for Active; 'I' for Inactive)
ROOT
HETATM    1  C1  UNL     1     -34.636   5.066   5.506  1.00 20.00     0.148 A 
HETATM    2  C2  UNL     1     -33.739   7.246   5.350  1.00 20.00     0.148 A 
HETATM    3  C3  UNL     1     -34.436   4.742   4.224  1.00 20.00     0.074 A 
HETATM    4  C4  UNL     1     -33.434   7.178   4.050  1.00 20.00     0.074 A 
HETATM    5  O5  UNL     1     -34.321   6.259   6.105  1.00 20.00    -0.334 OA
HETATM    6  S6  UNL     1     -33.725   5.795   3.055  1.00 20.00    -0.110 SA
ENDROOT
TORSDOF 0
ENDMDL
MODEL 2
REMARK VINA RESULT:      -3.7      0.016      2.045
REMARK  0 active torsions:
REMARK  status: ('A' for Active; 'I' for Inactive)
ROOT
HETATM    1  C1  UNL     1     -33.753   7.235   5.356  1.00 20.00     0.148 A 
HETATM    2  C2  UNL     1     -34.637   5.049   5.497  1.00 20.00     0.148 A 
HETATM    3  C3  UNL     1     -33.441   7.175   4.057  1.00 20.00     0.074 A 
HETATM    4  C4  UNL     1     -34.428   4.732   4.215  1.00 20.00     0.074 A 
HETATM    5  O5  UNL     1     -34.330   6.241   6.103  1.00 20.00    -0.334 OA
HETATM    6  S6  UNL     1     -33.715   5.796   3.054  1.00 20.00    -0.110 SA
ENDROOT
TORSDOF 0
ENDMDL
MODEL 3
REMARK VINA RESULT:      -3.5      1.841      2.847
REMARK  0 active torsions:
REMARK  status: ('A' for Active; 'I' for Inactive)
ROOT
HETATM    1  C1  UNL     1     -33.362   6.247   3.109  1.00 20.00     0.148 A 
HETATM    2  C2  UNL     1     -34.488   4.690   4.483  1.00 20.00     0.148 A 
HETATM    3  C3  UNL     1     -33.273   7.209   4.034  1.00 20.00     0.074 A 
HETATM    4  C4  UNL     1     -34.533   5.470   5.569  1.00 20.00     0.074 A 
HETATM    5  O5  UNL     1     -33.937   5.013   3.269  1.00 20.00    -0.334 OA
HETATM    6  S6  UNL     1     -33.885   7.071   5.643  1.00 20.00    -0.110 SA
ENDROOT
TORSDOF 0
ENDMDL
MODEL 4
REMARK VINA RESULT:      -3.5      1.548      2.136
REMARK  0 active torsions:
REMARK  status: ('A' for Active; 'I' for Inactive)
ROOT
HETATM    1  C1  UNL     1     -33.633   7.198   5.585  1.00 20.00     0.148 A 
HETATM    2  C2  UNL     1     -33.098   6.841   3.312  1.00 20.00     0.148 A 
HETATM    3  C3  UNL     1     -34.374   6.093   5.728  1.00 20.00     0.074 A 
HETATM    4  C4  UNL     1     -33.777   5.696   3.187  1.00 20.00     0.074 A 
HETATM    5  O5  UNL     1     -32.994   7.609   4.444  1.00 20.00    -0.334 OA
HETATM    6  S6  UNL     1     -34.671   4.952   4.466  1.00 20.00    -0.110 SA
ENDROOT
TORSDOF 0
ENDMDL
MODEL 5
REMARK VINA RESULT:      -3.5      1.541      2.145
REMARK  0 active torsions:
REMARK  status: ('A' for Active; 'I' for Inactive)
ROOT
HETATM    1  C1  UNL     1     -33.114   6.864   3.320  1.00 20.00     0.148 A 
HETATM    2  C2  UNL     1     -33.653   7.195   5.596  1.00 20.00     0.148 A 
HETATM    3  C3  UNL     1     -33.778   5.711   3.187  1.00 20.00     0.074 A 
HETATM    4  C4  UNL     1     -34.379   6.080   5.731  1.00 20.00     0.074 A 
HETATM    5  O5  UNL     1     -33.019   7.624   4.458  1.00 20.00    -0.334 OA
HETATM    6  S6  UNL     1     -34.660   4.944   4.459  1.00 20.00    -0.110 SA
ENDROOT
TORSDOF 0
ENDMDL
MODEL 6
REMARK VINA RESULT:      -3.5      1.841      2.145
REMARK  0 active torsions:
REMARK  status: ('A' for Active; 'I' for Inactive)
ROOT
HETATM    1  C1  UNL     1     -34.552   4.794   4.553  1.00 20.00     0.148 A 
HETATM    2  C2  UNL     1     -33.418   6.298   3.127  1.00 20.00     0.148 A 
HETATM    3  C3  UNL     1     -34.523   5.580   5.635  1.00 20.00     0.074 A 
HETATM    4  C4  UNL     1     -33.254   7.260   4.042  1.00 20.00     0.074 A 
HETATM    5  O5  UNL     1     -34.035   5.088   3.317  1.00 20.00    -0.334 OA
HETATM    6  S6  UNL     1     -33.807   7.151   5.676  1.00 20.00    -0.110 SA
ENDROOT
TORSDOF 0
ENDMDL
MODEL 7
REMARK VINA RESULT:      -2.8     12.856     13.593
REMARK  0 active torsions:
REMARK  status: ('A' for Active; 'I' for Inactive)
ROOT
HETATM    1  C1  UNL     1     -35.348  13.790  -4.829  1.00 20.00     0.148 A 
HETATM    2  C2  UNL     1     -35.102  12.975  -7.033  1.00 20.00     0.148 A 
HETATM    3  C3  UNL     1     -34.634  14.906  -5.014  1.00 20.00     0.074 A 
HETATM    4  C4  UNL     1     -34.359  13.995  -7.476  1.00 20.00     0.074 A 
HETATM    5  O5  UNL     1     -35.607  12.823  -5.766  1.00 20.00    -0.334 OA
HETATM    6  S6  UNL     1     -33.885  15.345  -6.507  1.00 20.00    -0.110 SA
ENDROOT
TORSDOF 0
ENDMDL
MODEL 8
REMARK VINA RESULT:      -2.8     12.867     13.566
REMARK  0 active torsions:
REMARK  status: ('A' for Active; 'I' for Inactive)
ROOT
HETATM    1  C1  UNL     1     -35.102  12.963  -7.037  1.00 20.00     0.148 A 
HETATM    2  C2  UNL     1     -35.362  13.794  -4.841  1.00 20.00     0.148 A 
HETATM    3  C3  UNL     1     -34.358  13.982  -7.484  1.00 20.00     0.074 A 
HETATM    4  C4  UNL     1     -34.650  14.911  -5.030  1.00 20.00     0.074 A 
HETATM    5  O5  UNL     1     -35.614  12.820  -5.773  1.00 20.00    -0.334 OA
HETATM    6  S6  UNL     1     -33.895  15.341  -6.524  1.00 20.00    -0.110 SA
ENDROOT
TORSDOF 0
ENDMDL
MODEL 9
REMARK VINA RESULT:      -2.6     12.471     12.797
REMARK  0 active torsions:
REMARK  status: ('A' for Active; 'I' for Inactive)
ROOT
HETATM    1  C1  UNL     1     -36.296  13.580  -5.271  1.00 20.00     0.148 A 
HETATM    2  C2  UNL     1     -34.343  14.310  -4.160  1.00 20.00     0.148 A 
HETATM    3  C3  UNL     1     -37.055  14.622  -4.916  1.00 20.00     0.074 A 
HETATM    4  C4  UNL     1     -34.873  15.437  -3.674  1.00 20.00     0.074 A 
HETATM    5  O5  UNL     1     -34.982  13.376  -4.936  1.00 20.00    -0.334 OA
HETATM    6  S6  UNL     1     -36.506  15.938  -3.942  1.00 20.00    -0.110 SA
ENDROOT
TORSDOF 0
ENDMDL
