MODEL 1
REMARK VINA RESULT:      -4.6      0.000      0.000
REMARK  2 active torsions:
REMARK  status: ('A' for Active; 'I' for Inactive)
REMARK    1  A    between atoms: C6_6  and  C9_9 
REMARK    2  A    between atoms: C6_6  and  C10_10 
ROOT
HETATM    1  C1  UNL     1     -34.180  14.051  -4.329  1.00 20.00     0.047 C 
HETATM    2  C2  UNL     1     -33.805  15.226  -3.811  1.00 20.00    -0.014 C 
HETATM    3  C3  UNL     1     -35.581  13.834  -4.762  1.00 20.00     0.149 C 
HETATM    4  C4  UNL     1     -36.587  14.939  -4.530  1.00 20.00     0.084 C 
HETATM    5  C5  UNL     1     -35.928  16.310  -4.606  1.00 20.00     0.021 C 
HETATM    6  C6  UNL     1     -34.703  16.437  -3.671  1.00 20.00    -0.023 C 
HETATM    7  O11 UNL     1     -35.910  12.751  -5.242  1.00 20.00    -0.293 OA
ENDROOT
BRANCH   6   8
HETATM    8  C9  UNL     1     -35.144  16.563  -2.203  1.00 20.00     0.009 C 
HETATM    9  C7  UNL     1     -34.103  17.243  -1.383  1.00 20.00     0.006 C 
ENDBRANCH   6   8
BRANCH   6  10
HETATM   10  C10 UNL     1     -33.920  17.704  -4.063  1.00 20.00     0.009 C 
HETATM   11  C8  UNL     1     -33.866  17.870  -5.542  1.00 20.00     0.006 C 
ENDBRANCH   6  10
TORSDOF 2
ENDMDL
MODEL 2
REMARK VINA RESULT:      -4.5      0.757      2.496
REMARK  2 active torsions:
REMARK  status: ('A' for Active; 'I' for Inactive)
REMARK    1  A    between atoms: C6_6  and  C9_9 
REMARK    2  A    between atoms: C6_6  and  C10_10 
ROOT
HETATM    1  C1  UNL     1     -36.232  14.911  -4.166  1.00 20.00     0.047 C 
HETATM    2  C2  UNL     1     -35.667  16.029  -3.694  1.00 20.00    -0.014 C 
HETATM    3  C3  UNL     1     -35.408  13.885  -4.849  1.00 20.00     0.149 C 
HETATM    4  C4  UNL     1     -33.940  14.168  -5.071  1.00 20.00     0.084 C 
HETATM    5  C5  UNL     1     -33.373  15.040  -3.958  1.00 20.00     0.021 C 
HETATM    6  C6  UNL     1     -34.185  16.337  -3.741  1.00 20.00    -0.023 C 
HETATM    7  O11 UNL     1     -35.940  12.860  -5.272  1.00 20.00    -0.293 OA
ENDROOT
BRANCH   6   8
HETATM    8  C9  UNL     1     -33.922  17.346  -4.871  1.00 20.00     0.009 C 
HETATM    9  C7  UNL     1     -33.339  18.610  -4.343  1.00 20.00     0.006 C 
ENDBRANCH   6   8
BRANCH   6  10
HETATM   10  C10 UNL     1     -33.751  16.967  -2.404  1.00 20.00     0.009 C 
HETATM   11  C8  UNL     1     -34.864  16.957  -1.416  1.00 20.00     0.006 C 
ENDBRANCH   6  10
TORSDOF 2
ENDMDL
MODEL 3
REMARK VINA RESULT:      -4.5     10.799     11.791
REMARK  2 active torsions:
REMARK  status: ('A' for Active; 'I' for Inactive)
REMARK    1  A    between atoms: C6_6  and  C9_9 
REMARK    2  A    between atoms: C6_6  and  C10_10 
ROOT
HETATM    1  C1  UNL     1     -33.334   4.957   2.844  1.00 20.00     0.047 C 
HETATM    2  C2  UNL     1     -32.757   6.065   2.365  1.00 20.00    -0.014 C 
HETATM    3  C3  UNL     1     -34.147   5.009   4.083  1.00 20.00     0.149 C 
HETATM    4  C4  UNL     1     -34.238   6.319   4.831  1.00 20.00     0.084 C 
HETATM    5  C5  UNL     1     -34.152   7.505   3.879  1.00 20.00     0.021 C 
HETATM    6  C6  UNL     1     -32.909   7.449   2.963  1.00 20.00    -0.023 C 
HETATM    7  O11 UNL     1     -34.675   3.984   4.508  1.00 20.00    -0.293 OA
ENDROOT
BRANCH   6   8
HETATM    8  C9  UNL     1     -31.632   7.794   3.748  1.00 20.00     0.009 C 
HETATM    9  C7  UNL     1     -31.903   8.811   4.801  1.00 20.00     0.006 C 
ENDBRANCH   6   8
BRANCH   6  10
HETATM   10  C10 UNL     1     -33.087   8.478   1.833  1.00 20.00     0.009 C 
HETATM   11  C8  UNL     1     -31.799   8.742   1.133  1.00 20.00     0.006 C 
ENDBRANCH   6  10
TORSDOF 2
ENDMDL
MODEL 4
REMARK VINA RESULT:      -4.4      1.157      2.847
REMARK  2 active torsions:
REMARK  status: ('A' for Active; 'I' for Inactive)
REMARK    1  A    between atoms: C6_6  and  C9_9 
REMARK    2  A    between atoms: C6_6  and  C10_10 
ROOT
HETATM    1  C1  UNL     1     -36.957  15.834  -4.645  1.00 20.00     0.047 C 
HETATM    2  C2  UNL     1     -35.797  16.467  -4.435  1.00 20.00    -0.014 C 
HETATM    3  C3  UNL     1     -36.981  14.372  -4.886  1.00 20.00     0.149 C 
HETATM    4  C4  UNL     1     -35.665  13.632  -4.969  1.00 20.00     0.084 C 
HETATM    5  C5  UNL     1     -34.611  14.281  -4.081  1.00 20.00     0.021 C 
HETATM    6  C6  UNL     1     -34.444  15.793  -4.357  1.00 20.00    -0.023 C 
HETATM    7  O11 UNL     1     -38.055  13.802  -5.072  1.00 20.00    -0.293 OA
ENDROOT
BRANCH   6   8
HETATM    8  C9  UNL     1     -33.693  16.030  -5.678  1.00 20.00     0.009 C 
HETATM    9  C7  UNL     1     -33.986  17.380  -6.232  1.00 20.00     0.006 C 
ENDBRANCH   6   8
BRANCH   6  10
HETATM   10  C10 UNL     1     -33.628  16.412  -3.207  1.00 20.00     0.009 C 
HETATM   11  C8  UNL     1     -34.497  16.731  -2.040  1.00 20.00     0.006 C 
ENDBRANCH   6  10
TORSDOF 2
ENDMDL
MODEL 5
REMARK VINA RESULT:      -4.3     10.833     11.984
REMARK  2 active torsions:
REMARK  status: ('A' for Active; 'I' for Inactive)
REMARK    1  A    between atoms: C6_6  and  C9_9 
REMARK    2  A    between atoms: C6_6  and  C10_10 
ROOT
HETATM    1  C1  UNL     1     -34.297   6.369   4.872  1.00 20.00     0.047 C 
HETATM    2  C2  UNL     1     -33.598   7.419   4.425  1.00 20.00    -0.014 C 
HETATM    3  C3  UNL     1     -34.314   5.099   4.108  1.00 20.00     0.149 C 
HETATM    4  C4  UNL     1     -33.595   5.045   2.780  1.00 20.00     0.084 C 
HETATM    5  C5  UNL     1     -32.383   5.969   2.772  1.00 20.00     0.021 C 
HETATM    6  C6  UNL     1     -32.732   7.418   3.183  1.00 20.00    -0.023 C 
HETATM    7  O11 UNL     1     -34.957   4.141   4.534  1.00 20.00    -0.293 OA
ENDROOT
BRANCH   6   8
HETATM    8  C9  UNL     1     -33.482   8.143   2.053  1.00 20.00     0.009 C 
HETATM    9  C7  UNL     1     -32.549   8.947   1.215  1.00 20.00     0.006 C 
ENDBRANCH   6   8
BRANCH   6  10
HETATM   10  C10 UNL     1     -31.422   8.172   3.472  1.00 20.00     0.009 C 
HETATM   11  C8  UNL     1     -31.523   8.972   4.724  1.00 20.00     0.006 C 
ENDBRANCH   6  10
TORSDOF 2
ENDMDL
MODEL 6
REMARK VINA RESULT:      -4.2      1.404      1.780
REMARK  2 active torsions:
REMARK  status: ('A' for Active; 'I' for Inactive)
REMARK    1  A    between atoms: C6_6  and  C9_9 
REMARK    2  A    between atoms: C6_6  and  C10_10 
ROOT
HETATM    1  C1  UNL     1     -35.925  13.640  -5.273  1.00 20.00     0.047 C 
HETATM    2  C2  UNL     1     -34.730  14.228  -5.147  1.00 20.00    -0.014 C 
HETATM    3  C3  UNL     1     -37.164  14.375  -4.925  1.00 20.00     0.149 C 
HETATM    4  C4  UNL     1     -37.039  15.768  -4.349  1.00 20.00     0.084 C 
HETATM    5  C5  UNL     1     -35.810  16.482  -4.897  1.00 20.00     0.021 C 
HETATM    6  C6  UNL     1     -34.512  15.664  -4.716  1.00 20.00    -0.023 C 
HETATM    7  O11 UNL     1     -38.255  13.824  -5.051  1.00 20.00    -0.293 OA
ENDROOT
BRANCH   6   8
HETATM    8  C9  UNL     1     -34.052  15.678  -3.249  1.00 20.00     0.009 C 
HETATM    9  C7  UNL     1     -33.653  17.048  -2.821  1.00 20.00     0.006 C 
ENDBRANCH   6   8
BRANCH   6  10
HETATM   10  C10 UNL     1     -33.410  16.298  -5.586  1.00 20.00     0.009 C 
HETATM   11  C8  UNL     1     -33.761  16.236  -7.032  1.00 20.00     0.006 C 
ENDBRANCH   6  10
TORSDOF 2
ENDMDL
MODEL 7
REMARK VINA RESULT:      -4.1      2.628      4.153
REMARK  2 active torsions:
REMARK  status: ('A' for Active; 'I' for Inactive)
REMARK    1  A    between atoms: C6_6  and  C9_9 
REMARK    2  A    between atoms: C6_6  and  C10_10 
ROOT
HETATM    1  C1  UNL     1     -35.381  16.994  -1.174  1.00 20.00     0.047 C 
HETATM    2  C2  UNL     1     -35.442  16.567  -2.441  1.00 20.00    -0.014 C 
HETATM    3  C3  UNL     1     -34.174  17.698  -0.677  1.00 20.00     0.149 C 
HETATM    4  C4  UNL     1     -32.991  17.847  -1.607  1.00 20.00     0.084 C 
HETATM    5  C5  UNL     1     -33.441  17.954  -3.058  1.00 20.00     0.021 C 
HETATM    6  C6  UNL     1     -34.369  16.794  -3.485  1.00 20.00    -0.023 C 
HETATM    7  O11 UNL     1     -34.134  18.090   0.487  1.00 20.00    -0.293 OA
ENDROOT
BRANCH   6   8
HETATM    8  C9  UNL     1     -33.572  15.493  -3.671  1.00 20.00     0.009 C 
HETATM    9  C7  UNL     1     -34.453  14.377  -4.113  1.00 20.00     0.006 C 
ENDBRANCH   6   8
BRANCH   6  10
HETATM   10  C10 UNL     1     -35.030  17.166  -4.825  1.00 20.00     0.009 C 
HETATM   11  C8  UNL     1     -34.040  17.750  -5.772  1.00 20.00     0.006 C 
ENDBRANCH   6  10
TORSDOF 2
ENDMDL
MODEL 8
REMARK VINA RESULT:      -4.0     10.462     11.812
REMARK  2 active torsions:
REMARK  status: ('A' for Active; 'I' for Inactive)
REMARK    1  A    between atoms: C6_6  and  C9_9 
REMARK    2  A    between atoms: C6_6  and  C10_10 
ROOT
HETATM    1  C1  UNL     1     -31.638   8.381   3.012  1.00 20.00     0.047 C 
HETATM    2  C2  UNL     1     -32.188   7.470   3.824  1.00 20.00    -0.014 C 
HETATM    3  C3  UNL     1     -32.219   8.640   1.674  1.00 20.00     0.149 C 
HETATM    4  C4  UNL     1     -33.390   7.798   1.219  1.00 20.00     0.084 C 
HETATM    5  C5  UNL     1     -34.255   7.374   2.400  1.00 20.00     0.021 C 
HETATM    6  C6  UNL     1     -33.443   6.680   3.517  1.00 20.00    -0.023 C 
HETATM    7  O11 UNL     1     -31.707   9.483   0.940  1.00 20.00    -0.293 OA
ENDROOT
BRANCH   6   8
HETATM    8  C9  UNL     1     -33.044   5.254   3.102  1.00 20.00     0.009 C 
HETATM    9  C7  UNL     1     -33.888   4.236   3.788  1.00 20.00     0.006 C 
ENDBRANCH   6   8
BRANCH   6  10
HETATM   10  C10 UNL     1     -34.320   6.601   4.780  1.00 20.00     0.009 C 
HETATM   11  C8  UNL     1     -33.694   7.328   5.919  1.00 20.00     0.006 C 
ENDBRANCH   6  10
TORSDOF 2
ENDMDL
MODEL 9
REMARK VINA RESULT:      -4.0      3.457      5.001
REMARK  2 active torsions:
REMARK  status: ('A' for Active; 'I' for Inactive)
REMARK    1  A    between atoms: C6_6  and  C9_9 
REMARK    2  A    between atoms: C6_6  and  C10_10 
ROOT
HETATM    1  C1  UNL     1     -32.562  18.262  -0.823  1.00 20.00     0.047 C 
HETATM    2  C2  UNL     1     -33.166  17.806  -1.927  1.00 20.00    -0.014 C 
HETATM    3  C3  UNL     1     -33.338  18.486   0.419  1.00 20.00     0.149 C 
HETATM    4  C4  UNL     1     -34.834  18.267   0.385  1.00 20.00     0.084 C 
HETATM    5  C5  UNL     1     -35.208  17.173  -0.607  1.00 20.00     0.021 C 
HETATM    6  C6  UNL     1     -34.628  17.422  -2.018  1.00 20.00    -0.023 C 
HETATM    7  O11 UNL     1     -32.769  18.900   1.427  1.00 20.00    -0.293 OA
ENDROOT
BRANCH   6   8
HETATM    8  C9  UNL     1     -35.393  18.545  -2.737  1.00 20.00     0.009 C 
HETATM    9  C7  UNL     1     -36.839  18.214  -2.871  1.00 20.00     0.006 C 
ENDBRANCH   6   8
BRANCH   6  10
HETATM   10  C10 UNL     1     -34.766  16.126  -2.838  1.00 20.00     0.009 C 
HETATM   11  C8  UNL     1     -33.574  15.903  -3.702  1.00 20.00     0.006 C 
ENDBRANCH   6  10
TORSDOF 2
ENDMDL
