MODEL 1
REMARK VINA RESULT:      -5.0      0.000      0.000
REMARK  3 active torsions:
REMARK  status: ('A' for Active; 'I' for Inactive)
REMARK    1  A    between atoms: C1_1  and  C5_5 
REMARK    2  A    between atoms: C2_2  and  C6_6 
REMARK    3  A    between atoms: C6_6  and  O7_7 
ROOT
HETATM    1  C3  UNL     1     -34.445   6.089   5.812  1.00 20.00     0.060 C 
HETATM    2  C4  UNL     1     -34.082   4.258   4.133  1.00 20.00     0.060 C 
HETATM    3  C6  UNL     1     -34.458   5.726   4.327  1.00 20.00     0.114 C 
ENDROOT
BRANCH   3   4
HETATM    4  C2  UNL     1     -33.537   6.592   3.572  1.00 20.00    -0.068 C 
HETATM    5  C1  UNL     1     -32.783   7.298   2.958  1.00 20.00    -0.088 C 
BRANCH   5   6
HETATM    6  C5  UNL     1     -31.870   8.160   2.212  1.00 20.00     0.208 C 
HETATM    7 CL8  UNL     1     -32.807   9.442   1.422  1.00 20.00    -0.117 Cl
ENDBRANCH   5   6
ENDBRANCH   3   4
BRANCH   3   8
HETATM    8  O7  UNL     1     -35.786   5.895   3.829  1.00 20.00    -0.378 OA
HETATM    9  H17 UNL     1     -36.235   6.493   4.446  1.00 20.00     0.211 HD
ENDBRANCH   3   8
TORSDOF 3
ENDMDL
MODEL 2
REMARK VINA RESULT:      -4.5      1.143      1.580
REMARK  3 active torsions:
REMARK  status: ('A' for Active; 'I' for Inactive)
REMARK    1  A    between atoms: C1_1  and  C5_5 
REMARK    2  A    between atoms: C2_2  and  C6_6 
REMARK    3  A    between atoms: C6_6  and  O7_7 
ROOT
HETATM    1  C3  UNL     1     -35.640   6.088   3.614  1.00 20.00     0.060 C 
HETATM    2  C4  UNL     1     -34.091   6.416   5.563  1.00 20.00     0.060 C 
HETATM    3  C6  UNL     1     -34.188   6.031   4.088  1.00 20.00     0.114 C 
ENDROOT
BRANCH   3   4
HETATM    4  C2  UNL     1     -33.341   6.918   3.273  1.00 20.00    -0.068 C 
HETATM    5  C1  UNL     1     -32.653   7.642   2.605  1.00 20.00    -0.088 C 
BRANCH   5   6
HETATM    6  C5  UNL     1     -31.812   8.519   1.795  1.00 20.00     0.208 C 
HETATM    7 CL8  UNL     1     -32.783   9.897   1.243  1.00 20.00    -0.117 Cl
ENDBRANCH   5   6
ENDBRANCH   3   4
BRANCH   3   8
HETATM    8  O7  UNL     1     -33.723   4.686   3.967  1.00 20.00    -0.378 OA
HETATM    9  H17 UNL     1     -33.006   4.585   4.611  1.00 20.00     0.211 HD
ENDBRANCH   3   8
TORSDOF 3
ENDMDL
MODEL 3
REMARK VINA RESULT:      -4.3      3.253      4.933
REMARK  3 active torsions:
REMARK  status: ('A' for Active; 'I' for Inactive)
REMARK    1  A    between atoms: C1_1  and  C5_5 
REMARK    2  A    between atoms: C2_2  and  C6_6 
REMARK    3  A    between atoms: C6_6  and  O7_7 
ROOT
HETATM    1  C3  UNL     1     -32.498  10.669   1.414  1.00 20.00     0.060 C 
HETATM    2  C4  UNL     1     -33.200   9.059  -0.381  1.00 20.00     0.060 C 
HETATM    3  C6  UNL     1     -32.377   9.236   0.894  1.00 20.00     0.114 C 
ENDROOT
BRANCH   3   4
HETATM    4  C2  UNL     1     -32.810   8.272   1.919  1.00 20.00    -0.068 C 
HETATM    5  C1  UNL     1     -33.160   7.484   2.755  1.00 20.00    -0.088 C 
BRANCH   5   6
HETATM    6  C5  UNL     1     -33.591   6.527   3.770  1.00 20.00     0.208 C 
HETATM    7 CL8  UNL     1     -33.626   7.337   5.348  1.00 20.00    -0.117 Cl
ENDBRANCH   5   6
ENDBRANCH   3   4
BRANCH   3   8
HETATM    8  O7  UNL     1     -31.011   8.990   0.556  1.00 20.00    -0.378 OA
HETATM    9  H17 UNL     1     -31.018   8.311  -0.134  1.00 20.00     0.211 HD
ENDBRANCH   3   8
TORSDOF 3
ENDMDL
MODEL 4
REMARK VINA RESULT:      -4.2      1.132      1.570
REMARK  3 active torsions:
REMARK  status: ('A' for Active; 'I' for Inactive)
REMARK    1  A    between atoms: C1_1  and  C5_5 
REMARK    2  A    between atoms: C2_2  and  C6_6 
REMARK    3  A    between atoms: C6_6  and  O7_7 
ROOT
HETATM    1  C3  UNL     1     -33.737   4.508   3.860  1.00 20.00     0.060 C 
HETATM    2  C4  UNL     1     -35.654   6.113   3.629  1.00 20.00     0.060 C 
HETATM    3  C6  UNL     1     -34.189   5.959   4.032  1.00 20.00     0.114 C 
ENDROOT
BRANCH   3   4
HETATM    4  C2  UNL     1     -33.343   6.864   3.238  1.00 20.00    -0.068 C 
HETATM    5  C1  UNL     1     -32.648   7.601   2.590  1.00 20.00    -0.088 C 
BRANCH   5   6
HETATM    6  C5  UNL     1     -31.808   8.500   1.805  1.00 20.00     0.208 C 
HETATM    7 CL8  UNL     1     -32.786   9.879   1.267  1.00 20.00    -0.117 Cl
ENDBRANCH   5   6
ENDBRANCH   3   4
BRANCH   3   8
HETATM    8  O7  UNL     1     -34.088   6.304   5.415  1.00 20.00    -0.378 OA
HETATM    9  H17 UNL     1     -34.823   6.907   5.600  1.00 20.00     0.211 HD
ENDBRANCH   3   8
TORSDOF 3
ENDMDL
MODEL 5
REMARK VINA RESULT:      -3.8     11.551     11.898
REMARK  3 active torsions:
REMARK  status: ('A' for Active; 'I' for Inactive)
REMARK    1  A    between atoms: C1_1  and  C5_5 
REMARK    2  A    between atoms: C2_2  and  C6_6 
REMARK    3  A    between atoms: C6_6  and  O7_7 
ROOT
HETATM    1  C3  UNL     1     -34.779  13.593  -6.761  1.00 20.00     0.060 C 
HETATM    2  C4  UNL     1     -37.063  14.345  -6.039  1.00 20.00     0.060 C 
HETATM    3  C6  UNL     1     -35.710  13.815  -5.569  1.00 20.00     0.114 C 
ENDROOT
BRANCH   3   4
HETATM    4  C2  UNL     1     -35.104  14.746  -4.602  1.00 20.00    -0.068 C 
HETATM    5  C1  UNL     1     -34.612  15.504  -3.811  1.00 20.00    -0.088 C 
BRANCH   5   6
HETATM    6  C5  UNL     1     -34.013  16.429  -2.853  1.00 20.00     0.208 C 
HETATM    7 CL8  UNL     1     -35.157  16.702  -1.524  1.00 20.00    -0.117 Cl
ENDBRANCH   5   6
ENDBRANCH   3   4
BRANCH   3   8
HETATM    8  O7  UNL     1     -35.943  12.556  -4.934  1.00 20.00    -0.378 OA
HETATM    9  H17 UNL     1     -35.341  12.516  -4.177  1.00 20.00     0.211 HD
ENDBRANCH   3   8
TORSDOF 3
ENDMDL
MODEL 6
REMARK VINA RESULT:      -3.7     11.589     12.010
REMARK  3 active torsions:
REMARK  status: ('A' for Active; 'I' for Inactive)
REMARK    1  A    between atoms: C1_1  and  C5_5 
REMARK    2  A    between atoms: C2_2  and  C6_6 
REMARK    3  A    between atoms: C6_6  and  O7_7 
ROOT
HETATM    1  C3  UNL     1     -33.326  15.617  -5.965  1.00 20.00     0.060 C 
HETATM    2  C4  UNL     1     -34.988  14.049  -4.923  1.00 20.00     0.060 C 
HETATM    3  C6  UNL     1     -33.695  14.833  -4.705  1.00 20.00     0.114 C 
ENDROOT
BRANCH   3   4
HETATM    4  C2  UNL     1     -33.834  15.739  -3.553  1.00 20.00    -0.068 C 
HETATM    5  C1  UNL     1     -33.948  16.481  -2.615  1.00 20.00    -0.088 C 
BRANCH   5   6
HETATM    6  C5  UNL     1     -34.083  17.379  -1.471  1.00 20.00     0.208 C 
HETATM    7 CL8  UNL     1     -32.520  18.159  -1.163  1.00 20.00    -0.117 Cl
ENDBRANCH   5   6
ENDBRANCH   3   4
BRANCH   3   8
HETATM    8  O7  UNL     1     -32.660  13.884  -4.442  1.00 20.00    -0.378 OA
HETATM    9  H17 UNL     1     -31.928  14.107  -5.036  1.00 20.00     0.211 HD
ENDBRANCH   3   8
TORSDOF 3
ENDMDL
MODEL 7
REMARK VINA RESULT:      -3.7     11.389     11.948
REMARK  3 active torsions:
REMARK  status: ('A' for Active; 'I' for Inactive)
REMARK    1  A    between atoms: C1_1  and  C5_5 
REMARK    2  A    between atoms: C2_2  and  C6_6 
REMARK    3  A    between atoms: C6_6  and  O7_7 
ROOT
HETATM    1  C3  UNL     1     -33.578  15.580  -6.017  1.00 20.00     0.060 C 
HETATM    2  C4  UNL     1     -35.011  13.995  -4.698  1.00 20.00     0.060 C 
HETATM    3  C6  UNL     1     -33.733  14.832  -4.692  1.00 20.00     0.114 C 
ENDROOT
BRANCH   3   4
HETATM    4  C2  UNL     1     -33.747  15.776  -3.562  1.00 20.00    -0.068 C 
HETATM    5  C1  UNL     1     -33.754  16.548  -2.641  1.00 20.00    -0.088 C 
BRANCH   5   6
HETATM    6  C5  UNL     1     -33.766  17.483  -1.519  1.00 20.00     0.208 C 
HETATM    7 CL8  UNL     1     -35.246  17.231  -0.576  1.00 20.00    -0.117 Cl
ENDBRANCH   5   6
ENDBRANCH   3   4
BRANCH   3   8
HETATM    8  O7  UNL     1     -32.633  13.932  -4.547  1.00 20.00    -0.378 OA
HETATM    9  H17 UNL     1     -32.674  13.595  -3.640  1.00 20.00     0.211 HD
ENDBRANCH   3   8
TORSDOF 3
ENDMDL
MODEL 8
REMARK VINA RESULT:      -3.5      3.031      4.633
REMARK  3 active torsions:
REMARK  status: ('A' for Active; 'I' for Inactive)
REMARK    1  A    between atoms: C1_1  and  C5_5 
REMARK    2  A    between atoms: C2_2  and  C6_6 
REMARK    3  A    between atoms: C6_6  and  O7_7 
ROOT
HETATM    1  C3  UNL     1     -33.046  10.040   1.719  1.00 20.00     0.060 C 
HETATM    2  C4  UNL     1     -31.460   8.387   0.690  1.00 20.00     0.060 C 
HETATM    3  C6  UNL     1     -32.158   8.822   1.977  1.00 20.00     0.114 C 
ENDROOT
BRANCH   3   4
HETATM    4  C2  UNL     1     -32.949   7.710   2.530  1.00 20.00    -0.068 C 
HETATM    5  C1  UNL     1     -33.592   6.800   2.980  1.00 20.00    -0.088 C 
BRANCH   5   6
HETATM    6  C5  UNL     1     -34.379   5.697   3.525  1.00 20.00     0.208 C 
HETATM    7 CL8  UNL     1     -34.544   5.919   5.277  1.00 20.00    -0.117 Cl
ENDBRANCH   5   6
ENDBRANCH   3   4
BRANCH   3   8
HETATM    8  O7  UNL     1     -31.141   9.191   2.910  1.00 20.00    -0.378 OA
HETATM    9  H17 UNL     1     -30.415   9.566   2.389  1.00 20.00     0.211 HD
ENDBRANCH   3   8
TORSDOF 3
ENDMDL
MODEL 9
REMARK VINA RESULT:      -3.4     11.322     11.754
REMARK  3 active torsions:
REMARK  status: ('A' for Active; 'I' for Inactive)
REMARK    1  A    between atoms: C1_1  and  C5_5 
REMARK    2  A    between atoms: C2_2  and  C6_6 
REMARK    3  A    between atoms: C6_6  and  O7_7 
ROOT
HETATM    1  C3  UNL     1     -32.874  14.473  -4.472  1.00 20.00     0.060 C 
HETATM    2  C4  UNL     1     -34.880  15.170  -5.812  1.00 20.00     0.060 C 
HETATM    3  C6  UNL     1     -34.393  14.644  -4.463  1.00 20.00     0.114 C 
ENDROOT
BRANCH   3   4
HETATM    4  C2  UNL     1     -34.807  15.553  -3.381  1.00 20.00    -0.068 C 
HETATM    5  C1  UNL     1     -35.142  16.298  -2.500  1.00 20.00    -0.088 C 
BRANCH   5   6
HETATM    6  C5  UNL     1     -35.550  17.198  -1.425  1.00 20.00     0.208 C 
HETATM    7 CL8  UNL     1     -34.107  17.737  -0.546  1.00 20.00    -0.117 Cl
ENDBRANCH   5   6
ENDBRANCH   3   4
BRANCH   3   8
HETATM    8  O7  UNL     1     -34.994  13.363  -4.264  1.00 20.00    -0.378 OA
HETATM    9  H17 UNL     1     -35.485  13.419  -3.431  1.00 20.00     0.211 HD
ENDBRANCH   3   8
TORSDOF 3
ENDMDL
