MODEL 1
REMARK VINA RESULT:      -5.4      0.000      0.000
REMARK  5 active torsions:
REMARK  status: ('A' for Active; 'I' for Inactive)
REMARK    1  A    between atoms: C2_2  and  C5_5 
REMARK    2  A    between atoms: C5_5  and  C8_8 
REMARK    3  A    between atoms: C6_6  and  C7_7 
REMARK    4  A    between atoms: C7_7  and  C8_8 
REMARK    5  A    between atoms: C8_8  and  O9_9 
ROOT
HETATM    1  C1  UNL     1     -32.465   9.126   1.411  1.00 20.00    -0.111 C 
HETATM    2  C2  UNL     1     -32.483   8.283   2.268  1.00 20.00    -0.104 C 
HETATM    3  C3  UNL     1     -32.443  10.154   0.373  1.00 20.00     0.112 C 
ENDROOT
BRANCH   2   4
HETATM    4  C5  UNL     1     -32.508   7.252   3.316  1.00 20.00     0.125 C 
BRANCH   4   5
HETATM    5  C8  UNL     1     -33.751   7.336   4.212  1.00 20.00     0.129 C 
BRANCH   5   6
HETATM    6  C7  UNL     1     -34.820   6.260   3.977  1.00 20.00     0.032 C 
BRANCH   6   7
HETATM    7  C6  UNL     1     -34.768   5.116   4.988  1.00 20.00    -0.002 C 
HETATM    8  C4  UNL     1     -34.082   3.890   4.406  1.00 20.00     0.005 C 
ENDBRANCH   6   7
ENDBRANCH   5   6
BRANCH   5   9
HETATM    9  O9  UNL     1     -33.359   7.256   5.584  1.00 20.00    -0.395 OA
HETATM   10  H23 UNL     1     -34.058   6.765   6.039  1.00 20.00     0.210 HD
ENDBRANCH   5   9
ENDBRANCH   4   5
ENDBRANCH   2   4
TORSDOF 5
ENDMDL
MODEL 2
REMARK VINA RESULT:      -5.2      1.408      1.570
REMARK  5 active torsions:
REMARK  status: ('A' for Active; 'I' for Inactive)
REMARK    1  A    between atoms: C2_2  and  C5_5 
REMARK    2  A    between atoms: C5_5  and  C8_8 
REMARK    3  A    between atoms: C6_6  and  C7_7 
REMARK    4  A    between atoms: C7_7  and  C8_8 
REMARK    5  A    between atoms: C8_8  and  O9_9 
ROOT
HETATM    1  C1  UNL     1     -32.554   9.158   0.929  1.00 20.00    -0.111 C 
HETATM    2  C2  UNL     1     -32.241   8.603   1.947  1.00 20.00    -0.104 C 
HETATM    3  C3  UNL     1     -32.936   9.830  -0.312  1.00 20.00     0.112 C 
ENDROOT
BRANCH   2   4
HETATM    4  C5  UNL     1     -31.857   7.922   3.193  1.00 20.00     0.125 C 
BRANCH   4   5
HETATM    5  C8  UNL     1     -32.848   6.828   3.611  1.00 20.00     0.129 C 
BRANCH   5   6
HETATM    6  C7  UNL     1     -34.000   7.280   4.519  1.00 20.00     0.032 C 
BRANCH   6   7
HETATM    7  C6  UNL     1     -34.130   6.456   5.798  1.00 20.00    -0.002 C 
HETATM    8  C4  UNL     1     -34.605   5.042   5.502  1.00 20.00     0.005 C 
ENDBRANCH   6   7
ENDBRANCH   5   6
BRANCH   5   9
HETATM    9  O9  UNL     1     -33.429   6.237   2.446  1.00 20.00    -0.395 OA
HETATM   10  H23 UNL     1     -33.390   6.911   1.751  1.00 20.00     0.210 HD
ENDBRANCH   5   9
ENDBRANCH   4   5
ENDBRANCH   2   4
TORSDOF 5
ENDMDL
MODEL 3
REMARK VINA RESULT:      -5.2      1.887      2.585
REMARK  5 active torsions:
REMARK  status: ('A' for Active; 'I' for Inactive)
REMARK    1  A    between atoms: C2_2  and  C5_5 
REMARK    2  A    between atoms: C5_5  and  C8_8 
REMARK    3  A    between atoms: C6_6  and  C7_7 
REMARK    4  A    between atoms: C7_7  and  C8_8 
REMARK    5  A    between atoms: C8_8  and  O9_9 
ROOT
HETATM    1  C1  UNL     1     -32.555   7.591   2.322  1.00 20.00    -0.111 C 
HETATM    2  C2  UNL     1     -32.863   6.441   2.488  1.00 20.00    -0.104 C 
HETATM    3  C3  UNL     1     -32.177   8.988   2.120  1.00 20.00     0.112 C 
ENDROOT
BRANCH   2   4
HETATM    4  C5  UNL     1     -33.238   5.034   2.692  1.00 20.00     0.125 C 
BRANCH   4   5
HETATM    5  C8  UNL     1     -33.775   4.754   4.102  1.00 20.00     0.129 C 
BRANCH   5   6
HETATM    6  C7  UNL     1     -34.828   5.739   4.626  1.00 20.00     0.032 C 
BRANCH   6   7
HETATM    7  C6  UNL     1     -34.510   6.294   6.012  1.00 20.00    -0.002 C 
HETATM    8  C4  UNL     1     -33.584   7.497   5.930  1.00 20.00     0.005 C 
ENDBRANCH   6   7
ENDBRANCH   5   6
BRANCH   5   9
HETATM    9  O9  UNL     1     -34.354   3.447   4.143  1.00 20.00    -0.395 OA
HETATM   10  H23 UNL     1     -33.686   2.842   3.787  1.00 20.00     0.210 HD
ENDBRANCH   5   9
ENDBRANCH   4   5
ENDBRANCH   2   4
TORSDOF 5
ENDMDL
MODEL 4
REMARK VINA RESULT:      -5.1      1.343      5.023
REMARK  5 active torsions:
REMARK  status: ('A' for Active; 'I' for Inactive)
REMARK    1  A    between atoms: C2_2  and  C5_5 
REMARK    2  A    between atoms: C5_5  and  C8_8 
REMARK    3  A    between atoms: C6_6  and  C7_7 
REMARK    4  A    between atoms: C7_7  and  C8_8 
REMARK    5  A    between atoms: C8_8  and  O9_9 
ROOT
HETATM    1  C1  UNL     1     -34.269   5.988   4.606  1.00 20.00    -0.111 C 
HETATM    2  C2  UNL     1     -33.945   6.805   3.787  1.00 20.00    -0.104 C 
HETATM    3  C3  UNL     1     -34.659   4.992   5.603  1.00 20.00     0.112 C 
ENDROOT
BRANCH   2   4
HETATM    4  C5  UNL     1     -33.549   7.803   2.782  1.00 20.00     0.125 C 
BRANCH   4   5
HETATM    5  C8  UNL     1     -32.038   7.824   2.518  1.00 20.00     0.129 C 
BRANCH   5   6
HETATM    6  C7  UNL     1     -31.579   8.661   1.317  1.00 20.00     0.032 C 
BRANCH   6   7
HETATM    7  C6  UNL     1     -32.583   9.734   0.900  1.00 20.00    -0.002 C 
HETATM    8  C4  UNL     1     -33.162   9.447  -0.477  1.00 20.00     0.005 C 
ENDBRANCH   6   7
ENDBRANCH   5   6
BRANCH   5   9
HETATM    9  O9  UNL     1     -31.357   8.323   3.672  1.00 20.00    -0.395 OA
HETATM   10  H23 UNL     1     -30.424   8.090   3.559  1.00 20.00     0.210 HD
ENDBRANCH   5   9
ENDBRANCH   4   5
ENDBRANCH   2   4
TORSDOF 5
ENDMDL
MODEL 5
REMARK VINA RESULT:      -4.8      1.034      1.199
REMARK  5 active torsions:
REMARK  status: ('A' for Active; 'I' for Inactive)
REMARK    1  A    between atoms: C2_2  and  C5_5 
REMARK    2  A    between atoms: C5_5  and  C8_8 
REMARK    3  A    between atoms: C6_6  and  C7_7 
REMARK    4  A    between atoms: C7_7  and  C8_8 
REMARK    5  A    between atoms: C8_8  and  O9_9 
ROOT
HETATM    1  C1  UNL     1     -32.416   9.114   1.423  1.00 20.00    -0.111 C 
HETATM    2  C2  UNL     1     -32.243   8.501   2.442  1.00 20.00    -0.104 C 
HETATM    3  C3  UNL     1     -32.629   9.856   0.182  1.00 20.00     0.112 C 
ENDROOT
BRANCH   2   4
HETATM    4  C5  UNL     1     -32.031   7.749   3.688  1.00 20.00     0.125 C 
BRANCH   4   5
HETATM    5  C8  UNL     1     -33.318   7.553   4.499  1.00 20.00     0.129 C 
BRANCH   5   6
HETATM    6  C7  UNL     1     -34.044   6.217   4.291  1.00 20.00     0.032 C 
BRANCH   6   7
HETATM    7  C6  UNL     1     -34.102   5.773   2.831  1.00 20.00    -0.002 C 
HETATM    8  C4  UNL     1     -33.085   4.680   2.541  1.00 20.00     0.005 C 
ENDBRANCH   6   7
ENDBRANCH   5   6
BRANCH   5   9
HETATM    9  O9  UNL     1     -33.029   7.670   5.894  1.00 20.00    -0.395 OA
HETATM   10  H23 UNL     1     -32.510   6.886   6.131  1.00 20.00     0.210 HD
ENDBRANCH   5   9
ENDBRANCH   4   5
ENDBRANCH   2   4
TORSDOF 5
ENDMDL
MODEL 6
REMARK VINA RESULT:      -4.0     10.896     11.905
REMARK  5 active torsions:
REMARK  status: ('A' for Active; 'I' for Inactive)
REMARK    1  A    between atoms: C2_2  and  C5_5 
REMARK    2  A    between atoms: C5_5  and  C8_8 
REMARK    3  A    between atoms: C6_6  and  C7_7 
REMARK    4  A    between atoms: C7_7  and  C8_8 
REMARK    5  A    between atoms: C8_8  and  O9_9 
ROOT
HETATM    1  C1  UNL     1     -34.437  16.356  -2.604  1.00 20.00    -0.111 C 
HETATM    2  C2  UNL     1     -34.411  15.450  -3.392  1.00 20.00    -0.104 C 
HETATM    3  C3  UNL     1     -34.472  17.461  -1.648  1.00 20.00     0.112 C 
ENDROOT
BRANCH   2   4
HETATM    4  C5  UNL     1     -34.379  14.342  -4.359  1.00 20.00     0.125 C 
BRANCH   4   5
HETATM    5  C8  UNL     1     -35.758  14.019  -4.949  1.00 20.00     0.129 C 
BRANCH   5   6
HETATM    6  C7  UNL     1     -36.024  14.557  -6.361  1.00 20.00     0.032 C 
BRANCH   6   7
HETATM    7  C6  UNL     1     -35.477  13.661  -7.471  1.00 20.00    -0.002 C 
HETATM    8  C4  UNL     1     -34.094  14.109  -7.915  1.00 20.00     0.005 C 
ENDBRANCH   6   7
ENDBRANCH   5   6
BRANCH   5   9
HETATM    9  O9  UNL     1     -35.943  12.603  -4.990  1.00 20.00    -0.395 OA
HETATM   10  H23 UNL     1     -35.426  12.282  -5.744  1.00 20.00     0.210 HD
ENDBRANCH   5   9
ENDBRANCH   4   5
ENDBRANCH   2   4
TORSDOF 5
ENDMDL
MODEL 7
REMARK VINA RESULT:      -4.0     11.112     12.222
REMARK  5 active torsions:
REMARK  status: ('A' for Active; 'I' for Inactive)
REMARK    1  A    between atoms: C2_2  and  C5_5 
REMARK    2  A    between atoms: C5_5  and  C8_8 
REMARK    3  A    between atoms: C6_6  and  C7_7 
REMARK    4  A    between atoms: C7_7  and  C8_8 
REMARK    5  A    between atoms: C8_8  and  O9_9 
ROOT
HETATM    1  C1  UNL     1     -33.811  16.775  -2.418  1.00 20.00    -0.111 C 
HETATM    2  C2  UNL     1     -34.268  15.946  -3.158  1.00 20.00    -0.104 C 
HETATM    3  C3  UNL     1     -33.255  17.781  -1.516  1.00 20.00     0.112 C 
ENDROOT
BRANCH   2   4
HETATM    4  C5  UNL     1     -34.829  14.930  -4.061  1.00 20.00     0.125 C 
BRANCH   4   5
HETATM    5  C8  UNL     1     -33.844  14.482  -5.148  1.00 20.00     0.129 C 
BRANCH   5   6
HETATM    6  C7  UNL     1     -33.278  15.595  -6.040  1.00 20.00     0.032 C 
BRANCH   6   7
HETATM    7  C6  UNL     1     -33.823  15.573  -7.467  1.00 20.00    -0.002 C 
HETATM    8  C4  UNL     1     -34.163  14.158  -7.909  1.00 20.00     0.005 C 
ENDBRANCH   6   7
ENDBRANCH   5   6
BRANCH   5   9
HETATM    9  O9  UNL     1     -32.734  13.814  -4.543  1.00 20.00    -0.395 OA
HETATM   10  H23 UNL     1     -31.956  14.045  -5.072  1.00 20.00     0.210 HD
ENDBRANCH   5   9
ENDBRANCH   4   5
ENDBRANCH   2   4
TORSDOF 5
ENDMDL
MODEL 8
REMARK VINA RESULT:      -3.9     11.056     11.537
REMARK  5 active torsions:
REMARK  status: ('A' for Active; 'I' for Inactive)
REMARK    1  A    between atoms: C2_2  and  C5_5 
REMARK    2  A    between atoms: C5_5  and  C8_8 
REMARK    3  A    between atoms: C6_6  and  C7_7 
REMARK    4  A    between atoms: C7_7  and  C8_8 
REMARK    5  A    between atoms: C8_8  and  O9_9 
ROOT
HETATM    1  C1  UNL     1     -34.715  16.686  -2.057  1.00 20.00    -0.111 C 
HETATM    2  C2  UNL     1     -34.106  16.338  -3.033  1.00 20.00    -0.104 C 
HETATM    3  C3  UNL     1     -35.452  17.112  -0.870  1.00 20.00     0.112 C 
ENDROOT
BRANCH   2   4
HETATM    4  C5  UNL     1     -33.359  15.911  -4.225  1.00 20.00     0.125 C 
BRANCH   4   5
HETATM    5  C8  UNL     1     -33.737  14.501  -4.699  1.00 20.00     0.129 C 
BRANCH   5   6
HETATM    6  C7  UNL     1     -34.116  14.371  -6.180  1.00 20.00     0.032 C 
BRANCH   6   7
HETATM    7  C6  UNL     1     -35.389  13.561  -6.416  1.00 20.00    -0.002 C 
HETATM    8  C4  UNL     1     -36.330  13.643  -5.224  1.00 20.00     0.005 C 
ENDBRANCH   6   7
ENDBRANCH   5   6
BRANCH   5   9
HETATM    9  O9  UNL     1     -32.649  13.606  -4.456  1.00 20.00    -0.395 OA
HETATM   10  H23 UNL     1     -31.891  13.960  -4.945  1.00 20.00     0.210 HD
ENDBRANCH   5   9
ENDBRANCH   4   5
ENDBRANCH   2   4
TORSDOF 5
ENDMDL
MODEL 9
REMARK VINA RESULT:      -3.8     10.752     11.724
REMARK  5 active torsions:
REMARK  status: ('A' for Active; 'I' for Inactive)
REMARK    1  A    between atoms: C2_2  and  C5_5 
REMARK    2  A    between atoms: C5_5  and  C8_8 
REMARK    3  A    between atoms: C6_6  and  C7_7 
REMARK    4  A    between atoms: C7_7  and  C8_8 
REMARK    5  A    between atoms: C8_8  and  O9_9 
ROOT
HETATM    1  C1  UNL     1     -35.318  16.556  -2.197  1.00 20.00    -0.111 C 
HETATM    2  C2  UNL     1     -35.800  15.929  -3.101  1.00 20.00    -0.104 C 
HETATM    3  C3  UNL     1     -34.734  17.317  -1.094  1.00 20.00     0.112 C 
ENDROOT
BRANCH   2   4
HETATM    4  C5  UNL     1     -36.392  15.163  -4.208  1.00 20.00     0.125 C 
BRANCH   4   5
HETATM    5  C8  UNL     1     -35.383  14.248  -4.914  1.00 20.00     0.129 C 
BRANCH   5   6
HETATM    6  C7  UNL     1     -33.982  14.189  -4.290  1.00 20.00     0.032 C 
BRANCH   6   7
HETATM    7  C6  UNL     1     -32.967  15.099  -4.979  1.00 20.00    -0.002 C 
HETATM    8  C4  UNL     1     -33.471  15.568  -6.335  1.00 20.00     0.005 C 
ENDBRANCH   6   7
ENDBRANCH   5   6
BRANCH   5   9
HETATM    9  O9  UNL     1     -35.891  12.913  -4.951  1.00 20.00    -0.395 OA
HETATM   10  H23 UNL     1     -35.143  12.344  -5.190  1.00 20.00     0.210 HD
ENDBRANCH   5   9
ENDBRANCH   4   5
ENDBRANCH   2   4
TORSDOF 5
ENDMDL
