MODEL 1
REMARK VINA RESULT:      -5.4      0.000      0.000
REMARK  0 active torsions:
REMARK  status: ('A' for Active; 'I' for Inactive)
ROOT
HETATM    1  C1  UNL     1     -32.432   7.418   3.255  1.00 20.00     0.066 C 
HETATM    2  C2  UNL     1     -33.974   5.096   5.585  1.00 20.00     0.034 C 
HETATM    3  C3  UNL     1     -34.207   6.607   5.552  1.00 20.00     0.036 C 
HETATM    4  C4  UNL     1     -33.402   5.106   3.137  1.00 20.00     0.053 C 
HETATM    5  C5  UNL     1     -33.643   6.620   3.053  1.00 20.00     0.124 C 
HETATM    6  C6  UNL     1     -34.427   4.676   4.189  1.00 20.00     0.123 C 
HETATM    7  C7  UNL     1     -34.719   6.825   4.127  1.00 20.00     0.139 C 
HETATM    8  N8  UNL     1     -31.474   8.050   3.417  1.00 20.00    -0.197 NA
HETATM    9  O9  UNL     1     -35.500   5.616   3.945  1.00 20.00    -0.379 OA
ENDROOT
TORSDOF 0
ENDMDL
MODEL 2
REMARK VINA RESULT:      -4.2      1.600      2.185
REMARK  0 active torsions:
REMARK  status: ('A' for Active; 'I' for Inactive)
ROOT
HETATM    1  C1  UNL     1     -33.682   7.420   5.325  1.00 20.00     0.066 C 
HETATM    2  C2  UNL     1     -33.359   4.266   3.552  1.00 20.00     0.034 C 
HETATM    3  C3  UNL     1     -34.592   4.725   4.331  1.00 20.00     0.036 C 
HETATM    4  C4  UNL     1     -32.695   6.657   3.149  1.00 20.00     0.053 C 
HETATM    5  C5  UNL     1     -33.930   7.163   3.906  1.00 20.00     0.124 C 
HETATM    6  C6  UNL     1     -33.218   5.370   2.507  1.00 20.00     0.123 C 
HETATM    7  C7  UNL     1     -34.942   6.043   3.636  1.00 20.00     0.139 C 
HETATM    8  N8  UNL     1     -33.486   7.623   6.450  1.00 20.00    -0.197 NA
HETATM    9  O9  UNL     1     -34.603   5.711   2.265  1.00 20.00    -0.379 OA
ENDROOT
TORSDOF 0
ENDMDL
MODEL 3
REMARK VINA RESULT:      -4.1     11.791     12.783
REMARK  0 active torsions:
REMARK  status: ('A' for Active; 'I' for Inactive)
ROOT
HETATM    1  C1  UNL     1     -37.042  13.939  -5.130  1.00 20.00     0.066 C 
HETATM    2  C2  UNL     1     -34.190  16.181  -4.947  1.00 20.00     0.034 C 
HETATM    3  C3  UNL     1     -34.832  15.463  -3.760  1.00 20.00     0.036 C 
HETATM    4  C4  UNL     1     -34.988  14.375  -6.503  1.00 20.00     0.053 C 
HETATM    5  C5  UNL     1     -35.631  13.610  -5.338  1.00 20.00     0.124 C 
HETATM    6  C6  UNL     1     -33.767  15.012  -5.833  1.00 20.00     0.123 C 
HETATM    7  C7  UNL     1     -34.715  13.994  -4.169  1.00 20.00     0.139 C 
HETATM    8  N8  UNL     1     -38.159  14.201  -4.964  1.00 20.00    -0.197 NA
HETATM    9  O9  UNL     1     -33.430  14.013  -4.842  1.00 20.00    -0.379 OA
ENDROOT
TORSDOF 0
ENDMDL
MODEL 4
REMARK VINA RESULT:      -4.0      1.368      2.208
REMARK  0 active torsions:
REMARK  status: ('A' for Active; 'I' for Inactive)
ROOT
HETATM    1  C1  UNL     1     -32.547   8.086   2.513  1.00 20.00     0.066 C 
HETATM    2  C2  UNL     1     -35.437   6.167   3.589  1.00 20.00     0.034 C 
HETATM    3  C3  UNL     1     -34.606   5.893   2.336  1.00 20.00     0.036 C 
HETATM    4  C4  UNL     1     -33.456   7.248   4.696  1.00 20.00     0.053 C 
HETATM    5  C5  UNL     1     -32.579   6.975   3.467  1.00 20.00     0.124 C 
HETATM    6  C6  UNL     1     -34.393   6.037   4.695  1.00 20.00     0.123 C 
HETATM    7  C7  UNL     1     -33.205   5.689   2.915  1.00 20.00     0.139 C 
HETATM    8  N8  UNL     1     -32.522   8.964   1.757  1.00 20.00    -0.197 NA
HETATM    9  O9  UNL     1     -33.533   5.008   4.154  1.00 20.00    -0.379 OA
ENDROOT
TORSDOF 0
ENDMDL
MODEL 5
REMARK VINA RESULT:      -4.0     12.179     13.434
REMARK  0 active torsions:
REMARK  status: ('A' for Active; 'I' for Inactive)
ROOT
HETATM    1  C1  UNL     1     -35.481  13.765  -4.801  1.00 20.00     0.066 C 
HETATM    2  C2  UNL     1     -33.637  16.432  -6.439  1.00 20.00     0.034 C 
HETATM    3  C3  UNL     1     -35.160  16.308  -6.387  1.00 20.00     0.036 C 
HETATM    4  C4  UNL     1     -33.433  15.124  -4.302  1.00 20.00     0.053 C 
HETATM    5  C5  UNL     1     -34.958  14.992  -4.198  1.00 20.00     0.124 C 
HETATM    6  C6  UNL     1     -33.274  16.498  -4.958  1.00 20.00     0.123 C 
HETATM    7  C7  UNL     1     -35.431  16.281  -4.881  1.00 20.00     0.139 C 
HETATM    8  N8  UNL     1     -35.897  12.794  -5.280  1.00 20.00    -0.197 NA
HETATM    9  O9  UNL     1     -34.414  17.207  -4.418  1.00 20.00    -0.379 OA
ENDROOT
TORSDOF 0
ENDMDL
MODEL 6
REMARK VINA RESULT:      -3.9     12.042     13.057
REMARK  0 active torsions:
REMARK  status: ('A' for Active; 'I' for Inactive)
ROOT
HETATM    1  C1  UNL     1     -33.602  15.843  -5.416  1.00 20.00     0.066 C 
HETATM    2  C2  UNL     1     -36.792  14.309  -6.234  1.00 20.00     0.034 C 
HETATM    3  C3  UNL     1     -35.700  14.679  -7.239  1.00 20.00     0.036 C 
HETATM    4  C4  UNL     1     -35.071  14.072  -4.417  1.00 20.00     0.053 C 
HETATM    5  C5  UNL     1     -33.941  14.419  -5.395  1.00 20.00     0.124 C 
HETATM    6  C6  UNL     1     -36.060  13.330  -5.319  1.00 20.00     0.123 C 
HETATM    7  C7  UNL     1     -34.500  13.885  -6.720  1.00 20.00     0.139 C 
HETATM    8  N8  UNL     1     -33.334  16.971  -5.434  1.00 20.00    -0.197 NA
HETATM    9  O9  UNL     1     -35.166  12.683  -6.254  1.00 20.00    -0.379 OA
ENDROOT
TORSDOF 0
ENDMDL
MODEL 7
REMARK VINA RESULT:      -3.9     12.534     13.299
REMARK  0 active torsions:
REMARK  status: ('A' for Active; 'I' for Inactive)
ROOT
HETATM    1  C1  UNL     1     -35.517  13.850  -5.587  1.00 20.00     0.066 C 
HETATM    2  C2  UNL     1     -33.715  16.152  -3.431  1.00 20.00     0.034 C 
HETATM    3  C3  UNL     1     -33.087  15.017  -4.239  1.00 20.00     0.036 C 
HETATM    4  C4  UNL     1     -35.613  16.304  -5.072  1.00 20.00     0.053 C 
HETATM    5  C5  UNL     1     -35.008  15.181  -5.926  1.00 20.00     0.124 C 
HETATM    6  C6  UNL     1     -34.363  16.998  -4.524  1.00 20.00     0.123 C 
HETATM    7  C7  UNL     1     -33.508  15.366  -5.668  1.00 20.00     0.139 C 
HETATM    8  N8  UNL     1     -35.918  12.796  -5.319  1.00 20.00    -0.197 NA
HETATM    9  O9  UNL     1     -33.431  16.814  -5.615  1.00 20.00    -0.379 OA
ENDROOT
TORSDOF 0
ENDMDL
MODEL 8
REMARK VINA RESULT:      -3.9     11.927     13.005
REMARK  0 active torsions:
REMARK  status: ('A' for Active; 'I' for Inactive)
ROOT
HETATM    1  C1  UNL     1     -35.200  13.663  -4.731  1.00 20.00     0.066 C 
HETATM    2  C2  UNL     1     -34.725  17.212  -5.342  1.00 20.00     0.034 C 
HETATM    3  C3  UNL     1     -35.771  16.604  -4.407  1.00 20.00     0.036 C 
HETATM    4  C4  UNL     1     -33.244  15.205  -5.030  1.00 20.00     0.053 C 
HETATM    5  C5  UNL     1     -34.256  14.566  -4.070  1.00 20.00     0.124 C 
HETATM    6  C6  UNL     1     -33.422  16.697  -4.736  1.00 20.00     0.123 C 
HETATM    7  C7  UNL     1     -34.906  15.800  -3.434  1.00 20.00     0.139 C 
HETATM    8  N8  UNL     1     -35.949  12.949  -5.255  1.00 20.00    -0.197 NA
HETATM    9  O9  UNL     1     -33.753  16.675  -3.328  1.00 20.00    -0.379 OA
ENDROOT
TORSDOF 0
ENDMDL
MODEL 9
REMARK VINA RESULT:      -3.8      2.177      3.239
REMARK  0 active torsions:
REMARK  status: ('A' for Active; 'I' for Inactive)
ROOT
HETATM    1  C1  UNL     1     -34.328   4.344   4.429  1.00 20.00     0.066 C 
HETATM    2  C2  UNL     1     -32.328   7.333   3.915  1.00 20.00     0.034 C 
HETATM    3  C3  UNL     1     -33.074   6.565   2.823  1.00 20.00     0.036 C 
HETATM    4  C4  UNL     1     -33.958   6.509   5.642  1.00 20.00     0.053 C 
HETATM    5  C5  UNL     1     -34.749   5.738   4.576  1.00 20.00     0.124 C 
HETATM    6  C6  UNL     1     -33.464   7.726   4.856  1.00 20.00     0.123 C 
HETATM    7  C7  UNL     1     -34.517   6.601   3.330  1.00 20.00     0.139 C 
HETATM    8  N8  UNL     1     -33.993   3.240   4.311  1.00 20.00    -0.197 NA
HETATM    9  O9  UNL     1     -34.550   7.926   3.922  1.00 20.00    -0.379 OA
ENDROOT
TORSDOF 0
ENDMDL
