MODEL 1
REMARK VINA RESULT:      -4.9      0.000      0.000
REMARK  2 active torsions:
REMARK  status: ('A' for Active; 'I' for Inactive)
REMARK    1  A    between atoms: C1_1  and  C5_5 
REMARK    2  A    between atoms: C5_5  and  C6_6 
ROOT
HETATM    1  C2  UNL     1     -35.410   6.045   3.515  1.00 20.00     0.019 C 
HETATM    2  C5  UNL     1     -34.228   6.890   3.995  1.00 20.00     0.071 C 
ENDROOT
BRANCH   2   3
HETATM    3  C1  UNL     1     -34.066   6.628   5.493  1.00 20.00     0.223 C 
HETATM    4  O7  UNL     1     -33.604   7.475   6.255  1.00 20.00    -0.279 OA
HETATM    5 CL8  UNL     1     -34.575   5.029   5.956  1.00 20.00    -0.043 Cl
ENDBRANCH   2   3
BRANCH   2   6
HETATM    6  C6  UNL     1     -32.908   6.581   3.244  1.00 20.00    -0.011 C 
HETATM    7  C3  UNL     1     -32.979   5.269   2.456  1.00 20.00     0.010 C 
HETATM    8  C4  UNL     1     -32.545   7.720   2.282  1.00 20.00     0.010 C 
ENDBRANCH   2   6
TORSDOF 2
ENDMDL
MODEL 2
REMARK VINA RESULT:      -4.8      2.482      3.171
REMARK  2 active torsions:
REMARK  status: ('A' for Active; 'I' for Inactive)
REMARK    1  A    between atoms: C1_1  and  C5_5 
REMARK    2  A    between atoms: C5_5  and  C6_6 
ROOT
HETATM    1  C2  UNL     1     -33.576   7.298   5.425  1.00 20.00     0.019 C 
HETATM    2  C5  UNL     1     -33.824   7.293   3.914  1.00 20.00     0.071 C 
ENDROOT
BRANCH   2   3
HETATM    3  C1  UNL     1     -32.553   7.821   3.247  1.00 20.00     0.223 C 
HETATM    4  O7  UNL     1     -31.480   7.878   3.843  1.00 20.00    -0.279 OA
HETATM    5 CL8  UNL     1     -32.821   8.338   1.606  1.00 20.00    -0.043 Cl
ENDBRANCH   2   3
BRANCH   2   6
HETATM    6  C6  UNL     1     -34.188   5.893   3.357  1.00 20.00    -0.011 C 
HETATM    7  C3  UNL     1     -32.981   5.180   2.740  1.00 20.00     0.010 C 
HETATM    8  C4  UNL     1     -34.784   5.003   4.455  1.00 20.00     0.010 C 
ENDBRANCH   2   6
TORSDOF 2
ENDMDL
MODEL 3
REMARK VINA RESULT:      -4.8      2.546      3.404
REMARK  2 active torsions:
REMARK  status: ('A' for Active; 'I' for Inactive)
REMARK    1  A    between atoms: C1_1  and  C5_5 
REMARK    2  A    between atoms: C5_5  and  C6_6 
ROOT
HETATM    1  C2  UNL     1     -33.272   5.193   2.553  1.00 20.00     0.019 C 
HETATM    2  C5  UNL     1     -32.993   6.256   3.618  1.00 20.00     0.071 C 
ENDROOT
BRANCH   2   3
HETATM    3  C1  UNL     1     -32.629   7.547   2.883  1.00 20.00     0.223 C 
HETATM    4  O7  UNL     1     -33.248   7.929   1.893  1.00 20.00    -0.279 OA
HETATM    5 CL8  UNL     1     -31.259   8.359   3.588  1.00 20.00    -0.043 Cl
ENDBRANCH   2   3
BRANCH   2   6
HETATM    6  C6  UNL     1     -34.188   6.495   4.576  1.00 20.00    -0.011 C 
HETATM    7  C3  UNL     1     -34.845   5.186   5.025  1.00 20.00     0.010 C 
HETATM    8  C4  UNL     1     -33.748   7.283   5.817  1.00 20.00     0.010 C 
ENDBRANCH   2   6
TORSDOF 2
ENDMDL
MODEL 4
REMARK VINA RESULT:      -4.6      1.726      2.318
REMARK  2 active torsions:
REMARK  status: ('A' for Active; 'I' for Inactive)
REMARK    1  A    between atoms: C1_1  and  C5_5 
REMARK    2  A    between atoms: C5_5  and  C6_6 
ROOT
HETATM    1  C2  UNL     1     -33.894   7.297   5.879  1.00 20.00     0.019 C 
HETATM    2  C5  UNL     1     -33.453   6.525   4.634  1.00 20.00     0.071 C 
ENDROOT
BRANCH   2   3
HETATM    3  C1  UNL     1     -34.606   5.599   4.245  1.00 20.00     0.223 C 
HETATM    4  O7  UNL     1     -35.695   6.035   3.877  1.00 20.00    -0.279 OA
HETATM    5 CL8  UNL     1     -34.202   3.914   4.411  1.00 20.00    -0.043 Cl
ENDBRANCH   2   3
BRANCH   2   6
HETATM    6  C6  UNL     1     -33.068   7.443   3.445  1.00 20.00    -0.011 C 
HETATM    7  C3  UNL     1     -31.738   8.167   3.676  1.00 20.00     0.010 C 
HETATM    8  C4  UNL     1     -32.979   6.642   2.140  1.00 20.00     0.010 C 
ENDBRANCH   2   6
TORSDOF 2
ENDMDL
MODEL 5
REMARK VINA RESULT:      -4.5      1.666      2.388
REMARK  2 active torsions:
REMARK  status: ('A' for Active; 'I' for Inactive)
REMARK    1  A    between atoms: C1_1  and  C5_5 
REMARK    2  A    between atoms: C5_5  and  C6_6 
ROOT
HETATM    1  C2  UNL     1     -32.748   5.119   2.810  1.00 20.00     0.019 C 
HETATM    2  C5  UNL     1     -33.829   6.193   2.943  1.00 20.00     0.071 C 
ENDROOT
BRANCH   2   3
HETATM    3  C1  UNL     1     -34.964   5.591   3.773  1.00 20.00     0.223 C 
HETATM    4  O7  UNL     1     -36.101   6.057   3.756  1.00 20.00    -0.279 OA
HETATM    5 CL8  UNL     1     -34.449   4.230   4.729  1.00 20.00    -0.043 Cl
ENDBRANCH   2   3
BRANCH   2   6
HETATM    6  C6  UNL     1     -33.316   7.503   3.594  1.00 20.00    -0.011 C 
HETATM    7  C3  UNL     1     -33.261   7.411   5.122  1.00 20.00     0.010 C 
HETATM    8  C4  UNL     1     -31.922   7.868   3.067  1.00 20.00     0.010 C 
ENDBRANCH   2   6
TORSDOF 2
ENDMDL
MODEL 6
REMARK VINA RESULT:      -4.5      1.597      2.426
REMARK  2 active torsions:
REMARK  status: ('A' for Active; 'I' for Inactive)
REMARK    1  A    between atoms: C1_1  and  C5_5 
REMARK    2  A    between atoms: C5_5  and  C6_6 
ROOT
HETATM    1  C2  UNL     1     -32.920   4.609   2.536  1.00 20.00     0.019 C 
HETATM    2  C5  UNL     1     -33.647   5.914   2.867  1.00 20.00     0.071 C 
ENDROOT
BRANCH   2   3
HETATM    3  C1  UNL     1     -34.800   5.562   3.808  1.00 20.00     0.223 C 
HETATM    4  O7  UNL     1     -35.904   6.094   3.711  1.00 20.00    -0.279 OA
HETATM    5 CL8  UNL     1     -34.355   4.377   5.004  1.00 20.00    -0.043 Cl
ENDBRANCH   2   3
BRANCH   2   6
HETATM    6  C6  UNL     1     -32.728   6.983   3.511  1.00 20.00    -0.011 C 
HETATM    7  C3  UNL     1     -32.403   8.129   2.547  1.00 20.00     0.010 C 
HETATM    8  C4  UNL     1     -33.367   7.565   4.779  1.00 20.00     0.010 C 
ENDBRANCH   2   6
TORSDOF 2
ENDMDL
MODEL 7
REMARK VINA RESULT:      -4.4      1.349      1.349
REMARK  2 active torsions:
REMARK  status: ('A' for Active; 'I' for Inactive)
REMARK    1  A    between atoms: C1_1  and  C5_5 
REMARK    2  A    between atoms: C5_5  and  C6_6 
ROOT
HETATM    1  C2  UNL     1     -35.462   5.784   3.546  1.00 20.00     0.019 C 
HETATM    2  C5  UNL     1     -34.319   6.683   4.022  1.00 20.00     0.071 C 
ENDROOT
BRANCH   2   3
HETATM    3  C1  UNL     1     -34.156   6.448   5.525  1.00 20.00     0.223 C 
HETATM    4  O7  UNL     1     -34.560   5.424   6.071  1.00 20.00    -0.279 OA
HETATM    5 CL8  UNL     1     -33.380   7.781   6.334  1.00 20.00    -0.043 Cl
ENDBRANCH   2   3
BRANCH   2   6
HETATM    6  C6  UNL     1     -32.982   6.420   3.283  1.00 20.00    -0.011 C 
HETATM    7  C3  UNL     1     -33.011   5.121   2.471  1.00 20.00     0.010 C 
HETATM    8  C4  UNL     1     -32.634   7.585   2.347  1.00 20.00     0.010 C 
ENDBRANCH   2   6
TORSDOF 2
ENDMDL
MODEL 8
REMARK VINA RESULT:      -4.2      2.366      3.562
REMARK  2 active torsions:
REMARK  status: ('A' for Active; 'I' for Inactive)
REMARK    1  A    between atoms: C1_1  and  C5_5 
REMARK    2  A    between atoms: C5_5  and  C6_6 
ROOT
HETATM    1  C2  UNL     1     -32.238   7.662   3.280  1.00 20.00     0.019 C 
HETATM    2  C5  UNL     1     -33.592   7.047   3.641  1.00 20.00     0.071 C 
ENDROOT
BRANCH   2   3
HETATM    3  C1  UNL     1     -33.893   5.972   2.596  1.00 20.00     0.223 C 
HETATM    4  O7  UNL     1     -34.840   6.066   1.819  1.00 20.00    -0.279 OA
HETATM    5 CL8  UNL     1     -32.779   4.635   2.667  1.00 20.00    -0.043 Cl
ENDBRANCH   2   3
BRANCH   2   6
HETATM    6  C6  UNL     1     -33.631   6.443   5.069  1.00 20.00    -0.011 C 
HETATM    7  C3  UNL     1     -33.686   7.522   6.155  1.00 20.00     0.010 C 
HETATM    8  C4  UNL     1     -34.834   5.506   5.236  1.00 20.00     0.010 C 
ENDBRANCH   2   6
TORSDOF 2
ENDMDL
MODEL 9
REMARK VINA RESULT:      -4.1      2.340      3.281
REMARK  2 active torsions:
REMARK  status: ('A' for Active; 'I' for Inactive)
REMARK    1  A    between atoms: C1_1  and  C5_5 
REMARK    2  A    between atoms: C5_5  and  C6_6 
ROOT
HETATM    1  C2  UNL     1     -33.287   6.991   3.109  1.00 20.00     0.019 C 
HETATM    2  C5  UNL     1     -34.362   6.105   3.743  1.00 20.00     0.071 C 
ENDROOT
BRANCH   2   3
HETATM    3  C1  UNL     1     -33.934   4.652   3.529  1.00 20.00     0.223 C 
HETATM    4  O7  UNL     1     -34.426   3.727   4.170  1.00 20.00    -0.279 OA
HETATM    5 CL8  UNL     1     -32.687   4.490   2.324  1.00 20.00    -0.043 Cl
ENDBRANCH   2   3
BRANCH   2   6
HETATM    6  C6  UNL     1     -34.580   6.390   5.251  1.00 20.00    -0.011 C 
HETATM    7  C3  UNL     1     -34.557   5.111   6.095  1.00 20.00     0.010 C 
HETATM    8  C4  UNL     1     -33.517   7.358   5.787  1.00 20.00     0.010 C 
ENDBRANCH   2   6
TORSDOF 2
ENDMDL
