MODEL 1
REMARK VINA RESULT:      -5.3      0.000      0.000
REMARK  1 active torsions:
REMARK  status: ('A' for Active; 'I' for Inactive)
REMARK    1  A    between atoms: C2_2  and  C7_7 
ROOT
HETATM    1  C3  UNL     1     -33.851   5.876   3.316  1.00 20.00     0.034 C 
HETATM    2  C4  UNL     1     -33.124   7.437   5.139  1.00 20.00     0.034 C 
HETATM    3  C5  UNL     1     -34.899   5.342   4.287  1.00 20.00     0.168 C 
HETATM    4  C6  UNL     1     -34.211   6.819   6.009  1.00 20.00     0.168 C 
HETATM    5  C7  UNL     1     -33.491   7.315   3.665  1.00 20.00     0.011 C 
HETATM    6  O8  UNL     1     -34.445   5.461   5.636  1.00 20.00    -0.391 OA
ENDROOT
BRANCH   5   7
HETATM    7  C2  UNL     1     -32.284   7.715   2.840  1.00 20.00    -0.032 C 
HETATM    8  C1  UNL     1     -32.335   8.547   1.793  1.00 20.00     0.007 C 
ENDBRANCH   5   7
TORSDOF 1
ENDMDL
MODEL 2
REMARK VINA RESULT:      -5.1      0.739      1.843
REMARK  1 active torsions:
REMARK  status: ('A' for Active; 'I' for Inactive)
REMARK    1  A    between atoms: C2_2  and  C7_7 
ROOT
HETATM    1  C3  UNL     1     -33.763   7.344   4.732  1.00 20.00     0.034 C 
HETATM    2  C4  UNL     1     -33.840   5.484   3.051  1.00 20.00     0.034 C 
HETATM    3  C5  UNL     1     -34.188   6.322   5.780  1.00 20.00     0.168 C 
HETATM    4  C6  UNL     1     -34.260   4.564   4.191  1.00 20.00     0.168 C 
HETATM    5  C7  UNL     1     -33.028   6.656   3.588  1.00 20.00     0.011 C 
HETATM    6  O8  UNL     1     -34.978   5.289   5.188  1.00 20.00    -0.391 OA
ENDROOT
BRANCH   5   7
HETATM    7  C2  UNL     1     -32.846   7.661   2.468  1.00 20.00    -0.032 C 
HETATM    8  C1  UNL     1     -31.797   8.484   2.363  1.00 20.00     0.007 C 
ENDBRANCH   5   7
TORSDOF 1
ENDMDL
MODEL 3
REMARK VINA RESULT:      -4.9      1.673      3.645
REMARK  1 active torsions:
REMARK  status: ('A' for Active; 'I' for Inactive)
REMARK    1  A    between atoms: C2_2  and  C7_7 
ROOT
HETATM    1  C3  UNL     1     -33.437   7.162   5.258  1.00 20.00     0.034 C 
HETATM    2  C4  UNL     1     -33.402   6.360   2.883  1.00 20.00     0.034 C 
HETATM    3  C5  UNL     1     -32.551   8.318   4.808  1.00 20.00     0.168 C 
HETATM    4  C6  UNL     1     -32.520   7.560   2.562  1.00 20.00     0.168 C 
HETATM    5  C7  UNL     1     -34.279   6.654   4.094  1.00 20.00     0.011 C 
HETATM    6  O8  UNL     1     -31.740   7.931   3.698  1.00 20.00    -0.391 OA
ENDROOT
BRANCH   5   7
HETATM    7  C2  UNL     1     -34.950   5.363   4.520  1.00 20.00    -0.032 C 
HETATM    8  C1  UNL     1     -34.358   4.165   4.484  1.00 20.00     0.007 C 
ENDBRANCH   5   7
TORSDOF 1
ENDMDL
MODEL 4
REMARK VINA RESULT:      -4.1      1.405      2.088
REMARK  1 active torsions:
REMARK  status: ('A' for Active; 'I' for Inactive)
REMARK    1  A    between atoms: C2_2  and  C7_7 
ROOT
HETATM    1  C3  UNL     1     -34.504   5.107   4.571  1.00 20.00     0.034 C 
HETATM    2  C4  UNL     1     -33.245   7.231   4.137  1.00 20.00     0.034 C 
HETATM    3  C5  UNL     1     -34.852   5.674   5.943  1.00 20.00     0.168 C 
HETATM    4  C6  UNL     1     -33.661   7.683   5.531  1.00 20.00     0.168 C 
HETATM    5  C7  UNL     1     -34.253   6.235   3.578  1.00 20.00     0.011 C 
HETATM    6  O8  UNL     1     -33.828   6.561   6.397  1.00 20.00    -0.391 OA
ENDROOT
BRANCH   5   7
HETATM    7  C2  UNL     1     -33.677   5.634   2.312  1.00 20.00    -0.032 C 
HETATM    8  C1  UNL     1     -32.906   4.542   2.285  1.00 20.00     0.007 C 
ENDBRANCH   5   7
TORSDOF 1
ENDMDL
MODEL 5
REMARK VINA RESULT:      -4.0      1.772      2.999
REMARK  1 active torsions:
REMARK  status: ('A' for Active; 'I' for Inactive)
REMARK    1  A    between atoms: C2_2  and  C7_7 
ROOT
HETATM    1  C3  UNL     1     -33.567   6.685   3.728  1.00 20.00     0.034 C 
HETATM    2  C4  UNL     1     -34.169   4.827   5.301  1.00 20.00     0.034 C 
HETATM    3  C5  UNL     1     -33.676   5.670   2.596  1.00 20.00     0.168 C 
HETATM    4  C6  UNL     1     -34.246   3.914   4.084  1.00 20.00     0.168 C 
HETATM    5  C7  UNL     1     -34.449   6.270   4.900  1.00 20.00     0.011 C 
HETATM    6  O8  UNL     1     -33.354   4.358   3.062  1.00 20.00    -0.391 OA
ENDROOT
BRANCH   5   7
HETATM    7  C2  UNL     1     -34.122   7.164   6.080  1.00 20.00    -0.032 C 
HETATM    8  C1  UNL     1     -33.048   7.958   6.143  1.00 20.00     0.007 C 
ENDBRANCH   5   7
TORSDOF 1
ENDMDL
MODEL 6
REMARK VINA RESULT:      -3.9      2.005      3.537
REMARK  1 active torsions:
REMARK  status: ('A' for Active; 'I' for Inactive)
REMARK    1  A    between atoms: C2_2  and  C7_7 
ROOT
HETATM    1  C3  UNL     1     -33.725   6.800   2.464  1.00 20.00     0.034 C 
HETATM    2  C4  UNL     1     -32.908   7.600   4.696  1.00 20.00     0.034 C 
HETATM    3  C5  UNL     1     -32.544   7.538   1.844  1.00 20.00     0.168 C 
HETATM    4  C6  UNL     1     -31.771   8.293   3.954  1.00 20.00     0.168 C 
HETATM    5  C7  UNL     1     -33.406   6.400   3.900  1.00 20.00     0.011 C 
HETATM    6  O8  UNL     1     -32.180   8.668   2.639  1.00 20.00    -0.391 OA
ENDROOT
BRANCH   5   7
HETATM    7  C2  UNL     1     -34.681   5.897   4.547  1.00 20.00    -0.032 C 
HETATM    8  C1  UNL     1     -34.715   4.988   5.528  1.00 20.00     0.007 C 
ENDBRANCH   5   7
TORSDOF 1
ENDMDL
MODEL 7
REMARK VINA RESULT:      -3.8     11.466     12.048
REMARK  1 active torsions:
REMARK  status: ('A' for Active; 'I' for Inactive)
REMARK    1  A    between atoms: C2_2  and  C7_7 
ROOT
HETATM    1  C3  UNL     1     -34.974  14.051  -4.393  1.00 20.00     0.034 C 
HETATM    2  C4  UNL     1     -36.776  15.710  -3.856  1.00 20.00     0.034 C 
HETATM    3  C5  UNL     1     -35.952  13.409  -5.371  1.00 20.00     0.168 C 
HETATM    4  C6  UNL     1     -37.655  14.979  -4.863  1.00 20.00     0.168 C 
HETATM    5  C7  UNL     1     -35.305  15.527  -4.204  1.00 20.00     0.011 C 
HETATM    6  O8  UNL     1     -37.300  13.599  -4.936  1.00 20.00    -0.391 OA
ENDROOT
BRANCH   5   7
HETATM    7  C2  UNL     1     -34.473  16.056  -3.052  1.00 20.00    -0.032 C 
HETATM    8  C1  UNL     1     -34.986  16.658  -1.974  1.00 20.00     0.007 C 
ENDBRANCH   5   7
TORSDOF 1
ENDMDL
MODEL 8
REMARK VINA RESULT:      -3.5     11.545     12.449
REMARK  1 active torsions:
REMARK  status: ('A' for Active; 'I' for Inactive)
REMARK    1  A    between atoms: C2_2  and  C7_7 
ROOT
HETATM    1  C3  UNL     1     -33.418  15.525  -5.660  1.00 20.00     0.034 C 
HETATM    2  C4  UNL     1     -34.971  14.387  -4.054  1.00 20.00     0.034 C 
HETATM    3  C5  UNL     1     -34.067  14.700  -6.765  1.00 20.00     0.168 C 
HETATM    4  C6  UNL     1     -35.536  13.624  -5.247  1.00 20.00     0.168 C 
HETATM    5  C7  UNL     1     -34.392  15.722  -4.504  1.00 20.00     0.011 C 
HETATM    6  O8  UNL     1     -34.539  13.452  -6.254  1.00 20.00    -0.391 OA
ENDROOT
BRANCH   5   7
HETATM    7  C2  UNL     1     -33.631  16.327  -3.341  1.00 20.00    -0.032 C 
HETATM    8  C1  UNL     1     -34.207  16.755  -2.212  1.00 20.00     0.007 C 
ENDBRANCH   5   7
TORSDOF 1
ENDMDL
MODEL 9
REMARK VINA RESULT:      -3.5     11.891     12.647
REMARK  1 active torsions:
REMARK  status: ('A' for Active; 'I' for Inactive)
REMARK    1  A    between atoms: C2_2  and  C7_7 
ROOT
HETATM    1  C3  UNL     1     -34.995  15.148  -3.753  1.00 20.00     0.034 C 
HETATM    2  C4  UNL     1     -33.388  16.816  -4.714  1.00 20.00     0.034 C 
HETATM    3  C5  UNL     1     -34.840  14.356  -5.046  1.00 20.00     0.168 C 
HETATM    4  C6  UNL     1     -33.320  15.933  -5.954  1.00 20.00     0.168 C 
HETATM    5  C7  UNL     1     -33.748  15.984  -3.490  1.00 20.00     0.011 C 
HETATM    6  O8  UNL     1     -34.546  15.227  -6.140  1.00 20.00    -0.391 OA
ENDROOT
BRANCH   5   7
HETATM    7  C2  UNL     1     -34.044  16.929  -2.342  1.00 20.00    -0.032 C 
HETATM    8  C1  UNL     1     -35.088  16.801  -1.517  1.00 20.00     0.007 C 
ENDBRANCH   5   7
TORSDOF 1
ENDMDL
