MODEL 1
REMARK VINA RESULT:      -4.9      0.000      0.000
REMARK  3 active torsions:
REMARK  status: ('A' for Active; 'I' for Inactive)
REMARK    1  A    between atoms: C1_1  and  C4_4 
REMARK    2  A    between atoms: C4_4  and  C5_5 
REMARK    3  A    between atoms: C5_5  and  C6_6 
ROOT
HETATM    1  C5  UNL     1     -33.122   6.002   3.239  1.00 20.00     0.035 C 
ENDROOT
BRANCH   1   2
HETATM    2  C4  UNL     1     -33.219   7.340   2.503  1.00 20.00     0.115 C 
BRANCH   2   3
HETATM    3  C1  UNL     1     -31.931   8.174   2.505  1.00 20.00     0.172 C 
HETATM    4  O7  UNL     1     -31.364   8.340   3.619  1.00 20.00    -0.648 OA
HETATM    5  O8  UNL     1     -31.593   8.600   1.363  1.00 20.00    -0.648 OA
ENDBRANCH   2   3
ENDBRANCH   1   2
BRANCH   1   6
HETATM    6  C6  UNL     1     -34.251   5.710   4.256  1.00 20.00     0.030 C 
HETATM    7  C2  UNL     1     -35.603   6.089   3.635  1.00 20.00     0.032 C 
HETATM    8  C3  UNL     1     -34.282   4.239   4.685  1.00 20.00     0.032 C 
HETATM    9 CL9  UNL     1     -34.026   6.722   5.729  1.00 20.00    -0.120 Cl
ENDBRANCH   1   6
TORSDOF 3
ENDMDL
MODEL 2
REMARK VINA RESULT:      -4.8      1.104      1.520
REMARK  3 active torsions:
REMARK  status: ('A' for Active; 'I' for Inactive)
REMARK    1  A    between atoms: C1_1  and  C4_4 
REMARK    2  A    between atoms: C4_4  and  C5_5 
REMARK    3  A    between atoms: C5_5  and  C6_6 
ROOT
HETATM    1  C5  UNL     1     -33.189   6.017   3.159  1.00 20.00     0.035 C 
ENDROOT
BRANCH   1   2
HETATM    2  C4  UNL     1     -33.238   7.407   2.520  1.00 20.00     0.115 C 
BRANCH   2   3
HETATM    3  C1  UNL     1     -31.906   8.166   2.518  1.00 20.00     0.172 C 
HETATM    4  O7  UNL     1     -31.355   8.349   3.637  1.00 20.00    -0.648 OA
HETATM    5  O8  UNL     1     -31.519   8.523   1.368  1.00 20.00    -0.648 OA
ENDBRANCH   2   3
ENDBRANCH   1   2
BRANCH   1   6
HETATM    6  C6  UNL     1     -34.278   5.723   4.219  1.00 20.00     0.030 C 
HETATM    7  C2  UNL     1     -34.261   4.227   4.560  1.00 20.00     0.032 C 
HETATM    8  C3  UNL     1     -34.078   6.540   5.499  1.00 20.00     0.032 C 
HETATM    9 CL9  UNL     1     -35.905   6.111   3.550  1.00 20.00    -0.120 Cl
ENDBRANCH   1   6
TORSDOF 3
ENDMDL
MODEL 3
REMARK VINA RESULT:      -4.8      1.100      1.863
REMARK  3 active torsions:
REMARK  status: ('A' for Active; 'I' for Inactive)
REMARK    1  A    between atoms: C1_1  and  C4_4 
REMARK    2  A    between atoms: C4_4  and  C5_5 
REMARK    3  A    between atoms: C5_5  and  C6_6 
ROOT
HETATM    1  C5  UNL     1     -33.040   6.087   3.310  1.00 20.00     0.035 C 
ENDROOT
BRANCH   1   2
HETATM    2  C4  UNL     1     -33.191   7.335   2.437  1.00 20.00     0.115 C 
BRANCH   2   3
HETATM    3  C1  UNL     1     -31.977   8.272   2.431  1.00 20.00     0.172 C 
HETATM    4  O7  UNL     1     -31.724   8.867   1.349  1.00 20.00    -0.648 OA
HETATM    5  O8  UNL     1     -31.367   8.330   3.539  1.00 20.00    -0.648 OA
ENDBRANCH   2   3
ENDBRANCH   1   2
BRANCH   1   6
HETATM    6  C6  UNL     1     -34.218   5.788   4.267  1.00 20.00     0.030 C 
HETATM    7  C2  UNL     1     -34.050   6.614   5.550  1.00 20.00     0.032 C 
HETATM    8  C3  UNL     1     -35.577   6.103   3.633  1.00 20.00     0.032 C 
HETATM    9 CL9  UNL     1     -34.203   4.048   4.734  1.00 20.00    -0.120 Cl
ENDBRANCH   1   6
TORSDOF 3
ENDMDL
MODEL 4
REMARK VINA RESULT:      -4.8      1.106      1.528
REMARK  3 active torsions:
REMARK  status: ('A' for Active; 'I' for Inactive)
REMARK    1  A    between atoms: C1_1  and  C4_4 
REMARK    2  A    between atoms: C4_4  and  C5_5 
REMARK    3  A    between atoms: C5_5  and  C6_6 
ROOT
HETATM    1  C5  UNL     1     -33.099   6.095   3.229  1.00 20.00     0.035 C 
ENDROOT
BRANCH   1   2
HETATM    2  C4  UNL     1     -33.220   7.393   2.427  1.00 20.00     0.115 C 
BRANCH   2   3
HETATM    3  C1  UNL     1     -31.974   8.287   2.452  1.00 20.00     0.172 C 
HETATM    4  O7  UNL     1     -31.343   8.351   3.541  1.00 20.00    -0.648 OA
HETATM    5  O8  UNL     1     -31.731   8.861   1.351  1.00 20.00    -0.648 OA
ENDBRANCH   2   3
ENDBRANCH   1   2
BRANCH   1   6
HETATM    6  C6  UNL     1     -34.252   5.804   4.219  1.00 20.00     0.030 C 
HETATM    7  C2  UNL     1     -34.043   6.630   5.496  1.00 20.00     0.032 C 
HETATM    8  C3  UNL     1     -35.626   6.128   3.622  1.00 20.00     0.032 C 
HETATM    9 CL9  UNL     1     -34.236   4.065   4.686  1.00 20.00    -0.120 Cl
ENDBRANCH   1   6
TORSDOF 3
ENDMDL
MODEL 5
REMARK VINA RESULT:      -4.5      0.962      1.131
REMARK  3 active torsions:
REMARK  status: ('A' for Active; 'I' for Inactive)
REMARK    1  A    between atoms: C1_1  and  C4_4 
REMARK    2  A    between atoms: C4_4  and  C5_5 
REMARK    3  A    between atoms: C5_5  and  C6_6 
ROOT
HETATM    1  C5  UNL     1     -33.140   6.259   2.939  1.00 20.00     0.035 C 
ENDROOT
BRANCH   1   2
HETATM    2  C4  UNL     1     -32.408   7.581   3.183  1.00 20.00     0.115 C 
BRANCH   2   3
HETATM    3  C1  UNL     1     -32.284   8.489   1.953  1.00 20.00     0.172 C 
HETATM    4  O7  UNL     1     -31.305   8.277   1.188  1.00 20.00    -0.648 OA
HETATM    5  O8  UNL     1     -33.200   9.357   1.860  1.00 20.00    -0.648 OA
ENDBRANCH   2   3
ENDBRANCH   1   2
BRANCH   1   6
HETATM    6  C6  UNL     1     -34.181   5.858   4.011  1.00 20.00     0.030 C 
HETATM    7  C2  UNL     1     -35.588   6.211   3.508  1.00 20.00     0.032 C 
HETATM    8  C3  UNL     1     -34.121   4.365   4.350  1.00 20.00     0.032 C 
HETATM    9 CL9  UNL     1     -33.895   6.793   5.524  1.00 20.00    -0.120 Cl
ENDBRANCH   1   6
TORSDOF 3
ENDMDL
MODEL 6
REMARK VINA RESULT:      -4.1      3.142      4.726
REMARK  3 active torsions:
REMARK  status: ('A' for Active; 'I' for Inactive)
REMARK    1  A    between atoms: C1_1  and  C4_4 
REMARK    2  A    between atoms: C4_4  and  C5_5 
REMARK    3  A    between atoms: C5_5  and  C6_6 
ROOT
HETATM    1  C5  UNL     1     -33.315   8.461   2.009  1.00 20.00     0.035 C 
ENDROOT
BRANCH   1   2
HETATM    2  C4  UNL     1     -32.533   7.295   2.620  1.00 20.00     0.115 C 
BRANCH   2   3
HETATM    3  C1  UNL     1     -33.378   6.065   2.973  1.00 20.00     0.172 C 
HETATM    4  O7  UNL     1     -32.909   4.942   2.645  1.00 20.00    -0.648 OA
HETATM    5  O8  UNL     1     -34.464   6.338   3.561  1.00 20.00    -0.648 OA
ENDBRANCH   2   3
ENDBRANCH   1   2
BRANCH   1   6
HETATM    6  C6  UNL     1     -32.556   9.300   0.952  1.00 20.00     0.030 C 
HETATM    7  C2  UNL     1     -31.134   8.746   0.792  1.00 20.00     0.032 C 
HETATM    8  C3  UNL     1     -33.261   9.296  -0.408  1.00 20.00     0.032 C 
HETATM    9 CL9  UNL     1     -32.416  11.007   1.510  1.00 20.00    -0.120 Cl
ENDBRANCH   1   6
TORSDOF 3
ENDMDL
MODEL 7
REMARK VINA RESULT:      -4.1      3.228      4.766
REMARK  3 active torsions:
REMARK  status: ('A' for Active; 'I' for Inactive)
REMARK    1  A    between atoms: C1_1  and  C4_4 
REMARK    2  A    between atoms: C4_4  and  C5_5 
REMARK    3  A    between atoms: C5_5  and  C6_6 
ROOT
HETATM    1  C5  UNL     1     -33.337   8.444   1.976  1.00 20.00     0.035 C 
ENDROOT
BRANCH   1   2
HETATM    2  C4  UNL     1     -32.569   7.342   2.709  1.00 20.00     0.115 C 
BRANCH   2   3
HETATM    3  C1  UNL     1     -33.396   6.097   3.053  1.00 20.00     0.172 C 
HETATM    4  O7  UNL     1     -32.959   4.991   2.633  1.00 20.00    -0.648 OA
HETATM    5  O8  UNL     1     -34.436   6.341   3.730  1.00 20.00    -0.648 OA
ENDBRANCH   2   3
ENDBRANCH   1   2
BRANCH   1   6
HETATM    6  C6  UNL     1     -32.522   9.263   0.946  1.00 20.00     0.030 C 
HETATM    7  C2  UNL     1     -32.471  10.730   1.393  1.00 20.00     0.032 C 
HETATM    8  C3  UNL     1     -31.095   8.731   0.779  1.00 20.00     0.032 C 
HETATM    9 CL9  UNL     1     -33.335   9.211  -0.660  1.00 20.00    -0.120 Cl
ENDBRANCH   1   6
TORSDOF 3
ENDMDL
MODEL 8
REMARK VINA RESULT:      -4.1      3.161      4.248
REMARK  3 active torsions:
REMARK  status: ('A' for Active; 'I' for Inactive)
REMARK    1  A    between atoms: C1_1  and  C4_4 
REMARK    2  A    between atoms: C4_4  and  C5_5 
REMARK    3  A    between atoms: C5_5  and  C6_6 
ROOT
HETATM    1  C5  UNL     1     -34.033   7.397   3.950  1.00 20.00     0.035 C 
ENDROOT
BRANCH   1   2
HETATM    2  C4  UNL     1     -34.876   6.129   3.797  1.00 20.00     0.115 C 
BRANCH   2   3
HETATM    3  C1  UNL     1     -34.615   5.047   4.852  1.00 20.00     0.172 C 
HETATM    4  O7  UNL     1     -34.540   3.858   4.439  1.00 20.00    -0.648 OA
HETATM    5  O8  UNL     1     -34.505   5.494   6.031  1.00 20.00    -0.648 OA
ENDBRANCH   2   3
ENDBRANCH   1   2
BRANCH   1   6
HETATM    6  C6  UNL     1     -32.803   7.505   3.017  1.00 20.00     0.030 C 
HETATM    7  C2  UNL     1     -31.607   8.042   3.816  1.00 20.00     0.032 C 
HETATM    8  C3  UNL     1     -32.431   6.158   2.387  1.00 20.00     0.032 C 
HETATM    9 CL9  UNL     1     -33.140   8.675   1.690  1.00 20.00    -0.120 Cl
ENDBRANCH   1   6
TORSDOF 3
ENDMDL
MODEL 9
REMARK VINA RESULT:      -4.0      2.979      4.142
REMARK  3 active torsions:
REMARK  status: ('A' for Active; 'I' for Inactive)
REMARK    1  A    between atoms: C1_1  and  C4_4 
REMARK    2  A    between atoms: C4_4  and  C5_5 
REMARK    3  A    between atoms: C5_5  and  C6_6 
ROOT
HETATM    1  C5  UNL     1     -33.868   7.840   3.974  1.00 20.00     0.035 C 
ENDROOT
BRANCH   1   2
HETATM    2  C4  UNL     1     -33.899   6.920   5.197  1.00 20.00     0.115 C 
BRANCH   2   3
HETATM    3  C1  UNL     1     -34.710   5.631   5.017  1.00 20.00     0.172 C 
HETATM    4  O7  UNL     1     -34.478   4.696   5.830  1.00 20.00    -0.648 OA
HETATM    5  O8  UNL     1     -35.527   5.668   4.052  1.00 20.00    -0.648 OA
ENDBRANCH   2   3
ENDBRANCH   1   2
BRANCH   1   6
HETATM    6  C6  UNL     1     -32.648   7.671   3.036  1.00 20.00     0.030 C 
HETATM    7  C2  UNL     1     -32.866   8.508   1.768  1.00 20.00     0.032 C 
HETATM    8  C3  UNL     1     -31.337   8.093   3.706  1.00 20.00     0.032 C 
HETATM    9 CL9  UNL     1     -32.496   5.949   2.532  1.00 20.00    -0.120 Cl
ENDBRANCH   1   6
TORSDOF 3
ENDMDL
