MODEL 1
REMARK VINA RESULT:      -5.7      0.000      0.000
REMARK  1 active torsions:
REMARK  status: ('A' for Active; 'I' for Inactive)
REMARK    1  A    between atoms: C1_1  and  C6_6 
ROOT
HETATM    1  C2  UNL     1     -33.767   4.407   4.443  1.00 20.00     0.005 C 
HETATM    2  C3  UNL     1     -33.491   4.924   3.024  1.00 20.00     0.006 C 
HETATM    3  C4  UNL     1     -33.928   6.755   5.296  1.00 20.00     0.016 C 
HETATM    4  C5  UNL     1     -35.535   5.857   3.779  1.00 20.00     0.010 C 
HETATM    5  C6  UNL     1     -33.667   7.310   3.889  1.00 20.00     0.051 C 
HETATM    6  C7  UNL     1     -34.724   5.466   5.015  1.00 20.00    -0.013 C 
HETATM    7  C8  UNL     1     -34.291   6.241   2.973  1.00 20.00    -0.003 C 
ENDROOT
BRANCH   5   8
HETATM    8  C1  UNL     1     -32.220   7.573   3.614  1.00 20.00     0.236 C 
HETATM    9  O9  UNL     1     -31.818   8.163   2.615  1.00 20.00    -0.306 OA
ENDBRANCH   5   8
TORSDOF 1
ENDMDL
MODEL 2
REMARK VINA RESULT:      -4.1      1.682      2.711
REMARK  1 active torsions:
REMARK  status: ('A' for Active; 'I' for Inactive)
REMARK    1  A    between atoms: C1_1  and  C6_6 
ROOT
HETATM    1  C2  UNL     1     -32.371   6.087   2.909  1.00 20.00     0.005 C 
HETATM    2  C3  UNL     1     -33.111   7.303   3.484  1.00 20.00     0.006 C 
HETATM    3  C4  UNL     1     -33.991   4.541   4.027  1.00 20.00     0.016 C 
HETATM    4  C5  UNL     1     -34.659   5.993   2.258  1.00 20.00     0.010 C 
HETATM    5  C6  UNL     1     -34.764   5.731   4.610  1.00 20.00     0.051 C 
HETATM    6  C7  UNL     1     -33.505   5.078   2.667  1.00 20.00    -0.013 C 
HETATM    7  C8  UNL     1     -34.575   6.823   3.541  1.00 20.00    -0.003 C 
ENDROOT
BRANCH   5   8
HETATM    8  C1  UNL     1     -34.298   6.132   5.974  1.00 20.00     0.236 C 
HETATM    9  O9  UNL     1     -34.061   7.293   6.294  1.00 20.00    -0.306 OA
ENDBRANCH   5   8
TORSDOF 1
ENDMDL
MODEL 3
REMARK VINA RESULT:      -4.1     11.618     12.740
REMARK  1 active torsions:
REMARK  status: ('A' for Active; 'I' for Inactive)
REMARK    1  A    between atoms: C1_1  and  C6_6 
ROOT
HETATM    1  C2  UNL     1     -33.266  16.319  -5.320  1.00 20.00     0.005 C 
HETATM    2  C3  UNL     1     -33.178  14.882  -4.788  1.00 20.00     0.006 C 
HETATM    3  C4  UNL     1     -35.745  16.323  -4.977  1.00 20.00     0.016 C 
HETATM    4  C5  UNL     1     -34.224  16.230  -3.143  1.00 20.00     0.010 C 
HETATM    5  C6  UNL     1     -35.697  14.890  -4.428  1.00 20.00     0.051 C 
HETATM    6  C7  UNL     1     -34.412  16.923  -4.492  1.00 20.00    -0.013 C 
HETATM    7  C8  UNL     1     -34.315  14.827  -3.749  1.00 20.00    -0.003 C 
ENDROOT
BRANCH   5   8
HETATM    8  C1  UNL     1     -35.904  13.845  -5.477  1.00 20.00     0.236 C 
HETATM    9  O9  UNL     1     -35.905  12.640  -5.241  1.00 20.00    -0.306 OA
ENDBRANCH   5   8
TORSDOF 1
ENDMDL
MODEL 4
REMARK VINA RESULT:      -4.1      2.068      3.305
REMARK  1 active torsions:
REMARK  status: ('A' for Active; 'I' for Inactive)
REMARK    1  A    between atoms: C1_1  and  C6_6 
ROOT
HETATM    1  C2  UNL     1     -32.639   7.250   3.612  1.00 20.00     0.005 C 
HETATM    2  C3  UNL     1     -33.938   7.254   4.430  1.00 20.00     0.006 C 
HETATM    3  C4  UNL     1     -32.989   4.844   3.019  1.00 20.00     0.016 C 
HETATM    4  C5  UNL     1     -34.444   6.557   2.222  1.00 20.00     0.010 C 
HETATM    5  C6  UNL     1     -34.299   4.811   3.817  1.00 20.00     0.051 C 
HETATM    6  C7  UNL     1     -32.959   6.280   2.463  1.00 20.00    -0.013 C 
HETATM    7  C8  UNL     1     -34.829   6.250   3.671  1.00 20.00    -0.003 C 
ENDROOT
BRANCH   5   8
HETATM    8  C1  UNL     1     -34.119   4.373   5.236  1.00 20.00     0.236 C 
HETATM    9  O9  UNL     1     -34.780   4.817   6.170  1.00 20.00    -0.306 OA
ENDBRANCH   5   8
TORSDOF 1
ENDMDL
MODEL 5
REMARK VINA RESULT:      -4.1     11.963     13.009
REMARK  1 active torsions:
REMARK  status: ('A' for Active; 'I' for Inactive)
REMARK    1  A    between atoms: C1_1  and  C6_6 
ROOT
HETATM    1  C2  UNL     1     -33.069  15.042  -4.317  1.00 20.00     0.005 C 
HETATM    2  C3  UNL     1     -34.404  15.417  -3.660  1.00 20.00     0.006 C 
HETATM    3  C4  UNL     1     -34.233  14.583  -6.484  1.00 20.00     0.016 C 
HETATM    4  C5  UNL     1     -34.098  16.783  -5.573  1.00 20.00     0.010 C 
HETATM    5  C6  UNL     1     -35.586  14.963  -5.866  1.00 20.00     0.051 C 
HETATM    6  C7  UNL     1     -33.250  15.525  -5.765  1.00 20.00    -0.013 C 
HETATM    7  C8  UNL     1     -35.203  16.032  -4.826  1.00 20.00    -0.003 C 
ENDROOT
BRANCH   5   8
HETATM    8  C1  UNL     1     -36.325  13.796  -5.292  1.00 20.00     0.236 C 
HETATM    9  O9  UNL     1     -35.874  12.655  -5.266  1.00 20.00    -0.306 OA
ENDBRANCH   5   8
TORSDOF 1
ENDMDL
MODEL 6
REMARK VINA RESULT:      -3.9     11.867     12.752
REMARK  1 active torsions:
REMARK  status: ('A' for Active; 'I' for Inactive)
REMARK    1  A    between atoms: C1_1  and  C6_6 
ROOT
HETATM    1  C2  UNL     1     -33.664  16.663  -5.328  1.00 20.00     0.005 C 
HETATM    2  C3  UNL     1     -34.041  15.531  -6.295  1.00 20.00     0.006 C 
HETATM    3  C4  UNL     1     -34.894  15.521  -3.471  1.00 20.00     0.016 C 
HETATM    4  C5  UNL     1     -32.922  14.585  -4.432  1.00 20.00     0.010 C 
HETATM    5  C6  UNL     1     -35.281  14.365  -4.404  1.00 20.00     0.051 C 
HETATM    6  C7  UNL     1     -33.501  15.929  -3.987  1.00 20.00    -0.013 C 
HETATM    7  C8  UNL     1     -34.090  14.293  -5.378  1.00 20.00    -0.003 C 
ENDROOT
BRANCH   5   8
HETATM    8  C1  UNL     1     -36.602  14.562  -5.076  1.00 20.00     0.236 C 
HETATM    9  O9  UNL     1     -37.534  13.769  -4.983  1.00 20.00    -0.306 OA
ENDBRANCH   5   8
TORSDOF 1
ENDMDL
MODEL 7
REMARK VINA RESULT:      -3.8      0.943      2.065
REMARK  1 active torsions:
REMARK  status: ('A' for Active; 'I' for Inactive)
REMARK    1  A    between atoms: C1_1  and  C6_6 
ROOT
HETATM    1  C2  UNL     1     -35.494   5.989   3.666  1.00 20.00     0.005 C 
HETATM    2  C3  UNL     1     -34.963   7.358   4.116  1.00 20.00     0.006 C 
HETATM    3  C4  UNL     1     -33.202   5.317   2.919  1.00 20.00     0.016 C 
HETATM    4  C5  UNL     1     -33.718   5.669   5.220  1.00 20.00     0.010 C 
HETATM    5  C6  UNL     1     -32.631   6.669   3.367  1.00 20.00     0.051 C 
HETATM    6  C7  UNL     1     -34.311   5.050   3.954  1.00 20.00    -0.013 C 
HETATM    7  C8  UNL     1     -33.523   7.040   4.567  1.00 20.00    -0.003 C 
ENDROOT
BRANCH   5   8
HETATM    8  C1  UNL     1     -32.618   7.697   2.282  1.00 20.00     0.236 C 
HETATM    9  O9  UNL     1     -31.929   8.712   2.319  1.00 20.00    -0.306 OA
ENDBRANCH   5   8
TORSDOF 1
ENDMDL
MODEL 8
REMARK VINA RESULT:      -3.8      1.677      2.517
REMARK  1 active torsions:
REMARK  status: ('A' for Active; 'I' for Inactive)
REMARK    1  A    between atoms: C1_1  and  C6_6 
ROOT
HETATM    1  C2  UNL     1     -33.854   6.393   5.795  1.00 20.00     0.005 C 
HETATM    2  C3  UNL     1     -34.678   5.322   5.066  1.00 20.00     0.006 C 
HETATM    3  C4  UNL     1     -32.706   7.003   3.655  1.00 20.00     0.016 C 
HETATM    4  C5  UNL     1     -35.033   7.404   3.990  1.00 20.00     0.010 C 
HETATM    5  C6  UNL     1     -33.520   5.951   2.890  1.00 20.00     0.051 C 
HETATM    6  C7  UNL     1     -33.697   7.491   4.729  1.00 20.00    -0.013 C 
HETATM    7  C8  UNL     1     -34.855   5.921   3.657  1.00 20.00    -0.003 C 
ENDROOT
BRANCH   5   8
HETATM    8  C1  UNL     1     -32.841   4.621   2.805  1.00 20.00     0.236 C 
HETATM    9  O9  UNL     1     -32.863   3.912   1.803  1.00 20.00    -0.306 OA
ENDBRANCH   5   8
TORSDOF 1
ENDMDL
MODEL 9
REMARK VINA RESULT:      -3.7      8.891     10.229
REMARK  1 active torsions:
REMARK  status: ('A' for Active; 'I' for Inactive)
REMARK    1  A    between atoms: C1_1  and  C6_6 
ROOT
HETATM    1  C2  UNL     1     -41.011   7.184  -0.419  1.00 20.00     0.005 C 
HETATM    2  C3  UNL     1     -40.830   5.696  -0.088  1.00 20.00     0.006 C 
HETATM    3  C4  UNL     1     -43.416   6.792  -0.988  1.00 20.00     0.016 C 
HETATM    4  C5  UNL     1     -42.598   6.552   1.239  1.00 20.00     0.010 C 
HETATM    5  C6  UNL     1     -43.278   5.300  -0.654  1.00 20.00     0.051 C 
HETATM    6  C7  UNL     1     -42.459   7.460   0.017  1.00 20.00    -0.013 C 
HETATM    7  C8  UNL     1     -42.213   5.292   0.459  1.00 20.00    -0.003 C 
ENDROOT
BRANCH   5   8
HETATM    8  C1  UNL     1     -42.924   4.457  -1.837  1.00 20.00     0.236 C 
HETATM    9  O9  UNL     1     -43.342   3.316  -2.005  1.00 20.00    -0.306 OA
ENDBRANCH   5   8
TORSDOF 1
ENDMDL
