MODEL 1
REMARK VINA RESULT:      -4.8      0.000      0.000
REMARK  2 active torsions:
REMARK  status: ('A' for Active; 'I' for Inactive)
REMARK    1  A    between atoms: C2_2  and  C5_5 
REMARK    2  A    between atoms: C3_3  and  C6_6 
ROOT
HETATM    1  C1  UNL     1     -32.068   8.065   4.042  1.00 20.00     0.204 C 
HETATM    2  C2  UNL     1     -32.853   6.976   3.352  1.00 20.00     0.162 C 
HETATM    3  C3  UNL     1     -32.003   8.377   1.799  1.00 20.00     0.260 C 
HETATM    4  O7  UNL     1     -31.245   8.588   2.998  1.00 20.00    -0.359 OA
HETATM    5  O8  UNL     1     -33.145   7.558   2.079  1.00 20.00    -0.353 OA
ENDROOT
BRANCH   2   6
HETATM    6  C5  UNL     1     -34.128   6.588   4.069  1.00 20.00     0.148 C 
HETATM    7 CL9  UNL     1     -34.010   6.964   5.801  1.00 20.00    -0.128 Cl
ENDBRANCH   2   6
BRANCH   3   8
HETATM    8  C6  UNL     1     -32.464   9.708   1.238  1.00 20.00     0.056 C 
HETATM    9  C4  UNL     1     -32.987   9.580  -0.160  1.00 20.00     0.010 C 
ENDBRANCH   3   8
TORSDOF 2
ENDMDL
MODEL 2
REMARK VINA RESULT:      -4.7      2.731      4.446
REMARK  2 active torsions:
REMARK  status: ('A' for Active; 'I' for Inactive)
REMARK    1  A    between atoms: C2_2  and  C5_5 
REMARK    2  A    between atoms: C3_3  and  C6_6 
ROOT
HETATM    1  C1  UNL     1     -32.987   7.626   5.058  1.00 20.00     0.204 C 
HETATM    2  C2  UNL     1     -33.453   7.563   3.624  1.00 20.00     0.162 C 
HETATM    3  C3  UNL     1     -34.740   6.201   4.885  1.00 20.00     0.260 C 
HETATM    4  O7  UNL     1     -34.102   7.114   5.789  1.00 20.00    -0.359 OA
HETATM    5  O8  UNL     1     -34.161   6.322   3.578  1.00 20.00    -0.353 OA
ENDROOT
BRANCH   2   6
HETATM    6  C5  UNL     1     -32.329   7.575   2.611  1.00 20.00     0.148 C 
HETATM    7 CL9  UNL     1     -32.366   9.073   1.656  1.00 20.00    -0.128 Cl
ENDBRANCH   2   6
BRANCH   3   8
HETATM    8  C6  UNL     1     -34.570   4.778   5.380  1.00 20.00     0.056 C 
HETATM    9  C4  UNL     1     -34.074   3.862   4.304  1.00 20.00     0.010 C 
ENDBRANCH   3   8
TORSDOF 2
ENDMDL
MODEL 3
REMARK VINA RESULT:      -4.6      2.507      4.071
REMARK  2 active torsions:
REMARK  status: ('A' for Active; 'I' for Inactive)
REMARK    1  A    between atoms: C2_2  and  C5_5 
REMARK    2  A    between atoms: C3_3  and  C6_6 
ROOT
HETATM    1  C1  UNL     1     -31.628   8.152   3.384  1.00 20.00     0.204 C 
HETATM    2  C2  UNL     1     -32.494   8.647   2.251  1.00 20.00     0.162 C 
HETATM    3  C3  UNL     1     -33.634   7.102   3.439  1.00 20.00     0.260 C 
HETATM    4  O7  UNL     1     -32.567   7.559   4.281  1.00 20.00    -0.359 OA
HETATM    5  O8  UNL     1     -33.452   7.595   2.105  1.00 20.00    -0.353 OA
ENDROOT
BRANCH   2   6
HETATM    6  C5  UNL     1     -31.745   8.872   0.956  1.00 20.00     0.148 C 
HETATM    7 CL9  UNL     1     -32.862   9.370  -0.333  1.00 20.00    -0.128 Cl
ENDBRANCH   2   6
BRANCH   3   8
HETATM    8  C6  UNL     1     -33.661   5.586   3.415  1.00 20.00     0.056 C 
HETATM    9  C4  UNL     1     -34.621   5.023   4.417  1.00 20.00     0.010 C 
ENDBRANCH   3   8
TORSDOF 2
ENDMDL
MODEL 4
REMARK VINA RESULT:      -4.2      1.625      2.317
REMARK  2 active torsions:
REMARK  status: ('A' for Active; 'I' for Inactive)
REMARK    1  A    between atoms: C2_2  and  C5_5 
REMARK    2  A    between atoms: C3_3  and  C6_6 
ROOT
HETATM    1  C1  UNL     1     -33.376   5.013   3.406  1.00 20.00     0.204 C 
HETATM    2  C2  UNL     1     -34.477   5.864   3.990  1.00 20.00     0.162 C 
HETATM    3  C3  UNL     1     -33.329   7.075   2.468  1.00 20.00     0.260 C 
HETATM    4  O7  UNL     1     -33.038   5.696   2.199  1.00 20.00    -0.359 OA
HETATM    5  O8  UNL     1     -34.025   7.193   3.716  1.00 20.00    -0.353 OA
ENDROOT
BRANCH   2   6
HETATM    6  C5  UNL     1     -34.685   5.667   5.476  1.00 20.00     0.148 C 
HETATM    7 CL9  UNL     1     -34.059   7.059   6.385  1.00 20.00    -0.128 Cl
ENDBRANCH   2   6
BRANCH   3   8
HETATM    8  C6  UNL     1     -32.041   7.872   2.533  1.00 20.00     0.056 C 
HETATM    9  C4  UNL     1     -31.881   8.780   1.354  1.00 20.00     0.010 C 
ENDBRANCH   3   8
TORSDOF 2
ENDMDL
MODEL 5
REMARK VINA RESULT:      -4.0      2.750      4.588
REMARK  2 active torsions:
REMARK  status: ('A' for Active; 'I' for Inactive)
REMARK    1  A    between atoms: C2_2  and  C5_5 
REMARK    2  A    between atoms: C3_3  and  C6_6 
ROOT
HETATM    1  C1  UNL     1     -34.154   7.365   3.764  1.00 20.00     0.204 C 
HETATM    2  C2  UNL     1     -33.157   6.990   2.695  1.00 20.00     0.162 C 
HETATM    3  C3  UNL     1     -34.242   5.133   3.385  1.00 20.00     0.260 C 
HETATM    4  O7  UNL     1     -35.047   6.250   3.787  1.00 20.00    -0.359 OA
HETATM    5  O8  UNL     1     -32.964   5.591   2.923  1.00 20.00    -0.353 OA
ENDROOT
BRANCH   2   6
HETATM    6  C5  UNL     1     -31.842   7.733   2.791  1.00 20.00     0.148 C 
HETATM    7 CL9  UNL     1     -31.775   9.041   1.591  1.00 20.00    -0.128 Cl
ENDBRANCH   2   6
BRANCH   3   8
HETATM    8  C6  UNL     1     -34.045   4.190   4.556  1.00 20.00     0.056 C 
HETATM    9  C4  UNL     1     -34.574   4.762   5.835  1.00 20.00     0.010 C 
ENDBRANCH   3   8
TORSDOF 2
ENDMDL
MODEL 6
REMARK VINA RESULT:      -4.0      2.445      4.234
REMARK  2 active torsions:
REMARK  status: ('A' for Active; 'I' for Inactive)
REMARK    1  A    between atoms: C2_2  and  C5_5 
REMARK    2  A    between atoms: C3_3  and  C6_6 
ROOT
HETATM    1  C1  UNL     1     -33.370   7.309   1.949  1.00 20.00     0.204 C 
HETATM    2  C2  UNL     1     -32.154   8.176   2.166  1.00 20.00     0.162 C 
HETATM    3  C3  UNL     1     -32.653   7.103   4.088  1.00 20.00     0.260 C 
HETATM    4  O7  UNL     1     -33.312   6.385   3.036  1.00 20.00    -0.359 OA
HETATM    5  O8  UNL     1     -32.135   8.342   3.586  1.00 20.00    -0.353 OA
ENDROOT
BRANCH   2   6
HETATM    6  C5  UNL     1     -32.224   9.520   1.472  1.00 20.00     0.148 C 
HETATM    7 CL9  UNL     1     -32.967   9.355  -0.134  1.00 20.00    -0.128 Cl
ENDBRANCH   2   6
BRANCH   3   8
HETATM    8  C6  UNL     1     -33.631   7.387   5.212  1.00 20.00     0.056 C 
HETATM    9  C4  UNL     1     -34.343   6.150   5.666  1.00 20.00     0.010 C 
ENDBRANCH   3   8
TORSDOF 2
ENDMDL
MODEL 7
REMARK VINA RESULT:      -3.8      2.669      4.500
REMARK  2 active torsions:
REMARK  status: ('A' for Active; 'I' for Inactive)
REMARK    1  A    between atoms: C2_2  and  C5_5 
REMARK    2  A    between atoms: C3_3  and  C6_6 
ROOT
HETATM    1  C1  UNL     1     -33.105   7.561   5.388  1.00 20.00     0.204 C 
HETATM    2  C2  UNL     1     -33.743   7.642   4.022  1.00 20.00     0.162 C 
HETATM    3  C3  UNL     1     -34.845   6.115   5.269  1.00 20.00     0.260 C 
HETATM    4  O7  UNL     1     -34.114   6.941   6.185  1.00 20.00    -0.359 OA
HETATM    5  O8  UNL     1     -34.433   6.393   3.924  1.00 20.00    -0.353 OA
ENDROOT
BRANCH   2   6
HETATM    6  C5  UNL     1     -32.753   7.796   2.888  1.00 20.00     0.148 C 
HETATM    7 CL9  UNL     1     -32.504   6.244   2.061  1.00 20.00    -0.128 Cl
ENDBRANCH   2   6
BRANCH   3   8
HETATM    8  C6  UNL     1     -34.594   4.651   5.578  1.00 20.00     0.056 C 
HETATM    9  C4  UNL     1     -34.126   3.893   4.375  1.00 20.00     0.010 C 
ENDBRANCH   3   8
TORSDOF 2
ENDMDL
MODEL 8
REMARK VINA RESULT:      -3.7     10.370     11.107
REMARK  2 active torsions:
REMARK  status: ('A' for Active; 'I' for Inactive)
REMARK    1  A    between atoms: C2_2  and  C5_5 
REMARK    2  A    between atoms: C3_3  and  C6_6 
ROOT
HETATM    1  C1  UNL     1     -36.256  14.797  -5.593  1.00 20.00     0.204 C 
HETATM    2  C2  UNL     1     -35.512  13.507  -5.835  1.00 20.00     0.162 C 
HETATM    3  C3  UNL     1     -34.643  14.536  -4.023  1.00 20.00     0.260 C 
HETATM    4  O7  UNL     1     -35.942  15.107  -4.234  1.00 20.00    -0.359 OA
HETATM    5  O8  UNL     1     -34.278  13.721  -5.144  1.00 20.00    -0.353 OA
ENDROOT
BRANCH   2   6
HETATM    6  C5  UNL     1     -35.261  13.206  -7.297  1.00 20.00     0.148 C 
HETATM    7 CL9  UNL     1     -33.923  14.197  -7.917  1.00 20.00    -0.128 Cl
ENDBRANCH   2   6
BRANCH   3   8
HETATM    8  C6  UNL     1     -33.616  15.639  -3.848  1.00 20.00     0.056 C 
HETATM    9  C4  UNL     1     -33.966  16.561  -2.721  1.00 20.00     0.010 C 
ENDBRANCH   3   8
TORSDOF 2
ENDMDL
MODEL 9
REMARK VINA RESULT:      -3.6      9.769     11.020
REMARK  2 active torsions:
REMARK  status: ('A' for Active; 'I' for Inactive)
REMARK    1  A    between atoms: C2_2  and  C5_5 
REMARK    2  A    between atoms: C3_3  and  C6_6 
ROOT
HETATM    1  C1  UNL     1     -34.631  14.010  -4.167  1.00 20.00     0.204 C 
HETATM    2  C2  UNL     1     -35.039  15.400  -4.589  1.00 20.00     0.162 C 
HETATM    3  C3  UNL     1     -35.783  13.912  -6.115  1.00 20.00     0.260 C 
HETATM    4  O7  UNL     1     -35.504  13.168  -4.921  1.00 20.00    -0.359 OA
HETATM    5  O8  UNL     1     -35.275  15.247  -5.991  1.00 20.00    -0.353 OA
ENDROOT
BRANCH   2   6
HETATM    6  C5  UNL     1     -33.984  16.455  -4.337  1.00 20.00     0.148 C 
HETATM    7 CL9  UNL     1     -33.698  16.649  -2.594  1.00 20.00    -0.128 Cl
ENDBRANCH   2   6
BRANCH   3   8
HETATM    8  C6  UNL     1     -35.135  13.236  -7.308  1.00 20.00     0.056 C 
HETATM    9  C4  UNL     1     -34.059  14.081  -7.918  1.00 20.00     0.010 C 
ENDBRANCH   3   8
TORSDOF 2
ENDMDL
