MODEL 1
REMARK VINA RESULT:      -3.9      0.000      0.000
REMARK  3 active torsions:
REMARK  status: ('A' for Active; 'I' for Inactive)
REMARK    1  A    between atoms: C1_1  and  C3_3 
REMARK    2  A    between atoms: C2_2  and  C3_3 
REMARK    3  A    between atoms: C2_2  and  S6_6 
ROOT
HETATM    1  C3  UNL     1     -34.084   5.979   3.554  1.00 20.00     0.192 C 
HETATM    2 CL7  UNL     1     -32.977   4.980   2.550  1.00 20.00    -0.113 Cl
ENDROOT
BRANCH   1   3
HETATM    3  C1  UNL     1     -34.505   5.064   4.714  1.00 20.00     0.192 C 
HETATM    4  O4  UNL     1     -34.710   5.662   5.809  1.00 20.00    -0.647 OA
HETATM    5  O5  UNL     1     -34.597   3.833   4.446  1.00 20.00    -0.647 OA
ENDBRANCH   1   3
BRANCH   1   6
HETATM    6  C2  UNL     1     -33.364   7.271   3.924  1.00 20.00     0.102 C 
BRANCH   6   7
HETATM    7  S6  UNL     1     -32.382   7.903   2.528  1.00 20.00    -0.180 SA
HETATM    8  H11 UNL     1     -32.786   9.175   2.641  1.00 20.00     0.101 HD
ENDBRANCH   6   7
ENDBRANCH   1   6
TORSDOF 3
ENDMDL
MODEL 2
REMARK VINA RESULT:      -3.9      0.038      1.221
REMARK  3 active torsions:
REMARK  status: ('A' for Active; 'I' for Inactive)
REMARK    1  A    between atoms: C1_1  and  C3_3 
REMARK    2  A    between atoms: C2_2  and  C3_3 
REMARK    3  A    between atoms: C2_2  and  S6_6 
ROOT
HETATM    1  C3  UNL     1     -34.086   5.954   3.554  1.00 20.00     0.192 C 
HETATM    2 CL7  UNL     1     -32.973   4.957   2.555  1.00 20.00    -0.113 Cl
ENDROOT
BRANCH   1   3
HETATM    3  C1  UNL     1     -34.508   5.039   4.714  1.00 20.00     0.192 C 
HETATM    4  O4  UNL     1     -34.561   3.809   4.421  1.00 20.00    -0.647 OA
HETATM    5  O5  UNL     1     -34.752   5.610   5.813  1.00 20.00    -0.647 OA
ENDBRANCH   1   3
BRANCH   1   6
HETATM    6  C2  UNL     1     -33.372   7.248   3.925  1.00 20.00     0.102 C 
BRANCH   6   7
HETATM    7  S6  UNL     1     -32.407   7.895   2.523  1.00 20.00    -0.180 SA
HETATM    8  H11 UNL     1     -33.429   8.532   1.935  1.00 20.00     0.101 HD
ENDBRANCH   6   7
ENDBRANCH   1   6
TORSDOF 3
ENDMDL
MODEL 3
REMARK VINA RESULT:      -3.8      1.181      1.419
REMARK  3 active torsions:
REMARK  status: ('A' for Active; 'I' for Inactive)
REMARK    1  A    between atoms: C1_1  and  C3_3 
REMARK    2  A    between atoms: C2_2  and  C3_3 
REMARK    3  A    between atoms: C2_2  and  S6_6 
ROOT
HETATM    1  C3  UNL     1     -33.607   6.917   3.601  1.00 20.00     0.192 C 
HETATM    2 CL7  UNL     1     -33.391   5.319   2.807  1.00 20.00    -0.113 Cl
ENDROOT
BRANCH   1   3
HETATM    3  C1  UNL     1     -34.092   6.592   5.023  1.00 20.00     0.192 C 
HETATM    4  O4  UNL     1     -33.679   7.389   5.914  1.00 20.00    -0.647 OA
HETATM    5  O5  UNL     1     -34.837   5.579   5.139  1.00 20.00    -0.647 OA
ENDBRANCH   1   3
BRANCH   1   6
HETATM    6  C2  UNL     1     -32.303   7.695   3.481  1.00 20.00     0.102 C 
BRANCH   6   7
HETATM    7  S6  UNL     1     -32.200   8.569   1.887  1.00 20.00    -0.180 SA
HETATM    8  H11 UNL     1     -33.109   7.814   1.257  1.00 20.00     0.101 HD
ENDBRANCH   6   7
ENDBRANCH   1   6
TORSDOF 3
ENDMDL
MODEL 4
REMARK VINA RESULT:      -3.8      1.192      1.819
REMARK  3 active torsions:
REMARK  status: ('A' for Active; 'I' for Inactive)
REMARK    1  A    between atoms: C1_1  and  C3_3 
REMARK    2  A    between atoms: C2_2  and  C3_3 
REMARK    3  A    between atoms: C2_2  and  S6_6 
ROOT
HETATM    1  C3  UNL     1     -33.582   6.931   3.587  1.00 20.00     0.192 C 
HETATM    2 CL7  UNL     1     -33.384   5.322   2.812  1.00 20.00    -0.113 Cl
ENDROOT
BRANCH   1   3
HETATM    3  C1  UNL     1     -34.066   6.629   5.014  1.00 20.00     0.192 C 
HETATM    4  O4  UNL     1     -34.824   5.621   5.110  1.00 20.00    -0.647 OA
HETATM    5  O5  UNL     1     -33.659   7.413   5.917  1.00 20.00    -0.647 OA
ENDBRANCH   1   3
BRANCH   1   6
HETATM    6  C2  UNL     1     -32.270   7.695   3.453  1.00 20.00     0.102 C 
BRANCH   6   7
HETATM    7  S6  UNL     1     -32.189   8.598   1.874  1.00 20.00    -0.180 SA
HETATM    8  H11 UNL     1     -33.512   8.640   1.672  1.00 20.00     0.101 HD
ENDBRANCH   6   7
ENDBRANCH   1   6
TORSDOF 3
ENDMDL
MODEL 5
REMARK VINA RESULT:      -3.6      3.479      3.817
REMARK  3 active torsions:
REMARK  status: ('A' for Active; 'I' for Inactive)
REMARK    1  A    between atoms: C1_1  and  C3_3 
REMARK    2  A    between atoms: C2_2  and  C3_3 
REMARK    3  A    between atoms: C2_2  and  S6_6 
ROOT
HETATM    1  C3  UNL     1     -33.705   7.143   3.726  1.00 20.00     0.192 C 
HETATM    2 CL7  UNL     1     -33.499   7.301   5.505  1.00 20.00    -0.113 Cl
ENDROOT
BRANCH   1   3
HETATM    3  C1  UNL     1     -32.498   7.875   3.119  1.00 20.00     0.192 C 
HETATM    4  O4  UNL     1     -31.580   8.151   3.945  1.00 20.00    -0.647 OA
HETATM    5  O5  UNL     1     -32.559   8.116   1.881  1.00 20.00    -0.647 OA
ENDBRANCH   1   3
BRANCH   1   6
HETATM    6  C2  UNL     1     -33.854   5.664   3.389  1.00 20.00     0.102 C 
BRANCH   6   7
HETATM    7  S6  UNL     1     -34.622   4.747   4.761  1.00 20.00    -0.180 SA
HETATM    8  H11 UNL     1     -33.784   5.190   5.708  1.00 20.00     0.101 HD
ENDBRANCH   6   7
ENDBRANCH   1   6
TORSDOF 3
ENDMDL
MODEL 6
REMARK VINA RESULT:      -3.6      1.870      1.870
REMARK  3 active torsions:
REMARK  status: ('A' for Active; 'I' for Inactive)
REMARK    1  A    between atoms: C1_1  and  C3_3 
REMARK    2  A    between atoms: C2_2  and  C3_3 
REMARK    3  A    between atoms: C2_2  and  S6_6 
ROOT
HETATM    1  C3  UNL     1     -33.497   6.235   4.218  1.00 20.00     0.192 C 
HETATM    2 CL7  UNL     1     -33.741   7.277   5.662  1.00 20.00    -0.113 Cl
ENDROOT
BRANCH   1   3
HETATM    3  C1  UNL     1     -34.748   5.345   4.152  1.00 20.00     0.192 C 
HETATM    4  O4  UNL     1     -35.782   5.924   3.709  1.00 20.00    -0.647 OA
HETATM    5  O5  UNL     1     -34.605   4.153   4.544  1.00 20.00    -0.647 OA
ENDBRANCH   1   3
BRANCH   1   6
HETATM    6  C2  UNL     1     -33.227   7.132   3.016  1.00 20.00     0.102 C 
BRANCH   6   7
HETATM    7  S6  UNL     1     -31.735   8.144   3.269  1.00 20.00    -0.180 SA
HETATM    8  H11 UNL     1     -31.644   8.574   2.003  1.00 20.00     0.101 HD
ENDBRANCH   6   7
ENDBRANCH   1   6
TORSDOF 3
ENDMDL
MODEL 7
REMARK VINA RESULT:      -3.6      1.883      2.041
REMARK  3 active torsions:
REMARK  status: ('A' for Active; 'I' for Inactive)
REMARK    1  A    between atoms: C1_1  and  C3_3 
REMARK    2  A    between atoms: C2_2  and  C3_3 
REMARK    3  A    between atoms: C2_2  and  S6_6 
ROOT
HETATM    1  C3  UNL     1     -33.514   6.246   4.229  1.00 20.00     0.192 C 
HETATM    2 CL7  UNL     1     -33.759   7.291   5.671  1.00 20.00    -0.113 Cl
ENDROOT
BRANCH   1   3
HETATM    3  C1  UNL     1     -34.775   5.372   4.152  1.00 20.00     0.192 C 
HETATM    4  O4  UNL     1     -34.616   4.183   4.553  1.00 20.00    -0.647 OA
HETATM    5  O5  UNL     1     -35.813   5.932   3.700  1.00 20.00    -0.647 OA
ENDBRANCH   1   3
BRANCH   1   6
HETATM    6  C2  UNL     1     -33.222   7.141   3.031  1.00 20.00     0.102 C 
BRANCH   6   7
HETATM    7  S6  UNL     1     -31.728   8.144   3.303  1.00 20.00    -0.180 SA
HETATM    8  H11 UNL     1     -32.186   8.782   4.388  1.00 20.00     0.101 HD
ENDBRANCH   6   7
ENDBRANCH   1   6
TORSDOF 3
ENDMDL
MODEL 8
REMARK VINA RESULT:      -3.3     12.193     12.472
REMARK  3 active torsions:
REMARK  status: ('A' for Active; 'I' for Inactive)
REMARK    1  A    between atoms: C1_1  and  C3_3 
REMARK    2  A    between atoms: C2_2  and  C3_3 
REMARK    3  A    between atoms: C2_2  and  S6_6 
ROOT
HETATM    1  C3  UNL     1     -35.794  15.011  -4.711  1.00 20.00     0.192 C 
HETATM    2 CL7  UNL     1     -34.252  14.412  -4.010  1.00 20.00    -0.113 Cl
ENDROOT
BRANCH   1   3
HETATM    3  C1  UNL     1     -36.601  13.745  -5.040  1.00 20.00     0.192 C 
HETATM    4  O4  UNL     1     -35.898  12.728  -5.307  1.00 20.00    -0.647 OA
HETATM    5  O5  UNL     1     -37.858  13.862  -5.008  1.00 20.00    -0.647 OA
ENDBRANCH   1   3
BRANCH   1   6
HETATM    6  C2  UNL     1     -36.422  15.991  -3.727  1.00 20.00     0.102 C 
BRANCH   6   7
HETATM    7  S6  UNL     1     -35.208  16.560  -2.496  1.00 20.00    -0.180 SA
HETATM    8  H11 UNL     1     -34.347  15.549  -2.674  1.00 20.00     0.101 HD
ENDBRANCH   6   7
ENDBRANCH   1   6
TORSDOF 3
ENDMDL
MODEL 9
REMARK VINA RESULT:      -3.3      2.101      2.406
REMARK  3 active torsions:
REMARK  status: ('A' for Active; 'I' for Inactive)
REMARK    1  A    between atoms: C1_1  and  C3_3 
REMARK    2  A    between atoms: C2_2  and  C3_3 
REMARK    3  A    between atoms: C2_2  and  S6_6 
ROOT
HETATM    1  C3  UNL     1     -34.464   5.885   3.928  1.00 20.00     0.192 C 
HETATM    2 CL7  UNL     1     -33.424   7.155   3.195  1.00 20.00    -0.113 Cl
ENDROOT
BRANCH   1   3
HETATM    3  C1  UNL     1     -33.815   4.554   3.517  1.00 20.00     0.192 C 
HETATM    4  O4  UNL     1     -32.969   4.648   2.581  1.00 20.00    -0.647 OA
HETATM    5  O5  UNL     1     -34.197   3.531   4.150  1.00 20.00    -0.647 OA
ENDBRANCH   1   3
BRANCH   1   6
HETATM    6  C2  UNL     1     -34.580   6.162   5.422  1.00 20.00     0.102 C 
BRANCH   6   7
HETATM    7  S6  UNL     1     -33.507   7.543   5.924  1.00 20.00    -0.180 SA
HETATM    8  H11 UNL     1     -32.757   6.832   6.777  1.00 20.00     0.101 HD
ENDBRANCH   6   7
ENDBRANCH   1   6
TORSDOF 3
ENDMDL
