MODEL 1
REMARK VINA RESULT:      -4.9      0.000      0.000
REMARK  2 active torsions:
REMARK  status: ('A' for Active; 'I' for Inactive)
REMARK    1  A    between atoms: C5_5  and  C6_6 
REMARK    2  A    between atoms: C6_6  and  C7_7 
ROOT
HETATM    1  C1  UNL     1     -34.028   6.631   5.269  1.00 20.00     0.068 C 
HETATM    2  C3  UNL     1     -35.662   6.109   3.502  1.00 20.00     0.031 C 
HETATM    3  C4  UNL     1     -34.248   4.311   4.509  1.00 20.00     0.031 C 
HETATM    4  C7  UNL     1     -34.273   5.789   4.074  1.00 20.00     0.042 C 
HETATM    5  N8  UNL     1     -33.837   7.290   6.205  1.00 20.00    -0.196 NA
ENDROOT
BRANCH   4   6
HETATM    6  C6  UNL     1     -33.154   6.011   3.024  1.00 20.00     0.023 C 
BRANCH   6   7
HETATM    7  C5  UNL     1     -32.982   7.459   2.545  1.00 20.00    -0.003 C 
HETATM    8  C2  UNL     1     -31.686   8.062   3.070  1.00 20.00     0.005 C 
ENDBRANCH   6   7
ENDBRANCH   4   6
TORSDOF 2
ENDMDL
MODEL 2
REMARK VINA RESULT:      -4.6      1.594      2.223
REMARK  2 active torsions:
REMARK  status: ('A' for Active; 'I' for Inactive)
REMARK    1  A    between atoms: C5_5  and  C6_6 
REMARK    2  A    between atoms: C6_6  and  C7_7 
ROOT
HETATM    1  C1  UNL     1     -34.151   4.604   4.247  1.00 20.00     0.068 C 
HETATM    2  C3  UNL     1     -33.981   6.831   5.286  1.00 20.00     0.031 C 
HETATM    3  C4  UNL     1     -35.622   6.397   3.451  1.00 20.00     0.031 C 
HETATM    4  C7  UNL     1     -34.213   6.060   3.978  1.00 20.00     0.042 C 
HETATM    5  N8  UNL     1     -34.102   3.465   4.458  1.00 20.00    -0.196 NA
ENDROOT
BRANCH   4   6
HETATM    6  C6  UNL     1     -33.178   6.449   2.891  1.00 20.00     0.023 C 
BRANCH   6   7
HETATM    7  C5  UNL     1     -32.288   7.653   3.232  1.00 20.00    -0.003 C 
HETATM    8  C2  UNL     1     -31.993   8.488   1.993  1.00 20.00     0.005 C 
ENDBRANCH   6   7
ENDBRANCH   4   6
TORSDOF 2
ENDMDL
MODEL 3
REMARK VINA RESULT:      -4.5      1.872      2.427
REMARK  2 active torsions:
REMARK  status: ('A' for Active; 'I' for Inactive)
REMARK    1  A    between atoms: C5_5  and  C6_6 
REMARK    2  A    between atoms: C6_6  and  C7_7 
ROOT
HETATM    1  C1  UNL     1     -33.522   4.986   3.254  1.00 20.00     0.068 C 
HETATM    2  C3  UNL     1     -34.475   5.063   5.523  1.00 20.00     0.031 C 
HETATM    3  C4  UNL     1     -35.682   6.095   3.592  1.00 20.00     0.031 C 
HETATM    4  C7  UNL     1     -34.292   5.825   4.201  1.00 20.00     0.042 C 
HETATM    5  N8  UNL     1     -32.918   4.329   2.512  1.00 20.00    -0.196 NA
ENDROOT
BRANCH   4   6
HETATM    6  C6  UNL     1     -33.579   7.185   4.416  1.00 20.00     0.023 C 
BRANCH   6   7
HETATM    7  C5  UNL     1     -32.969   7.812   3.155  1.00 20.00    -0.003 C 
HETATM    8  C2  UNL     1     -31.524   8.231   3.392  1.00 20.00     0.005 C 
ENDBRANCH   6   7
ENDBRANCH   4   6
TORSDOF 2
ENDMDL
MODEL 4
REMARK VINA RESULT:      -4.2      1.679      3.083
REMARK  2 active torsions:
REMARK  status: ('A' for Active; 'I' for Inactive)
REMARK    1  A    between atoms: C5_5  and  C6_6 
REMARK    2  A    between atoms: C6_6  and  C7_7 
ROOT
HETATM    1  C1  UNL     1     -32.731   7.119   2.965  1.00 20.00     0.068 C 
HETATM    2  C3  UNL     1     -33.031   4.676   2.863  1.00 20.00     0.031 C 
HETATM    3  C4  UNL     1     -34.417   6.197   1.443  1.00 20.00     0.031 C 
HETATM    4  C7  UNL     1     -33.736   6.040   2.817  1.00 20.00     0.042 C 
HETATM    5  N8  UNL     1     -31.943   7.963   3.081  1.00 20.00    -0.196 NA
ENDROOT
BRANCH   4   6
HETATM    6  C6  UNL     1     -34.821   6.164   3.918  1.00 20.00     0.023 C 
BRANCH   6   7
HETATM    7  C5  UNL     1     -34.346   5.856   5.345  1.00 20.00    -0.003 C 
HETATM    8  C2  UNL     1     -33.919   7.125   6.069  1.00 20.00     0.005 C 
ENDBRANCH   6   7
ENDBRANCH   4   6
TORSDOF 2
ENDMDL
MODEL 5
REMARK VINA RESULT:      -4.1      2.088      3.586
REMARK  2 active torsions:
REMARK  status: ('A' for Active; 'I' for Inactive)
REMARK    1  A    between atoms: C5_5  and  C6_6 
REMARK    2  A    between atoms: C6_6  and  C7_7 
ROOT
HETATM    1  C1  UNL     1     -32.886   6.016   2.798  1.00 20.00     0.068 C 
HETATM    2  C3  UNL     1     -33.173   8.269   1.846  1.00 20.00     0.031 C 
HETATM    3  C4  UNL     1     -31.571   7.867   3.722  1.00 20.00     0.031 C 
HETATM    4  C7  UNL     1     -32.934   7.460   3.129  1.00 20.00     0.042 C 
HETATM    5  N8  UNL     1     -32.849   4.886   2.538  1.00 20.00    -0.196 NA
ENDROOT
BRANCH   4   6
HETATM    6  C6  UNL     1     -34.031   7.730   4.192  1.00 20.00     0.023 C 
BRANCH   6   7
HETATM    7  C5  UNL     1     -33.738   7.176   5.593  1.00 20.00    -0.003 C 
HETATM    8  C2  UNL     1     -34.497   5.880   5.843  1.00 20.00     0.005 C 
ENDBRANCH   6   7
ENDBRANCH   4   6
TORSDOF 2
ENDMDL
MODEL 6
REMARK VINA RESULT:      -4.1      2.421      3.872
REMARK  2 active torsions:
REMARK  status: ('A' for Active; 'I' for Inactive)
REMARK    1  A    between atoms: C5_5  and  C6_6 
REMARK    2  A    between atoms: C6_6  and  C7_7 
ROOT
HETATM    1  C1  UNL     1     -32.798   8.478   1.881  1.00 20.00     0.068 C 
HETATM    2  C3  UNL     1     -31.378   8.032   3.843  1.00 20.00     0.031 C 
HETATM    3  C4  UNL     1     -32.490   6.160   2.616  1.00 20.00     0.031 C 
HETATM    4  C7  UNL     1     -32.646   7.621   3.081  1.00 20.00     0.042 C 
HETATM    5  N8  UNL     1     -32.916   9.150   0.943  1.00 20.00    -0.196 NA
ENDROOT
BRANCH   4   6
HETATM    6  C6  UNL     1     -33.911   7.719   3.973  1.00 20.00     0.023 C 
BRANCH   6   7
HETATM    7  C5  UNL     1     -33.726   7.258   5.426  1.00 20.00    -0.003 C 
HETATM    8  C2  UNL     1     -34.460   5.950   5.685  1.00 20.00     0.005 C 
ENDBRANCH   6   7
ENDBRANCH   4   6
TORSDOF 2
ENDMDL
MODEL 7
REMARK VINA RESULT:      -4.0     11.731     12.323
REMARK  2 active torsions:
REMARK  status: ('A' for Active; 'I' for Inactive)
REMARK    1  A    between atoms: C5_5  and  C6_6 
REMARK    2  A    between atoms: C6_6  and  C7_7 
ROOT
HETATM    1  C1  UNL     1     -35.266  13.856  -4.918  1.00 20.00     0.068 C 
HETATM    2  C3  UNL     1     -34.380  15.963  -5.835  1.00 20.00     0.031 C 
HETATM    3  C4  UNL     1     -32.987  14.538  -4.326  1.00 20.00     0.031 C 
HETATM    4  C7  UNL     1     -34.418  15.032  -4.614  1.00 20.00     0.042 C 
HETATM    5  N8  UNL     1     -35.930  12.935  -5.158  1.00 20.00    -0.196 NA
ENDROOT
BRANCH   4   6
HETATM    6  C6  UNL     1     -34.947  15.762  -3.352  1.00 20.00     0.023 C 
BRANCH   6   7
HETATM    7  C5  UNL     1     -33.928  16.659  -2.636  1.00 20.00    -0.003 C 
HETATM    8  C2  UNL     1     -34.471  17.154  -1.302  1.00 20.00     0.005 C 
ENDBRANCH   6   7
ENDBRANCH   4   6
TORSDOF 2
ENDMDL
MODEL 8
REMARK VINA RESULT:      -3.9      1.726      2.849
REMARK  2 active torsions:
REMARK  status: ('A' for Active; 'I' for Inactive)
REMARK    1  A    between atoms: C5_5  and  C6_6 
REMARK    2  A    between atoms: C6_6  and  C7_7 
ROOT
HETATM    1  C1  UNL     1     -33.383   7.421   4.550  1.00 20.00     0.068 C 
HETATM    2  C3  UNL     1     -32.685   6.033   2.639  1.00 20.00     0.031 C 
HETATM    3  C4  UNL     1     -31.248   7.910   3.451  1.00 20.00     0.031 C 
HETATM    4  C7  UNL     1     -32.702   7.449   3.234  1.00 20.00     0.042 C 
HETATM    5  N8  UNL     1     -33.917   7.398   5.580  1.00 20.00    -0.196 NA
ENDROOT
BRANCH   4   6
HETATM    6  C6  UNL     1     -33.402   8.460   2.290  1.00 20.00     0.023 C 
BRANCH   6   7
HETATM    7  C5  UNL     1     -32.460   9.356   1.474  1.00 20.00    -0.003 C 
HETATM    8  C2  UNL     1     -32.912   9.452   0.023  1.00 20.00     0.005 C 
ENDBRANCH   6   7
ENDBRANCH   4   6
TORSDOF 2
ENDMDL
MODEL 9
REMARK VINA RESULT:      -3.8      2.229      3.290
REMARK  2 active torsions:
REMARK  status: ('A' for Active; 'I' for Inactive)
REMARK    1  A    between atoms: C5_5  and  C6_6 
REMARK    2  A    between atoms: C6_6  and  C7_7 
ROOT
HETATM    1  C1  UNL     1     -32.878   5.980   2.862  1.00 20.00     0.068 C 
HETATM    2  C3  UNL     1     -31.506   7.840   3.714  1.00 20.00     0.031 C 
HETATM    3  C4  UNL     1     -33.927   7.656   4.312  1.00 20.00     0.031 C 
HETATM    4  C7  UNL     1     -32.891   7.424   3.194  1.00 20.00     0.042 C 
HETATM    5  N8  UNL     1     -32.867   4.849   2.602  1.00 20.00    -0.196 NA
ENDROOT
BRANCH   4   6
HETATM    6  C6  UNL     1     -33.312   8.255   1.955  1.00 20.00     0.023 C 
BRANCH   6   7
HETATM    7  C5  UNL     1     -32.165   8.955   1.213  1.00 20.00    -0.003 C 
HETATM    8  C2  UNL     1     -32.565  10.357   0.777  1.00 20.00     0.005 C 
ENDBRANCH   6   7
ENDBRANCH   4   6
TORSDOF 2
ENDMDL
