MODEL 1
REMARK VINA RESULT:      -4.2      0.000      0.000
REMARK  2 active torsions:
REMARK  status: ('A' for Active; 'I' for Inactive)
REMARK    1  A    between atoms: C5_5  and  O8_8 
REMARK    2  A    between atoms: C6_6  and  O8_8 
ROOT
HETATM    1  C1  UNL     1     -34.035   6.615   5.307  1.00 20.00     0.097 C 
HETATM    2  C3  UNL     1     -34.268   4.289   4.533  1.00 20.00     0.062 C 
HETATM    3  C4  UNL     1     -35.516   6.155   3.394  1.00 20.00     0.062 C 
HETATM    4  C6  UNL     1     -34.231   5.762   4.124  1.00 20.00     0.141 C 
HETATM    5  N7  UNL     1     -33.880   7.289   6.238  1.00 20.00    -0.194 NA
ENDROOT
BRANCH   4   6
HETATM    6  O8  UNL     1     -33.131   5.956   3.235  1.00 20.00    -0.367 OA
BRANCH   6   7
HETATM    7  C5  UNL     1     -33.142   7.262   2.680  1.00 20.00     0.165 C 
HETATM    8  C2  UNL     1     -31.815   7.932   2.969  1.00 20.00     0.033 C 
ENDBRANCH   6   7
ENDBRANCH   4   6
TORSDOF 2
ENDMDL
MODEL 2
REMARK VINA RESULT:      -3.9      1.586      2.214
REMARK  2 active torsions:
REMARK  status: ('A' for Active; 'I' for Inactive)
REMARK    1  A    between atoms: C5_5  and  O8_8 
REMARK    2  A    between atoms: C6_6  and  O8_8 
ROOT
HETATM    1  C1  UNL     1     -34.117   4.630   4.233  1.00 20.00     0.097 C 
HETATM    2  C3  UNL     1     -35.479   6.455   3.296  1.00 20.00     0.062 C 
HETATM    3  C4  UNL     1     -33.908   6.878   5.215  1.00 20.00     0.062 C 
HETATM    4  C6  UNL     1     -34.146   6.073   3.939  1.00 20.00     0.141 C 
HETATM    5  N7  UNL     1     -34.093   3.494   4.465  1.00 20.00    -0.194 NA
ENDROOT
BRANCH   4   6
HETATM    6  O8  UNL     1     -33.098   6.369   3.016  1.00 20.00    -0.367 OA
BRANCH   6   7
HETATM    7  C5  UNL     1     -32.430   7.571   3.365  1.00 20.00     0.165 C 
HETATM    8  C2  UNL     1     -32.057   8.313   2.098  1.00 20.00     0.033 C 
ENDBRANCH   6   7
ENDBRANCH   4   6
TORSDOF 2
ENDMDL
MODEL 3
REMARK VINA RESULT:      -3.7      1.956      2.755
REMARK  2 active torsions:
REMARK  status: ('A' for Active; 'I' for Inactive)
REMARK    1  A    between atoms: C5_5  and  O8_8 
REMARK    2  A    between atoms: C6_6  and  O8_8 
ROOT
HETATM    1  C1  UNL     1     -33.371   7.428   4.650  1.00 20.00     0.097 C 
HETATM    2  C3  UNL     1     -31.235   7.944   3.541  1.00 20.00     0.062 C 
HETATM    3  C4  UNL     1     -32.722   6.107   2.677  1.00 20.00     0.062 C 
HETATM    4  C6  UNL     1     -32.678   7.477   3.352  1.00 20.00     0.141 C 
HETATM    5  N7  UNL     1     -33.919   7.389   5.672  1.00 20.00    -0.194 NA
ENDROOT
BRANCH   4   6
HETATM    6  O8  UNL     1     -33.351   8.416   2.513  1.00 20.00    -0.367 OA
BRANCH   6   7
HETATM    7  C5  UNL     1     -32.515   8.849   1.451  1.00 20.00     0.165 C 
HETATM    8  C2  UNL     1     -32.836  10.292   1.128  1.00 20.00     0.033 C 
ENDBRANCH   6   7
ENDBRANCH   4   6
TORSDOF 2
ENDMDL
MODEL 4
REMARK VINA RESULT:      -3.7      2.436      3.261
REMARK  2 active torsions:
REMARK  status: ('A' for Active; 'I' for Inactive)
REMARK    1  A    between atoms: C5_5  and  O8_8 
REMARK    2  A    between atoms: C6_6  and  O8_8 
ROOT
HETATM    1  C1  UNL     1     -32.878   6.082   2.914  1.00 20.00     0.097 C 
HETATM    2  C3  UNL     1     -33.648   7.635   4.662  1.00 20.00     0.062 C 
HETATM    3  C4  UNL     1     -31.376   7.903   3.613  1.00 20.00     0.062 C 
HETATM    4  C6  UNL     1     -32.826   7.476   3.384  1.00 20.00     0.141 C 
HETATM    5  N7  UNL     1     -32.919   4.983   2.543  1.00 20.00    -0.194 NA
ENDROOT
BRANCH   4   6
HETATM    6  O8  UNL     1     -33.389   8.316   2.377  1.00 20.00    -0.367 OA
BRANCH   6   7
HETATM    7  C5  UNL     1     -32.387   8.824   1.510  1.00 20.00     0.165 C 
HETATM    8  C2  UNL     1     -32.783  10.214   1.060  1.00 20.00     0.033 C 
ENDBRANCH   6   7
ENDBRANCH   4   6
TORSDOF 2
ENDMDL
MODEL 5
REMARK VINA RESULT:      -3.6      2.571      3.819
REMARK  2 active torsions:
REMARK  status: ('A' for Active; 'I' for Inactive)
REMARK    1  A    between atoms: C5_5  and  O8_8 
REMARK    2  A    between atoms: C6_6  and  O8_8 
ROOT
HETATM    1  C1  UNL     1     -32.685   8.546   1.678  1.00 20.00     0.097 C 
HETATM    2  C3  UNL     1     -32.568   6.236   2.522  1.00 20.00     0.062 C 
HETATM    3  C4  UNL     1     -31.352   8.099   3.699  1.00 20.00     0.062 C 
HETATM    4  C6  UNL     1     -32.593   7.718   2.892  1.00 20.00     0.141 C 
HETATM    5  N7  UNL     1     -32.758   9.199   0.722  1.00 20.00    -0.194 NA
ENDROOT
BRANCH   4   6
HETATM    6  O8  UNL     1     -33.747   7.963   3.697  1.00 20.00    -0.367 OA
BRANCH   6   7
HETATM    7  C5  UNL     1     -34.111   6.809   4.439  1.00 20.00     0.165 C 
HETATM    8  C2  UNL     1     -33.926   7.094   5.914  1.00 20.00     0.033 C 
ENDBRANCH   6   7
ENDBRANCH   4   6
TORSDOF 2
ENDMDL
MODEL 6
REMARK VINA RESULT:      -3.6     11.852     12.356
REMARK  2 active torsions:
REMARK  status: ('A' for Active; 'I' for Inactive)
REMARK    1  A    between atoms: C5_5  and  O8_8 
REMARK    2  A    between atoms: C6_6  and  O8_8 
ROOT
HETATM    1  C1  UNL     1     -35.318  13.818  -4.953  1.00 20.00     0.097 C 
HETATM    2  C3  UNL     1     -33.069  14.651  -4.393  1.00 20.00     0.062 C 
HETATM    3  C4  UNL     1     -34.711  16.108  -5.624  1.00 20.00     0.062 C 
HETATM    4  C6  UNL     1     -34.544  15.012  -4.573  1.00 20.00     0.141 C 
HETATM    5  N7  UNL     1     -35.929  12.878  -5.252  1.00 20.00    -0.194 NA
ENDROOT
BRANCH   4   6
HETATM    6  O8  UNL     1     -35.044  15.500  -3.328  1.00 20.00    -0.367 OA
BRANCH   6   7
HETATM    7  C5  UNL     1     -34.180  16.481  -2.776  1.00 20.00     0.165 C 
HETATM    8  C2  UNL     1     -34.776  16.988  -1.479  1.00 20.00     0.033 C 
ENDBRANCH   6   7
ENDBRANCH   4   6
TORSDOF 2
ENDMDL
MODEL 7
REMARK VINA RESULT:      -3.6      2.288      3.477
REMARK  2 active torsions:
REMARK  status: ('A' for Active; 'I' for Inactive)
REMARK    1  A    between atoms: C5_5  and  O8_8 
REMARK    2  A    between atoms: C6_6  and  O8_8 
ROOT
HETATM    1  C1  UNL     1     -32.894   6.019   2.810  1.00 20.00     0.097 C 
HETATM    2  C3  UNL     1     -31.613   7.888   3.773  1.00 20.00     0.062 C 
HETATM    3  C4  UNL     1     -33.215   8.272   1.870  1.00 20.00     0.062 C 
HETATM    4  C6  UNL     1     -32.931   7.455   3.131  1.00 20.00     0.141 C 
HETATM    5  N7  UNL     1     -32.866   4.887   2.557  1.00 20.00    -0.194 NA
ENDROOT
BRANCH   4   6
HETATM    6  O8  UNL     1     -33.986   7.685   4.064  1.00 20.00    -0.367 OA
BRANCH   6   7
HETATM    7  C5  UNL     1     -33.598   7.320   5.380  1.00 20.00     0.165 C 
HETATM    8  C2  UNL     1     -34.448   6.155   5.838  1.00 20.00     0.033 C 
ENDBRANCH   6   7
ENDBRANCH   4   6
TORSDOF 2
ENDMDL
MODEL 8
REMARK VINA RESULT:      -3.4     12.142     12.983
REMARK  2 active torsions:
REMARK  status: ('A' for Active; 'I' for Inactive)
REMARK    1  A    between atoms: C5_5  and  O8_8 
REMARK    2  A    between atoms: C6_6  and  O8_8 
ROOT
HETATM    1  C1  UNL     1     -35.334  13.845  -4.978  1.00 20.00     0.097 C 
HETATM    2  C3  UNL     1     -35.188  15.681  -3.344  1.00 20.00     0.062 C 
HETATM    3  C4  UNL     1     -33.112  14.740  -4.411  1.00 20.00     0.062 C 
HETATM    4  C6  UNL     1     -34.593  15.062  -4.609  1.00 20.00     0.141 C 
HETATM    5  N7  UNL     1     -35.918  12.885  -5.270  1.00 20.00    -0.194 NA
ENDROOT
BRANCH   4   6
HETATM    6  O8  UNL     1     -34.711  16.006  -5.673  1.00 20.00    -0.367 OA
BRANCH   6   7
HETATM    7  C5  UNL     1     -33.585  15.954  -6.535  1.00 20.00     0.165 C 
HETATM    8  C2  UNL     1     -34.043  15.543  -7.918  1.00 20.00     0.033 C 
ENDBRANCH   6   7
ENDBRANCH   4   6
TORSDOF 2
ENDMDL
MODEL 9
REMARK VINA RESULT:      -3.4      2.016      3.289
REMARK  2 active torsions:
REMARK  status: ('A' for Active; 'I' for Inactive)
REMARK    1  A    between atoms: C5_5  and  O8_8 
REMARK    2  A    between atoms: C6_6  and  O8_8 
ROOT
HETATM    1  C1  UNL     1     -32.823   7.471   2.534  1.00 20.00     0.097 C 
HETATM    2  C3  UNL     1     -35.003   6.390   2.909  1.00 20.00     0.062 C 
HETATM    3  C4  UNL     1     -32.907   5.015   2.687  1.00 20.00     0.062 C 
HETATM    4  C6  UNL     1     -33.500   6.334   3.180  1.00 20.00     0.141 C 
HETATM    5  N7  UNL     1     -32.289   8.366   2.025  1.00 20.00    -0.194 NA
ENDROOT
BRANCH   4   6
HETATM    6  O8  UNL     1     -33.292   6.424   4.590  1.00 20.00    -0.367 OA
BRANCH   6   7
HETATM    7  C5  UNL     1     -34.510   6.269   5.301  1.00 20.00     0.165 C 
HETATM    8  C2  UNL     1     -34.556   4.881   5.903  1.00 20.00     0.033 C 
ENDBRANCH   6   7
ENDBRANCH   4   6
TORSDOF 2
ENDMDL
