MODEL 1
REMARK VINA RESULT:      -4.7      0.000      0.000
REMARK  1 active torsions:
REMARK  status: ('A' for Active; 'I' for Inactive)
REMARK    1  A    between atoms: C1_1  and  C5_5 
ROOT
HETATM    1  C2  UNL     1     -32.925  15.510  -5.177  1.00 20.00     0.006 C 
HETATM    2  C3  UNL     1     -33.926  16.400  -5.933  1.00 20.00     0.011 C 
HETATM    3  C4  UNL     1     -34.790  14.182  -4.225  1.00 20.00     0.017 C 
HETATM    4  C5  UNL     1     -35.789  15.041  -5.031  1.00 20.00     0.056 C 
HETATM    5  C6  UNL     1     -33.674  15.191  -3.864  1.00 20.00    -0.005 C 
HETATM    6  C7  UNL     1     -35.145  16.464  -4.960  1.00 20.00    -0.027 C 
HETATM    7  C8  UNL     1     -34.448  16.498  -3.562  1.00 20.00    -0.036 C 
HETATM    8  C9  UNL     1     -36.074  17.617  -5.295  1.00 20.00     0.016 C 
HETATM    9  C10 UNL     1     -33.544  17.726  -3.316  1.00 20.00     0.016 C 
HETATM   10  C11 UNL     1     -35.362  16.405  -2.326  1.00 20.00     0.016 C 
ENDROOT
BRANCH   4  11
HETATM   11  C1  UNL     1     -37.192  14.908  -4.518  1.00 20.00     0.236 C 
HETATM   12  O12 UNL     1     -37.949  14.001  -4.848  1.00 20.00    -0.306 OA
ENDBRANCH   4  11
TORSDOF 1
ENDMDL
MODEL 2
REMARK VINA RESULT:      -4.6      1.642      2.594
REMARK  1 active torsions:
REMARK  status: ('A' for Active; 'I' for Inactive)
REMARK    1  A    between atoms: C1_1  and  C5_5 
ROOT
HETATM    1  C2  UNL     1     -33.970  16.173  -3.461  1.00 20.00     0.006 C 
HETATM    2  C3  UNL     1     -33.322  16.532  -4.809  1.00 20.00     0.011 C 
HETATM    3  C4  UNL     1     -34.773  14.022  -4.395  1.00 20.00     0.017 C 
HETATM    4  C5  UNL     1     -34.073  14.360  -5.728  1.00 20.00     0.056 C 
HETATM    5  C6  UNL     1     -35.241  15.406  -3.885  1.00 20.00    -0.005 C 
HETATM    6  C7  UNL     1     -34.301  15.902  -5.849  1.00 20.00    -0.027 C 
HETATM    7  C8  UNL     1     -35.691  16.136  -5.175  1.00 20.00    -0.036 C 
HETATM    8  C9  UNL     1     -34.101  16.484  -7.237  1.00 20.00     0.016 C 
HETATM    9  C10 UNL     1     -36.070  17.619  -4.964  1.00 20.00     0.016 C 
HETATM   10  C11 UNL     1     -36.913  15.492  -5.858  1.00 20.00     0.016 C 
ENDROOT
BRANCH   4  11
HETATM   11  C1  UNL     1     -34.573  13.513  -6.861  1.00 20.00     0.236 C 
HETATM   12  O12 UNL     1     -35.103  12.418  -6.703  1.00 20.00    -0.306 OA
ENDBRANCH   4  11
TORSDOF 1
ENDMDL
MODEL 3
REMARK VINA RESULT:      -4.6      1.284      2.684
REMARK  1 active torsions:
REMARK  status: ('A' for Active; 'I' for Inactive)
REMARK    1  A    between atoms: C1_1  and  C5_5 
ROOT
HETATM    1  C2  UNL     1     -34.979  17.102  -2.433  1.00 20.00     0.006 C 
HETATM    2  C3  UNL     1     -33.742  16.310  -2.890  1.00 20.00     0.011 C 
HETATM    3  C4  UNL     1     -36.452  15.596  -3.739  1.00 20.00     0.017 C 
HETATM    4  C5  UNL     1     -35.214  14.769  -4.149  1.00 20.00     0.056 C 
HETATM    5  C6  UNL     1     -35.902  17.040  -3.670  1.00 20.00    -0.005 C 
HETATM    6  C7  UNL     1     -34.121  15.871  -4.339  1.00 20.00    -0.027 C 
HETATM    7  C8  UNL     1     -34.915  17.111  -4.862  1.00 20.00    -0.036 C 
HETATM    8  C9  UNL     1     -32.901  15.447  -5.137  1.00 20.00     0.016 C 
HETATM    9  C10 UNL     1     -34.101  18.422  -4.932  1.00 20.00     0.016 C 
HETATM   10  C11 UNL     1     -35.594  16.974  -6.238  1.00 20.00     0.016 C 
ENDROOT
BRANCH   4  11
HETATM   11  C1  UNL     1     -35.490  13.882  -5.327  1.00 20.00     0.236 C 
HETATM   12  O12 UNL     1     -35.945  12.748  -5.226  1.00 20.00    -0.306 OA
ENDBRANCH   4  11
TORSDOF 1
ENDMDL
MODEL 4
REMARK VINA RESULT:      -4.5      1.567      2.371
REMARK  1 active torsions:
REMARK  status: ('A' for Active; 'I' for Inactive)
REMARK    1  A    between atoms: C1_1  and  C5_5 
ROOT
HETATM    1  C2  UNL     1     -34.053  17.370  -6.288  1.00 20.00     0.006 C 
HETATM    2  C3  UNL     1     -35.467  17.171  -5.716  1.00 20.00     0.011 C 
HETATM    3  C4  UNL     1     -33.950  14.978  -6.928  1.00 20.00     0.017 C 
HETATM    4  C5  UNL     1     -35.392  14.794  -6.406  1.00 20.00     0.056 C 
HETATM    5  C6  UNL     1     -33.358  16.030  -5.961  1.00 20.00    -0.005 C 
HETATM    6  C7  UNL     1     -35.413  15.719  -5.145  1.00 20.00    -0.027 C 
HETATM    7  C8  UNL     1     -33.957  15.639  -4.587  1.00 20.00    -0.036 C 
HETATM    8  C9  UNL     1     -36.543  15.457  -4.164  1.00 20.00     0.016 C 
HETATM    9  C10 UNL     1     -33.639  16.637  -3.451  1.00 20.00     0.016 C 
HETATM   10  C11 UNL     1     -33.482  14.266  -4.073  1.00 20.00     0.016 C 
ENDROOT
BRANCH   4  11
HETATM   11  C1  UNL     1     -35.736  13.351  -6.189  1.00 20.00     0.236 C 
HETATM   12  O12 UNL     1     -35.103  12.424  -6.684  1.00 20.00    -0.306 OA
ENDBRANCH   4  11
TORSDOF 1
ENDMDL
MODEL 5
REMARK VINA RESULT:      -4.4      1.587      2.226
REMARK  1 active torsions:
REMARK  status: ('A' for Active; 'I' for Inactive)
REMARK    1  A    between atoms: C1_1  and  C5_5 
ROOT
HETATM    1  C2  UNL     1     -34.148  14.827  -7.908  1.00 20.00     0.006 C 
HETATM    2  C3  UNL     1     -34.716  16.211  -7.549  1.00 20.00     0.011 C 
HETATM    3  C4  UNL     1     -36.032  13.725  -6.733  1.00 20.00     0.017 C 
HETATM    4  C5  UNL     1     -36.630  15.114  -6.425  1.00 20.00     0.056 C 
HETATM    5  C6  UNL     1     -34.507  13.977  -6.669  1.00 20.00    -0.005 C 
HETATM    6  C7  UNL     1     -35.355  15.975  -6.144  1.00 20.00    -0.027 C 
HETATM    7  C8  UNL     1     -34.352  14.972  -5.491  1.00 20.00    -0.036 C 
HETATM    8  C9  UNL     1     -35.600  17.281  -5.410  1.00 20.00     0.016 C 
HETATM    9  C10 UNL     1     -32.917  15.514  -5.305  1.00 20.00     0.016 C 
HETATM   10  C11 UNL     1     -34.750  14.380  -4.125  1.00 20.00     0.016 C 
ENDROOT
BRANCH   4  11
HETATM   11  C1  UNL     1     -37.660  15.059  -5.336  1.00 20.00     0.236 C 
HETATM   12  O12 UNL     1     -38.149  14.013  -4.922  1.00 20.00    -0.306 OA
ENDBRANCH   4  11
TORSDOF 1
ENDMDL
MODEL 6
REMARK VINA RESULT:      -4.4      1.819      3.008
REMARK  1 active torsions:
REMARK  status: ('A' for Active; 'I' for Inactive)
REMARK    1  A    between atoms: C1_1  and  C5_5 
ROOT
HETATM    1  C2  UNL     1     -33.245  14.635  -4.440  1.00 20.00     0.006 C 
HETATM    2  C3  UNL     1     -34.692  14.177  -4.189  1.00 20.00     0.011 C 
HETATM    3  C4  UNL     1     -33.596  16.612  -2.986  1.00 20.00     0.017 C 
HETATM    4  C5  UNL     1     -35.028  16.118  -2.689  1.00 20.00     0.056 C 
HETATM    5  C6  UNL     1     -33.371  16.175  -4.453  1.00 20.00    -0.005 C 
HETATM    6  C7  UNL     1     -35.471  15.524  -4.066  1.00 20.00    -0.027 C 
HETATM    7  C8  UNL     1     -34.747  16.420  -5.121  1.00 20.00    -0.036 C 
HETATM    8  C9  UNL     1     -36.967  15.327  -4.240  1.00 20.00     0.016 C 
HETATM    9  C10 UNL     1     -34.842  15.916  -6.578  1.00 20.00     0.016 C 
HETATM   10  C11 UNL     1     -35.155  17.905  -5.170  1.00 20.00     0.016 C 
ENDROOT
BRANCH   4  11
HETATM   11  C1  UNL     1     -35.892  17.199  -2.112  1.00 20.00     0.236 C 
HETATM   12  O12 UNL     1     -36.000  17.407  -0.908  1.00 20.00    -0.306 OA
ENDBRANCH   4  11
TORSDOF 1
ENDMDL
MODEL 7
REMARK VINA RESULT:      -4.3      2.073      3.397
REMARK  1 active torsions:
REMARK  status: ('A' for Active; 'I' for Inactive)
REMARK    1  A    between atoms: C1_1  and  C5_5 
ROOT
HETATM    1  C2  UNL     1     -35.970  13.570  -5.273  1.00 20.00     0.006 C 
HETATM    2  C3  UNL     1     -36.732  14.739  -4.624  1.00 20.00     0.011 C 
HETATM    3  C4  UNL     1     -33.856  14.344  -4.234  1.00 20.00     0.017 C 
HETATM    4  C5  UNL     1     -34.634  15.481  -3.539  1.00 20.00     0.056 C 
HETATM    5  C6  UNL     1     -34.591  14.192  -5.587  1.00 20.00    -0.005 C 
HETATM    6  C7  UNL     1     -35.678  15.891  -4.628  1.00 20.00    -0.027 C 
HETATM    7  C8  UNL     1     -34.934  15.651  -5.980  1.00 20.00    -0.036 C 
HETATM    8  C9  UNL     1     -36.328  17.249  -4.430  1.00 20.00     0.016 C 
HETATM    9  C10 UNL     1     -35.818  15.776  -7.241  1.00 20.00     0.016 C 
HETATM   10  C11 UNL     1     -33.696  16.525  -6.258  1.00 20.00     0.016 C 
ENDROOT
BRANCH   4  11
HETATM   11  C1  UNL     1     -33.726  16.563  -3.034  1.00 20.00     0.236 C 
HETATM   12  O12 UNL     1     -33.697  16.929  -1.864  1.00 20.00    -0.306 OA
ENDBRANCH   4  11
TORSDOF 1
ENDMDL
MODEL 8
REMARK VINA RESULT:      -4.2      1.734      3.213
REMARK  1 active torsions:
REMARK  status: ('A' for Active; 'I' for Inactive)
REMARK    1  A    between atoms: C1_1  and  C5_5 
ROOT
HETATM    1  C2  UNL     1     -36.375  16.765  -4.300  1.00 20.00     0.006 C 
HETATM    2  C3  UNL     1     -35.430  15.710  -3.700  1.00 20.00     0.011 C 
HETATM    3  C4  UNL     1     -36.508  15.475  -6.413  1.00 20.00     0.017 C 
HETATM    4  C5  UNL     1     -35.605  14.390  -5.787  1.00 20.00     0.056 C 
HETATM    5  C6  UNL     1     -35.967  16.784  -5.789  1.00 20.00    -0.005 C 
HETATM    6  C7  UNL     1     -34.602  15.236  -4.936  1.00 20.00    -0.027 C 
HETATM    7  C8  UNL     1     -34.434  16.560  -5.747  1.00 20.00    -0.036 C 
HETATM    8  C9  UNL     1     -33.332  14.516  -4.521  1.00 20.00     0.016 C 
HETATM    9  C10 UNL     1     -33.652  17.675  -5.018  1.00 20.00     0.016 C 
HETATM   10  C11 UNL     1     -33.786  16.446  -7.140  1.00 20.00     0.016 C 
ENDROOT
BRANCH   4  11
HETATM   11  C1  UNL     1     -35.012  13.481  -6.822  1.00 20.00     0.236 C 
HETATM   12  O12 UNL     1     -35.058  12.257  -6.752  1.00 20.00    -0.306 OA
ENDBRANCH   4  11
TORSDOF 1
ENDMDL
MODEL 9
REMARK VINA RESULT:      -4.1      1.983      3.518
REMARK  1 active torsions:
REMARK  status: ('A' for Active; 'I' for Inactive)
REMARK    1  A    between atoms: C1_1  and  C5_5 
ROOT
HETATM    1  C2  UNL     1     -34.481  16.248  -7.525  1.00 20.00     0.006 C 
HETATM    2  C3  UNL     1     -33.366  15.918  -6.519  1.00 20.00     0.011 C 
HETATM    3  C4  UNL     1     -36.082  16.604  -5.666  1.00 20.00     0.017 C 
HETATM    4  C5  UNL     1     -34.946  16.329  -4.658  1.00 20.00     0.056 C 
HETATM    5  C6  UNL     1     -35.740  15.664  -6.846  1.00 20.00    -0.005 C 
HETATM    6  C7  UNL     1     -34.134  15.196  -5.367  1.00 20.00    -0.027 C 
HETATM    7  C8  UNL     1     -35.214  14.384  -6.149  1.00 20.00    -0.036 C 
HETATM    8  C9  UNL     1     -33.194  14.410  -4.470  1.00 20.00     0.016 C 
HETATM    9  C10 UNL     1     -34.652  13.321  -7.120  1.00 20.00     0.016 C 
HETATM   10  C11 UNL     1     -36.279  13.653  -5.310  1.00 20.00     0.016 C 
ENDROOT
BRANCH   4  11
HETATM   11  C1  UNL     1     -35.468  16.027  -3.285  1.00 20.00     0.236 C 
HETATM   12  O12 UNL     1     -34.916  16.400  -2.255  1.00 20.00    -0.306 OA
ENDBRANCH   4  11
TORSDOF 1
ENDMDL
