MODEL 1
REMARK VINA RESULT:      -5.1      0.000      0.000
REMARK  0 active torsions:
REMARK  status: ('A' for Active; 'I' for Inactive)
ROOT
HETATM    1  C1  UNL     1     -33.323   5.145   2.682  1.00 20.00     0.064 C 
HETATM    2  C2  UNL     1     -34.588   5.831   5.446  1.00 20.00     0.128 C 
HETATM    3  C3  UNL     1     -33.843   7.098   5.798  1.00 20.00     0.078 C 
HETATM    4  C4  UNL     1     -35.253   5.796   4.086  1.00 20.00     0.097 C 
HETATM    5  C5  UNL     1     -32.876   7.475   4.686  1.00 20.00     0.009 C 
HETATM    6  C6  UNL     1     -33.569   7.529   3.323  1.00 20.00     0.020 C 
HETATM    7  C7  UNL     1     -34.291   6.219   2.975  1.00 20.00     0.100 C 
HETATM    8  N8  UNL     1     -32.561   4.299   2.451  1.00 20.00    -0.197 NA
HETATM    9  O9  UNL     1     -34.732   4.920   6.260  1.00 20.00    -0.298 OA
ENDROOT
TORSDOF 0
ENDMDL
MODEL 2
REMARK VINA RESULT:      -4.9      1.597      1.906
REMARK  0 active torsions:
REMARK  status: ('A' for Active; 'I' for Inactive)
ROOT
HETATM    1  C1  UNL     1     -32.867   7.103   3.107  1.00 20.00     0.064 C 
HETATM    2  C2  UNL     1     -34.548   4.869   4.484  1.00 20.00     0.128 C 
HETATM    3  C3  UNL     1     -34.470   5.299   5.930  1.00 20.00     0.078 C 
HETATM    4  C4  UNL     1     -35.005   5.918   3.491  1.00 20.00     0.097 C 
HETATM    5  C5  UNL     1     -33.672   6.587   6.062  1.00 20.00     0.009 C 
HETATM    6  C6  UNL     1     -34.192   7.678   5.124  1.00 20.00     0.020 C 
HETATM    7  C7  UNL     1     -34.231   7.227   3.657  1.00 20.00     0.100 C 
HETATM    8  N8  UNL     1     -31.794   7.006   2.674  1.00 20.00    -0.197 NA
HETATM    9  O9  UNL     1     -34.349   3.702   4.145  1.00 20.00    -0.298 OA
ENDROOT
TORSDOF 0
ENDMDL
MODEL 3
REMARK VINA RESULT:      -4.5      1.703      2.127
REMARK  0 active torsions:
REMARK  status: ('A' for Active; 'I' for Inactive)
ROOT
HETATM    1  C1  UNL     1     -34.361   4.538   4.117  1.00 20.00     0.064 C 
HETATM    2  C2  UNL     1     -33.407   7.386   4.949  1.00 20.00     0.128 C 
HETATM    3  C3  UNL     1     -32.486   7.729   3.800  1.00 20.00     0.078 C 
HETATM    4  C4  UNL     1     -34.803   6.928   4.581  1.00 20.00     0.097 C 
HETATM    5  C5  UNL     1     -32.460   6.600   2.781  1.00 20.00     0.009 C 
HETATM    6  C6  UNL     1     -33.870   6.198   2.340  1.00 20.00     0.020 C 
HETATM    7  C7  UNL     1     -34.775   5.824   3.523  1.00 20.00     0.100 C 
HETATM    8  N8  UNL     1     -34.036   3.526   4.585  1.00 20.00    -0.197 NA
HETATM    9  O9  UNL     1     -33.073   7.567   6.119  1.00 20.00    -0.298 OA
ENDROOT
TORSDOF 0
ENDMDL
MODEL 4
REMARK VINA RESULT:      -4.2      2.564      3.611
REMARK  0 active torsions:
REMARK  status: ('A' for Active; 'I' for Inactive)
ROOT
HETATM    1  C1  UNL     1     -34.202   6.657   5.583  1.00 20.00     0.064 C 
HETATM    2  C2  UNL     1     -33.402   6.207   2.605  1.00 20.00     0.128 C 
HETATM    3  C3  UNL     1     -33.034   4.741   2.623  1.00 20.00     0.078 C 
HETATM    4  C4  UNL     1     -34.758   6.569   3.173  1.00 20.00     0.097 C 
HETATM    5  C5  UNL     1     -33.238   4.157   4.012  1.00 20.00     0.009 C 
HETATM    6  C6  UNL     1     -34.641   4.444   4.550  1.00 20.00     0.020 C 
HETATM    7  C7  UNL     1     -34.978   5.942   4.551  1.00 20.00     0.100 C 
HETATM    8  N8  UNL     1     -33.592   7.220   6.394  1.00 20.00    -0.197 NA
HETATM    9  O9  UNL     1     -32.683   7.046   2.064  1.00 20.00    -0.298 OA
ENDROOT
TORSDOF 0
ENDMDL
MODEL 5
REMARK VINA RESULT:      -4.0     12.431     13.470
REMARK  0 active torsions:
REMARK  status: ('A' for Active; 'I' for Inactive)
ROOT
HETATM    1  C1  UNL     1     -35.201  13.717  -4.688  1.00 20.00     0.064 C 
HETATM    2  C2  UNL     1     -33.747  16.194  -5.898  1.00 20.00     0.128 C 
HETATM    3  C3  UNL     1     -34.549  17.324  -5.294  1.00 20.00     0.078 C 
HETATM    4  C4  UNL     1     -33.205  15.160  -4.932  1.00 20.00     0.097 C 
HETATM    5  C5  UNL     1     -35.638  16.777  -4.383  1.00 20.00     0.009 C 
HETATM    6  C6  UNL     1     -35.076  15.801  -3.347  1.00 20.00     0.020 C 
HETATM    7  C7  UNL     1     -34.292  14.646  -3.987  1.00 20.00     0.100 C 
HETATM    8  N8  UNL     1     -35.914  12.986  -5.239  1.00 20.00    -0.197 NA
HETATM    9  O9  UNL     1     -33.462  16.172  -7.095  1.00 20.00    -0.298 OA
ENDROOT
TORSDOF 0
ENDMDL
MODEL 6
REMARK VINA RESULT:      -3.9     11.991     13.096
REMARK  0 active torsions:
REMARK  status: ('A' for Active; 'I' for Inactive)
ROOT
HETATM    1  C1  UNL     1     -35.170  16.145  -3.298  1.00 20.00     0.064 C 
HETATM    2  C2  UNL     1     -35.068  13.719  -5.251  1.00 20.00     0.128 C 
HETATM    3  C3  UNL     1     -34.701  14.406  -6.546  1.00 20.00     0.078 C 
HETATM    4  C4  UNL     1     -34.180  14.009  -4.059  1.00 20.00     0.097 C 
HETATM    5  C5  UNL     1     -34.522  15.901  -6.325  1.00 20.00     0.009 C 
HETATM    6  C6  UNL     1     -33.552  16.194  -5.178  1.00 20.00     0.020 C 
HETATM    7  C7  UNL     1     -33.965  15.511  -3.867  1.00 20.00     0.100 C 
HETATM    8  N8  UNL     1     -36.117  16.644  -2.849  1.00 20.00    -0.197 NA
HETATM    9  O9  UNL     1     -35.976  12.891  -5.194  1.00 20.00    -0.298 OA
ENDROOT
TORSDOF 0
ENDMDL
MODEL 7
REMARK VINA RESULT:      -3.9     12.269     13.213
REMARK  0 active torsions:
REMARK  status: ('A' for Active; 'I' for Inactive)
ROOT
HETATM    1  C1  UNL     1     -36.704  14.702  -4.692  1.00 20.00     0.064 C 
HETATM    2  C2  UNL     1     -33.592  14.789  -4.538  1.00 20.00     0.128 C 
HETATM    3  C3  UNL     1     -33.266  15.639  -5.744  1.00 20.00     0.078 C 
HETATM    4  C4  UNL     1     -34.602  15.359  -3.563  1.00 20.00     0.097 C 
HETATM    5  C5  UNL     1     -34.542  16.080  -6.445  1.00 20.00     0.009 C 
HETATM    6  C6  UNL     1     -35.526  16.740  -5.477  1.00 20.00     0.020 C 
HETATM    7  C7  UNL     1     -35.864  15.843  -4.277  1.00 20.00     0.100 C 
HETATM    8  N8  UNL     1     -37.364  13.805  -5.017  1.00 20.00    -0.197 NA
HETATM    9  O9  UNL     1     -32.994  13.738  -4.307  1.00 20.00    -0.298 OA
ENDROOT
TORSDOF 0
ENDMDL
MODEL 8
REMARK VINA RESULT:      -3.9     12.512     13.569
REMARK  0 active torsions:
REMARK  status: ('A' for Active; 'I' for Inactive)
ROOT
HETATM    1  C1  UNL     1     -37.175  14.652  -4.642  1.00 20.00     0.064 C 
HETATM    2  C2  UNL     1     -34.447  14.167  -6.069  1.00 20.00     0.128 C 
HETATM    3  C3  UNL     1     -34.259  15.484  -6.787  1.00 20.00     0.078 C 
HETATM    4  C4  UNL     1     -34.735  14.244  -4.584  1.00 20.00     0.097 C 
HETATM    5  C5  UNL     1     -35.413  16.427  -6.484  1.00 20.00     0.009 C 
HETATM    6  C6  UNL     1     -35.646  16.576  -4.979  1.00 20.00     0.020 C 
HETATM    7  C7  UNL     1     -35.865  15.228  -4.278  1.00 20.00     0.100 C 
HETATM    8  N8  UNL     1     -38.205  14.198  -4.927  1.00 20.00    -0.197 NA
HETATM    9  O9  UNL     1     -34.274  13.090  -6.639  1.00 20.00    -0.298 OA
ENDROOT
TORSDOF 0
ENDMDL
MODEL 9
REMARK VINA RESULT:      -3.8     12.387     13.065
REMARK  0 active torsions:
REMARK  status: ('A' for Active; 'I' for Inactive)
ROOT
HETATM    1  C1  UNL     1     -34.759  13.730  -6.577  1.00 20.00     0.064 C 
HETATM    2  C2  UNL     1     -35.873  15.622  -4.366  1.00 20.00     0.128 C 
HETATM    3  C3  UNL     1     -34.657  15.783  -3.484  1.00 20.00     0.078 C 
HETATM    4  C4  UNL     1     -35.680  15.905  -5.841  1.00 20.00     0.097 C 
HETATM    5  C5  UNL     1     -33.476  15.013  -4.057  1.00 20.00     0.009 C 
HETATM    6  C6  UNL     1     -33.223  15.368  -5.524  1.00 20.00     0.020 C 
HETATM    7  C7  UNL     1     -34.465  15.166  -6.403  1.00 20.00     0.100 C 
HETATM    8  N8  UNL     1     -34.991  12.601  -6.715  1.00 20.00    -0.197 NA
HETATM    9  O9  UNL     1     -36.983  15.374  -3.896  1.00 20.00    -0.298 OA
ENDROOT
TORSDOF 0
ENDMDL
