MODEL 1
REMARK VINA RESULT:      -5.2      0.000      0.000
REMARK  4 active torsions:
REMARK  status: ('A' for Active; 'I' for Inactive)
REMARK    1  A    between atoms: C2_2  and  C7_7 
REMARK    2  A    between atoms: C5_5  and  C6_6 
REMARK    3  A    between atoms: C6_6  and  C7_7 
REMARK    4  A    between atoms: C7_7  and  O8_8 
ROOT
HETATM    1  C7  UNL     1     -33.410   6.832   3.310  1.00 20.00     0.146 C 
ENDROOT
BRANCH   1   2
HETATM    2  C2  UNL     1     -33.953   6.563   4.698  1.00 20.00    -0.065 C 
HETATM    3  C1  UNL     1     -33.667   7.377   5.726  1.00 20.00     0.016 C 
HETATM    4  C3  UNL     1     -34.814   5.346   4.896  1.00 20.00     0.045 C 
ENDBRANCH   1   2
BRANCH   1   5
HETATM    5  C6  UNL     1     -32.232   7.819   3.267  1.00 20.00     0.036 C 
BRANCH   5   6
HETATM    6  C5  UNL     1     -31.821   8.293   1.870  1.00 20.00    -0.002 C 
HETATM    7  C4  UNL     1     -32.531   9.565   1.432  1.00 20.00     0.005 C 
ENDBRANCH   5   6
ENDBRANCH   1   5
BRANCH   1   8
HETATM    8  O8  UNL     1     -32.976   5.589   2.753  1.00 20.00    -0.391 OA
HETATM    9  H22 UNL     1     -33.778   5.114   2.489  1.00 20.00     0.210 HD
ENDBRANCH   1   8
TORSDOF 4
ENDMDL
MODEL 2
REMARK VINA RESULT:      -5.2      0.919      1.015
REMARK  4 active torsions:
REMARK  status: ('A' for Active; 'I' for Inactive)
REMARK    1  A    between atoms: C2_2  and  C7_7 
REMARK    2  A    between atoms: C5_5  and  C6_6 
REMARK    3  A    between atoms: C6_6  and  C7_7 
REMARK    4  A    between atoms: C7_7  and  O8_8 
ROOT
HETATM    1  C7  UNL     1     -34.050   6.856   3.655  1.00 20.00     0.146 C 
ENDROOT
BRANCH   1   2
HETATM    2  C2  UNL     1     -34.076   6.543   5.136  1.00 20.00    -0.065 C 
HETATM    3  C1  UNL     1     -33.628   7.427   6.041  1.00 20.00     0.016 C 
HETATM    4  C3  UNL     1     -34.609   5.204   5.566  1.00 20.00     0.045 C 
ENDBRANCH   1   2
BRANCH   1   5
HETATM    5  C6  UNL     1     -32.654   6.791   3.015  1.00 20.00     0.036 C 
BRANCH   5   6
HETATM    6  C5  UNL     1     -31.930   8.133   2.875  1.00 20.00    -0.002 C 
HETATM    7  C4  UNL     1     -32.182   8.818   1.540  1.00 20.00     0.005 C 
ENDBRANCH   5   6
ENDBRANCH   1   5
BRANCH   1   8
HETATM    8  O8  UNL     1     -34.896   5.916   2.987  1.00 20.00    -0.391 OA
HETATM    9  H22 UNL     1     -34.701   5.999   2.042  1.00 20.00     0.210 HD
ENDBRANCH   1   8
TORSDOF 4
ENDMDL
MODEL 3
REMARK VINA RESULT:      -5.1      1.410      1.445
REMARK  4 active torsions:
REMARK  status: ('A' for Active; 'I' for Inactive)
REMARK    1  A    between atoms: C2_2  and  C7_7 
REMARK    2  A    between atoms: C5_5  and  C6_6 
REMARK    3  A    between atoms: C6_6  and  C7_7 
REMARK    4  A    between atoms: C7_7  and  O8_8 
ROOT
HETATM    1  C7  UNL     1     -32.535   7.327   3.547  1.00 20.00     0.146 C 
ENDROOT
BRANCH   1   2
HETATM    2  C2  UNL     1     -33.681   6.922   4.449  1.00 20.00    -0.065 C 
HETATM    3  C1  UNL     1     -33.724   7.308   5.734  1.00 20.00     0.016 C 
HETATM    4  C3  UNL     1     -34.768   6.061   3.867  1.00 20.00     0.045 C 
ENDBRANCH   1   2
BRANCH   1   5
HETATM    5  C6  UNL     1     -32.966   7.973   2.220  1.00 20.00     0.036 C 
BRANCH   5   6
HETATM    6  C5  UNL     1     -31.973   8.972   1.621  1.00 20.00    -0.002 C 
HETATM    7  C4  UNL     1     -32.639  10.211   1.042  1.00 20.00     0.005 C 
ENDBRANCH   5   6
ENDBRANCH   1   5
BRANCH   1   8
HETATM    8  O8  UNL     1     -31.719   8.263   4.258  1.00 20.00    -0.391 OA
HETATM    9  H22 UNL     1     -30.807   7.950   4.169  1.00 20.00     0.210 HD
ENDBRANCH   1   8
TORSDOF 4
ENDMDL
MODEL 4
REMARK VINA RESULT:      -5.0      1.386      1.837
REMARK  4 active torsions:
REMARK  status: ('A' for Active; 'I' for Inactive)
REMARK    1  A    between atoms: C2_2  and  C7_7 
REMARK    2  A    between atoms: C5_5  and  C6_6 
REMARK    3  A    between atoms: C6_6  and  C7_7 
REMARK    4  A    between atoms: C7_7  and  O8_8 
ROOT
HETATM    1  C7  UNL     1     -32.529   7.281   3.406  1.00 20.00     0.146 C 
ENDROOT
BRANCH   1   2
HETATM    2  C2  UNL     1     -33.692   6.847   4.273  1.00 20.00    -0.065 C 
HETATM    3  C1  UNL     1     -34.687   6.097   3.774  1.00 20.00     0.016 C 
HETATM    4  C3  UNL     1     -33.709   7.292   5.709  1.00 20.00     0.045 C 
ENDBRANCH   1   2
BRANCH   1   5
HETATM    5  C6  UNL     1     -32.934   7.954   2.085  1.00 20.00     0.036 C 
BRANCH   5   6
HETATM    6  C5  UNL     1     -31.953   9.001   1.551  1.00 20.00    -0.002 C 
HETATM    7  C4  UNL     1     -32.631  10.279   1.081  1.00 20.00     0.005 C 
ENDBRANCH   5   6
ENDBRANCH   1   5
BRANCH   1   8
HETATM    8  O8  UNL     1     -31.736   8.206   4.157  1.00 20.00    -0.391 OA
HETATM    9  H22 UNL     1     -31.843   7.962   5.088  1.00 20.00     0.210 HD
ENDBRANCH   1   8
TORSDOF 4
ENDMDL
MODEL 5
REMARK VINA RESULT:      -4.7      1.804      4.139
REMARK  4 active torsions:
REMARK  status: ('A' for Active; 'I' for Inactive)
REMARK    1  A    between atoms: C2_2  and  C7_7 
REMARK    2  A    between atoms: C5_5  and  C6_6 
REMARK    3  A    between atoms: C6_6  and  C7_7 
REMARK    4  A    between atoms: C7_7  and  O8_8 
ROOT
HETATM    1  C7  UNL     1     -33.741   7.454   4.591  1.00 20.00     0.146 C 
ENDROOT
BRANCH   1   2
HETATM    2  C2  UNL     1     -32.722   7.358   3.476  1.00 20.00    -0.065 C 
HETATM    3  C1  UNL     1     -32.853   6.456   2.491  1.00 20.00     0.016 C 
HETATM    4  C3  UNL     1     -31.546   8.296   3.510  1.00 20.00     0.045 C 
ENDBRANCH   1   2
BRANCH   1   5
HETATM    5  C6  UNL     1     -34.838   6.378   4.547  1.00 20.00     0.036 C 
BRANCH   5   6
HETATM    6  C5  UNL     1     -34.586   5.145   5.418  1.00 20.00    -0.002 C 
HETATM    7  C4  UNL     1     -34.178   3.916   4.620  1.00 20.00     0.005 C 
ENDBRANCH   5   6
ENDBRANCH   1   5
BRANCH   1   8
HETATM    8  O8  UNL     1     -33.049   7.341   5.838  1.00 20.00    -0.391 OA
HETATM    9  H22 UNL     1     -33.682   6.961   6.466  1.00 20.00     0.210 HD
ENDBRANCH   1   8
TORSDOF 4
ENDMDL
MODEL 6
REMARK VINA RESULT:      -4.6      1.505      4.250
REMARK  4 active torsions:
REMARK  status: ('A' for Active; 'I' for Inactive)
REMARK    1  A    between atoms: C2_2  and  C7_7 
REMARK    2  A    between atoms: C5_5  and  C6_6 
REMARK    3  A    between atoms: C6_6  and  C7_7 
REMARK    4  A    between atoms: C7_7  and  O8_8 
ROOT
HETATM    1  C7  UNL     1     -32.440   8.343   2.812  1.00 20.00     0.146 C 
ENDROOT
BRANCH   1   2
HETATM    2  C2  UNL     1     -32.214   9.033   1.484  1.00 20.00    -0.065 C 
HETATM    3  C1  UNL     1     -31.410   8.497   0.551  1.00 20.00     0.016 C 
HETATM    4  C3  UNL     1     -32.907  10.345   1.242  1.00 20.00     0.045 C 
ENDBRANCH   1   2
BRANCH   1   5
HETATM    5  C6  UNL     1     -32.899   6.880   2.701  1.00 20.00     0.036 C 
BRANCH   5   6
HETATM    6  C5  UNL     1     -34.098   6.498   3.573  1.00 20.00    -0.002 C 
HETATM    7  C4  UNL     1     -33.937   6.901   5.030  1.00 20.00     0.005 C 
ENDBRANCH   5   6
ENDBRANCH   1   5
BRANCH   1   8
HETATM    8  O8  UNL     1     -31.212   8.374   3.545  1.00 20.00    -0.391 OA
HETATM    9  H22 UNL     1     -30.671   7.649   3.200  1.00 20.00     0.210 HD
ENDBRANCH   1   8
TORSDOF 4
ENDMDL
MODEL 7
REMARK VINA RESULT:      -4.6      0.914      3.859
REMARK  4 active torsions:
REMARK  status: ('A' for Active; 'I' for Inactive)
REMARK    1  A    between atoms: C2_2  and  C7_7 
REMARK    2  A    between atoms: C5_5  and  C6_6 
REMARK    3  A    between atoms: C6_6  and  C7_7 
REMARK    4  A    between atoms: C7_7  and  O8_8 
ROOT
HETATM    1  C7  UNL     1     -33.195   6.672   3.405  1.00 20.00     0.146 C 
ENDROOT
BRANCH   1   2
HETATM    2  C2  UNL     1     -32.313   7.811   2.938  1.00 20.00    -0.065 C 
HETATM    3  C1  UNL     1     -31.321   8.282   3.710  1.00 20.00     0.016 C 
HETATM    4  C3  UNL     1     -32.588   8.409   1.586  1.00 20.00     0.045 C 
ENDBRANCH   1   2
BRANCH   1   5
HETATM    5  C6  UNL     1     -34.206   7.055   4.498  1.00 20.00     0.036 C 
BRANCH   5   6
HETATM    6  C5  UNL     1     -34.266   6.108   5.700  1.00 20.00    -0.002 C 
HETATM    7  C4  UNL     1     -34.538   4.662   5.315  1.00 20.00     0.005 C 
ENDBRANCH   5   6
ENDBRANCH   1   5
BRANCH   1   8
HETATM    8  O8  UNL     1     -33.920   6.179   2.274  1.00 20.00    -0.391 OA
HETATM    9  H22 UNL     1     -34.043   6.933   1.680  1.00 20.00     0.210 HD
ENDBRANCH   1   8
TORSDOF 4
ENDMDL
MODEL 8
REMARK VINA RESULT:      -4.1      1.741      4.366
REMARK  4 active torsions:
REMARK  status: ('A' for Active; 'I' for Inactive)
REMARK    1  A    between atoms: C2_2  and  C7_7 
REMARK    2  A    between atoms: C5_5  and  C6_6 
REMARK    3  A    between atoms: C6_6  and  C7_7 
REMARK    4  A    between atoms: C7_7  and  O8_8 
ROOT
HETATM    1  C7  UNL     1     -31.792   8.753   1.591  1.00 20.00     0.146 C 
ENDROOT
BRANCH   1   2
HETATM    2  C2  UNL     1     -32.654   9.844   0.994  1.00 20.00    -0.065 C 
HETATM    3  C1  UNL     1     -32.921  10.969   1.675  1.00 20.00     0.016 C 
HETATM    4  C3  UNL     1     -33.216   9.625  -0.384  1.00 20.00     0.045 C 
ENDBRANCH   1   2
BRANCH   1   5
HETATM    5  C6  UNL     1     -32.578   7.611   2.256  1.00 20.00     0.036 C 
BRANCH   5   6
HETATM    6  C5  UNL     1     -32.553   7.599   3.787  1.00 20.00    -0.002 C 
HETATM    7  C4  UNL     1     -33.815   7.018   4.406  1.00 20.00     0.005 C 
ENDBRANCH   5   6
ENDBRANCH   1   5
BRANCH   1   8
HETATM    8  O8  UNL     1     -30.989   8.197   0.546  1.00 20.00    -0.391 OA
HETATM    9  H22 UNL     1     -31.270   7.275   0.449  1.00 20.00     0.210 HD
ENDBRANCH   1   8
TORSDOF 4
ENDMDL
MODEL 9
REMARK VINA RESULT:      -4.1      1.853      2.531
REMARK  4 active torsions:
REMARK  status: ('A' for Active; 'I' for Inactive)
REMARK    1  A    between atoms: C2_2  and  C7_7 
REMARK    2  A    between atoms: C5_5  and  C6_6 
REMARK    3  A    between atoms: C6_6  and  C7_7 
REMARK    4  A    between atoms: C7_7  and  O8_8 
ROOT
HETATM    1  C7  UNL     1     -34.485   6.893   3.936  1.00 20.00     0.146 C 
ENDROOT
BRANCH   1   2
HETATM    2  C2  UNL     1     -34.189   6.525   5.375  1.00 20.00    -0.065 C 
HETATM    3  C1  UNL     1     -33.596   7.397   6.206  1.00 20.00     0.016 C 
HETATM    4  C3  UNL     1     -34.566   5.148   5.845  1.00 20.00     0.045 C 
ENDBRANCH   1   2
BRANCH   1   5
HETATM    5  C6  UNL     1     -33.277   6.792   2.991  1.00 20.00     0.036 C 
BRANCH   5   6
HETATM    6  C5  UNL     1     -33.290   5.600   2.031  1.00 20.00    -0.002 C 
HETATM    7  C4  UNL     1     -32.794   4.310   2.665  1.00 20.00     0.005 C 
ENDBRANCH   5   6
ENDBRANCH   1   5
BRANCH   1   8
HETATM    8  O8  UNL     1     -35.507   6.016   3.455  1.00 20.00    -0.391 OA
HETATM    9  H22 UNL     1     -35.063   5.195   3.199  1.00 20.00     0.210 HD
ENDBRANCH   1   8
TORSDOF 4
ENDMDL
