MODEL 1
REMARK VINA RESULT:      -4.2      0.000      0.000
REMARK  2 active torsions:
REMARK  status: ('A' for Active; 'I' for Inactive)
REMARK    1  A    between atoms: C2_2  and  C6_6 
REMARK    2  A    between atoms: C6_6  and  N7_7 
ROOT
HETATM    1  C3  UNL     1     -34.606   5.427   5.526  1.00 20.00     0.060 C 
HETATM    2  C4  UNL     1     -34.091   6.872   5.378  1.00 20.00     0.274 C 
HETATM    3  C5  UNL     1     -34.497   5.383   3.988  1.00 20.00     0.274 C 
HETATM    4  N7  UNL     1     -33.466   6.447   4.099  1.00 20.00     0.093 N 
ENDROOT
BRANCH   4   5
HETATM    5  C6  UNL     1     -33.662   7.461   3.069  1.00 20.00     0.317 C 
BRANCH   5   6
HETATM    6  C2  UNL     1     -32.391   8.182   2.717  1.00 20.00     0.007 C 
HETATM    7  C1  UNL     1     -31.296   8.158   3.490  1.00 20.00     0.029 C 
HETATM    8 BR8  UNL     1     -32.397   9.074   1.069  1.00 20.00    -0.055 Br
ENDBRANCH   5   6
ENDBRANCH   4   5
TORSDOF 2
ENDMDL
MODEL 2
REMARK VINA RESULT:      -4.2      2.617      4.440
REMARK  2 active torsions:
REMARK  status: ('A' for Active; 'I' for Inactive)
REMARK    1  A    between atoms: C2_2  and  C6_6 
REMARK    2  A    between atoms: C6_6  and  N7_7 
ROOT
HETATM    1  C3  UNL     1     -32.183   9.927   0.320  1.00 20.00     0.060 C 
HETATM    2  C4  UNL     1     -32.928   9.882   1.668  1.00 20.00     0.274 C 
HETATM    3  C5  UNL     1     -31.487   8.647   0.824  1.00 20.00     0.274 C 
HETATM    4  N7  UNL     1     -32.681   8.416   1.679  1.00 20.00     0.093 N 
ENDROOT
BRANCH   4   5
HETATM    5  C6  UNL     1     -32.280   7.973   3.010  1.00 20.00     0.317 C 
BRANCH   5   6
HETATM    6  C2  UNL     1     -33.249   6.991   3.609  1.00 20.00     0.007 C 
HETATM    7  C1  UNL     1     -33.774   5.967   2.921  1.00 20.00     0.029 C 
HETATM    8 BR8  UNL     1     -33.632   7.238   5.426  1.00 20.00    -0.055 Br
ENDBRANCH   5   6
ENDBRANCH   4   5
TORSDOF 2
ENDMDL
MODEL 3
REMARK VINA RESULT:      -4.0      2.177      4.021
REMARK  2 active torsions:
REMARK  status: ('A' for Active; 'I' for Inactive)
REMARK    1  A    between atoms: C2_2  and  C6_6 
REMARK    2  A    between atoms: C6_6  and  N7_7 
ROOT
HETATM    1  C3  UNL     1     -31.735   9.104   2.062  1.00 20.00     0.060 C 
HETATM    2  C4  UNL     1     -31.597   8.078   3.204  1.00 20.00     0.274 C 
HETATM    3  C5  UNL     1     -32.924   8.232   1.614  1.00 20.00     0.274 C 
HETATM    4  N7  UNL     1     -33.044   7.788   3.026  1.00 20.00     0.093 N 
ENDROOT
BRANCH   4   5
HETATM    5  C6  UNL     1     -33.291   6.352   3.094  1.00 20.00     0.317 C 
BRANCH   5   6
HETATM    6  C2  UNL     1     -34.028   5.949   4.340  1.00 20.00     0.007 C 
HETATM    7  C1  UNL     1     -34.717   4.803   4.447  1.00 20.00     0.029 C 
HETATM    8 BR8  UNL     1     -33.868   7.124   5.791  1.00 20.00    -0.055 Br
ENDBRANCH   5   6
ENDBRANCH   4   5
TORSDOF 2
ENDMDL
MODEL 4
REMARK VINA RESULT:      -3.9      1.470      2.049
REMARK  2 active torsions:
REMARK  status: ('A' for Active; 'I' for Inactive)
REMARK    1  A    between atoms: C2_2  and  C6_6 
REMARK    2  A    between atoms: C6_6  and  N7_7 
ROOT
HETATM    1  C3  UNL     1     -34.217   5.856   4.074  1.00 20.00     0.060 C 
HETATM    2  C4  UNL     1     -33.248   5.935   2.879  1.00 20.00     0.274 C 
HETATM    3  C5  UNL     1     -33.694   7.267   4.409  1.00 20.00     0.274 C 
HETATM    4  N7  UNL     1     -33.368   7.414   2.966  1.00 20.00     0.093 N 
ENDROOT
BRANCH   4   5
HETATM    5  C6  UNL     1     -32.064   8.046   2.798  1.00 20.00     0.317 C 
BRANCH   5   6
HETATM    6  C2  UNL     1     -31.968   8.845   1.527  1.00 20.00     0.007 C 
HETATM    7  C1  UNL     1     -31.287   8.428   0.450  1.00 20.00     0.029 C 
HETATM    8 BR8  UNL     1     -32.932  10.451   1.507  1.00 20.00    -0.055 Br
ENDBRANCH   5   6
ENDBRANCH   4   5
TORSDOF 2
ENDMDL
MODEL 5
REMARK VINA RESULT:      -3.8      2.572      4.208
REMARK  2 active torsions:
REMARK  status: ('A' for Active; 'I' for Inactive)
REMARK    1  A    between atoms: C2_2  and  C6_6 
REMARK    2  A    between atoms: C6_6  and  N7_7 
ROOT
HETATM    1  C3  UNL     1     -31.718   9.115   1.772  1.00 20.00     0.060 C 
HETATM    2  C4  UNL     1     -33.111   8.456   1.776  1.00 20.00     0.274 C 
HETATM    3  C5  UNL     1     -31.528   8.387   3.118  1.00 20.00     0.274 C 
HETATM    4  N7  UNL     1     -32.535   7.401   2.650  1.00 20.00     0.093 N 
ENDROOT
BRANCH   4   5
HETATM    5  C6  UNL     1     -33.461   7.062   3.725  1.00 20.00     0.317 C 
BRANCH   5   6
HETATM    6  C2  UNL     1     -33.784   5.595   3.770  1.00 20.00     0.007 C 
HETATM    7  C1  UNL     1     -33.403   4.731   2.819  1.00 20.00     0.029 C 
HETATM    8 BR8  UNL     1     -34.704   5.016   5.296  1.00 20.00    -0.055 Br
ENDBRANCH   5   6
ENDBRANCH   4   5
TORSDOF 2
ENDMDL
MODEL 6
REMARK VINA RESULT:      -3.2     10.969     11.535
REMARK  2 active torsions:
REMARK  status: ('A' for Active; 'I' for Inactive)
REMARK    1  A    between atoms: C2_2  and  C6_6 
REMARK    2  A    between atoms: C6_6  and  N7_7 
ROOT
HETATM    1  C3  UNL     1     -35.662  13.900  -4.988  1.00 20.00     0.060 C 
HETATM    2  C4  UNL     1     -35.886  15.391  -4.670  1.00 20.00     0.274 C 
HETATM    3  C5  UNL     1     -34.364  14.069  -4.173  1.00 20.00     0.274 C 
HETATM    4  N7  UNL     1     -35.031  15.195  -3.470  1.00 20.00     0.093 N 
ENDROOT
BRANCH   4   5
HETATM    5  C6  UNL     1     -34.111  16.314  -3.306  1.00 20.00     0.317 C 
BRANCH   5   6
HETATM    6  C2  UNL     1     -34.295  17.027  -1.994  1.00 20.00     0.007 C 
HETATM    7  C1  UNL     1     -35.404  16.918  -1.250  1.00 20.00     0.029 C 
HETATM    8 BR8  UNL     1     -32.828  18.035  -1.409  1.00 20.00    -0.055 Br
ENDBRANCH   5   6
ENDBRANCH   4   5
TORSDOF 2
ENDMDL
MODEL 7
REMARK VINA RESULT:      -3.1     11.666     12.311
REMARK  2 active torsions:
REMARK  status: ('A' for Active; 'I' for Inactive)
REMARK    1  A    between atoms: C2_2  and  C6_6 
REMARK    2  A    between atoms: C6_6  and  N7_7 
ROOT
HETATM    1  C3  UNL     1     -33.234  15.832  -5.975  1.00 20.00     0.060 C 
HETATM    2  C4  UNL     1     -33.160  15.115  -4.612  1.00 20.00     0.274 C 
HETATM    3  C5  UNL     1     -34.135  16.840  -5.234  1.00 20.00     0.274 C 
HETATM    4  N7  UNL     1     -33.450  16.429  -3.981  1.00 20.00     0.093 N 
ENDROOT
BRANCH   4   5
HETATM    5  C6  UNL     1     -34.413  16.277  -2.897  1.00 20.00     0.317 C 
BRANCH   5   6
HETATM    6  C2  UNL     1     -34.109  17.165  -1.723  1.00 20.00     0.007 C 
HETATM    7  C1  UNL     1     -32.938  17.799  -1.568  1.00 20.00     0.029 C 
HETATM    8 BR8  UNL     1     -35.511  17.403  -0.502  1.00 20.00    -0.055 Br
ENDBRANCH   5   6
ENDBRANCH   4   5
TORSDOF 2
ENDMDL
MODEL 8
REMARK VINA RESULT:      -3.1     11.450     11.920
REMARK  2 active torsions:
REMARK  status: ('A' for Active; 'I' for Inactive)
REMARK    1  A    between atoms: C2_2  and  C6_6 
REMARK    2  A    between atoms: C6_6  and  N7_7 
ROOT
HETATM    1  C3  UNL     1     -34.466  17.392  -0.845  1.00 20.00     0.060 C 
HETATM    2  C4  UNL     1     -33.278  17.666  -1.788  1.00 20.00     0.274 C 
HETATM    3  C5  UNL     1     -35.134  16.786  -2.096  1.00 20.00     0.274 C 
HETATM    4  N7  UNL     1     -33.767  16.538  -2.622  1.00 20.00     0.093 N 
ENDROOT
BRANCH   4   5
HETATM    5  C6  UNL     1     -33.693  16.878  -4.039  1.00 20.00     0.317 C 
BRANCH   5   6
HETATM    6  C2  UNL     1     -33.389  15.687  -4.905  1.00 20.00     0.007 C 
HETATM    7  C1  UNL     1     -32.995  14.504  -4.412  1.00 20.00     0.029 C 
HETATM    8 BR8  UNL     1     -33.668  15.930  -6.742  1.00 20.00    -0.055 Br
ENDBRANCH   5   6
ENDBRANCH   4   5
TORSDOF 2
ENDMDL
MODEL 9
REMARK VINA RESULT:      -3.1     11.518     11.959
REMARK  2 active torsions:
REMARK  status: ('A' for Active; 'I' for Inactive)
REMARK    1  A    between atoms: C2_2  and  C6_6 
REMARK    2  A    between atoms: C6_6  and  N7_7 
ROOT
HETATM    1  C3  UNL     1     -34.758  16.713  -2.014  1.00 20.00     0.060 C 
HETATM    2  C4  UNL     1     -33.752  16.304  -3.107  1.00 20.00     0.274 C 
HETATM    3  C5  UNL     1     -35.827  16.375  -3.073  1.00 20.00     0.274 C 
HETATM    4  N7  UNL     1     -34.829  15.463  -3.691  1.00 20.00     0.093 N 
ENDROOT
BRANCH   4   5
HETATM    5  C6  UNL     1     -34.849  15.590  -5.144  1.00 20.00     0.317 C 
BRANCH   5   6
HETATM    6  C2  UNL     1     -35.168  14.292  -5.834  1.00 20.00     0.007 C 
HETATM    7  C1  UNL     1     -36.011  13.382  -5.328  1.00 20.00     0.029 C 
HETATM    8 BR8  UNL     1     -34.362  14.047  -7.507  1.00 20.00    -0.055 Br
ENDBRANCH   5   6
ENDBRANCH   4   5
TORSDOF 2
ENDMDL
