MODEL 1
REMARK VINA RESULT:      -3.7      0.000      0.000
REMARK  0 active torsions:
REMARK  status: ('A' for Active; 'I' for Inactive)
ROOT
HETATM    1  C1  UNL     1     -33.955   6.684   5.237  1.00 20.00     0.080 C 
HETATM    2  C2  UNL     1     -35.717   6.092   3.612  1.00 20.00     0.043 C 
HETATM    3  C3  UNL     1     -34.407   4.298   4.799  1.00 20.00     0.043 C 
HETATM    4  C4  UNL     1     -34.368   5.708   4.216  1.00 20.00     0.099 C 
HETATM    5  N5  UNL     1     -33.632   7.454   6.043  1.00 20.00    -0.196 NA
HETATM    6 BR6  UNL     1     -33.036   5.719   2.762  1.00 20.00    -0.070 Br
ENDROOT
TORSDOF 0
ENDMDL
MODEL 2
REMARK VINA RESULT:      -3.5      1.337      1.880
REMARK  0 active torsions:
REMARK  status: ('A' for Active; 'I' for Inactive)
ROOT
HETATM    1  C1  UNL     1     -33.889   6.811   5.146  1.00 20.00     0.080 C 
HETATM    2  C2  UNL     1     -33.171   6.179   2.870  1.00 20.00     0.043 C 
HETATM    3  C3  UNL     1     -35.615   6.244   3.475  1.00 20.00     0.043 C 
HETATM    4  C4  UNL     1     -34.201   5.971   3.979  1.00 20.00     0.099 C 
HETATM    5  N5  UNL     1     -33.644   7.477   6.064  1.00 20.00    -0.196 NA
HETATM    6 BR6  UNL     1     -34.115   4.078   4.528  1.00 20.00    -0.070 Br
ENDROOT
TORSDOF 0
ENDMDL
MODEL 3
REMARK VINA RESULT:      -3.4      2.195      2.680
REMARK  0 active torsions:
REMARK  status: ('A' for Active; 'I' for Inactive)
ROOT
HETATM    1  C1  UNL     1     -33.273   6.411   3.242  1.00 20.00     0.080 C 
HETATM    2  C2  UNL     1     -34.063   4.310   4.268  1.00 20.00     0.043 C 
HETATM    3  C3  UNL     1     -35.696   6.108   3.601  1.00 20.00     0.043 C 
HETATM    4  C4  UNL     1     -34.291   5.813   4.119  1.00 20.00     0.099 C 
HETATM    5  N5  UNL     1     -32.471   6.881   2.547  1.00 20.00    -0.196 NA
HETATM    6 BR6  UNL     1     -34.131   6.624   5.910  1.00 20.00    -0.070 Br
ENDROOT
TORSDOF 0
ENDMDL
MODEL 4
REMARK VINA RESULT:      -3.4      1.932      2.191
REMARK  0 active torsions:
REMARK  status: ('A' for Active; 'I' for Inactive)
ROOT
HETATM    1  C1  UNL     1     -33.252   6.613   3.394  1.00 20.00     0.080 C 
HETATM    2  C2  UNL     1     -35.671   6.206   3.668  1.00 20.00     0.043 C 
HETATM    3  C3  UNL     1     -34.195   6.578   5.675  1.00 20.00     0.043 C 
HETATM    4  C4  UNL     1     -34.277   6.010   4.260  1.00 20.00     0.099 C 
HETATM    5  N5  UNL     1     -32.445   7.091   2.712  1.00 20.00    -0.196 NA
HETATM    6 BR6  UNL     1     -33.942   4.069   4.373  1.00 20.00    -0.070 Br
ENDROOT
TORSDOF 0
ENDMDL
MODEL 5
REMARK VINA RESULT:      -3.3      2.378      2.737
REMARK  0 active torsions:
REMARK  status: ('A' for Active; 'I' for Inactive)
ROOT
HETATM    1  C1  UNL     1     -34.128   4.591   4.208  1.00 20.00     0.080 C 
HETATM    2  C2  UNL     1     -35.611   6.415   3.457  1.00 20.00     0.043 C 
HETATM    3  C3  UNL     1     -33.148   6.461   2.931  1.00 20.00     0.043 C 
HETATM    4  C4  UNL     1     -34.212   6.034   3.938  1.00 20.00     0.099 C 
HETATM    5  N5  UNL     1     -34.062   3.452   4.418  1.00 20.00    -0.196 NA
HETATM    6 BR6  UNL     1     -33.872   7.009   5.619  1.00 20.00    -0.070 Br
ENDROOT
TORSDOF 0
ENDMDL
MODEL 6
REMARK VINA RESULT:      -3.3      1.888      2.590
REMARK  0 active torsions:
REMARK  status: ('A' for Active; 'I' for Inactive)
ROOT
HETATM    1  C1  UNL     1     -34.135   4.560   4.243  1.00 20.00     0.080 C 
HETATM    2  C2  UNL     1     -34.130   6.662   5.537  1.00 20.00     0.043 C 
HETATM    3  C3  UNL     1     -35.666   6.372   3.562  1.00 20.00     0.043 C 
HETATM    4  C4  UNL     1     -34.308   6.019   4.163  1.00 20.00     0.099 C 
HETATM    5  N5  UNL     1     -34.001   3.409   4.308  1.00 20.00    -0.196 NA
HETATM    6 BR6  UNL     1     -32.917   6.753   2.974  1.00 20.00    -0.070 Br
ENDROOT
TORSDOF 0
ENDMDL
MODEL 7
REMARK VINA RESULT:      -3.1     12.748     12.988
REMARK  0 active torsions:
REMARK  status: ('A' for Active; 'I' for Inactive)
ROOT
HETATM    1  C1  UNL     1     -35.251  13.794  -4.986  1.00 20.00     0.080 C 
HETATM    2  C2  UNL     1     -32.959  14.414  -4.313  1.00 20.00     0.043 C 
HETATM    3  C3  UNL     1     -34.940  15.739  -3.498  1.00 20.00     0.043 C 
HETATM    4  C4  UNL     1     -34.362  14.916  -4.647  1.00 20.00     0.099 C 
HETATM    5  N5  UNL     1     -35.952  12.908  -5.250  1.00 20.00    -0.196 NA
HETATM    6 BR6  UNL     1     -34.217  16.099  -6.218  1.00 20.00    -0.070 Br
ENDROOT
TORSDOF 0
ENDMDL
MODEL 8
REMARK VINA RESULT:      -3.1     12.524     13.030
REMARK  0 active torsions:
REMARK  status: ('A' for Active; 'I' for Inactive)
ROOT
HETATM    1  C1  UNL     1     -35.285  13.839  -5.025  1.00 20.00     0.080 C 
HETATM    2  C2  UNL     1     -34.414  15.928  -6.010  1.00 20.00     0.043 C 
HETATM    3  C3  UNL     1     -33.013  14.580  -4.408  1.00 20.00     0.043 C 
HETATM    4  C4  UNL     1     -34.427  15.010  -4.789  1.00 20.00     0.099 C 
HETATM    5  N5  UNL     1     -35.960  12.914  -5.214  1.00 20.00    -0.196 NA
HETATM    6 BR6  UNL     1     -35.169  16.037  -3.277  1.00 20.00    -0.070 Br
ENDROOT
TORSDOF 0
ENDMDL
MODEL 9
REMARK VINA RESULT:      -3.1      9.173      9.741
REMARK  0 active torsions:
REMARK  status: ('A' for Active; 'I' for Inactive)
ROOT
HETATM    1  C1  UNL     1     -42.478   7.481  -0.779  1.00 20.00     0.080 C 
HETATM    2  C2  UNL     1     -42.641   6.052   1.227  1.00 20.00     0.043 C 
HETATM    3  C3  UNL     1     -40.706   5.812  -0.367  1.00 20.00     0.043 C 
HETATM    4  C4  UNL     1     -42.189   6.147  -0.229  1.00 20.00     0.099 C 
HETATM    5  N5  UNL     1     -42.703   8.534  -1.211  1.00 20.00    -0.196 NA
HETATM    6 BR6  UNL     1     -43.205   4.808  -1.260  1.00 20.00    -0.070 Br
ENDROOT
TORSDOF 0
ENDMDL
