MODEL 1
REMARK VINA RESULT:      -4.1      0.000      0.000
REMARK  4 active torsions:
REMARK  status: ('A' for Active; 'I' for Inactive)
REMARK    1  A    between atoms: C2_2  and  C3_3 
REMARK    2  A    between atoms: C2_2  and  C4_4 
REMARK    3  A    between atoms: C3_3  and  C5_5 
REMARK    4  A    between atoms: C4_4  and  S6_6 
ROOT
HETATM    1  C2  UNL     1     -33.488   7.388   5.302  1.00 20.00     0.011 C 
ENDROOT
BRANCH   1   2
HETATM    2  C3  UNL     1     -34.352   6.206   5.755  1.00 20.00     0.016 C 
BRANCH   2   3
HETATM    3  C5  UNL     1     -34.971   5.430   4.597  1.00 20.00     0.114 C 
HETATM    4 CL7  UNL     1     -34.159   3.871   4.327  1.00 20.00    -0.130 Cl
ENDBRANCH   2   3
ENDBRANCH   1   2
BRANCH   1   5
HETATM    5  C4  UNL     1     -33.317   7.383   3.785  1.00 20.00     0.073 C 
BRANCH   5   6
HETATM    6  S6  UNL     1     -31.719   8.108   3.317  1.00 20.00    -0.173 SA
HETATM    7  C1  UNL     1     -32.191   8.763   1.700  1.00 20.00     0.089 C 
ENDBRANCH   5   6
ENDBRANCH   1   5
TORSDOF 4
ENDMDL
MODEL 2
REMARK VINA RESULT:      -4.0      3.295      4.842
REMARK  4 active torsions:
REMARK  status: ('A' for Active; 'I' for Inactive)
REMARK    1  A    between atoms: C2_2  and  C3_3 
REMARK    2  A    between atoms: C2_2  and  C4_4 
REMARK    3  A    between atoms: C3_3  and  C5_5 
REMARK    4  A    between atoms: C4_4  and  S6_6 
ROOT
HETATM    1  C2  UNL     1     -32.670   6.986   2.875  1.00 20.00     0.011 C 
ENDROOT
BRANCH   1   2
HETATM    2  C3  UNL     1     -31.897   8.294   2.666  1.00 20.00     0.016 C 
BRANCH   2   3
HETATM    3  C5  UNL     1     -32.000   8.835   1.243  1.00 20.00     0.114 C 
HETATM    4 CL7  UNL     1     -32.731  10.455   1.195  1.00 20.00    -0.130 Cl
ENDBRANCH   2   3
ENDBRANCH   1   2
BRANCH   1   5
HETATM    5  C4  UNL     1     -33.674   7.127   4.016  1.00 20.00     0.073 C 
BRANCH   5   6
HETATM    6  S6  UNL     1     -34.897   5.786   3.964  1.00 20.00    -0.173 SA
HETATM    7  C1  UNL     1     -34.567   5.066   5.589  1.00 20.00     0.089 C 
ENDBRANCH   5   6
ENDBRANCH   1   5
TORSDOF 4
ENDMDL
MODEL 3
REMARK VINA RESULT:      -4.0      1.789      1.941
REMARK  4 active torsions:
REMARK  status: ('A' for Active; 'I' for Inactive)
REMARK    1  A    between atoms: C2_2  and  C3_3 
REMARK    2  A    between atoms: C2_2  and  C4_4 
REMARK    3  A    between atoms: C3_3  and  C5_5 
REMARK    4  A    between atoms: C4_4  and  S6_6 
ROOT
HETATM    1  C2  UNL     1     -34.322   6.283   3.355  1.00 20.00     0.011 C 
ENDROOT
BRANCH   1   2
HETATM    2  C3  UNL     1     -34.476   5.034   4.230  1.00 20.00     0.016 C 
BRANCH   2   3
HETATM    3  C5  UNL     1     -34.581   5.348   5.720  1.00 20.00     0.114 C 
HETATM    4 CL7  UNL     1     -34.057   7.006   6.091  1.00 20.00    -0.130 Cl
ENDBRANCH   2   3
ENDBRANCH   1   2
BRANCH   1   5
HETATM    5  C4  UNL     1     -32.928   6.341   2.735  1.00 20.00     0.073 C 
BRANCH   5   6
HETATM    6  S6  UNL     1     -32.097   7.895   3.170  1.00 20.00    -0.173 SA
HETATM    7  C1  UNL     1     -32.143   8.681   1.543  1.00 20.00     0.089 C 
ENDBRANCH   5   6
ENDBRANCH   1   5
TORSDOF 4
ENDMDL
MODEL 4
REMARK VINA RESULT:      -3.9      1.539      2.010
REMARK  4 active torsions:
REMARK  status: ('A' for Active; 'I' for Inactive)
REMARK    1  A    between atoms: C2_2  and  C3_3 
REMARK    2  A    between atoms: C2_2  and  C4_4 
REMARK    3  A    between atoms: C3_3  and  C5_5 
REMARK    4  A    between atoms: C4_4  and  S6_6 
ROOT
HETATM    1  C2  UNL     1     -32.736   6.990   2.827  1.00 20.00     0.011 C 
ENDROOT
BRANCH   1   2
HETATM    2  C3  UNL     1     -33.754   7.087   3.969  1.00 20.00     0.016 C 
BRANCH   2   3
HETATM    3  C5  UNL     1     -34.722   5.909   4.017  1.00 20.00     0.114 C 
HETATM    4 CL7  UNL     1     -34.620   5.022   5.555  1.00 20.00    -0.130 Cl
ENDBRANCH   2   3
ENDBRANCH   1   2
BRANCH   1   5
HETATM    5  C4  UNL     1     -31.954   8.294   2.687  1.00 20.00     0.073 C 
BRANCH   5   6
HETATM    6  S6  UNL     1     -31.924   8.841   0.956  1.00 20.00    -0.173 SA
HETATM    7  C1  UNL     1     -32.737  10.441   1.173  1.00 20.00     0.089 C 
ENDBRANCH   5   6
ENDBRANCH   1   5
TORSDOF 4
ENDMDL
MODEL 5
REMARK VINA RESULT:      -3.9      3.265      4.657
REMARK  4 active torsions:
REMARK  status: ('A' for Active; 'I' for Inactive)
REMARK    1  A    between atoms: C2_2  and  C3_3 
REMARK    2  A    between atoms: C2_2  and  C4_4 
REMARK    3  A    between atoms: C3_3  and  C5_5 
REMARK    4  A    between atoms: C4_4  and  S6_6 
ROOT
HETATM    1  C2  UNL     1     -32.498   7.773   3.158  1.00 20.00     0.011 C 
ENDROOT
BRANCH   1   2
HETATM    2  C3  UNL     1     -31.872   8.329   1.873  1.00 20.00     0.016 C 
BRANCH   2   3
HETATM    3  C5  UNL     1     -32.580   9.573   1.346  1.00 20.00     0.114 C 
HETATM    4 CL7  UNL     1     -33.026   9.414  -0.368  1.00 20.00    -0.130 Cl
ENDBRANCH   2   3
ENDBRANCH   1   2
BRANCH   1   5
HETATM    5  C4  UNL     1     -33.200   6.445   2.888  1.00 20.00     0.073 C 
BRANCH   5   6
HETATM    6  S6  UNL     1     -34.380   6.062   4.213  1.00 20.00    -0.173 SA
HETATM    7  C1  UNL     1     -33.744   7.199   5.467  1.00 20.00     0.089 C 
ENDBRANCH   5   6
ENDBRANCH   1   5
TORSDOF 4
ENDMDL
MODEL 6
REMARK VINA RESULT:      -3.9      2.178      2.793
REMARK  4 active torsions:
REMARK  status: ('A' for Active; 'I' for Inactive)
REMARK    1  A    between atoms: C2_2  and  C3_3 
REMARK    2  A    between atoms: C2_2  and  C4_4 
REMARK    3  A    between atoms: C3_3  and  C5_5 
REMARK    4  A    between atoms: C4_4  and  S6_6 
ROOT
HETATM    1  C2  UNL     1     -32.264   7.927   3.068  1.00 20.00     0.011 C 
ENDROOT
BRANCH   1   2
HETATM    2  C3  UNL     1     -33.134   6.674   2.909  1.00 20.00     0.016 C 
BRANCH   2   3
HETATM    3  C5  UNL     1     -34.114   6.468   4.060  1.00 20.00     0.114 C 
HETATM    4 CL7  UNL     1     -33.602   7.320   5.535  1.00 20.00    -0.130 Cl
ENDBRANCH   2   3
ENDBRANCH   1   2
BRANCH   1   5
HETATM    5  C4  UNL     1     -31.755   8.408   1.712  1.00 20.00     0.073 C 
BRANCH   5   6
HETATM    6  S6  UNL     1     -32.619   9.922   1.204  1.00 20.00    -0.173 SA
HETATM    7  C1  UNL     1     -33.118   9.397  -0.452  1.00 20.00     0.089 C 
ENDBRANCH   5   6
ENDBRANCH   1   5
TORSDOF 4
ENDMDL
MODEL 7
REMARK VINA RESULT:      -3.7      3.246      4.525
REMARK  4 active torsions:
REMARK  status: ('A' for Active; 'I' for Inactive)
REMARK    1  A    between atoms: C2_2  and  C3_3 
REMARK    2  A    between atoms: C2_2  and  C4_4 
REMARK    3  A    between atoms: C3_3  and  C5_5 
REMARK    4  A    between atoms: C4_4  and  S6_6 
ROOT
HETATM    1  C2  UNL     1     -33.078   6.363   2.829  1.00 20.00     0.011 C 
ENDROOT
BRANCH   1   2
HETATM    2  C3  UNL     1     -32.653   7.828   2.981  1.00 20.00     0.016 C 
BRANCH   2   3
HETATM    3  C5  UNL     1     -31.974   8.393   1.737  1.00 20.00     0.114 C 
HETATM    4 CL7  UNL     1     -32.644   9.972   1.267  1.00 20.00    -0.130 Cl
ENDBRANCH   2   3
ENDBRANCH   1   2
BRANCH   1   5
HETATM    5  C4  UNL     1     -34.528   6.171   3.267  1.00 20.00     0.073 C 
BRANCH   5   6
HETATM    6  S6  UNL     1     -34.606   5.303   4.860  1.00 20.00    -0.173 SA
HETATM    7  C1  UNL     1     -34.163   6.687   5.935  1.00 20.00     0.089 C 
ENDBRANCH   5   6
ENDBRANCH   1   5
TORSDOF 4
ENDMDL
MODEL 8
REMARK VINA RESULT:      -2.9      2.743      3.031
REMARK  4 active torsions:
REMARK  status: ('A' for Active; 'I' for Inactive)
REMARK    1  A    between atoms: C2_2  and  C3_3 
REMARK    2  A    between atoms: C2_2  and  C4_4 
REMARK    3  A    between atoms: C3_3  and  C5_5 
REMARK    4  A    between atoms: C4_4  and  S6_6 
ROOT
HETATM    1  C2  UNL     1     -34.777   4.572   4.565  1.00 20.00     0.011 C 
ENDROOT
BRANCH   1   2
HETATM    2  C3  UNL     1     -34.227   5.068   5.908  1.00 20.00     0.016 C 
BRANCH   2   3
HETATM    3  C5  UNL     1     -34.551   6.532   6.190  1.00 20.00     0.114 C 
HETATM    4 CL7  UNL     1     -33.138   7.587   5.958  1.00 20.00    -0.130 Cl
ENDBRANCH   2   3
ENDBRANCH   1   2
BRANCH   1   5
HETATM    5  C4  UNL     1     -35.110   5.747   3.649  1.00 20.00     0.073 C 
BRANCH   5   6
HETATM    6  S6  UNL     1     -33.642   6.268   2.716  1.00 20.00    -0.173 SA
HETATM    7  C1  UNL     1     -32.861   4.649   2.529  1.00 20.00     0.089 C 
ENDBRANCH   5   6
ENDBRANCH   1   5
TORSDOF 4
ENDMDL
MODEL 9
REMARK VINA RESULT:      -2.8     11.799     12.271
REMARK  4 active torsions:
REMARK  status: ('A' for Active; 'I' for Inactive)
REMARK    1  A    between atoms: C2_2  and  C3_3 
REMARK    2  A    between atoms: C2_2  and  C4_4 
REMARK    3  A    between atoms: C3_3  and  C5_5 
REMARK    4  A    between atoms: C4_4  and  S6_6 
ROOT
HETATM    1  C2  UNL     1     -34.945  15.493  -3.577  1.00 20.00     0.011 C 
ENDROOT
BRANCH   1   2
HETATM    2  C3  UNL     1     -33.695  16.331  -3.284  1.00 20.00     0.016 C 
BRANCH   2   3
HETATM    3  C5  UNL     1     -33.770  17.084  -1.959  1.00 20.00     0.114 C 
HETATM    4 CL7  UNL     1     -35.354  16.898  -1.172  1.00 20.00    -0.130 Cl
ENDBRANCH   2   3
ENDBRANCH   1   2
BRANCH   1   5
HETATM    5  C4  UNL     1     -34.578  14.221  -4.336  1.00 20.00     0.073 C 
BRANCH   5   6
HETATM    6  S6  UNL     1     -35.994  13.616  -5.298  1.00 20.00    -0.173 SA
HETATM    7  C1  UNL     1     -35.160  13.400  -6.887  1.00 20.00     0.089 C 
ENDBRANCH   5   6
ENDBRANCH   1   5
TORSDOF 4
ENDMDL
