MODEL 1
REMARK VINA RESULT:      -4.6      0.000      0.000
REMARK  2 active torsions:
REMARK  status: ('A' for Active; 'I' for Inactive)
REMARK    1  A    between atoms: C1_1  and  C6_6 
REMARK    2  A    between atoms: C6_6  and  N7_7 
ROOT
HETATM    1  C3  UNL     1     -34.770   5.267   5.575  1.00 20.00     0.060 C 
HETATM    2  C4  UNL     1     -34.218   5.059   4.151  1.00 20.00     0.274 C 
HETATM    3  C5  UNL     1     -33.999   6.601   5.525  1.00 20.00     0.274 C 
HETATM    4  N7  UNL     1     -34.121   6.538   4.045  1.00 20.00     0.091 N 
ENDROOT
BRANCH   4   5
HETATM    5  C6  UNL     1     -32.867   6.927   3.411  1.00 20.00     0.300 C 
BRANCH   5   6
HETATM    6  C1  UNL     1     -33.094   7.898   2.291  1.00 20.00     0.010 C 
HETATM    7  C2  UNL     1     -32.205   8.831   1.935  1.00 20.00     0.053 C 
HETATM    8 BR8  UNL     1     -32.454  10.036   0.547  1.00 20.00    -0.064 Br
ENDBRANCH   5   6
ENDBRANCH   4   5
TORSDOF 2
ENDMDL
MODEL 2
REMARK VINA RESULT:      -4.2      2.978      5.035
REMARK  2 active torsions:
REMARK  status: ('A' for Active; 'I' for Inactive)
REMARK    1  A    between atoms: C1_1  and  C6_6 
REMARK    2  A    between atoms: C6_6  and  N7_7 
ROOT
HETATM    1  C3  UNL     1     -32.317  10.162   0.126  1.00 20.00     0.060 C 
HETATM    2  C4  UNL     1     -32.943  10.082   1.532  1.00 20.00     0.274 C 
HETATM    3  C5  UNL     1     -31.580   8.872   0.536  1.00 20.00     0.274 C 
HETATM    4  N7  UNL     1     -32.695   8.617   1.485  1.00 20.00     0.091 N 
ENDROOT
BRANCH   4   5
HETATM    5  C6  UNL     1     -32.182   8.141   2.763  1.00 20.00     0.300 C 
BRANCH   5   6
HETATM    6  C1  UNL     1     -32.915   6.920   3.232  1.00 20.00     0.010 C 
HETATM    7  C2  UNL     1     -33.753   6.919   4.274  1.00 20.00     0.053 C 
HETATM    8 BR8  UNL     1     -34.680   5.427   4.868  1.00 20.00    -0.064 Br
ENDBRANCH   5   6
ENDBRANCH   4   5
TORSDOF 2
ENDMDL
MODEL 3
REMARK VINA RESULT:      -3.1     11.568     12.230
REMARK  2 active torsions:
REMARK  status: ('A' for Active; 'I' for Inactive)
REMARK    1  A    between atoms: C1_1  and  C6_6 
REMARK    2  A    between atoms: C6_6  and  N7_7 
ROOT
HETATM    1  C3  UNL     1     -33.204  15.707  -5.874  1.00 20.00     0.060 C 
HETATM    2  C4  UNL     1     -33.239  15.021  -4.494  1.00 20.00     0.274 C 
HETATM    3  C5  UNL     1     -34.089  16.777  -5.206  1.00 20.00     0.274 C 
HETATM    4  N7  UNL     1     -33.494  16.362  -3.909  1.00 20.00     0.091 N 
ENDROOT
BRANCH   4   5
HETATM    5  C6  UNL     1     -34.520  16.286  -2.876  1.00 20.00     0.300 C 
BRANCH   5   6
HETATM    6  C1  UNL     1     -34.135  17.070  -1.657  1.00 20.00     0.010 C 
HETATM    7  C2  UNL     1     -33.005  17.778  -1.564  1.00 20.00     0.053 C 
HETATM    8 BR8  UNL     1     -32.510  18.765  -0.074  1.00 20.00    -0.064 Br
ENDBRANCH   5   6
ENDBRANCH   4   5
TORSDOF 2
ENDMDL
MODEL 4
REMARK VINA RESULT:      -3.1     10.825     11.428
REMARK  2 active torsions:
REMARK  status: ('A' for Active; 'I' for Inactive)
REMARK    1  A    between atoms: C1_1  and  C6_6 
REMARK    2  A    between atoms: C6_6  and  N7_7 
ROOT
HETATM    1  C3  UNL     1     -35.483  13.914  -4.920  1.00 20.00     0.060 C 
HETATM    2  C4  UNL     1     -35.743  15.395  -4.585  1.00 20.00     0.274 C 
HETATM    3  C5  UNL     1     -34.154  14.124  -4.169  1.00 20.00     0.274 C 
HETATM    4  N7  UNL     1     -34.825  15.225  -3.429  1.00 20.00     0.091 N 
ENDROOT
BRANCH   4   5
HETATM    5  C6  UNL     1     -33.936  16.373  -3.304  1.00 20.00     0.300 C 
BRANCH   5   6
HETATM    6  C1  UNL     1     -34.048  17.013  -1.953  1.00 20.00     0.010 C 
HETATM    7  C2  UNL     1     -35.172  17.012  -1.228  1.00 20.00     0.053 C 
HETATM    8 BR8  UNL     1     -35.335  17.785   0.450  1.00 20.00    -0.064 Br
ENDBRANCH   5   6
ENDBRANCH   4   5
TORSDOF 2
ENDMDL
MODEL 5
REMARK VINA RESULT:      -3.1     11.498     12.006
REMARK  2 active torsions:
REMARK  status: ('A' for Active; 'I' for Inactive)
REMARK    1  A    between atoms: C1_1  and  C6_6 
REMARK    2  A    between atoms: C6_6  and  N7_7 
ROOT
HETATM    1  C3  UNL     1     -34.982  15.993  -3.061  1.00 20.00     0.060 C 
HETATM    2  C4  UNL     1     -35.118  16.828  -1.773  1.00 20.00     0.274 C 
HETATM    3  C5  UNL     1     -33.701  16.819  -3.290  1.00 20.00     0.274 C 
HETATM    4  N7  UNL     1     -33.645  17.016  -1.818  1.00 20.00     0.091 N 
ENDROOT
BRANCH   4   5
HETATM    5  C6  UNL     1     -33.292  18.393  -1.498  1.00 20.00     0.300 C 
BRANCH   5   6
HETATM    6  C1  UNL     1     -32.143  18.459  -0.537  1.00 20.00     0.010 C 
HETATM    7  C2  UNL     1     -32.266  18.870   0.730  1.00 20.00     0.053 C 
HETATM    8 BR8  UNL     1     -30.865  18.951   1.942  1.00 20.00    -0.064 Br
ENDBRANCH   5   6
ENDBRANCH   4   5
TORSDOF 2
ENDMDL
MODEL 6
REMARK VINA RESULT:      -3.0     11.537     12.496
REMARK  2 active torsions:
REMARK  status: ('A' for Active; 'I' for Inactive)
REMARK    1  A    between atoms: C1_1  and  C6_6 
REMARK    2  A    between atoms: C6_6  and  N7_7 
ROOT
HETATM    1  C3  UNL     1     -34.085  14.800  -7.653  1.00 20.00     0.060 C 
HETATM    2  C4  UNL     1     -33.613  15.963  -6.760  1.00 20.00     0.274 C 
HETATM    3  C5  UNL     1     -34.277  14.044  -6.324  1.00 20.00     0.274 C 
HETATM    4  N7  UNL     1     -34.432  15.370  -5.671  1.00 20.00     0.091 N 
ENDROOT
BRANCH   4   5
HETATM    5  C6  UNL     1     -33.709  15.407  -4.406  1.00 20.00     0.300 C 
BRANCH   5   6
HETATM    6  C1  UNL     1     -34.596  15.838  -3.276  1.00 20.00     0.010 C 
HETATM    7  C2  UNL     1     -34.209  16.691  -2.321  1.00 20.00     0.053 C 
HETATM    8 BR8  UNL     1     -35.287  17.250  -0.920  1.00 20.00    -0.064 Br
ENDBRANCH   5   6
ENDBRANCH   4   5
TORSDOF 2
ENDMDL
MODEL 7
REMARK VINA RESULT:      -3.0     11.259     12.202
REMARK  2 active torsions:
REMARK  status: ('A' for Active; 'I' for Inactive)
REMARK    1  A    between atoms: C1_1  and  C6_6 
REMARK    2  A    between atoms: C6_6  and  N7_7 
ROOT
HETATM    1  C3  UNL     1     -35.832  13.958  -7.915  1.00 20.00     0.060 C 
HETATM    2  C4  UNL     1     -34.591  13.588  -7.079  1.00 20.00     0.274 C 
HETATM    3  C5  UNL     1     -36.441  14.377  -6.563  1.00 20.00     0.274 C 
HETATM    4  N7  UNL     1     -35.052  14.584  -6.077  1.00 20.00     0.091 N 
ENDROOT
BRANCH   4   5
HETATM    5  C6  UNL     1     -34.899  14.062  -4.725  1.00 20.00     0.300 C 
BRANCH   5   6
HETATM    6  C1  UNL     1     -34.131  15.009  -3.852  1.00 20.00     0.010 C 
HETATM    7  C2  UNL     1     -34.706  15.980  -3.134  1.00 20.00     0.053 C 
HETATM    8 BR8  UNL     1     -33.781  17.157  -2.039  1.00 20.00    -0.064 Br
ENDBRANCH   5   6
ENDBRANCH   4   5
TORSDOF 2
ENDMDL
MODEL 8
REMARK VINA RESULT:      -2.9     11.483     11.994
REMARK  2 active torsions:
REMARK  status: ('A' for Active; 'I' for Inactive)
REMARK    1  A    between atoms: C1_1  and  C6_6 
REMARK    2  A    between atoms: C6_6  and  N7_7 
ROOT
HETATM    1  C3  UNL     1     -35.102  17.010  -1.326  1.00 20.00     0.060 C 
HETATM    2  C4  UNL     1     -33.684  17.096  -1.922  1.00 20.00     0.274 C 
HETATM    3  C5  UNL     1     -35.545  16.757  -2.781  1.00 20.00     0.274 C 
HETATM    4  N7  UNL     1     -34.174  16.243  -3.037  1.00 20.00     0.091 N 
ENDROOT
BRANCH   4   5
HETATM    5  C6  UNL     1     -33.674  16.732  -4.316  1.00 20.00     0.300 C 
BRANCH   5   6
HETATM    6  C1  UNL     1     -33.535  15.622  -5.314  1.00 20.00     0.010 C 
HETATM    7  C2  UNL     1     -34.544  15.185  -6.075  1.00 20.00     0.053 C 
HETATM    8 BR8  UNL     1     -34.397  13.823  -7.325  1.00 20.00    -0.064 Br
ENDBRANCH   5   6
ENDBRANCH   4   5
TORSDOF 2
ENDMDL
MODEL 9
REMARK VINA RESULT:      -2.9     11.366     11.747
REMARK  2 active torsions:
REMARK  status: ('A' for Active; 'I' for Inactive)
REMARK    1  A    between atoms: C1_1  and  C6_6 
REMARK    2  A    between atoms: C6_6  and  N7_7 
ROOT
HETATM    1  C3  UNL     1     -33.780  18.161  -0.222  1.00 20.00     0.060 C 
HETATM    2  C4  UNL     1     -32.982  18.080  -1.538  1.00 20.00     0.274 C 
HETATM    3  C5  UNL     1     -34.873  17.407  -1.004  1.00 20.00     0.274 C 
HETATM    4  N7  UNL     1     -33.791  16.880  -1.875  1.00 20.00     0.091 N 
ENDROOT
BRANCH   4   5
HETATM    5  C6  UNL     1     -34.198  16.911  -3.274  1.00 20.00     0.300 C 
BRANCH   5   6
HETATM    6  C1  UNL     1     -34.504  15.537  -3.790  1.00 20.00     0.010 C 
HETATM    7  C2  UNL     1     -35.517  15.271  -4.622  1.00 20.00     0.053 C 
HETATM    8 BR8  UNL     1     -35.911  13.584  -5.284  1.00 20.00    -0.064 Br
ENDBRANCH   5   6
ENDBRANCH   4   5
TORSDOF 2
ENDMDL
