MODEL 1
REMARK VINA RESULT:      -4.1      0.000      0.000
REMARK  0 active torsions:
REMARK  status: ('A' for Active; 'I' for Inactive)
ROOT
HETATM    1  C1  UNL     1     -34.020   7.602   4.558  1.00 20.00     0.050 C 
HETATM    2  C2  UNL     1     -33.882   5.816   2.726  1.00 20.00     0.050 C 
HETATM    3  C3  UNL     1     -32.683   8.097   2.384  1.00 20.00     0.207 A 
HETATM    4  C4  UNL     1     -33.920   6.587   5.690  1.00 20.00     0.077 C 
HETATM    5  C5  UNL     1     -33.772   4.666   3.720  1.00 20.00     0.077 C 
HETATM    6  C6  UNL     1     -33.373   7.109   3.295  1.00 20.00     0.084 A 
HETATM    7  O7  UNL     1     -31.944   7.244   3.272  1.00 20.00    -0.375 OA
HETATM    8  S8  UNL     1     -34.707   5.007   5.245  1.00 20.00    -0.169 SA
ENDROOT
TORSDOF 0
ENDMDL
MODEL 2
REMARK VINA RESULT:      -3.9      1.084      2.144
REMARK  0 active torsions:
REMARK  status: ('A' for Active; 'I' for Inactive)
ROOT
HETATM    1  C1  UNL     1     -33.231   5.914   2.922  1.00 20.00     0.050 C 
HETATM    2  C2  UNL     1     -32.646   7.593   4.766  1.00 20.00     0.050 C 
HETATM    3  C3  UNL     1     -32.024   8.132   2.300  1.00 20.00     0.207 A 
HETATM    4  C4  UNL     1     -34.568   5.542   3.550  1.00 20.00     0.077 C 
HETATM    5  C5  UNL     1     -33.940   7.347   5.535  1.00 20.00     0.077 C 
HETATM    6  C6  UNL     1     -32.792   7.300   3.301  1.00 20.00     0.084 A 
HETATM    7  O7  UNL     1     -33.422   8.346   2.548  1.00 20.00    -0.375 OA
HETATM    8  S8  UNL     1     -34.500   5.623   5.367  1.00 20.00    -0.169 SA
ENDROOT
TORSDOF 0
ENDMDL
MODEL 3
REMARK VINA RESULT:      -3.3     12.016     12.600
REMARK  0 active torsions:
REMARK  status: ('A' for Active; 'I' for Inactive)
ROOT
HETATM    1  C1  UNL     1     -34.339  15.267  -5.913  1.00 20.00     0.050 C 
HETATM    2  C2  UNL     1     -35.872  15.582  -3.884  1.00 20.00     0.050 C 
HETATM    3  C3  UNL     1     -36.032  13.397  -5.283  1.00 20.00     0.207 A 
HETATM    4  C4  UNL     1     -33.144  15.927  -5.236  1.00 20.00     0.077 C 
HETATM    5  C5  UNL     1     -34.793  16.267  -3.053  1.00 20.00     0.077 C 
HETATM    6  C6  UNL     1     -35.292  14.664  -4.921  1.00 20.00     0.084 A 
HETATM    7  O7  UNL     1     -34.888  13.382  -4.416  1.00 20.00    -0.375 OA
HETATM    8  S8  UNL     1     -33.666  17.247  -4.096  1.00 20.00    -0.169 SA
ENDROOT
TORSDOF 0
ENDMDL
MODEL 4
REMARK VINA RESULT:      -3.3     11.802     12.513
REMARK  0 active torsions:
REMARK  status: ('A' for Active; 'I' for Inactive)
ROOT
HETATM    1  C1  UNL     1     -34.178  14.700  -5.410  1.00 20.00     0.050 C 
HETATM    2  C2  UNL     1     -36.674  14.783  -5.982  1.00 20.00     0.050 C 
HETATM    3  C3  UNL     1     -35.143  13.053  -7.176  1.00 20.00     0.207 A 
HETATM    4  C4  UNL     1     -34.410  14.965  -3.927  1.00 20.00     0.077 C 
HETATM    5  C5  UNL     1     -37.095  15.055  -4.542  1.00 20.00     0.077 C 
HETATM    6  C6  UNL     1     -35.365  14.051  -6.063  1.00 20.00     0.084 A 
HETATM    7  O7  UNL     1     -35.463  12.637  -5.839  1.00 20.00    -0.375 OA
HETATM    8  S8  UNL     1     -35.850  16.045  -3.657  1.00 20.00    -0.169 SA
ENDROOT
TORSDOF 0
ENDMDL
MODEL 5
REMARK VINA RESULT:      -3.3      2.236      3.017
REMARK  0 active torsions:
REMARK  status: ('A' for Active; 'I' for Inactive)
ROOT
HETATM    1  C1  UNL     1     -33.546   6.498   5.438  1.00 20.00     0.050 C 
HETATM    2  C2  UNL     1     -33.205   5.646   3.045  1.00 20.00     0.050 C 
HETATM    3  C3  UNL     1     -35.074   4.604   4.521  1.00 20.00     0.207 A 
HETATM    4  C4  UNL     1     -33.269   7.949   5.064  1.00 20.00     0.077 C 
HETATM    5  C5  UNL     1     -32.901   7.033   2.491  1.00 20.00     0.077 C 
HETATM    6  C6  UNL     1     -34.066   5.702   4.274  1.00 20.00     0.084 A 
HETATM    7  O7  UNL     1     -35.464   5.887   4.009  1.00 20.00    -0.375 OA
HETATM    8  S8  UNL     1     -32.049   8.073   3.719  1.00 20.00    -0.169 SA
ENDROOT
TORSDOF 0
ENDMDL
MODEL 6
REMARK VINA RESULT:      -3.2      2.266      3.500
REMARK  0 active torsions:
REMARK  status: ('A' for Active; 'I' for Inactive)
ROOT
HETATM    1  C1  UNL     1     -34.794   5.845   3.582  1.00 20.00     0.050 C 
HETATM    2  C2  UNL     1     -33.706   7.351   5.347  1.00 20.00     0.050 C 
HETATM    3  C3  UNL     1     -34.973   5.208   6.097  1.00 20.00     0.207 A 
HETATM    4  C4  UNL     1     -33.658   6.028   2.584  1.00 20.00     0.077 C 
HETATM    5  C5  UNL     1     -32.487   7.648   4.481  1.00 20.00     0.077 C 
HETATM    6  C6  UNL     1     -34.339   6.034   5.001  1.00 20.00     0.084 A 
HETATM    7  O7  UNL     1     -33.677   4.893   5.566  1.00 20.00    -0.375 OA
HETATM    8  S8  UNL     1     -32.915   7.685   2.712  1.00 20.00    -0.169 SA
ENDROOT
TORSDOF 0
ENDMDL
MODEL 7
REMARK VINA RESULT:      -3.2     11.800     12.735
REMARK  0 active torsions:
REMARK  status: ('A' for Active; 'I' for Inactive)
ROOT
HETATM    1  C1  UNL     1     -33.084  15.716  -5.548  1.00 20.00     0.050 C 
HETATM    2  C2  UNL     1     -34.618  14.202  -4.162  1.00 20.00     0.050 C 
HETATM    3  C3  UNL     1     -33.714  16.406  -3.121  1.00 20.00     0.207 A 
HETATM    4  C4  UNL     1     -33.849  15.470  -6.843  1.00 20.00     0.077 C 
HETATM    5  C5  UNL     1     -35.498  13.841  -5.353  1.00 20.00     0.077 C 
HETATM    6  C6  UNL     1     -33.950  15.536  -4.334  1.00 20.00     0.084 A 
HETATM    7  O7  UNL     1     -34.790  16.661  -4.036  1.00 20.00    -0.375 OA
HETATM    8  S8  UNL     1     -34.542  13.788  -6.901  1.00 20.00    -0.169 SA
ENDROOT
TORSDOF 0
ENDMDL
MODEL 8
REMARK VINA RESULT:      -3.2      1.593      2.167
REMARK  0 active torsions:
REMARK  status: ('A' for Active; 'I' for Inactive)
ROOT
HETATM    1  C1  UNL     1     -33.403   7.412   3.316  1.00 20.00     0.050 C 
HETATM    2  C2  UNL     1     -34.994   5.596   4.175  1.00 20.00     0.050 C 
HETATM    3  C3  UNL     1     -34.004   5.403   1.779  1.00 20.00     0.207 A 
HETATM    4  C4  UNL     1     -32.714   7.582   4.664  1.00 20.00     0.077 C 
HETATM    5  C5  UNL     1     -34.425   5.630   5.589  1.00 20.00     0.077 C 
HETATM    6  C6  UNL     1     -33.991   6.040   3.149  1.00 20.00     0.084 A 
HETATM    7  O7  UNL     1     -33.041   5.031   2.776  1.00 20.00    -0.375 OA
HETATM    8  S8  UNL     1     -33.866   7.301   6.045  1.00 20.00    -0.169 SA
ENDROOT
TORSDOF 0
ENDMDL
MODEL 9
REMARK VINA RESULT:      -3.1     12.142     12.750
REMARK  0 active torsions:
REMARK  status: ('A' for Active; 'I' for Inactive)
ROOT
HETATM    1  C1  UNL     1     -35.655  14.629  -4.943  1.00 20.00     0.050 C 
HETATM    2  C2  UNL     1     -33.800  15.188  -6.619  1.00 20.00     0.050 C 
HETATM    3  C3  UNL     1     -33.284  15.247  -4.072  1.00 20.00     0.207 A 
HETATM    4  C4  UNL     1     -36.241  13.524  -5.811  1.00 20.00     0.077 C 
HETATM    5  C5  UNL     1     -34.247  14.124  -7.616  1.00 20.00     0.077 C 
HETATM    6  C6  UNL     1     -34.193  14.847  -5.211  1.00 20.00     0.084 A 
HETATM    7  O7  UNL     1     -33.327  13.900  -4.568  1.00 20.00    -0.375 OA
HETATM    8  S8  UNL     1     -36.052  13.894  -7.584  1.00 20.00    -0.169 SA
ENDROOT
TORSDOF 0
ENDMDL
