MODEL 1
REMARK VINA RESULT:      -5.4      0.000      0.000
REMARK  0 active torsions:
REMARK  status: ('A' for Active; 'I' for Inactive)
ROOT
HETATM    1  C1  UNL     1     -32.836   8.751   1.855  1.00 20.00     0.069 C 
HETATM    2  C2  UNL     1     -34.534   5.916   5.289  1.00 20.00     0.000 C 
HETATM    3  C3  UNL     1     -34.510   5.122   3.988  1.00 20.00     0.000 C 
HETATM    4  C4  UNL     1     -33.688   7.183   5.341  1.00 20.00     0.002 C 
HETATM    5  C5  UNL     1     -33.170   5.112   3.262  1.00 20.00     0.002 C 
HETATM    6  C6  UNL     1     -33.734   8.055   4.083  1.00 20.00     0.024 C 
HETATM    7  C7  UNL     1     -33.006   6.305   2.315  1.00 20.00     0.024 C 
HETATM    8  C8  UNL     1     -32.733   7.680   2.964  1.00 20.00     0.045 C 
HETATM    9  C9  UNL     1     -31.344   7.718   3.483  1.00 20.00     0.031 C 
HETATM   10  N10 UNL     1     -32.912   9.556   1.022  1.00 20.00    -0.196 NA
ENDROOT
TORSDOF 0
ENDMDL
MODEL 2
REMARK VINA RESULT:      -4.7      1.389      2.598
REMARK  0 active torsions:
REMARK  status: ('A' for Active; 'I' for Inactive)
ROOT
HETATM    1  C1  UNL     1     -31.867   7.943   3.396  1.00 20.00     0.069 C 
HETATM    2  C2  UNL     1     -34.334   4.014   4.485  1.00 20.00     0.000 C 
HETATM    3  C3  UNL     1     -34.149   4.825   5.762  1.00 20.00     0.000 C 
HETATM    4  C4  UNL     1     -34.111   4.742   3.164  1.00 20.00     0.002 C 
HETATM    5  C5  UNL     1     -34.588   6.282   5.670  1.00 20.00     0.002 C 
HETATM    6  C6  UNL     1     -32.902   5.681   3.130  1.00 20.00     0.024 C 
HETATM    7  C7  UNL     1     -33.476   7.200   5.152  1.00 20.00     0.024 C 
HETATM    8  C8  UNL     1     -33.151   7.121   3.643  1.00 20.00     0.045 C 
HETATM    9  C9  UNL     1     -34.239   7.763   2.866  1.00 20.00     0.031 C 
HETATM   10  N10 UNL     1     -30.902   8.561   3.210  1.00 20.00    -0.196 NA
ENDROOT
TORSDOF 0
ENDMDL
MODEL 3
REMARK VINA RESULT:      -4.6     10.961     11.820
REMARK  0 active torsions:
REMARK  status: ('A' for Active; 'I' for Inactive)
ROOT
HETATM    1  C1  UNL     1     -35.677  13.887  -4.971  1.00 20.00     0.069 C 
HETATM    2  C2  UNL     1     -36.131  17.567  -1.977  1.00 20.00     0.000 C 
HETATM    3  C3  UNL     1     -34.841  16.833  -1.631  1.00 20.00     0.000 C 
HETATM    4  C4  UNL     1     -36.740  17.288  -3.346  1.00 20.00     0.002 C 
HETATM    5  C5  UNL     1     -33.889  16.614  -2.802  1.00 20.00     0.002 C 
HETATM    6  C6  UNL     1     -36.729  15.821  -3.782  1.00 20.00     0.024 C 
HETATM    7  C7  UNL     1     -34.193  15.326  -3.573  1.00 20.00     0.024 C 
HETATM    8  C8  UNL     1     -35.439  15.335  -4.487  1.00 20.00     0.045 C 
HETATM    9  C9  UNL     1     -35.168  16.160  -5.689  1.00 20.00     0.031 C 
HETATM   10  N10 UNL     1     -35.856  12.800  -5.335  1.00 20.00    -0.196 NA
ENDROOT
TORSDOF 0
ENDMDL
MODEL 4
REMARK VINA RESULT:      -4.3      2.503      3.837
REMARK  0 active torsions:
REMARK  status: ('A' for Active; 'I' for Inactive)
ROOT
HETATM    1  C1  UNL     1     -34.109   4.216   4.122  1.00 20.00     0.069 C 
HETATM    2  C2  UNL     1     -32.317   8.552   4.954  1.00 20.00     0.000 C 
HETATM    3  C3  UNL     1     -31.739   8.047   3.638  1.00 20.00     0.000 C 
HETATM    4  C4  UNL     1     -33.564   7.849   5.478  1.00 20.00     0.002 C 
HETATM    5  C5  UNL     1     -32.770   7.574   2.619  1.00 20.00     0.002 C 
HETATM    6  C6  UNL     1     -33.557   6.323   5.352  1.00 20.00     0.024 C 
HETATM    7  C7  UNL     1     -33.146   6.101   2.802  1.00 20.00     0.024 C 
HETATM    8  C8  UNL     1     -34.056   5.755   4.001  1.00 20.00     0.045 C 
HETATM    9  C9  UNL     1     -35.438   6.220   3.727  1.00 20.00     0.031 C 
HETATM   10  N10 UNL     1     -34.149   3.059   4.213  1.00 20.00    -0.196 NA
ENDROOT
TORSDOF 0
ENDMDL
MODEL 5
REMARK VINA RESULT:      -4.2     10.860     12.386
REMARK  0 active torsions:
REMARK  status: ('A' for Active; 'I' for Inactive)
ROOT
HETATM    1  C1  UNL     1     -37.326  14.203  -5.290  1.00 20.00     0.069 C 
HETATM    2  C2  UNL     1     -33.328  16.795  -5.330  1.00 20.00     0.000 C 
HETATM    3  C3  UNL     1     -33.310  15.918  -4.083  1.00 20.00     0.000 C 
HETATM    4  C4  UNL     1     -34.296  16.402  -6.439  1.00 20.00     0.002 C 
HETATM    5  C5  UNL     1     -33.535  14.432  -4.336  1.00 20.00     0.002 C 
HETATM    6  C6  UNL     1     -35.687  15.966  -5.971  1.00 20.00     0.024 C 
HETATM    7  C7  UNL     1     -35.020  14.056  -4.349  1.00 20.00     0.024 C 
HETATM    8  C8  UNL     1     -35.836  14.471  -5.594  1.00 20.00     0.045 C 
HETATM    9  C9  UNL     1     -35.461  13.612  -6.744  1.00 20.00     0.031 C 
HETATM   10  N10 UNL     1     -38.446  14.001  -5.062  1.00 20.00    -0.196 NA
ENDROOT
TORSDOF 0
ENDMDL
MODEL 6
REMARK VINA RESULT:      -4.2     10.894     12.352
REMARK  0 active torsions:
REMARK  status: ('A' for Active; 'I' for Inactive)
ROOT
HETATM    1  C1  UNL     1     -35.307  13.839  -4.932  1.00 20.00     0.069 C 
HETATM    2  C2  UNL     1     -34.219  18.475  -4.742  1.00 20.00     0.000 C 
HETATM    3  C3  UNL     1     -34.940  18.106  -3.451  1.00 20.00     0.000 C 
HETATM    4  C4  UNL     1     -33.647  17.329  -5.568  1.00 20.00     0.002 C 
HETATM    5  C5  UNL     1     -34.353  16.914  -2.702  1.00 20.00     0.002 C 
HETATM    6  C6  UNL     1     -34.548  16.098  -5.694  1.00 20.00     0.024 C 
HETATM    7  C7  UNL     1     -34.927  15.578  -3.183  1.00 20.00     0.024 C 
HETATM    8  C8  UNL     1     -34.436  15.058  -4.553  1.00 20.00     0.045 C 
HETATM    9  C9  UNL     1     -33.038  14.577  -4.431  1.00 20.00     0.031 C 
HETATM   10  N10 UNL     1     -35.960  12.923  -5.217  1.00 20.00    -0.196 NA
ENDROOT
TORSDOF 0
ENDMDL
MODEL 7
REMARK VINA RESULT:      -4.2     10.960     12.421
REMARK  0 active torsions:
REMARK  status: ('A' for Active; 'I' for Inactive)
ROOT
HETATM    1  C1  UNL     1     -35.751  13.874  -4.992  1.00 20.00     0.069 C 
HETATM    2  C2  UNL     1     -33.485  17.728  -3.341  1.00 20.00     0.000 C 
HETATM    3  C3  UNL     1     -33.562  17.839  -4.859  1.00 20.00     0.000 C 
HETATM    4  C4  UNL     1     -34.432  16.739  -2.671  1.00 20.00     0.002 C 
HETATM    5  C5  UNL     1     -34.960  17.682  -5.448  1.00 20.00     0.002 C 
HETATM    6  C6  UNL     1     -34.584  15.392  -3.382  1.00 20.00     0.024 C 
HETATM    7  C7  UNL     1     -35.320  16.219  -5.726  1.00 20.00     0.024 C 
HETATM    8  C8  UNL     1     -35.651  15.336  -4.502  1.00 20.00     0.045 C 
HETATM    9  C9  UNL     1     -36.981  15.710  -3.964  1.00 20.00     0.031 C 
HETATM   10  N10 UNL     1     -35.827  12.775  -5.360  1.00 20.00    -0.196 NA
ENDROOT
TORSDOF 0
ENDMDL
MODEL 8
REMARK VINA RESULT:      -4.1     11.101     12.516
REMARK  0 active torsions:
REMARK  status: ('A' for Active; 'I' for Inactive)
ROOT
HETATM    1  C1  UNL     1     -37.477  14.659  -4.862  1.00 20.00     0.069 C 
HETATM    2  C2  UNL     1     -32.784  15.361  -5.295  1.00 20.00     0.000 C 
HETATM    3  C3  UNL     1     -33.483  16.155  -6.392  1.00 20.00     0.000 C 
HETATM    4  C4  UNL     1     -33.639  14.900  -4.121  1.00 20.00     0.002 C 
HETATM    5  C5  UNL     1     -34.589  17.087  -5.909  1.00 20.00     0.002 C 
HETATM    6  C6  UNL     1     -35.022  14.356  -4.491  1.00 20.00     0.024 C 
HETATM    7  C7  UNL     1     -35.948  16.387  -5.811  1.00 20.00     0.024 C 
HETATM    8  C8  UNL     1     -36.148  15.411  -4.630  1.00 20.00     0.045 C 
HETATM    9  C9  UNL     1     -36.291  16.178  -3.369  1.00 20.00     0.031 C 
HETATM   10  N10 UNL     1     -38.477  14.095  -5.035  1.00 20.00    -0.196 NA
ENDROOT
TORSDOF 0
ENDMDL
MODEL 9
REMARK VINA RESULT:      -4.0     11.104     11.898
REMARK  0 active torsions:
REMARK  status: ('A' for Active; 'I' for Inactive)
ROOT
HETATM    1  C1  UNL     1     -34.050  16.225  -3.082  1.00 20.00     0.069 C 
HETATM    2  C2  UNL     1     -34.819  18.374   1.101  1.00 20.00     0.000 C 
HETATM    3  C3  UNL     1     -33.329  18.461   0.792  1.00 20.00     0.000 C 
HETATM    4  C4  UNL     1     -35.749  18.049  -0.062  1.00 20.00     0.002 C 
HETATM    5  C5  UNL     1     -32.986  19.040  -0.577  1.00 20.00     0.002 C 
HETATM    6  C6  UNL     1     -35.251  16.958  -1.014  1.00 20.00     0.024 C 
HETATM    7  C7  UNL     1     -32.960  17.973  -1.676  1.00 20.00     0.024 C 
HETATM    8  C8  UNL     1     -34.324  17.433  -2.159  1.00 20.00     0.045 C 
HETATM    9  C9  UNL     1     -35.006  18.465  -2.978  1.00 20.00     0.031 C 
HETATM   10  N10 UNL     1     -33.845  15.317  -3.776  1.00 20.00    -0.196 NA
ENDROOT
TORSDOF 0
ENDMDL
