MODEL 1
REMARK VINA RESULT:      -5.0      0.000      0.000
REMARK  3 active torsions:
REMARK  status: ('A' for Active; 'I' for Inactive)
REMARK    1  A    between atoms: C1_1  and  C2_2 
REMARK    2  A    between atoms: C1_1  and  O10_10 
REMARK    3  A    between atoms: C3_3  and  C7_7 
ROOT
HETATM    1  C2  UNL     1     -33.141   7.169   2.579  1.00 20.00     0.256 A 
HETATM    2  C3  UNL     1     -33.720   6.690   3.894  1.00 20.00     0.093 A 
HETATM    3  C4  UNL     1     -33.418   7.397   5.178  1.00 20.00     0.049 C 
HETATM    4  O9  UNL     1     -32.579   6.060   3.299  1.00 20.00    -0.359 OA
ENDROOT
BRANCH   1   5
HETATM    5  C1  UNL     1     -32.250   8.329   2.505  1.00 20.00     0.290 C 
HETATM    6  O8  UNL     1     -31.170   8.400   3.076  1.00 20.00    -0.262 OA
BRANCH   5   7
HETATM    7  O10 UNL     1     -32.814   9.286   1.716  1.00 20.00    -0.324 OA
HETATM    8  C6  UNL     1     -32.286   9.378   0.389  1.00 20.00     0.213 C 
ENDBRANCH   5   7
ENDBRANCH   1   5
BRANCH   2   9
HETATM    9  C7  UNL     1     -34.956   5.846   3.871  1.00 20.00     0.036 C 
HETATM   10  C5  UNL     1     -34.847   4.628   4.750  1.00 20.00     0.008 C 
ENDBRANCH   2   9
TORSDOF 3
ENDMDL
MODEL 2
REMARK VINA RESULT:      -4.5      1.319      1.637
REMARK  3 active torsions:
REMARK  status: ('A' for Active; 'I' for Inactive)
REMARK    1  A    between atoms: C1_1  and  C2_2 
REMARK    2  A    between atoms: C1_1  and  O10_10 
REMARK    3  A    between atoms: C3_3  and  C7_7 
ROOT
HETATM    1  C2  UNL     1     -33.721   7.097   3.548  1.00 20.00     0.256 A 
HETATM    2  C3  UNL     1     -33.910   5.598   3.434  1.00 20.00     0.093 A 
HETATM    3  C4  UNL     1     -32.882   4.736   2.771  1.00 20.00     0.049 C 
HETATM    4  O9  UNL     1     -34.562   6.510   2.541  1.00 20.00    -0.359 OA
ENDROOT
BRANCH   1   5
HETATM    5  C1  UNL     1     -32.540   7.770   3.003  1.00 20.00     0.290 C 
HETATM    6  O8  UNL     1     -31.515   7.977   3.640  1.00 20.00    -0.262 OA
BRANCH   5   7
HETATM    7  O10 UNL     1     -32.771   8.115   1.706  1.00 20.00    -0.324 OA
HETATM    8  C6  UNL     1     -32.231   9.378   1.301  1.00 20.00     0.213 C 
ENDBRANCH   5   7
ENDBRANCH   1   5
BRANCH   2   9
HETATM    9  C7  UNL     1     -34.842   4.917   4.386  1.00 20.00     0.036 C 
HETATM   10  C5  UNL     1     -34.514   5.199   5.827  1.00 20.00     0.008 C 
ENDBRANCH   2   9
TORSDOF 3
ENDMDL
MODEL 3
REMARK VINA RESULT:      -4.2      1.520      4.263
REMARK  3 active torsions:
REMARK  status: ('A' for Active; 'I' for Inactive)
REMARK    1  A    between atoms: C1_1  and  C2_2 
REMARK    2  A    between atoms: C1_1  and  O10_10 
REMARK    3  A    between atoms: C3_3  and  C7_7 
ROOT
HETATM    1  C2  UNL     1     -33.336   7.002   2.111  1.00 20.00     0.256 A 
HETATM    2  C3  UNL     1     -32.349   8.131   2.322  1.00 20.00     0.093 A 
HETATM    3  C4  UNL     1     -31.384   8.114   3.466  1.00 20.00     0.049 C 
HETATM    4  O9  UNL     1     -33.719   8.244   2.725  1.00 20.00    -0.359 OA
ENDROOT
BRANCH   1   5
HETATM    5  C1  UNL     1     -33.404   5.856   3.020  1.00 20.00     0.290 C 
HETATM    6  O8  UNL     1     -32.813   4.801   2.837  1.00 20.00    -0.262 OA
BRANCH   5   7
HETATM    7  O10 UNL     1     -34.214   6.158   4.074  1.00 20.00    -0.324 OA
HETATM    8  C6  UNL     1     -34.658   5.038   4.848  1.00 20.00     0.213 C 
ENDBRANCH   5   7
ENDBRANCH   1   5
BRANCH   2   9
HETATM    9  C7  UNL     1     -31.989   8.999   1.158  1.00 20.00     0.036 C 
HETATM   10  C5  UNL     1     -32.698  10.326   1.178  1.00 20.00     0.008 C 
ENDBRANCH   2   9
TORSDOF 3
ENDMDL
MODEL 4
REMARK VINA RESULT:      -4.2     10.403     11.639
REMARK  3 active torsions:
REMARK  status: ('A' for Active; 'I' for Inactive)
REMARK    1  A    between atoms: C1_1  and  C2_2 
REMARK    2  A    between atoms: C1_1  and  O10_10 
REMARK    3  A    between atoms: C3_3  and  C7_7 
ROOT
HETATM    1  C2  UNL     1     -34.978  13.982  -4.266  1.00 20.00     0.256 A 
HETATM    2  C3  UNL     1     -34.251  15.293  -4.490  1.00 20.00     0.093 A 
HETATM    3  C4  UNL     1     -34.479  16.104  -5.727  1.00 20.00     0.049 C 
HETATM    4  O9  UNL     1     -33.621  14.030  -4.736  1.00 20.00    -0.359 OA
ENDROOT
BRANCH   1   5
HETATM    5  C1  UNL     1     -35.918  13.443  -5.250  1.00 20.00     0.290 C 
HETATM    6  O8  UNL     1     -37.117  13.690  -5.259  1.00 20.00    -0.262 OA
BRANCH   5   7
HETATM    7  O10 UNL     1     -35.250  12.643  -6.128  1.00 20.00    -0.324 OA
HETATM    8  C6  UNL     1     -35.350  13.023  -7.504  1.00 20.00     0.213 C 
ENDBRANCH   5   7
ENDBRANCH   1   5
BRANCH   2   9
HETATM    9  C7  UNL     1     -33.700  16.022  -3.305  1.00 20.00     0.036 C 
HETATM   10  C5  UNL     1     -33.675  17.514  -3.498  1.00 20.00     0.008 C 
ENDBRANCH   2   9
TORSDOF 3
ENDMDL
MODEL 5
REMARK VINA RESULT:      -4.2     10.519     11.617
REMARK  3 active torsions:
REMARK  status: ('A' for Active; 'I' for Inactive)
REMARK    1  A    between atoms: C1_1  and  C2_2 
REMARK    2  A    between atoms: C1_1  and  O10_10 
REMARK    3  A    between atoms: C3_3  and  C7_7 
ROOT
HETATM    1  C2  UNL     1     -35.613  13.963  -4.776  1.00 20.00     0.256 A 
HETATM    2  C3  UNL     1     -34.495  14.907  -4.379  1.00 20.00     0.093 A 
HETATM    3  C4  UNL     1     -33.460  15.342  -5.369  1.00 20.00     0.049 C 
HETATM    4  O9  UNL     1     -34.447  13.508  -4.070  1.00 20.00    -0.359 OA
ENDROOT
BRANCH   1   5
HETATM    5  C1  UNL     1     -35.722  13.424  -6.132  1.00 20.00     0.290 C 
HETATM    6  O8  UNL     1     -35.024  12.517  -6.567  1.00 20.00    -0.262 OA
BRANCH   5   7
HETATM    7  O10 UNL     1     -36.703  14.086  -6.808  1.00 20.00    -0.324 OA
HETATM    8  C6  UNL     1     -36.248  15.013  -7.799  1.00 20.00     0.213 C 
ENDBRANCH   5   7
ENDBRANCH   1   5
BRANCH   2   9
HETATM    9  C7  UNL     1     -34.685  15.783  -3.181  1.00 20.00     0.036 C 
HETATM   10  C5  UNL     1     -33.538  16.735  -2.967  1.00 20.00     0.008 C 
ENDBRANCH   2   9
TORSDOF 3
ENDMDL
MODEL 6
REMARK VINA RESULT:      -4.1     10.450     11.632
REMARK  3 active torsions:
REMARK  status: ('A' for Active; 'I' for Inactive)
REMARK    1  A    between atoms: C1_1  and  C2_2 
REMARK    2  A    between atoms: C1_1  and  O10_10 
REMARK    3  A    between atoms: C3_3  and  C7_7 
ROOT
HETATM    1  C2  UNL     1     -35.313  14.042  -4.546  1.00 20.00     0.256 A 
HETATM    2  C3  UNL     1     -34.174  15.039  -4.485  1.00 20.00     0.093 A 
HETATM    3  C4  UNL     1     -33.470  15.490  -5.726  1.00 20.00     0.049 C 
HETATM    4  O9  UNL     1     -33.979  13.652  -4.181  1.00 20.00    -0.359 OA
ENDROOT
BRANCH   1   5
HETATM    5  C1  UNL     1     -35.764  13.463  -5.813  1.00 20.00     0.290 C 
HETATM    6  O8  UNL     1     -35.229  12.508  -6.359  1.00 20.00    -0.262 OA
BRANCH   5   7
HETATM    7  O10 UNL     1     -36.849  14.152  -6.267  1.00 20.00    -0.324 OA
HETATM    8  C6  UNL     1     -37.843  14.451  -5.281  1.00 20.00     0.213 C 
ENDBRANCH   5   7
ENDBRANCH   1   5
BRANCH   2   9
HETATM    9  C7  UNL     1     -34.069  15.938  -3.293  1.00 20.00     0.036 C 
HETATM   10  C5  UNL     1     -33.648  17.338  -3.653  1.00 20.00     0.008 C 
ENDBRANCH   2   9
TORSDOF 3
ENDMDL
MODEL 7
REMARK VINA RESULT:      -3.9     10.715     11.480
REMARK  3 active torsions:
REMARK  status: ('A' for Active; 'I' for Inactive)
REMARK    1  A    between atoms: C1_1  and  C2_2 
REMARK    2  A    between atoms: C1_1  and  O10_10 
REMARK    3  A    between atoms: C3_3  and  C7_7 
ROOT
HETATM    1  C2  UNL     1     -33.734  15.355  -4.134  1.00 20.00     0.256 A 
HETATM    2  C3  UNL     1     -34.388  16.387  -3.238  1.00 20.00     0.093 A 
HETATM    3  C4  UNL     1     -35.874  16.438  -3.071  1.00 20.00     0.049 C 
HETATM    4  O9  UNL     1     -33.944  16.711  -4.562  1.00 20.00    -0.359 OA
ENDROOT
BRANCH   1   5
HETATM    5  C1  UNL     1     -34.521  14.377  -4.886  1.00 20.00     0.290 C 
HETATM    6  O8  UNL     1     -34.993  13.358  -4.400  1.00 20.00    -0.262 OA
BRANCH   5   7
HETATM    7  O10 UNL     1     -34.633  14.782  -6.182  1.00 20.00    -0.324 OA
HETATM    8  C6  UNL     1     -34.403  13.768  -7.165  1.00 20.00     0.213 C 
ENDBRANCH   5   7
ENDBRANCH   1   5
BRANCH   2   9
HETATM    9  C7  UNL     1     -33.572  17.022  -2.156  1.00 20.00     0.036 C 
HETATM   10  C5  UNL     1     -34.392  17.401  -0.952  1.00 20.00     0.008 C 
ENDBRANCH   2   9
TORSDOF 3
ENDMDL
MODEL 8
REMARK VINA RESULT:      -3.8     10.888     12.283
REMARK  3 active torsions:
REMARK  status: ('A' for Active; 'I' for Inactive)
REMARK    1  A    between atoms: C1_1  and  C2_2 
REMARK    2  A    between atoms: C1_1  and  O10_10 
REMARK    3  A    between atoms: C3_3  and  C7_7 
ROOT
HETATM    1  C2  UNL     1     -35.767  15.096  -5.862  1.00 20.00     0.256 A 
HETATM    2  C3  UNL     1     -34.766  15.808  -4.975  1.00 20.00     0.093 A 
HETATM    3  C4  UNL     1     -34.388  15.257  -3.636  1.00 20.00     0.049 C 
HETATM    4  O9  UNL     1     -36.132  16.231  -5.060  1.00 20.00    -0.359 OA
ENDROOT
BRANCH   1   5
HETATM    5  C1  UNL     1     -36.419  13.853  -5.446  1.00 20.00     0.290 C 
HETATM    6  O8  UNL     1     -37.480  13.807  -4.837  1.00 20.00    -0.262 OA
BRANCH   5   7
HETATM    7  O10 UNL     1     -35.665  12.789  -5.841  1.00 20.00    -0.324 OA
HETATM    8  C6  UNL     1     -35.056  12.912  -7.131  1.00 20.00     0.213 C 
ENDBRANCH   5   7
ENDBRANCH   1   5
BRANCH   2   9
HETATM    9  C7  UNL     1     -33.799  16.761  -5.603  1.00 20.00     0.036 C 
HETATM   10  C5  UNL     1     -33.585  18.002  -4.780  1.00 20.00     0.008 C 
ENDBRANCH   2   9
TORSDOF 3
ENDMDL
MODEL 9
REMARK VINA RESULT:      -3.8      1.928      4.254
REMARK  3 active torsions:
REMARK  status: ('A' for Active; 'I' for Inactive)
REMARK    1  A    between atoms: C1_1  and  C2_2 
REMARK    2  A    between atoms: C1_1  and  O10_10 
REMARK    3  A    between atoms: C3_3  and  C7_7 
ROOT
HETATM    1  C2  UNL     1     -34.022   6.583   3.950  1.00 20.00     0.256 A 
HETATM    2  C3  UNL     1     -32.939   7.489   3.400  1.00 20.00     0.093 A 
HETATM    3  C4  UNL     1     -31.950   8.152   4.307  1.00 20.00     0.049 C 
HETATM    4  O9  UNL     1     -34.285   7.947   3.581  1.00 20.00    -0.359 OA
ENDROOT
BRANCH   1   5
HETATM    5  C1  UNL     1     -34.161   6.329   5.384  1.00 20.00     0.290 C 
HETATM    6  O8  UNL     1     -34.103   7.198   6.243  1.00 20.00    -0.262 OA
BRANCH   5   7
HETATM    7  O10 UNL     1     -34.359   4.997   5.594  1.00 20.00    -0.324 OA
HETATM    8  C6  UNL     1     -34.332   4.179   4.419  1.00 20.00     0.213 C 
ENDBRANCH   5   7
ENDBRANCH   1   5
BRANCH   2   9
HETATM    9  C7  UNL     1     -32.539   7.344   1.966  1.00 20.00     0.036 C 
HETATM   10  C5  UNL     1     -31.970   8.612   1.388  1.00 20.00     0.008 C 
ENDBRANCH   2   9
TORSDOF 3
ENDMDL
