MODEL 1
REMARK VINA RESULT:      -5.2      0.000      0.000
REMARK  1 active torsions:
REMARK  status: ('A' for Active; 'I' for Inactive)
REMARK    1  A    between atoms: C3_3  and  C5_5 
ROOT
HETATM    1  C1  UNL     1     -32.759   5.881   2.513  1.00 20.00    -0.015 C 
HETATM    2  C2  UNL     1     -33.444   5.188   3.427  1.00 20.00    -0.021 C 
HETATM    3  C4  UNL     1     -33.897   7.480   3.839  1.00 20.00     0.032 C 
HETATM    4  C5  UNL     1     -33.104   7.330   2.539  1.00 20.00     0.110 C 
HETATM    5  C6  UNL     1     -34.373   6.060   4.226  1.00 20.00    -0.029 C 
HETATM    6  C7  UNL     1     -35.826   5.821   3.801  1.00 20.00     0.019 C 
HETATM    7  C8  UNL     1     -34.216   5.815   5.729  1.00 20.00     0.019 C 
ENDROOT
BRANCH   4   8
HETATM    8  C3  UNL     1     -31.820   8.122   2.604  1.00 20.00     0.180 C 
HETATM    9  O9  UNL     1     -31.343   8.282   3.762  1.00 20.00    -0.647 OA
HETATM   10  O10 UNL     1     -31.388   8.524   1.486  1.00 20.00    -0.647 OA
ENDBRANCH   4   8
TORSDOF 1
ENDMDL
MODEL 2
REMARK VINA RESULT:      -5.0      1.038      1.999
REMARK  1 active torsions:
REMARK  status: ('A' for Active; 'I' for Inactive)
REMARK    1  A    between atoms: C3_3  and  C5_5 
ROOT
HETATM    1  C1  UNL     1     -32.956   7.468   4.645  1.00 20.00    -0.015 C 
HETATM    2  C2  UNL     1     -34.077   6.826   4.987  1.00 20.00    -0.021 C 
HETATM    3  C4  UNL     1     -33.606   6.211   2.745  1.00 20.00     0.032 C 
HETATM    4  C5  UNL     1     -32.442   7.023   3.319  1.00 20.00     0.110 C 
HETATM    5  C6  UNL     1     -34.507   5.833   3.945  1.00 20.00    -0.029 C 
HETATM    6  C7  UNL     1     -34.231   4.403   4.423  1.00 20.00     0.019 C 
HETATM    7  C8  UNL     1     -35.989   5.994   3.595  1.00 20.00     0.019 C 
ENDROOT
BRANCH   4   8
HETATM    8  C3  UNL     1     -32.181   8.248   2.475  1.00 20.00     0.180 C 
HETATM    9  O9  UNL     1     -32.812   8.295   1.383  1.00 20.00    -0.647 OA
HETATM   10  O10 UNL     1     -31.362   9.069   2.975  1.00 20.00    -0.647 OA
ENDBRANCH   4   8
TORSDOF 1
ENDMDL
MODEL 3
REMARK VINA RESULT:      -4.8      2.719      4.012
REMARK  1 active torsions:
REMARK  status: ('A' for Active; 'I' for Inactive)
REMARK    1  A    between atoms: C3_3  and  C5_5 
ROOT
HETATM    1  C1  UNL     1     -34.657   6.997   4.273  1.00 20.00    -0.015 C 
HETATM    2  C2  UNL     1     -33.783   7.978   4.031  1.00 20.00    -0.021 C 
HETATM    3  C4  UNL     1     -32.898   6.023   3.021  1.00 20.00     0.032 C 
HETATM    4  C5  UNL     1     -34.315   5.751   3.530  1.00 20.00     0.110 C 
HETATM    5  C6  UNL     1     -32.701   7.557   3.077  1.00 20.00    -0.029 C 
HETATM    6  C7  UNL     1     -32.920   8.201   1.703  1.00 20.00     0.019 C 
HETATM    7  C8  UNL     1     -31.312   7.916   3.612  1.00 20.00     0.019 C 
ENDROOT
BRANCH   4   8
HETATM    8  C3  UNL     1     -34.317   4.600   4.507  1.00 20.00     0.180 C 
HETATM    9  O9  UNL     1     -34.150   3.458   3.996  1.00 20.00    -0.647 OA
HETATM   10  O10 UNL     1     -34.487   4.931   5.715  1.00 20.00    -0.647 OA
ENDBRANCH   4   8
TORSDOF 1
ENDMDL
MODEL 4
REMARK VINA RESULT:      -4.8      2.204      4.131
REMARK  1 active torsions:
REMARK  status: ('A' for Active; 'I' for Inactive)
REMARK    1  A    between atoms: C3_3  and  C5_5 
ROOT
HETATM    1  C1  UNL     1     -32.228   7.760   3.793  1.00 20.00    -0.015 C 
HETATM    2  C2  UNL     1     -31.499   8.524   2.975  1.00 20.00    -0.021 C 
HETATM    3  C4  UNL     1     -33.362   7.770   1.713  1.00 20.00     0.032 C 
HETATM    4  C5  UNL     1     -33.531   7.374   3.181  1.00 20.00     0.110 C 
HETATM    5  C6  UNL     1     -32.193   8.784   1.667  1.00 20.00    -0.029 C 
HETATM    6  C7  UNL     1     -32.705  10.228   1.613  1.00 20.00     0.019 C 
HETATM    7  C8  UNL     1     -31.269   8.508   0.478  1.00 20.00     0.019 C 
ENDROOT
BRANCH   4   8
HETATM    8  C3  UNL     1     -33.694   5.878   3.313  1.00 20.00     0.180 C 
HETATM    9  O9  UNL     1     -32.865   5.186   2.660  1.00 20.00    -0.647 OA
HETATM   10  O10 UNL     1     -34.642   5.514   4.065  1.00 20.00    -0.647 OA
ENDBRANCH   4   8
TORSDOF 1
ENDMDL
MODEL 5
REMARK VINA RESULT:      -4.7     11.024     12.064
REMARK  1 active torsions:
REMARK  status: ('A' for Active; 'I' for Inactive)
REMARK    1  A    between atoms: C3_3  and  C5_5 
ROOT
HETATM    1  C1  UNL     1     -33.676  14.382  -4.920  1.00 20.00    -0.015 C 
HETATM    2  C2  UNL     1     -33.291  15.654  -4.789  1.00 20.00    -0.021 C 
HETATM    3  C4  UNL     1     -35.474  15.512  -3.870  1.00 20.00     0.032 C 
HETATM    4  C5  UNL     1     -34.958  14.112  -4.210  1.00 20.00     0.110 C 
HETATM    5  C6  UNL     1     -34.254  16.460  -3.962  1.00 20.00    -0.029 C 
HETATM    6  C7  UNL     1     -33.660  16.744  -2.578  1.00 20.00     0.019 C 
HETATM    7  C8  UNL     1     -34.626  17.772  -4.656  1.00 20.00     0.019 C 
ENDROOT
BRANCH   4   8
HETATM    8  C3  UNL     1     -35.896  13.419  -5.171  1.00 20.00     0.180 C 
HETATM    9  O9  UNL     1     -35.337  12.714  -6.056  1.00 20.00    -0.647 OA
HETATM   10  O10 UNL     1     -37.123  13.636  -4.961  1.00 20.00    -0.647 OA
ENDBRANCH   4   8
TORSDOF 1
ENDMDL
MODEL 6
REMARK VINA RESULT:      -4.5      1.759      2.693
REMARK  1 active torsions:
REMARK  status: ('A' for Active; 'I' for Inactive)
REMARK    1  A    between atoms: C3_3  and  C5_5 
ROOT
HETATM    1  C1  UNL     1     -31.484   8.598   2.459  1.00 20.00    -0.015 C 
HETATM    2  C2  UNL     1     -31.906   7.846   3.479  1.00 20.00    -0.021 C 
HETATM    3  C4  UNL     1     -33.558   7.672   1.786  1.00 20.00     0.032 C 
HETATM    4  C5  UNL     1     -32.339   8.427   1.250  1.00 20.00     0.110 C 
HETATM    5  C6  UNL     1     -33.122   7.036   3.127  1.00 20.00    -0.029 C 
HETATM    6  C7  UNL     1     -32.747   5.560   2.952  1.00 20.00     0.019 C 
HETATM    7  C8  UNL     1     -34.217   7.179   4.188  1.00 20.00     0.019 C 
ENDROOT
BRANCH   4   8
HETATM    8  C3  UNL     1     -32.738   9.796   0.754  1.00 20.00     0.180 C 
HETATM    9  O9  UNL     1     -32.541  10.743   1.564  1.00 20.00    -0.647 OA
HETATM   10  O10 UNL     1     -33.219   9.816  -0.415  1.00 20.00    -0.647 OA
ENDBRANCH   4   8
TORSDOF 1
ENDMDL
MODEL 7
REMARK VINA RESULT:      -4.4     11.232     12.231
REMARK  1 active torsions:
REMARK  status: ('A' for Active; 'I' for Inactive)
REMARK    1  A    between atoms: C3_3  and  C5_5 
ROOT
HETATM    1  C1  UNL     1     -36.399  16.161  -5.081  1.00 20.00    -0.015 C 
HETATM    2  C2  UNL     1     -36.036  17.024  -4.128  1.00 20.00    -0.021 C 
HETATM    3  C4  UNL     1     -34.753  15.058  -3.783  1.00 20.00     0.032 C 
HETATM    4  C5  UNL     1     -35.531  14.950  -5.097  1.00 20.00     0.110 C 
HETATM    5  C6  UNL     1     -34.854  16.536  -3.337  1.00 20.00    -0.029 C 
HETATM    6  C7  UNL     1     -33.595  17.324  -3.718  1.00 20.00     0.019 C 
HETATM    7  C8  UNL     1     -35.106  16.642  -1.831  1.00 20.00     0.019 C 
ENDROOT
BRANCH   4   8
HETATM    8  C3  UNL     1     -36.420  13.729  -5.089  1.00 20.00     0.180 C 
HETATM    9  O9  UNL     1     -37.641  13.952  -4.863  1.00 20.00    -0.647 OA
HETATM   10  O10 UNL     1     -35.822  12.638  -5.311  1.00 20.00    -0.647 OA
ENDBRANCH   4   8
TORSDOF 1
ENDMDL
MODEL 8
REMARK VINA RESULT:      -4.3      2.526      3.897
REMARK  1 active torsions:
REMARK  status: ('A' for Active; 'I' for Inactive)
REMARK    1  A    between atoms: C3_3  and  C5_5 
ROOT
HETATM    1  C1  UNL     1     -32.931   5.459   2.893  1.00 20.00    -0.015 C 
HETATM    2  C2  UNL     1     -32.411   6.461   2.179  1.00 20.00    -0.021 C 
HETATM    3  C4  UNL     1     -33.673   7.461   3.921  1.00 20.00     0.032 C 
HETATM    4  C5  UNL     1     -33.595   5.947   4.135  1.00 20.00     0.110 C 
HETATM    5  C6  UNL     1     -32.636   7.800   2.824  1.00 20.00    -0.029 C 
HETATM    6  C7  UNL     1     -31.330   8.326   3.431  1.00 20.00     0.019 C 
HETATM    7  C8  UNL     1     -33.199   8.814   1.826  1.00 20.00     0.019 C 
ENDROOT
BRANCH   4   8
HETATM    8  C3  UNL     1     -34.979   5.348   4.201  1.00 20.00     0.180 C 
HETATM    9  O9  UNL     1     -35.055   4.225   4.773  1.00 20.00    -0.647 OA
HETATM   10  O10 UNL     1     -35.886   6.051   3.672  1.00 20.00    -0.647 OA
ENDBRANCH   4   8
TORSDOF 1
ENDMDL
MODEL 9
REMARK VINA RESULT:      -4.1     10.840     11.880
REMARK  1 active torsions:
REMARK  status: ('A' for Active; 'I' for Inactive)
REMARK    1  A    between atoms: C3_3  and  C5_5 
ROOT
HETATM    1  C1  UNL     1     -35.909  15.712  -3.522  1.00 20.00    -0.015 C 
HETATM    2  C2  UNL     1     -35.764  16.655  -2.587  1.00 20.00    -0.021 C 
HETATM    3  C4  UNL     1     -33.641  16.387  -3.611  1.00 20.00     0.032 C 
HETATM    4  C5  UNL     1     -34.694  15.579  -4.373  1.00 20.00     0.110 C 
HETATM    5  C6  UNL     1     -34.417  17.320  -2.652  1.00 20.00    -0.029 C 
HETATM    6  C7  UNL     1     -34.549  18.734  -3.230  1.00 20.00     0.019 C 
HETATM    7  C8  UNL     1     -33.752  17.374  -1.275  1.00 20.00     0.019 C 
ENDROOT
BRANCH   4   8
HETATM    8  C3  UNL     1     -34.308  14.119  -4.425  1.00 20.00     0.180 C 
HETATM    9  O9  UNL     1     -35.261  13.316  -4.625  1.00 20.00    -0.647 OA
HETATM   10  O10 UNL     1     -33.076  13.892  -4.261  1.00 20.00    -0.647 OA
ENDBRANCH   4   8
TORSDOF 1
ENDMDL
