MODEL 1
REMARK VINA RESULT:      -5.0      0.000      0.000
REMARK  3 active torsions:
REMARK  status: ('A' for Active; 'I' for Inactive)
REMARK    1  A    between atoms: C1_1  and  C4_4 
REMARK    2  A    between atoms: C2_2  and  C5_5 
REMARK    3  A    between atoms: C3_3  and  C4_4 
ROOT
HETATM    1  C1  UNL     1     -33.786   6.943   3.725  1.00 20.00    -0.019 C 
HETATM    2  C2  UNL     1     -32.953   7.147   2.693  1.00 20.00    -0.015 C 
ENDROOT
BRANCH   1   3
HETATM    3  C4  UNL     1     -34.890   5.930   3.713  1.00 20.00     0.140 C 
BRANCH   3   4
HETATM    4  C3  UNL     1     -34.572   4.880   4.771  1.00 20.00     0.176 C 
HETATM    5  O6  UNL     1     -34.326   3.725   4.322  1.00 20.00    -0.648 OA
HETATM    6  O7  UNL     1     -34.608   5.291   5.965  1.00 20.00    -0.648 OA
ENDBRANCH   3   4
ENDBRANCH   1   3
BRANCH   2   7
HETATM    7  C5  UNL     1     -31.864   8.168   2.699  1.00 20.00     0.141 C 
HETATM    8 CL8  UNL     1     -31.783   8.974   1.118  1.00 20.00    -0.126 Cl
ENDBRANCH   2   7
TORSDOF 3
ENDMDL
MODEL 2
REMARK VINA RESULT:      -5.0      0.031      1.144
REMARK  3 active torsions:
REMARK  status: ('A' for Active; 'I' for Inactive)
REMARK    1  A    between atoms: C1_1  and  C4_4 
REMARK    2  A    between atoms: C2_2  and  C5_5 
REMARK    3  A    between atoms: C3_3  and  C4_4 
ROOT
HETATM    1  C1  UNL     1     -33.775   6.939   3.726  1.00 20.00    -0.019 C 
HETATM    2  C2  UNL     1     -32.975   7.168   2.673  1.00 20.00    -0.015 C 
ENDROOT
BRANCH   1   3
HETATM    3  C4  UNL     1     -34.887   5.936   3.720  1.00 20.00     0.140 C 
BRANCH   3   4
HETATM    4  C3  UNL     1     -34.566   4.877   4.768  1.00 20.00     0.176 C 
HETATM    5  O6  UNL     1     -34.578   5.285   5.964  1.00 20.00    -0.648 OA
HETATM    6  O7  UNL     1     -34.315   3.727   4.311  1.00 20.00    -0.648 OA
ENDBRANCH   3   4
ENDBRANCH   1   3
BRANCH   2   7
HETATM    7  C5  UNL     1     -31.878   8.181   2.674  1.00 20.00     0.141 C 
HETATM    8 CL8  UNL     1     -31.827   9.018   1.108  1.00 20.00    -0.126 Cl
ENDBRANCH   2   7
TORSDOF 3
ENDMDL
MODEL 3
REMARK VINA RESULT:      -4.7      1.193      1.528
REMARK  3 active torsions:
REMARK  status: ('A' for Active; 'I' for Inactive)
REMARK    1  A    between atoms: C1_1  and  C4_4 
REMARK    2  A    between atoms: C2_2  and  C5_5 
REMARK    3  A    between atoms: C3_3  and  C4_4 
ROOT
HETATM    1  C1  UNL     1     -33.327   7.346   3.433  1.00 20.00    -0.019 C 
HETATM    2  C2  UNL     1     -32.258   8.091   3.112  1.00 20.00    -0.015 C 
ENDROOT
BRANCH   1   3
HETATM    3  C4  UNL     1     -33.708   7.005   4.840  1.00 20.00     0.140 C 
BRANCH   3   4
HETATM    4  C3  UNL     1     -34.661   5.817   4.791  1.00 20.00     0.176 C 
HETATM    5  O6  UNL     1     -34.535   4.989   5.738  1.00 20.00    -0.648 OA
HETATM    6  O7  UNL     1     -35.448   5.799   3.803  1.00 20.00    -0.648 OA
ENDBRANCH   3   4
ENDBRANCH   1   3
BRANCH   2   7
HETATM    7  C5  UNL     1     -31.869   8.417   1.708  1.00 20.00     0.141 C 
HETATM    8 CL8  UNL     1     -32.553   9.988   1.240  1.00 20.00    -0.126 Cl
ENDBRANCH   2   7
TORSDOF 3
ENDMDL
MODEL 4
REMARK VINA RESULT:      -4.7      4.149      5.139
REMARK  3 active torsions:
REMARK  status: ('A' for Active; 'I' for Inactive)
REMARK    1  A    between atoms: C1_1  and  C4_4 
REMARK    2  A    between atoms: C2_2  and  C5_5 
REMARK    3  A    between atoms: C3_3  and  C4_4 
ROOT
HETATM    1  C1  UNL     1     -32.931   7.165   2.817  1.00 20.00    -0.019 C 
HETATM    2  C2  UNL     1     -33.676   6.915   3.905  1.00 20.00    -0.015 C 
ENDROOT
BRANCH   1   3
HETATM    3  C4  UNL     1     -31.881   8.232   2.758  1.00 20.00     0.140 C 
BRANCH   3   4
HETATM    4  C3  UNL     1     -32.053   8.985   1.444  1.00 20.00     0.176 C 
HETATM    5  O6  UNL     1     -32.984   9.839   1.434  1.00 20.00    -0.648 OA
HETATM    6  O7  UNL     1     -31.253   8.651   0.525  1.00 20.00    -0.648 OA
ENDBRANCH   3   4
ENDBRANCH   1   3
BRANCH   2   7
HETATM    7  C5  UNL     1     -34.734   5.863   3.958  1.00 20.00     0.141 C 
HETATM    8 CL8  UNL     1     -34.664   5.013   5.517  1.00 20.00    -0.126 Cl
ENDBRANCH   2   7
TORSDOF 3
ENDMDL
MODEL 5
REMARK VINA RESULT:      -4.7      4.262      5.277
REMARK  3 active torsions:
REMARK  status: ('A' for Active; 'I' for Inactive)
REMARK    1  A    between atoms: C1_1  and  C4_4 
REMARK    2  A    between atoms: C2_2  and  C5_5 
REMARK    3  A    between atoms: C3_3  and  C4_4 
ROOT
HETATM    1  C1  UNL     1     -32.804   8.092   2.598  1.00 20.00    -0.019 C 
HETATM    2  C2  UNL     1     -33.017   6.803   2.907  1.00 20.00    -0.015 C 
ENDROOT
BRANCH   1   3
HETATM    3  C4  UNL     1     -31.850   8.543   1.536  1.00 20.00     0.140 C 
BRANCH   3   4
HETATM    4  C3  UNL     1     -32.549   9.611   0.702  1.00 20.00     0.176 C 
HETATM    5  O6  UNL     1     -32.668  10.736   1.264  1.00 20.00    -0.648 OA
HETATM    6  O7  UNL     1     -32.935   9.233  -0.440  1.00 20.00    -0.648 OA
ENDBRANCH   3   4
ENDBRANCH   1   3
BRANCH   2   7
HETATM    7  C5  UNL     1     -33.956   6.354   3.978  1.00 20.00     0.141 C 
HETATM    8 CL8  UNL     1     -33.663   7.280   5.465  1.00 20.00    -0.126 Cl
ENDBRANCH   2   7
TORSDOF 3
ENDMDL
MODEL 6
REMARK VINA RESULT:      -4.5      1.597      1.991
REMARK  3 active torsions:
REMARK  status: ('A' for Active; 'I' for Inactive)
REMARK    1  A    between atoms: C1_1  and  C4_4 
REMARK    2  A    between atoms: C2_2  and  C5_5 
REMARK    3  A    between atoms: C3_3  and  C4_4 
ROOT
HETATM    1  C1  UNL     1     -32.815   7.544   2.287  1.00 20.00    -0.019 C 
HETATM    2  C2  UNL     1     -32.207   8.713   2.031  1.00 20.00    -0.015 C 
ENDROOT
BRANCH   1   3
HETATM    3  C4  UNL     1     -33.287   7.135   3.648  1.00 20.00     0.140 C 
BRANCH   3   4
HETATM    4  C3  UNL     1     -34.020   5.806   3.508  1.00 20.00     0.176 C 
HETATM    5  O6  UNL     1     -33.349   4.878   2.974  1.00 20.00    -0.648 OA
HETATM    6  O7  UNL     1     -35.210   5.801   3.930  1.00 20.00    -0.648 OA
ENDBRANCH   3   4
ENDBRANCH   1   3
BRANCH   2   7
HETATM    7  C5  UNL     1     -31.722   9.114   0.677  1.00 20.00     0.141 C 
HETATM    8 CL8  UNL     1     -33.104   9.469  -0.380  1.00 20.00    -0.126 Cl
ENDBRANCH   2   7
TORSDOF 3
ENDMDL
MODEL 7
REMARK VINA RESULT:      -3.8     11.369     11.737
REMARK  3 active torsions:
REMARK  status: ('A' for Active; 'I' for Inactive)
REMARK    1  A    between atoms: C1_1  and  C4_4 
REMARK    2  A    between atoms: C2_2  and  C5_5 
REMARK    3  A    between atoms: C3_3  and  C4_4 
ROOT
HETATM    1  C1  UNL     1     -35.011  15.843  -3.360  1.00 20.00    -0.019 C 
HETATM    2  C2  UNL     1     -35.563  16.447  -2.297  1.00 20.00    -0.015 C 
ENDROOT
BRANCH   1   3
HETATM    3  C4  UNL     1     -35.801  15.123  -4.409  1.00 20.00     0.140 C 
BRANCH   3   4
HETATM    4  C3  UNL     1     -35.185  13.741  -4.593  1.00 20.00     0.176 C 
HETATM    5  O6  UNL     1     -35.929  12.894  -5.163  1.00 20.00    -0.648 OA
HETATM    6  O7  UNL     1     -34.013  13.611  -4.140  1.00 20.00    -0.648 OA
ENDBRANCH   3   4
ENDBRANCH   1   3
BRANCH   2   7
HETATM    7  C5  UNL     1     -34.773  17.150  -1.243  1.00 20.00     0.141 C 
HETATM    8 CL8  UNL     1     -33.117  17.436  -1.819  1.00 20.00    -0.126 Cl
ENDBRANCH   2   7
TORSDOF 3
ENDMDL
MODEL 8
REMARK VINA RESULT:      -3.8     11.630     11.919
REMARK  3 active torsions:
REMARK  status: ('A' for Active; 'I' for Inactive)
REMARK    1  A    between atoms: C1_1  and  C4_4 
REMARK    2  A    between atoms: C2_2  and  C5_5 
REMARK    3  A    between atoms: C3_3  and  C4_4 
ROOT
HETATM    1  C1  UNL     1     -34.679  15.466  -3.466  1.00 20.00    -0.019 C 
HETATM    2  C2  UNL     1     -33.698  16.281  -3.048  1.00 20.00    -0.015 C 
ENDROOT
BRANCH   1   3
HETATM    3  C4  UNL     1     -34.500  14.434  -4.536  1.00 20.00     0.140 C 
BRANCH   3   4
HETATM    4  C3  UNL     1     -35.872  13.856  -4.861  1.00 20.00     0.176 C 
HETATM    5  O6  UNL     1     -36.847  14.629  -4.639  1.00 20.00    -0.648 OA
HETATM    6  O7  UNL     1     -35.866  12.671  -5.300  1.00 20.00    -0.648 OA
ENDBRANCH   3   4
ENDBRANCH   1   3
BRANCH   2   7
HETATM    7  C5  UNL     1     -33.881  17.321  -1.992  1.00 20.00     0.141 C 
HETATM    8 CL8  UNL     1     -35.317  16.945  -1.016  1.00 20.00    -0.126 Cl
ENDBRANCH   2   7
TORSDOF 3
ENDMDL
MODEL 9
REMARK VINA RESULT:      -3.7     11.564     11.962
REMARK  3 active torsions:
REMARK  status: ('A' for Active; 'I' for Inactive)
REMARK    1  A    between atoms: C1_1  and  C4_4 
REMARK    2  A    between atoms: C2_2  and  C5_5 
REMARK    3  A    between atoms: C3_3  and  C4_4 
ROOT
HETATM    1  C1  UNL     1     -34.601  15.377  -3.441  1.00 20.00    -0.019 C 
HETATM    2  C2  UNL     1     -33.692  16.334  -3.199  1.00 20.00    -0.015 C 
ENDROOT
BRANCH   1   3
HETATM    3  C4  UNL     1     -34.408  14.283  -4.444  1.00 20.00     0.140 C 
BRANCH   3   4
HETATM    4  C3  UNL     1     -35.779  13.898  -4.987  1.00 20.00     0.176 C 
HETATM    5  O6  UNL     1     -35.905  12.684  -5.314  1.00 20.00    -0.648 OA
HETATM    6  O7  UNL     1     -36.614  14.843  -5.056  1.00 20.00    -0.648 OA
ENDBRANCH   3   4
ENDBRANCH   1   3
BRANCH   2   7
HETATM    7  C5  UNL     1     -33.893  17.436  -2.211  1.00 20.00     0.141 C 
HETATM    8 CL8  UNL     1     -35.194  17.004  -1.082  1.00 20.00    -0.126 Cl
ENDBRANCH   2   7
TORSDOF 3
ENDMDL
