MODEL 1
REMARK VINA RESULT:      -5.3      0.000      0.000
REMARK  2 active torsions:
REMARK  status: ('A' for Active; 'I' for Inactive)
REMARK    1  A    between atoms: C2_2  and  C3_3 
REMARK    2  A    between atoms: C3_3  and  C4_4 
ROOT
HETATM    1  C3  UNL     1     -33.764   6.745   4.532  1.00 20.00     0.254 C 
HETATM    2  O5  UNL     1     -33.568   7.422   5.537  1.00 20.00    -0.283 OA
ENDROOT
BRANCH   1   3
HETATM    3  C2  UNL     1     -33.118   7.052   3.228  1.00 20.00     0.049 C 
HETATM    4  C1  UNL     1     -32.046   7.846   3.166  1.00 20.00     0.015 C 
ENDBRANCH   1   3
BRANCH   1   5
HETATM    5  C4  UNL     1     -34.676   5.552   4.551  1.00 20.00     0.455 C 
HETATM    6  F6  UNL     1     -34.112   4.473   3.954  1.00 20.00    -0.163 F 
HETATM    7  F7  UNL     1     -34.999   5.181   5.816  1.00 20.00    -0.163 F 
HETATM    8  F8  UNL     1     -35.844   5.793   3.903  1.00 20.00    -0.163 F 
ENDBRANCH   1   5
TORSDOF 2
ENDMDL
MODEL 2
REMARK VINA RESULT:      -5.3      0.026      1.338
REMARK  2 active torsions:
REMARK  status: ('A' for Active; 'I' for Inactive)
REMARK    1  A    between atoms: C2_2  and  C3_3 
REMARK    2  A    between atoms: C3_3  and  C4_4 
ROOT
HETATM    1  C3  UNL     1     -33.771   6.735   4.530  1.00 20.00     0.254 C 
HETATM    2  O5  UNL     1     -33.553   7.404   5.535  1.00 20.00    -0.283 OA
ENDROOT
BRANCH   1   3
HETATM    3  C2  UNL     1     -33.148   7.047   3.216  1.00 20.00     0.049 C 
HETATM    4  C1  UNL     1     -32.073   7.835   3.138  1.00 20.00     0.015 C 
ENDBRANCH   1   3
BRANCH   1   5
HETATM    5  C4  UNL     1     -34.688   5.546   4.559  1.00 20.00     0.455 C 
HETATM    6  F6  UNL     1     -35.015   5.187   5.826  1.00 20.00    -0.163 F 
HETATM    7  F7  UNL     1     -35.852   5.786   3.903  1.00 20.00    -0.163 F 
HETATM    8  F8  UNL     1     -34.128   4.456   3.976  1.00 20.00    -0.163 F 
ENDBRANCH   1   5
TORSDOF 2
ENDMDL
MODEL 3
REMARK VINA RESULT:      -5.3      0.036      1.335
REMARK  2 active torsions:
REMARK  status: ('A' for Active; 'I' for Inactive)
REMARK    1  A    between atoms: C2_2  and  C3_3 
REMARK    2  A    between atoms: C3_3  and  C4_4 
ROOT
HETATM    1  C3  UNL     1     -33.758   6.724   4.520  1.00 20.00     0.254 C 
HETATM    2  O5  UNL     1     -33.526   7.385   5.528  1.00 20.00    -0.283 OA
ENDROOT
BRANCH   1   3
HETATM    3  C2  UNL     1     -33.148   7.042   3.202  1.00 20.00     0.049 C 
HETATM    4  C1  UNL     1     -32.080   7.840   3.117  1.00 20.00     0.015 C 
ENDBRANCH   1   3
BRANCH   1   5
HETATM    5  C4  UNL     1     -34.681   5.539   4.550  1.00 20.00     0.455 C 
HETATM    6  F6  UNL     1     -35.849   5.789   3.907  1.00 20.00    -0.163 F 
HETATM    7  F7  UNL     1     -34.128   4.450   3.958  1.00 20.00    -0.163 F 
HETATM    8  F8  UNL     1     -35.002   5.175   5.817  1.00 20.00    -0.163 F 
ENDBRANCH   1   5
TORSDOF 2
ENDMDL
MODEL 4
REMARK VINA RESULT:      -5.3      2.602      3.031
REMARK  2 active torsions:
REMARK  status: ('A' for Active; 'I' for Inactive)
REMARK    1  A    between atoms: C2_2  and  C3_3 
REMARK    2  A    between atoms: C3_3  and  C4_4 
ROOT
HETATM    1  C3  UNL     1     -34.187   4.973   4.061  1.00 20.00     0.254 C 
HETATM    2  O5  UNL     1     -34.289   3.787   4.360  1.00 20.00    -0.283 OA
ENDROOT
BRANCH   1   3
HETATM    3  C2  UNL     1     -34.774   6.056   4.893  1.00 20.00     0.049 C 
HETATM    4  C1  UNL     1     -34.039   6.686   5.814  1.00 20.00     0.015 C 
ENDBRANCH   1   3
BRANCH   1   5
HETATM    5  C4  UNL     1     -33.459   5.414   2.824  1.00 20.00     0.455 C 
HETATM    6  F6  UNL     1     -32.482   6.313   3.103  1.00 20.00    -0.163 F 
HETATM    7  F7  UNL     1     -32.866   4.372   2.185  1.00 20.00    -0.163 F 
HETATM    8  F8  UNL     1     -34.288   6.003   1.925  1.00 20.00    -0.163 F 
ENDBRANCH   1   5
TORSDOF 2
ENDMDL
MODEL 5
REMARK VINA RESULT:      -5.2      1.615      1.629
REMARK  2 active torsions:
REMARK  status: ('A' for Active; 'I' for Inactive)
REMARK    1  A    between atoms: C2_2  and  C3_3 
REMARK    2  A    between atoms: C3_3  and  C4_4 
ROOT
HETATM    1  C3  UNL     1     -33.609   5.709   3.207  1.00 20.00     0.254 C 
HETATM    2  O5  UNL     1     -33.026   4.760   2.691  1.00 20.00    -0.283 OA
ENDROOT
BRANCH   1   3
HETATM    3  C2  UNL     1     -33.287   7.120   2.867  1.00 20.00     0.049 C 
HETATM    4  C1  UNL     1     -32.160   7.689   3.300  1.00 20.00     0.015 C 
ENDBRANCH   1   3
BRANCH   1   5
HETATM    5  C4  UNL     1     -34.694   5.507   4.226  1.00 20.00     0.455 C 
HETATM    6  F6  UNL     1     -34.810   4.207   4.593  1.00 20.00    -0.163 F 
HETATM    7  F7  UNL     1     -34.465   6.220   5.359  1.00 20.00    -0.163 F 
HETATM    8  F8  UNL     1     -35.908   5.894   3.760  1.00 20.00    -0.163 F 
ENDBRANCH   1   5
TORSDOF 2
ENDMDL
MODEL 6
REMARK VINA RESULT:      -5.2      1.603      1.947
REMARK  2 active torsions:
REMARK  status: ('A' for Active; 'I' for Inactive)
REMARK    1  A    between atoms: C2_2  and  C3_3 
REMARK    2  A    between atoms: C3_3  and  C4_4 
ROOT
HETATM    1  C3  UNL     1     -33.605   5.733   3.222  1.00 20.00     0.254 C 
HETATM    2  O5  UNL     1     -33.015   4.799   2.687  1.00 20.00    -0.283 OA
ENDROOT
BRANCH   1   3
HETATM    3  C2  UNL     1     -33.295   7.153   2.908  1.00 20.00     0.049 C 
HETATM    4  C1  UNL     1     -32.123   7.691   3.255  1.00 20.00     0.015 C 
ENDBRANCH   1   3
BRANCH   1   5
HETATM    5  C4  UNL     1     -34.688   5.503   4.236  1.00 20.00     0.455 C 
HETATM    6  F6  UNL     1     -35.907   5.875   3.771  1.00 20.00    -0.163 F 
HETATM    7  F7  UNL     1     -34.782   4.196   4.592  1.00 20.00    -0.163 F 
HETATM    8  F8  UNL     1     -34.474   6.205   5.378  1.00 20.00    -0.163 F 
ENDBRANCH   1   5
TORSDOF 2
ENDMDL
MODEL 7
REMARK VINA RESULT:      -5.1      2.191      3.202
REMARK  2 active torsions:
REMARK  status: ('A' for Active; 'I' for Inactive)
REMARK    1  A    between atoms: C2_2  and  C3_3 
REMARK    2  A    between atoms: C3_3  and  C4_4 
ROOT
HETATM    1  C3  UNL     1     -33.821   6.916   4.739  1.00 20.00     0.254 C 
HETATM    2  O5  UNL     1     -33.757   7.446   5.843  1.00 20.00    -0.283 OA
ENDROOT
BRANCH   1   3
HETATM    3  C2  UNL     1     -34.805   5.845   4.426  1.00 20.00     0.049 C 
HETATM    4  C1  UNL     1     -34.615   4.595   4.855  1.00 20.00     0.015 C 
ENDBRANCH   1   3
BRANCH   1   5
HETATM    5  C4  UNL     1     -32.903   7.314   3.619  1.00 20.00     0.455 C 
HETATM    6  F6  UNL     1     -33.512   8.139   2.732  1.00 20.00    -0.163 F 
HETATM    7  F7  UNL     1     -31.802   7.966   4.074  1.00 20.00    -0.163 F 
HETATM    8  F8  UNL     1     -32.460   6.241   2.916  1.00 20.00    -0.163 F 
ENDBRANCH   1   5
TORSDOF 2
ENDMDL
MODEL 8
REMARK VINA RESULT:      -5.1      2.202      3.195
REMARK  2 active torsions:
REMARK  status: ('A' for Active; 'I' for Inactive)
REMARK    1  A    between atoms: C2_2  and  C3_3 
REMARK    2  A    between atoms: C3_3  and  C4_4 
ROOT
HETATM    1  C3  UNL     1     -33.823   6.916   4.732  1.00 20.00     0.254 C 
HETATM    2  O5  UNL     1     -33.773   7.439   5.841  1.00 20.00    -0.283 OA
ENDROOT
BRANCH   1   3
HETATM    3  C2  UNL     1     -34.798   5.842   4.403  1.00 20.00     0.049 C 
HETATM    4  C1  UNL     1     -34.598   4.587   4.815  1.00 20.00     0.015 C 
ENDBRANCH   1   3
BRANCH   1   5
HETATM    5  C4  UNL     1     -32.898   7.327   3.623  1.00 20.00     0.455 C 
HETATM    6  F6  UNL     1     -32.424   6.259   2.934  1.00 20.00    -0.163 F 
HETATM    7  F7  UNL     1     -33.513   8.138   2.723  1.00 20.00    -0.163 F 
HETATM    8  F8  UNL     1     -31.817   8.006   4.086  1.00 20.00    -0.163 F 
ENDBRANCH   1   5
TORSDOF 2
ENDMDL
MODEL 9
REMARK VINA RESULT:      -4.8      1.731      2.552
REMARK  2 active torsions:
REMARK  status: ('A' for Active; 'I' for Inactive)
REMARK    1  A    between atoms: C2_2  and  C3_3 
REMARK    2  A    between atoms: C3_3  and  C4_4 
ROOT
HETATM    1  C3  UNL     1     -33.180   6.868   3.582  1.00 20.00     0.254 C 
HETATM    2  O5  UNL     1     -32.161   7.446   3.215  1.00 20.00    -0.283 OA
ENDROOT
BRANCH   1   3
HETATM    3  C2  UNL     1     -34.026   7.376   4.694  1.00 20.00     0.049 C 
HETATM    4  C1  UNL     1     -33.626   7.268   5.964  1.00 20.00     0.015 C 
ENDBRANCH   1   3
BRANCH   1   5
HETATM    5  C4  UNL     1     -33.643   5.598   2.929  1.00 20.00     0.455 C 
HETATM    6  F6  UNL     1     -34.387   5.839   1.820  1.00 20.00    -0.163 F 
HETATM    7  F7  UNL     1     -32.602   4.815   2.544  1.00 20.00    -0.163 F 
HETATM    8  F8  UNL     1     -34.410   4.847   3.760  1.00 20.00    -0.163 F 
ENDBRANCH   1   5
TORSDOF 2
ENDMDL
