MODEL 1
REMARK VINA RESULT:      -4.9      0.000      0.000
REMARK  0 active torsions:
REMARK  status: ('A' for Active; 'I' for Inactive)
ROOT
HETATM    1  C1  UNL     1     -35.268  17.155  -5.264  1.00 20.00    -0.023 C 
HETATM    2  C2  UNL     1     -35.740  16.064  -5.885  1.00 20.00    -0.014 C 
HETATM    3  C3  UNL     1     -34.294  14.572  -4.434  1.00 20.00     0.144 C 
HETATM    4  C4  UNL     1     -34.106  17.155  -4.377  1.00 20.00     0.028 A 
HETATM    5  C5  UNL     1     -33.576  15.796  -3.987  1.00 20.00     0.073 A 
HETATM    6  C6  UNL     1     -35.165  14.676  -5.701  1.00 20.00     0.031 C 
HETATM    7  C7  UNL     1     -34.176  16.710  -2.929  1.00 20.00    -0.029 A 
HETATM    8  C8  UNL     1     -36.325  13.677  -5.576  1.00 20.00     0.027 C 
HETATM    9  C9  UNL     1     -34.294  14.314  -6.910  1.00 20.00     0.027 C 
HETATM   10  C10 UNL     1     -33.215  17.365  -1.965  1.00 20.00     0.016 C 
HETATM   11  C11 UNL     1     -35.504  16.370  -2.297  1.00 20.00     0.016 C 
HETATM   12  O12 UNL     1     -34.116  13.523  -3.822  1.00 20.00    -0.296 OA
ENDROOT
TORSDOF 0
ENDMDL
MODEL 2
REMARK VINA RESULT:      -4.7      1.500      2.120
REMARK  0 active torsions:
REMARK  status: ('A' for Active; 'I' for Inactive)
ROOT
HETATM    1  C1  UNL     1     -33.207  15.361  -5.173  1.00 20.00    -0.023 C 
HETATM    2  C2  UNL     1     -34.207  14.997  -5.989  1.00 20.00    -0.014 C 
HETATM    3  C3  UNL     1     -35.917  15.591  -4.214  1.00 20.00     0.144 C 
HETATM    4  C4  UNL     1     -33.369  15.620  -3.743  1.00 20.00     0.028 A 
HETATM    5  C5  UNL     1     -34.792  15.692  -3.244  1.00 20.00     0.073 A 
HETATM    6  C6  UNL     1     -35.649  14.864  -5.545  1.00 20.00     0.031 C 
HETATM    7  C7  UNL     1     -33.908  16.929  -3.200  1.00 20.00    -0.029 A 
HETATM    8  C8  UNL     1     -36.553  15.479  -6.625  1.00 20.00     0.027 C 
HETATM    9  C9  UNL     1     -35.997  13.382  -5.358  1.00 20.00     0.027 C 
HETATM   10  C10 UNL     1     -33.406  17.365  -1.844  1.00 20.00     0.016 C 
HETATM   11  C11 UNL     1     -34.178  18.088  -4.128  1.00 20.00     0.016 C 
HETATM   12  O12 UNL     1     -37.017  16.029  -3.893  1.00 20.00    -0.296 OA
ENDROOT
TORSDOF 0
ENDMDL
MODEL 3
REMARK VINA RESULT:      -4.5      1.469      1.884
REMARK  0 active torsions:
REMARK  status: ('A' for Active; 'I' for Inactive)
ROOT
HETATM    1  C1  UNL     1     -33.293  15.885  -6.032  1.00 20.00    -0.023 C 
HETATM    2  C2  UNL     1     -34.105  15.341  -6.949  1.00 20.00    -0.014 C 
HETATM    3  C3  UNL     1     -35.725  14.621  -5.137  1.00 20.00     0.144 C 
HETATM    4  C4  UNL     1     -33.414  15.660  -4.592  1.00 20.00     0.028 A 
HETATM    5  C5  UNL     1     -34.671  14.956  -4.140  1.00 20.00     0.073 A 
HETATM    6  C6  UNL     1     -35.294  14.467  -6.608  1.00 20.00     0.031 C 
HETATM    7  C7  UNL     1     -34.418  16.397  -3.726  1.00 20.00    -0.029 A 
HETATM    8  C8  UNL     1     -36.474  14.873  -7.505  1.00 20.00     0.027 C 
HETATM    9  C9  UNL     1     -34.939  12.995  -6.850  1.00 20.00     0.027 C 
HETATM   10  C10 UNL     1     -34.032  16.639  -2.286  1.00 20.00     0.016 C 
HETATM   11  C11 UNL     1     -35.256  17.511  -4.306  1.00 20.00     0.016 C 
HETATM   12  O12 UNL     1     -36.870  14.420  -4.745  1.00 20.00    -0.296 OA
ENDROOT
TORSDOF 0
ENDMDL
MODEL 4
REMARK VINA RESULT:      -4.5      1.486      3.976
REMARK  0 active torsions:
REMARK  status: ('A' for Active; 'I' for Inactive)
ROOT
HETATM    1  C1  UNL     1     -33.797  16.348  -6.639  1.00 20.00    -0.023 C 
HETATM    2  C2  UNL     1     -32.996  15.970  -5.633  1.00 20.00    -0.014 C 
HETATM    3  C3  UNL     1     -34.749  14.335  -4.808  1.00 20.00     0.144 C 
HETATM    4  C4  UNL     1     -35.217  16.010  -6.729  1.00 20.00     0.028 A 
HETATM    5  C5  UNL     1     -35.714  14.989  -5.734  1.00 20.00     0.073 A 
HETATM    6  C6  UNL     1     -33.445  15.090  -4.485  1.00 20.00     0.031 C 
HETATM    7  C7  UNL     1     -35.712  14.663  -7.219  1.00 20.00    -0.029 A 
HETATM    8  C8  UNL     1     -32.344  14.057  -4.199  1.00 20.00     0.027 C 
HETATM    9  C9  UNL     1     -33.687  15.950  -3.239  1.00 20.00     0.027 C 
HETATM   10  C10 UNL     1     -37.051  14.640  -7.918  1.00 20.00     0.016 C 
HETATM   11  C11 UNL     1     -34.742  13.647  -7.772  1.00 20.00     0.016 C 
HETATM   12  O12 UNL     1     -35.055  13.265  -4.292  1.00 20.00    -0.296 OA
ENDROOT
TORSDOF 0
ENDMDL
MODEL 5
REMARK VINA RESULT:      -4.4      1.581      4.046
REMARK  0 active torsions:
REMARK  status: ('A' for Active; 'I' for Inactive)
ROOT
HETATM    1  C1  UNL     1     -33.255  14.692  -4.541  1.00 20.00    -0.023 C 
HETATM    2  C2  UNL     1     -33.575  15.526  -3.540  1.00 20.00    -0.014 C 
HETATM    3  C3  UNL     1     -35.557  16.398  -4.858  1.00 20.00     0.144 C 
HETATM    4  C4  UNL     1     -33.826  14.766  -5.884  1.00 20.00     0.028 A 
HETATM    5  C5  UNL     1     -35.003  15.698  -6.049  1.00 20.00     0.073 A 
HETATM    6  C6  UNL     1     -34.618  16.618  -3.656  1.00 20.00     0.031 C 
HETATM    7  C7  UNL     1     -35.190  14.200  -6.230  1.00 20.00    -0.029 A 
HETATM    8  C8  UNL     1     -35.464  16.625  -2.374  1.00 20.00     0.027 C 
HETATM    9  C9  UNL     1     -33.928  17.975  -3.832  1.00 20.00     0.027 C 
HETATM   10  C10 UNL     1     -35.385  13.699  -7.641  1.00 20.00     0.016 C 
HETATM   11  C11 UNL     1     -35.968  13.403  -5.210  1.00 20.00     0.016 C 
HETATM   12  O12 UNL     1     -36.706  16.826  -4.903  1.00 20.00    -0.296 OA
ENDROOT
TORSDOF 0
ENDMDL
MODEL 6
REMARK VINA RESULT:      -4.3      2.012      3.372
REMARK  0 active torsions:
REMARK  status: ('A' for Active; 'I' for Inactive)
ROOT
HETATM    1  C1  UNL     1     -33.226  18.197  -2.076  1.00 20.00    -0.023 C 
HETATM    2  C2  UNL     1     -33.298  17.881  -3.377  1.00 20.00    -0.014 C 
HETATM    3  C3  UNL     1     -35.402  16.529  -2.967  1.00 20.00     0.144 C 
HETATM    4  C4  UNL     1     -34.015  17.549  -1.030  1.00 20.00     0.028 A 
HETATM    5  C5  UNL     1     -35.123  16.641  -1.509  1.00 20.00     0.073 A 
HETATM    6  C6  UNL     1     -34.253  16.850  -3.941  1.00 20.00     0.031 C 
HETATM    7  C7  UNL     1     -35.460  17.913  -0.746  1.00 20.00    -0.029 A 
HETATM    8  C8  UNL     1     -34.859  17.402  -5.241  1.00 20.00     0.027 C 
HETATM    9  C9  UNL     1     -33.496  15.549  -4.232  1.00 20.00     0.027 C 
HETATM   10  C10 UNL     1     -35.938  17.752   0.678  1.00 20.00     0.016 C 
HETATM   11  C11 UNL     1     -36.110  19.075  -1.457  1.00 20.00     0.016 C 
HETATM   12  O12 UNL     1     -36.503  16.127  -3.330  1.00 20.00    -0.296 OA
ENDROOT
TORSDOF 0
ENDMDL
MODEL 7
REMARK VINA RESULT:      -4.3      1.888      2.890
REMARK  0 active torsions:
REMARK  status: ('A' for Active; 'I' for Inactive)
ROOT
HETATM    1  C1  UNL     1     -34.874  14.016  -4.174  1.00 20.00    -0.023 C 
HETATM    2  C2  UNL     1     -35.731  13.698  -5.155  1.00 20.00    -0.014 C 
HETATM    3  C3  UNL     1     -36.319  16.142  -5.479  1.00 20.00     0.144 C 
HETATM    4  C4  UNL     1     -34.807  15.330  -3.538  1.00 20.00     0.028 A 
HETATM    5  C5  UNL     1     -35.605  16.425  -4.204  1.00 20.00     0.073 A 
HETATM    6  C6  UNL     1     -36.704  14.680  -5.773  1.00 20.00     0.031 C 
HETATM    7  C7  UNL     1     -34.088  16.511  -4.161  1.00 20.00    -0.029 A 
HETATM    8  C8  UNL     1     -36.706  14.475  -7.296  1.00 20.00     0.027 C 
HETATM    9  C9  UNL     1     -38.110  14.435  -5.214  1.00 20.00     0.027 C 
HETATM   10  C10 UNL     1     -33.484  17.522  -3.215  1.00 20.00     0.016 C 
HETATM   11  C11 UNL     1     -33.282  16.334  -5.426  1.00 20.00     0.016 C 
HETATM   12  O12 UNL     1     -36.627  17.081  -6.207  1.00 20.00    -0.296 OA
ENDROOT
TORSDOF 0
ENDMDL
MODEL 8
REMARK VINA RESULT:      -4.3      1.970      3.326
REMARK  0 active torsions:
REMARK  status: ('A' for Active; 'I' for Inactive)
ROOT
HETATM    1  C1  UNL     1     -35.623  16.848  -5.574  1.00 20.00    -0.023 C 
HETATM    2  C2  UNL     1     -34.611  16.087  -6.015  1.00 20.00    -0.014 C 
HETATM    3  C3  UNL     1     -35.764  13.998  -5.161  1.00 20.00     0.144 C 
HETATM    4  C4  UNL     1     -36.669  16.376  -4.669  1.00 20.00     0.028 A 
HETATM    5  C5  UNL     1     -36.704  14.886  -4.423  1.00 20.00     0.073 A 
HETATM    6  C6  UNL     1     -34.453  14.619  -5.680  1.00 20.00     0.031 C 
HETATM    7  C7  UNL     1     -37.860  15.565  -5.141  1.00 20.00    -0.029 A 
HETATM    8  C8  UNL     1     -34.030  13.868  -6.952  1.00 20.00     0.027 C 
HETATM    9  C9  UNL     1     -33.382  14.449  -4.596  1.00 20.00     0.027 C 
HETATM   10  C10 UNL     1     -39.148  15.726  -4.367  1.00 20.00     0.016 C 
HETATM   11  C11 UNL     1     -38.086  15.324  -6.614  1.00 20.00     0.016 C 
HETATM   12  O12 UNL     1     -36.035  12.806  -5.268  1.00 20.00    -0.296 OA
ENDROOT
TORSDOF 0
ENDMDL
MODEL 9
REMARK VINA RESULT:      -4.3      1.491      3.629
REMARK  0 active torsions:
REMARK  status: ('A' for Active; 'I' for Inactive)
ROOT
HETATM    1  C1  UNL     1     -36.071  17.356  -5.312  1.00 20.00    -0.023 C 
HETATM    2  C2  UNL     1     -34.752  17.184  -5.145  1.00 20.00    -0.014 C 
HETATM    3  C3  UNL     1     -35.130  14.820  -4.311  1.00 20.00     0.144 C 
HETATM    4  C4  UNL     1     -37.089  16.451  -4.781  1.00 20.00     0.028 A 
HETATM    5  C5  UNL     1     -36.580  15.146  -4.217  1.00 20.00     0.073 A 
HETATM    6  C6  UNL     1     -34.141  15.995  -4.433  1.00 20.00     0.031 C 
HETATM    7  C7  UNL     1     -37.461  15.145  -5.456  1.00 20.00    -0.029 A 
HETATM    8  C8  UNL     1     -32.919  15.519  -5.233  1.00 20.00     0.027 C 
HETATM    9  C9  UNL     1     -33.710  16.405  -3.020  1.00 20.00     0.027 C 
HETATM   10  C10 UNL     1     -38.885  14.668  -5.284  1.00 20.00     0.016 C 
HETATM   11  C11 UNL     1     -36.879  14.786  -6.802  1.00 20.00     0.016 C 
HETATM   12  O12 UNL     1     -34.779  13.648  -4.223  1.00 20.00    -0.296 OA
ENDROOT
TORSDOF 0
ENDMDL
