MODEL 1
REMARK VINA RESULT:      -5.1      0.000      0.000
REMARK  2 active torsions:
REMARK  status: ('A' for Active; 'I' for Inactive)
REMARK    1  A    between atoms: C3_3  and  C5_5 
REMARK    2  A    between atoms: C4_4  and  C5_5 
ROOT
HETATM    1  C1  UNL     1     -32.163   8.252   2.402  1.00 20.00     0.012 C 
HETATM    2  C2  UNL     1     -32.708   7.205   2.623  1.00 20.00    -0.117 C 
HETATM    3  C4  UNL     1     -33.373   5.921   2.892  1.00 20.00     0.101 C 
ENDROOT
BRANCH   3   4
HETATM    4  C5  UNL     1     -34.643   6.100   3.722  1.00 20.00     0.108 C 
BRANCH   4   5
HETATM    5  C3  UNL     1     -34.441   5.836   5.207  1.00 20.00     0.219 C 
HETATM    6  O6  UNL     1     -34.679   4.754   5.734  1.00 20.00    -0.280 OA
HETATM    7 CL7  UNL     1     -33.871   7.259   6.036  1.00 20.00    -0.044 Cl
ENDBRANCH   4   5
ENDBRANCH   3   4
TORSDOF 2
ENDMDL
MODEL 2
REMARK VINA RESULT:      -4.8      2.341      3.132
REMARK  2 active torsions:
REMARK  status: ('A' for Active; 'I' for Inactive)
REMARK    1  A    between atoms: C3_3  and  C5_5 
REMARK    2  A    between atoms: C4_4  and  C5_5 
ROOT
HETATM    1  C1  UNL     1     -33.542   7.617   6.226  1.00 20.00     0.012 C 
HETATM    2  C2  UNL     1     -34.091   6.697   5.683  1.00 20.00    -0.117 C 
HETATM    3  C4  UNL     1     -34.765   5.569   5.021  1.00 20.00     0.101 C 
ENDROOT
BRANCH   3   4
HETATM    4  C5  UNL     1     -34.841   5.760   3.507  1.00 20.00     0.108 C 
BRANCH   4   5
HETATM    5  C3  UNL     1     -33.482   5.728   2.822  1.00 20.00     0.219 C 
HETATM    6  O6  UNL     1     -32.882   4.688   2.574  1.00 20.00    -0.280 OA
HETATM    7 CL7  UNL     1     -32.900   7.335   2.482  1.00 20.00    -0.044 Cl
ENDBRANCH   4   5
ENDBRANCH   3   4
TORSDOF 2
ENDMDL
MODEL 3
REMARK VINA RESULT:      -4.8      1.157      1.639
REMARK  2 active torsions:
REMARK  status: ('A' for Active; 'I' for Inactive)
REMARK    1  A    between atoms: C3_3  and  C5_5 
REMARK    2  A    between atoms: C4_4  and  C5_5 
ROOT
HETATM    1  C1  UNL     1     -32.208   9.275   1.004  1.00 20.00     0.012 C 
HETATM    2  C2  UNL     1     -32.223   8.549   1.961  1.00 20.00    -0.117 C 
HETATM    3  C4  UNL     1     -32.240   7.663   3.135  1.00 20.00     0.101 C 
ENDROOT
BRANCH   3   4
HETATM    4  C5  UNL     1     -33.225   6.508   2.963  1.00 20.00     0.108 C 
BRANCH   4   5
HETATM    5  C3  UNL     1     -34.222   6.385   4.105  1.00 20.00     0.219 C 
HETATM    6  O6  UNL     1     -35.271   5.756   4.014  1.00 20.00    -0.280 OA
HETATM    7 CL7  UNL     1     -33.694   7.268   5.512  1.00 20.00    -0.044 Cl
ENDBRANCH   4   5
ENDBRANCH   3   4
TORSDOF 2
ENDMDL
MODEL 4
REMARK VINA RESULT:      -4.8      2.028      2.382
REMARK  2 active torsions:
REMARK  status: ('A' for Active; 'I' for Inactive)
REMARK    1  A    between atoms: C3_3  and  C5_5 
REMARK    2  A    between atoms: C4_4  and  C5_5 
ROOT
HETATM    1  C1  UNL     1     -32.415   7.430   3.180  1.00 20.00     0.012 C 
HETATM    2  C2  UNL     1     -32.972   7.398   4.244  1.00 20.00    -0.117 C 
HETATM    3  C4  UNL     1     -33.654   7.364   5.546  1.00 20.00     0.101 C 
ENDROOT
BRANCH   3   4
HETATM    4  C5  UNL     1     -34.397   6.046   5.765  1.00 20.00     0.108 C 
BRANCH   4   5
HETATM    5  C3  UNL     1     -34.878   5.399   4.474  1.00 20.00     0.219 C 
HETATM    6  O6  UNL     1     -35.734   5.899   3.753  1.00 20.00    -0.280 OA
HETATM    7 CL7  UNL     1     -34.086   3.872   4.193  1.00 20.00    -0.044 Cl
ENDBRANCH   4   5
ENDBRANCH   3   4
TORSDOF 2
ENDMDL
MODEL 5
REMARK VINA RESULT:      -4.8      1.842      2.305
REMARK  2 active torsions:
REMARK  status: ('A' for Active; 'I' for Inactive)
REMARK    1  A    between atoms: C3_3  and  C5_5 
REMARK    2  A    between atoms: C4_4  and  C5_5 
ROOT
HETATM    1  C1  UNL     1     -32.334   9.567   0.785  1.00 20.00     0.012 C 
HETATM    2  C2  UNL     1     -32.176   8.878   1.756  1.00 20.00    -0.117 C 
HETATM    3  C4  UNL     1     -31.981   8.037   2.947  1.00 20.00     0.101 C 
ENDROOT
BRANCH   3   4
HETATM    4  C5  UNL     1     -32.959   6.863   2.982  1.00 20.00     0.108 C 
BRANCH   4   5
HETATM    5  C3  UNL     1     -33.777   6.794   4.264  1.00 20.00     0.219 C 
HETATM    6  O6  UNL     1     -33.465   7.387   5.291  1.00 20.00    -0.280 OA
HETATM    7 CL7  UNL     1     -35.164   5.754   4.080  1.00 20.00    -0.044 Cl
ENDBRANCH   4   5
ENDBRANCH   3   4
TORSDOF 2
ENDMDL
MODEL 6
REMARK VINA RESULT:      -4.6      4.085      5.079
REMARK  2 active torsions:
REMARK  status: ('A' for Active; 'I' for Inactive)
REMARK    1  A    between atoms: C3_3  and  C5_5 
REMARK    2  A    between atoms: C4_4  and  C5_5 
ROOT
HETATM    1  C1  UNL     1     -33.465   5.934   2.887  1.00 20.00     0.012 C 
HETATM    2  C2  UNL     1     -32.814   6.944   2.866  1.00 20.00    -0.117 C 
HETATM    3  C4  UNL     1     -32.016   8.179   2.844  1.00 20.00     0.101 C 
ENDROOT
BRANCH   3   4
HETATM    4  C5  UNL     1     -31.637   8.586   1.420  1.00 20.00     0.108 C 
BRANCH   4   5
HETATM    5  C3  UNL     1     -32.500   9.709   0.861  1.00 20.00     0.219 C 
HETATM    6  O6  UNL     1     -32.656  10.782   1.434  1.00 20.00    -0.280 OA
HETATM    7 CL7  UNL     1     -33.239   9.253  -0.650  1.00 20.00    -0.044 Cl
ENDBRANCH   4   5
ENDBRANCH   3   4
TORSDOF 2
ENDMDL
MODEL 7
REMARK VINA RESULT:      -4.6      3.657      4.612
REMARK  2 active torsions:
REMARK  status: ('A' for Active; 'I' for Inactive)
REMARK    1  A    between atoms: C3_3  and  C5_5 
REMARK    2  A    between atoms: C4_4  and  C5_5 
ROOT
HETATM    1  C1  UNL     1     -33.834   7.176   5.548  1.00 20.00     0.012 C 
HETATM    2  C2  UNL     1     -33.445   7.212   4.412  1.00 20.00    -0.117 C 
HETATM    3  C4  UNL     1     -32.971   7.255   3.020  1.00 20.00     0.101 C 
ENDROOT
BRANCH   3   4
HETATM    4  C5  UNL     1     -31.911   8.335   2.813  1.00 20.00     0.108 C 
BRANCH   4   5
HETATM    5  C3  UNL     1     -31.920   8.933   1.413  1.00 20.00     0.219 C 
HETATM    6  O6  UNL     1     -31.225   8.506   0.497  1.00 20.00    -0.280 OA
HETATM    7 CL7  UNL     1     -33.002  10.295   1.308  1.00 20.00    -0.044 Cl
ENDBRANCH   4   5
ENDBRANCH   3   4
TORSDOF 2
ENDMDL
MODEL 8
REMARK VINA RESULT:      -4.6      2.937      4.069
REMARK  2 active torsions:
REMARK  status: ('A' for Active; 'I' for Inactive)
REMARK    1  A    between atoms: C3_3  and  C5_5 
REMARK    2  A    between atoms: C4_4  and  C5_5 
ROOT
HETATM    1  C1  UNL     1     -34.750   4.667   5.117  1.00 20.00     0.012 C 
HETATM    2  C2  UNL     1     -34.407   5.739   4.696  1.00 20.00    -0.117 C 
HETATM    3  C4  UNL     1     -33.988   7.053   4.185  1.00 20.00     0.101 C 
ENDROOT
BRANCH   3   4
HETATM    4  C5  UNL     1     -33.092   6.925   2.954  1.00 20.00     0.108 C 
BRANCH   4   5
HETATM    5  C3  UNL     1     -32.063   8.040   2.834  1.00 20.00     0.219 C 
HETATM    6  O6  UNL     1     -31.323   8.370   3.754  1.00 20.00    -0.280 OA
HETATM    7 CL7  UNL     1     -32.109   8.784   1.258  1.00 20.00    -0.044 Cl
ENDBRANCH   4   5
ENDBRANCH   3   4
TORSDOF 2
ENDMDL
MODEL 9
REMARK VINA RESULT:      -4.5      2.694      3.906
REMARK  2 active torsions:
REMARK  status: ('A' for Active; 'I' for Inactive)
REMARK    1  A    between atoms: C3_3  and  C5_5 
REMARK    2  A    between atoms: C4_4  and  C5_5 
ROOT
HETATM    1  C1  UNL     1     -34.718   4.679   5.646  1.00 20.00     0.012 C 
HETATM    2  C2  UNL     1     -34.310   5.809   5.637  1.00 20.00    -0.117 C 
HETATM    3  C4  UNL     1     -33.810   7.192   5.629  1.00 20.00     0.101 C 
ENDROOT
BRANCH   3   4
HETATM    4  C5  UNL     1     -33.794   7.784   4.221  1.00 20.00     0.108 C 
BRANCH   4   5
HETATM    5  C3  UNL     1     -32.584   7.364   3.399  1.00 20.00     0.219 C 
HETATM    6  O6  UNL     1     -31.573   8.050   3.296  1.00 20.00    -0.280 OA
HETATM    7 CL7  UNL     1     -32.845   5.827   2.619  1.00 20.00    -0.044 Cl
ENDBRANCH   4   5
ENDBRANCH   3   4
TORSDOF 2
ENDMDL
