MODEL 1
REMARK VINA RESULT:      -5.2      0.000      0.000
REMARK  0 active torsions:
REMARK  status: ('A' for Active; 'I' for Inactive)
ROOT
HETATM    1  C1  UNL     1     -33.680   6.855   4.573  1.00 20.00    -0.032 A 
HETATM    2  C2  UNL     1     -34.034   5.670   4.069  1.00 20.00     0.056 A 
HETATM    3  C3  UNL     1     -33.175   7.640   3.410  1.00 20.00     0.157 A 
HETATM    4  C4  UNL     1     -33.752   7.398   5.951  1.00 20.00     0.048 C 
HETATM    5  C5  UNL     1     -34.612   4.492   4.769  1.00 20.00     0.072 C 
HETATM    6  C6  UNL     1     -31.713   8.046   3.518  1.00 20.00     0.041 C 
HETATM    7  N7  UNL     1     -33.812   5.593   2.714  1.00 20.00    -0.160 NA
HETATM    8  N8  UNL     1     -33.328   6.677   2.285  1.00 20.00    -0.183 NA
ENDROOT
TORSDOF 0
ENDMDL
MODEL 2
REMARK VINA RESULT:      -5.2      1.922      3.505
REMARK  0 active torsions:
REMARK  status: ('A' for Active; 'I' for Inactive)
ROOT
HETATM    1  C1  UNL     1     -33.793   6.398   3.699  1.00 20.00    -0.032 A 
HETATM    2  C2  UNL     1     -32.940   7.339   4.111  1.00 20.00     0.056 A 
HETATM    3  C3  UNL     1     -34.625   6.076   4.894  1.00 20.00     0.157 A 
HETATM    4  C4  UNL     1     -33.990   5.760   2.376  1.00 20.00     0.048 C 
HETATM    5  C5  UNL     1     -31.881   8.041   3.338  1.00 20.00     0.072 C 
HETATM    6  C6  UNL     1     -34.502   4.636   5.371  1.00 20.00     0.041 C 
HETATM    7  N7  UNL     1     -33.117   7.661   5.436  1.00 20.00    -0.160 NA
HETATM    8  N8  UNL     1     -34.056   6.979   5.932  1.00 20.00    -0.183 NA
ENDROOT
TORSDOF 0
ENDMDL
MODEL 3
REMARK VINA RESULT:      -5.0      1.552      2.747
REMARK  0 active torsions:
REMARK  status: ('A' for Active; 'I' for Inactive)
ROOT
HETATM    1  C1  UNL     1     -33.397   6.827   3.746  1.00 20.00    -0.032 A 
HETATM    2  C2  UNL     1     -33.859   6.772   4.998  1.00 20.00     0.056 A 
HETATM    3  C3  UNL     1     -34.026   5.670   3.046  1.00 20.00     0.157 A 
HETATM    4  C4  UNL     1     -32.488   7.787   3.075  1.00 20.00     0.048 C 
HETATM    5  C5  UNL     1     -33.574   7.683   6.139  1.00 20.00     0.072 C 
HETATM    6  C6  UNL     1     -33.033   4.641   2.526  1.00 20.00     0.041 C 
HETATM    7  N7  UNL     1     -34.710   5.710   5.194  1.00 20.00    -0.160 NA
HETATM    8  N8  UNL     1     -34.843   5.051   4.125  1.00 20.00    -0.183 NA
ENDROOT
TORSDOF 0
ENDMDL
MODEL 4
REMARK VINA RESULT:      -4.8      1.301      2.223
REMARK  0 active torsions:
REMARK  status: ('A' for Active; 'I' for Inactive)
ROOT
HETATM    1  C1  UNL     1     -34.100   5.654   4.145  1.00 20.00    -0.032 A 
HETATM    2  C2  UNL     1     -33.317   5.594   3.065  1.00 20.00     0.056 A 
HETATM    3  C3  UNL     1     -34.141   7.098   4.517  1.00 20.00     0.157 A 
HETATM    4  C4  UNL     1     -34.842   4.604   4.883  1.00 20.00     0.048 C 
HETATM    5  C5  UNL     1     -32.928   4.405   2.261  1.00 20.00     0.072 C 
HETATM    6  C6  UNL     1     -33.566   7.406   5.891  1.00 20.00     0.041 C 
HETATM    7  N7  UNL     1     -32.840   6.829   2.696  1.00 20.00    -0.160 NA
HETATM    8  N8  UNL     1     -33.273   7.720   3.479  1.00 20.00    -0.183 NA
ENDROOT
TORSDOF 0
ENDMDL
MODEL 5
REMARK VINA RESULT:      -4.6      0.697      2.737
REMARK  0 active torsions:
REMARK  status: ('A' for Active; 'I' for Inactive)
ROOT
HETATM    1  C1  UNL     1     -33.399   6.922   4.529  1.00 20.00    -0.032 A 
HETATM    2  C2  UNL     1     -32.581   7.318   3.550  1.00 20.00     0.056 A 
HETATM    3  C3  UNL     1     -34.077   5.703   4.002  1.00 20.00     0.157 A 
HETATM    4  C4  UNL     1     -33.643   7.466   5.886  1.00 20.00     0.048 C 
HETATM    5  C5  UNL     1     -31.650   8.477   3.523  1.00 20.00     0.072 C 
HETATM    6  C6  UNL     1     -35.587   5.836   3.871  1.00 20.00     0.041 C 
HETATM    7  N7  UNL     1     -32.654   6.501   2.446  1.00 20.00    -0.160 NA
HETATM    8  N8  UNL     1     -33.484   5.569   2.643  1.00 20.00    -0.183 NA
ENDROOT
TORSDOF 0
ENDMDL
MODEL 6
REMARK VINA RESULT:      -4.4      2.073      2.653
REMARK  0 active torsions:
REMARK  status: ('A' for Active; 'I' for Inactive)
ROOT
HETATM    1  C1  UNL     1     -33.183   6.927   3.292  1.00 20.00    -0.032 A 
HETATM    2  C2  UNL     1     -33.119   7.357   4.555  1.00 20.00     0.056 A 
HETATM    3  C3  UNL     1     -32.081   7.638   2.581  1.00 20.00     0.157 A 
HETATM    4  C4  UNL     1     -34.077   5.947   2.631  1.00 20.00     0.048 C 
HETATM    5  C5  UNL     1     -33.971   6.978   5.714  1.00 20.00     0.072 C 
HETATM    6  C6  UNL     1     -32.550   8.553   1.460  1.00 20.00     0.041 C 
HETATM    7  N7  UNL     1     -32.107   8.268   4.746  1.00 20.00    -0.160 NA
HETATM    8  N8  UNL     1     -31.485   8.467   3.665  1.00 20.00    -0.183 NA
ENDROOT
TORSDOF 0
ENDMDL
MODEL 7
REMARK VINA RESULT:      -4.0      1.304      2.543
REMARK  0 active torsions:
REMARK  status: ('A' for Active; 'I' for Inactive)
ROOT
HETATM    1  C1  UNL     1     -33.959   5.856   4.214  1.00 20.00    -0.032 A 
HETATM    2  C2  UNL     1     -33.489   6.968   4.783  1.00 20.00     0.056 A 
HETATM    3  C3  UNL     1     -33.358   5.833   2.848  1.00 20.00     0.157 A 
HETATM    4  C4  UNL     1     -34.852   4.790   4.727  1.00 20.00     0.048 C 
HETATM    5  C5  UNL     1     -33.747   7.498   6.149  1.00 20.00     0.072 C 
HETATM    6  C6  UNL     1     -34.376   5.894   1.719  1.00 20.00     0.041 C 
HETATM    7  N7  UNL     1     -32.658   7.674   3.945  1.00 20.00    -0.160 NA
HETATM    8  N8  UNL     1     -32.546   7.080   2.836  1.00 20.00    -0.183 NA
ENDROOT
TORSDOF 0
ENDMDL
MODEL 8
REMARK VINA RESULT:      -4.0     12.011     13.055
REMARK  0 active torsions:
REMARK  status: ('A' for Active; 'I' for Inactive)
ROOT
HETATM    1  C1  UNL     1     -35.480  14.973  -6.023  1.00 20.00    -0.032 A 
HETATM    2  C2  UNL     1     -34.889  14.013  -6.738  1.00 20.00     0.056 A 
HETATM    3  C3  UNL     1     -36.245  14.256  -4.962  1.00 20.00     0.157 A 
HETATM    4  C4  UNL     1     -35.438  16.451  -6.136  1.00 20.00     0.048 C 
HETATM    5  C5  UNL     1     -33.993  14.145  -7.918  1.00 20.00     0.072 C 
HETATM    6  C6  UNL     1     -37.750  14.472  -5.023  1.00 20.00     0.041 C 
HETATM    7  N7  UNL     1     -35.186  12.755  -6.269  1.00 20.00    -0.160 NA
HETATM    8  N8  UNL     1     -35.949  12.829  -5.266  1.00 20.00    -0.183 NA
ENDROOT
TORSDOF 0
ENDMDL
MODEL 9
REMARK VINA RESULT:      -4.0     11.621     12.694
REMARK  0 active torsions:
REMARK  status: ('A' for Active; 'I' for Inactive)
ROOT
HETATM    1  C1  UNL     1     -34.469  14.799  -5.574  1.00 20.00    -0.032 A 
HETATM    2  C2  UNL     1     -34.518  13.959  -6.612  1.00 20.00     0.056 A 
HETATM    3  C3  UNL     1     -35.367  14.199  -4.544  1.00 20.00     0.157 A 
HETATM    4  C4  UNL     1     -33.711  16.054  -5.360  1.00 20.00     0.048 C 
HETATM    5  C5  UNL     1     -33.813  14.048  -7.918  1.00 20.00     0.072 C 
HETATM    6  C6  UNL     1     -36.560  15.067  -4.175  1.00 20.00     0.041 C 
HETATM    7  N7  UNL     1     -35.348  12.888  -6.378  1.00 20.00    -0.160 NA
HETATM    8  N8  UNL     1     -35.856  12.969  -5.225  1.00 20.00    -0.183 NA
ENDROOT
TORSDOF 0
ENDMDL
