MODEL 1
REMARK VINA RESULT:      -5.9      0.000      0.000
REMARK  3 active torsions:
REMARK  status: ('A' for Active; 'I' for Inactive)
REMARK    1  A    between atoms: C2_2  and  C3_3 
REMARK    2  A    between atoms: C3_3  and  C4_4 
REMARK    3  A    between atoms: C3_3  and  O5_5 
ROOT
HETATM    1  C3  UNL     1     -34.569   6.049   4.005  1.00 20.00     0.362 C 
HETATM    2  F8  UNL     1     -35.868   5.982   3.605  1.00 20.00    -0.195 F 
ENDROOT
BRANCH   1   3
HETATM    3  C2  UNL     1     -34.249   4.843   4.874  1.00 20.00     0.429 C 
HETATM    4  F6  UNL     1     -34.425   3.698   4.169  1.00 20.00    -0.208 F 
HETATM    5  F7  UNL     1     -35.111   4.776   5.919  1.00 20.00    -0.208 F 
ENDBRANCH   1   3
BRANCH   1   6
HETATM    6  C4  UNL     1     -33.705   6.080   2.758  1.00 20.00     0.455 C 
HETATM    7  F9  UNL     1     -33.143   7.295   2.578  1.00 20.00    -0.165 F 
HETATM    8  F10 UNL     1     -34.438   5.804   1.656  1.00 20.00    -0.165 F 
HETATM    9  F11 UNL     1     -32.709   5.172   2.827  1.00 20.00    -0.165 F 
ENDBRANCH   1   6
BRANCH   1  10
HETATM   10  O5  UNL     1     -34.366   7.293   4.678  1.00 20.00    -0.345 OA
HETATM   11  C1  UNL     1     -33.509   7.232   5.807  1.00 20.00     0.206 C 
ENDBRANCH   1  10
TORSDOF 3
ENDMDL
MODEL 2
REMARK VINA RESULT:      -5.8      1.722      2.570
REMARK  3 active torsions:
REMARK  status: ('A' for Active; 'I' for Inactive)
REMARK    1  A    between atoms: C2_2  and  C3_3 
REMARK    2  A    between atoms: C3_3  and  C4_4 
REMARK    3  A    between atoms: C3_3  and  O5_5 
ROOT
HETATM    1  C3  UNL     1     -33.711   6.894   4.048  1.00 20.00     0.362 C 
HETATM    2  F8  UNL     1     -34.337   8.068   3.762  1.00 20.00    -0.195 F 
ENDROOT
BRANCH   1   3
HETATM    3  C2  UNL     1     -33.638   6.720   5.557  1.00 20.00     0.429 C 
HETATM    4  F6  UNL     1     -34.689   5.983   5.995  1.00 20.00    -0.208 F 
HETATM    5  F7  UNL     1     -33.741   7.924   6.173  1.00 20.00    -0.208 F 
ENDBRANCH   1   3
BRANCH   1   6
HETATM    6  C4  UNL     1     -34.508   5.778   3.399  1.00 20.00     0.455 C 
HETATM    7  F9  UNL     1     -34.100   4.565   3.830  1.00 20.00    -0.165 F 
HETATM    8  F10 UNL     1     -34.364   5.801   2.055  1.00 20.00    -0.165 F 
HETATM    9  F11 UNL     1     -35.825   5.889   3.673  1.00 20.00    -0.165 F 
ENDBRANCH   1   6
BRANCH   1  10
HETATM   10  O5  UNL     1     -32.427   6.900   3.423  1.00 20.00    -0.345 OA
HETATM   11  C1  UNL     1     -32.076   8.118   2.783  1.00 20.00     0.206 C 
ENDBRANCH   1  10
TORSDOF 3
ENDMDL
MODEL 3
REMARK VINA RESULT:      -5.1      1.277      1.863
REMARK  3 active torsions:
REMARK  status: ('A' for Active; 'I' for Inactive)
REMARK    1  A    between atoms: C2_2  and  C3_3 
REMARK    2  A    between atoms: C3_3  and  C4_4 
REMARK    3  A    between atoms: C3_3  and  O5_5 
ROOT
HETATM    1  C3  UNL     1     -33.778   6.862   3.870  1.00 20.00     0.362 C 
HETATM    2  F8  UNL     1     -34.536   7.989   3.790  1.00 20.00    -0.195 F 
ENDROOT
BRANCH   1   3
HETATM    3  C2  UNL     1     -34.648   5.651   3.567  1.00 20.00     0.429 C 
HETATM    4  F6  UNL     1     -35.943   5.918   3.867  1.00 20.00    -0.208 F 
HETATM    5  F7  UNL     1     -34.287   4.607   4.353  1.00 20.00    -0.208 F 
ENDBRANCH   1   3
BRANCH   1   6
HETATM    6  C4  UNL     1     -32.646   6.996   2.869  1.00 20.00     0.455 C 
HETATM    7  F9  UNL     1     -33.025   7.716   1.790  1.00 20.00    -0.165 F 
HETATM    8  F10 UNL     1     -32.246   5.783   2.427  1.00 20.00    -0.165 F 
HETATM    9  F11 UNL     1     -31.574   7.608   3.416  1.00 20.00    -0.165 F 
ENDBRANCH   1   6
BRANCH   1  10
HETATM   10  O5  UNL     1     -33.178   6.810   5.166  1.00 20.00    -0.345 OA
HETATM   11  C1  UNL     1     -33.952   7.380   6.210  1.00 20.00     0.206 C 
ENDBRANCH   1  10
TORSDOF 3
ENDMDL
MODEL 4
REMARK VINA RESULT:      -4.9      1.629      3.520
REMARK  3 active torsions:
REMARK  status: ('A' for Active; 'I' for Inactive)
REMARK    1  A    between atoms: C2_2  and  C3_3 
REMARK    2  A    between atoms: C3_3  and  C4_4 
REMARK    3  A    between atoms: C3_3  and  O5_5 
ROOT
HETATM    1  C3  UNL     1     -33.693   6.156   3.085  1.00 20.00     0.362 C 
HETATM    2  F8  UNL     1     -34.471   6.020   1.978  1.00 20.00    -0.195 F 
ENDROOT
BRANCH   1   3
HETATM    3  C2  UNL     1     -33.100   7.557   3.112  1.00 20.00     0.429 C 
HETATM    4  F6  UNL     1     -32.862   7.988   1.849  1.00 20.00    -0.208 F 
HETATM    5  F7  UNL     1     -31.897   7.543   3.737  1.00 20.00    -0.208 F 
ENDBRANCH   1   3
BRANCH   1   6
HETATM    6  C4  UNL     1     -34.570   5.903   4.297  1.00 20.00     0.455 C 
HETATM    7  F9  UNL     1     -35.878   5.864   3.961  1.00 20.00    -0.165 F 
HETATM    8  F10 UNL     1     -34.417   6.881   5.217  1.00 20.00    -0.165 F 
HETATM    9  F11 UNL     1     -34.264   4.729   4.890  1.00 20.00    -0.165 F 
ENDBRANCH   1   6
BRANCH   1  10
HETATM   10  O5  UNL     1     -32.701   5.128   3.073  1.00 20.00    -0.345 OA
HETATM   11  C1  UNL     1     -32.866   4.147   2.060  1.00 20.00     0.206 C 
ENDBRANCH   1  10
TORSDOF 3
ENDMDL
MODEL 5
REMARK VINA RESULT:      -4.9      1.395      2.239
REMARK  3 active torsions:
REMARK  status: ('A' for Active; 'I' for Inactive)
REMARK    1  A    between atoms: C2_2  and  C3_3 
REMARK    2  A    between atoms: C3_3  and  C4_4 
REMARK    3  A    between atoms: C3_3  and  O5_5 
ROOT
HETATM    1  C3  UNL     1     -34.104   5.967   3.470  1.00 20.00     0.362 C 
HETATM    2  F8  UNL     1     -34.821   6.084   2.319  1.00 20.00    -0.195 F 
ENDROOT
BRANCH   1   3
HETATM    3  C2  UNL     1     -33.350   4.646   3.459  1.00 20.00     0.429 C 
HETATM    4  F6  UNL     1     -32.880   4.385   2.214  1.00 20.00    -0.208 F 
HETATM    5  F7  UNL     1     -34.190   3.626   3.763  1.00 20.00    -0.208 F 
ENDBRANCH   1   3
BRANCH   1   6
HETATM    6  C4  UNL     1     -33.153   7.147   3.540  1.00 20.00     0.455 C 
HETATM    7  F9  UNL     1     -31.953   6.847   2.996  1.00 20.00    -0.165 F 
HETATM    8  F10 UNL     1     -32.936   7.516   4.822  1.00 20.00    -0.165 F 
HETATM    9  F11 UNL     1     -33.646   8.218   2.882  1.00 20.00    -0.165 F 
ENDBRANCH   1   6
BRANCH   1  10
HETATM   10  O5  UNL     1     -34.998   6.092   4.577  1.00 20.00    -0.345 OA
HETATM   11  C1  UNL     1     -34.590   5.418   5.758  1.00 20.00     0.206 C 
ENDBRANCH   1  10
TORSDOF 3
ENDMDL
MODEL 6
REMARK VINA RESULT:      -4.7      1.892      3.481
REMARK  3 active torsions:
REMARK  status: ('A' for Active; 'I' for Inactive)
REMARK    1  A    between atoms: C2_2  and  C3_3 
REMARK    2  A    between atoms: C3_3  and  C4_4 
REMARK    3  A    between atoms: C3_3  and  O5_5 
ROOT
HETATM    1  C3  UNL     1     -34.359   5.839   4.181  1.00 20.00     0.362 C 
HETATM    2  F8  UNL     1     -35.628   6.051   3.738  1.00 20.00    -0.195 F 
ENDROOT
BRANCH   1   3
HETATM    3  C2  UNL     1     -33.495   7.038   3.820  1.00 20.00     0.429 C 
HETATM    4  F6  UNL     1     -32.726   7.397   4.877  1.00 20.00    -0.208 F 
HETATM    5  F7  UNL     1     -34.277   8.112   3.543  1.00 20.00    -0.208 F 
ENDBRANCH   1   3
BRANCH   1   6
HETATM    6  C4  UNL     1     -34.424   5.635   5.682  1.00 20.00     0.455 C 
HETATM    7  F9  UNL     1     -33.307   5.032   6.147  1.00 20.00    -0.165 F 
HETATM    8  F10 UNL     1     -35.475   4.855   6.019  1.00 20.00    -0.165 F 
HETATM    9  F11 UNL     1     -34.558   6.809   6.335  1.00 20.00    -0.165 F 
ENDBRANCH   1   6
BRANCH   1  10
HETATM   10  O5  UNL     1     -33.881   4.616   3.619  1.00 20.00    -0.345 OA
HETATM   11  C1  UNL     1     -32.953   4.765   2.555  1.00 20.00     0.206 C 
ENDBRANCH   1  10
TORSDOF 3
ENDMDL
MODEL 7
REMARK VINA RESULT:      -4.7      1.945      3.122
REMARK  3 active torsions:
REMARK  status: ('A' for Active; 'I' for Inactive)
REMARK    1  A    between atoms: C2_2  and  C3_3 
REMARK    2  A    between atoms: C3_3  and  C4_4 
REMARK    3  A    between atoms: C3_3  and  O5_5 
ROOT
HETATM    1  C3  UNL     1     -33.247   6.863   3.336  1.00 20.00     0.362 C 
HETATM    2  F8  UNL     1     -31.966   6.416   3.236  1.00 20.00    -0.195 F 
ENDROOT
BRANCH   1   3
HETATM    3  C2  UNL     1     -34.196   5.770   2.870  1.00 20.00     0.429 C 
HETATM    4  F6  UNL     1     -35.423   5.950   3.419  1.00 20.00    -0.208 F 
HETATM    5  F7  UNL     1     -33.765   4.559   3.304  1.00 20.00    -0.208 F 
ENDBRANCH   1   3
BRANCH   1   6
HETATM    6  C4  UNL     1     -33.493   7.229   4.787  1.00 20.00     0.455 C 
HETATM    7  F9  UNL     1     -34.569   8.036   4.917  1.00 20.00    -0.165 F 
HETATM    8  F10 UNL     1     -32.431   7.884   5.307  1.00 20.00    -0.165 F 
HETATM    9  F11 UNL     1     -33.710   6.132   5.543  1.00 20.00    -0.165 F 
ENDBRANCH   1   6
BRANCH   1  10
HETATM   10  O5  UNL     1     -33.368   8.069   2.580  1.00 20.00    -0.345 OA
HETATM   11  C1  UNL     1     -32.162   8.533   1.993  1.00 20.00     0.206 C 
ENDBRANCH   1  10
TORSDOF 3
ENDMDL
MODEL 8
REMARK VINA RESULT:      -4.7      1.930      3.335
REMARK  3 active torsions:
REMARK  status: ('A' for Active; 'I' for Inactive)
REMARK    1  A    between atoms: C2_2  and  C3_3 
REMARK    2  A    between atoms: C3_3  and  C4_4 
REMARK    3  A    between atoms: C3_3  and  O5_5 
ROOT
HETATM    1  C3  UNL     1     -33.074   6.938   3.405  1.00 20.00     0.362 C 
HETATM    2  F8  UNL     1     -31.715   6.869   3.431  1.00 20.00    -0.195 F 
ENDROOT
BRANCH   1   3
HETATM    3  C2  UNL     1     -33.633   5.617   2.901  1.00 20.00     0.429 C 
HETATM    4  F6  UNL     1     -32.626   4.810   2.485  1.00 20.00    -0.208 F 
HETATM    5  F7  UNL     1     -34.420   5.825   1.816  1.00 20.00    -0.208 F 
ENDBRANCH   1   3
BRANCH   1   6
HETATM    6  C4  UNL     1     -33.546   7.239   4.815  1.00 20.00     0.455 C 
HETATM    7  F9  UNL     1     -32.585   7.857   5.536  1.00 20.00    -0.165 F 
HETATM    8  F10 UNL     1     -33.873   6.101   5.468  1.00 20.00    -0.165 F 
HETATM    9  F11 UNL     1     -34.634   8.037   4.811  1.00 20.00    -0.165 F 
ENDBRANCH   1   6
BRANCH   1  10
HETATM   10  O5  UNL     1     -33.456   8.053   2.597  1.00 20.00    -0.345 OA
HETATM   11  C1  UNL     1     -32.398   8.658   1.869  1.00 20.00     0.206 C 
ENDBRANCH   1  10
TORSDOF 3
ENDMDL
MODEL 9
REMARK VINA RESULT:      -4.7      1.668      3.287
REMARK  3 active torsions:
REMARK  status: ('A' for Active; 'I' for Inactive)
REMARK    1  A    between atoms: C2_2  and  C3_3 
REMARK    2  A    between atoms: C3_3  and  C4_4 
REMARK    3  A    between atoms: C3_3  and  O5_5 
ROOT
HETATM    1  C3  UNL     1     -34.638   5.754   4.177  1.00 20.00     0.362 C 
HETATM    2  F8  UNL     1     -35.834   6.240   3.748  1.00 20.00    -0.195 F 
ENDROOT
BRANCH   1   3
HETATM    3  C2  UNL     1     -33.599   5.944   3.082  1.00 20.00     0.429 C 
HETATM    4  F6  UNL     1     -33.044   7.178   3.171  1.00 20.00    -0.208 F 
HETATM    5  F7  UNL     1     -34.189   5.884   1.862  1.00 20.00    -0.208 F 
ENDBRANCH   1   3
BRANCH   1   6
HETATM    6  C4  UNL     1     -34.259   6.510   5.437  1.00 20.00     0.455 C 
HETATM    7  F9  UNL     1     -35.007   6.117   6.491  1.00 20.00    -0.165 F 
HETATM    8  F10 UNL     1     -34.448   7.839   5.278  1.00 20.00    -0.165 F 
HETATM    9  F11 UNL     1     -32.963   6.315   5.758  1.00 20.00    -0.165 F 
ENDBRANCH   1   6
BRANCH   1  10
HETATM   10  O5  UNL     1     -34.811   4.387   4.553  1.00 20.00    -0.345 OA
HETATM   11  C1  UNL     1     -33.752   3.521   4.175  1.00 20.00     0.206 C 
ENDBRANCH   1  10
TORSDOF 3
ENDMDL
