MODEL 1
REMARK VINA RESULT:      -4.8      0.000      0.000
REMARK  1 active torsions:
REMARK  status: ('A' for Active; 'I' for Inactive)
REMARK    1  A    between atoms: C3_3  and  C7_7 
ROOT
HETATM    1  C1  UNL     1     -32.760   7.815   2.500  1.00 20.00     0.220 A 
HETATM    2  C2  UNL     1     -33.299   6.423   2.130  1.00 20.00     0.128 A 
HETATM    3  C3  UNL     1     -33.058   6.066   3.618  1.00 20.00     0.100 A 
HETATM    4  N8  UNL     1     -32.593   7.437   3.795  1.00 20.00    -0.355 N 
HETATM    5  O9  UNL     1     -32.551   8.856   1.920  1.00 20.00    -0.274 OA
HETATM    6  H22 UNL     1     -32.239   7.956   4.587  1.00 20.00     0.162 HD
ENDROOT
BRANCH   3   7
HETATM    7  C7  UNL     1     -34.295   5.776   4.479  1.00 20.00    -0.030 C 
HETATM    8  C4  UNL     1     -35.563   6.151   3.699  1.00 20.00     0.016 C 
HETATM    9  C5  UNL     1     -34.225   6.602   5.771  1.00 20.00     0.016 C 
HETATM   10  C6  UNL     1     -34.334   4.281   4.829  1.00 20.00     0.016 C 
ENDBRANCH   3   7
TORSDOF 1
ENDMDL
MODEL 2
REMARK VINA RESULT:      -4.3      2.354      3.677
REMARK  1 active torsions:
REMARK  status: ('A' for Active; 'I' for Inactive)
REMARK    1  A    between atoms: C3_3  and  C7_7 
ROOT
HETATM    1  C1  UNL     1     -34.477   5.859   5.260  1.00 20.00     0.220 A 
HETATM    2  C2  UNL     1     -34.908   6.119   3.806  1.00 20.00     0.128 A 
HETATM    3  C3  UNL     1     -34.053   7.406   3.908  1.00 20.00     0.100 A 
HETATM    4  N8  UNL     1     -33.730   6.995   5.270  1.00 20.00    -0.355 N 
HETATM    5  O9  UNL     1     -34.683   5.011   6.097  1.00 20.00    -0.274 OA
HETATM    6  H22 UNL     1     -33.168   7.401   6.006  1.00 20.00     0.162 HD
ENDROOT
BRANCH   3   7
HETATM    7  C7  UNL     1     -32.796   7.485   3.031  1.00 20.00    -0.030 C 
HETATM    8  C4  UNL     1     -32.435   6.081   2.525  1.00 20.00     0.016 C 
HETATM    9  C5  UNL     1     -31.630   8.047   3.857  1.00 20.00     0.016 C 
HETATM   10  C6  UNL     1     -33.066   8.406   1.833  1.00 20.00     0.016 C 
ENDBRANCH   3   7
TORSDOF 1
ENDMDL
MODEL 3
REMARK VINA RESULT:      -4.1      1.212      2.013
REMARK  1 active torsions:
REMARK  status: ('A' for Active; 'I' for Inactive)
REMARK    1  A    between atoms: C3_3  and  C7_7 
ROOT
HETATM    1  C1  UNL     1     -32.182   8.112   2.251  1.00 20.00     0.220 A 
HETATM    2  C2  UNL     1     -32.004   7.734   3.731  1.00 20.00     0.128 A 
HETATM    3  C3  UNL     1     -33.544   7.570   3.750  1.00 20.00     0.100 A 
HETATM    4  N8  UNL     1     -33.527   7.930   2.337  1.00 20.00    -0.355 N 
HETATM    5  O9  UNL     1     -31.461   8.442   1.338  1.00 20.00    -0.274 OA
HETATM    6  H22 UNL     1     -34.247   8.041   1.637  1.00 20.00     0.162 HD
ENDROOT
BRANCH   3   7
HETATM    7  C7  UNL     1     -34.097   6.154   3.963  1.00 20.00    -0.030 C 
HETATM    8  C4  UNL     1     -34.007   5.786   5.451  1.00 20.00     0.016 C 
HETATM    9  C5  UNL     1     -33.275   5.154   3.138  1.00 20.00     0.016 C 
HETATM   10  C6  UNL     1     -35.564   6.105   3.513  1.00 20.00     0.016 C 
ENDBRANCH   3   7
TORSDOF 1
ENDMDL
MODEL 4
REMARK VINA RESULT:      -3.9     11.677     12.249
REMARK  1 active torsions:
REMARK  status: ('A' for Active; 'I' for Inactive)
REMARK    1  A    between atoms: C3_3  and  C7_7 
ROOT
HETATM    1  C1  UNL     1     -35.467  13.244  -5.952  1.00 20.00     0.220 A 
HETATM    2  C2  UNL     1     -36.111  14.638  -6.043  1.00 20.00     0.128 A 
HETATM    3  C3  UNL     1     -35.827  14.738  -4.524  1.00 20.00     0.100 A 
HETATM    4  N8  UNL     1     -35.232  13.410  -4.623  1.00 20.00    -0.355 N 
HETATM    5  O9  UNL     1     -35.236  12.335  -6.714  1.00 20.00    -0.274 OA
HETATM    6  H22 UNL     1     -34.804  12.786  -3.953  1.00 20.00     0.162 HD
ENDROOT
BRANCH   3   7
HETATM    7  C7  UNL     1     -34.799  15.782  -4.069  1.00 20.00    -0.030 C 
HETATM    8  C4  UNL     1     -33.396  15.159  -4.078  1.00 20.00     0.016 C 
HETATM    9  C5  UNL     1     -35.141  16.252  -2.648  1.00 20.00     0.016 C 
HETATM   10  C6  UNL     1     -34.831  16.982  -5.026  1.00 20.00     0.016 C 
ENDBRANCH   3   7
TORSDOF 1
ENDMDL
MODEL 5
REMARK VINA RESULT:      -3.9     11.678     12.226
REMARK  1 active torsions:
REMARK  status: ('A' for Active; 'I' for Inactive)
REMARK    1  A    between atoms: C3_3  and  C7_7 
ROOT
HETATM    1  C1  UNL     1     -35.469  13.245  -5.954  1.00 20.00     0.220 A 
HETATM    2  C2  UNL     1     -36.114  14.639  -6.043  1.00 20.00     0.128 A 
HETATM    3  C3  UNL     1     -35.827  14.737  -4.525  1.00 20.00     0.100 A 
HETATM    4  N8  UNL     1     -35.232  13.409  -4.626  1.00 20.00    -0.355 N 
HETATM    5  O9  UNL     1     -35.239  12.335  -6.718  1.00 20.00    -0.274 OA
HETATM    6  H22 UNL     1     -34.803  12.785  -3.957  1.00 20.00     0.162 HD
ENDROOT
BRANCH   3   7
HETATM    7  C7  UNL     1     -34.799  15.781  -4.070  1.00 20.00    -0.030 C 
HETATM    8  C4  UNL     1     -34.829  16.981  -5.028  1.00 20.00     0.016 C 
HETATM    9  C5  UNL     1     -33.396  15.156  -4.078  1.00 20.00     0.016 C 
HETATM   10  C6  UNL     1     -35.142  16.252  -2.650  1.00 20.00     0.016 C 
ENDBRANCH   3   7
TORSDOF 1
ENDMDL
MODEL 6
REMARK VINA RESULT:      -3.9     11.677     12.230
REMARK  1 active torsions:
REMARK  status: ('A' for Active; 'I' for Inactive)
REMARK    1  A    between atoms: C3_3  and  C7_7 
ROOT
HETATM    1  C1  UNL     1     -35.469  13.248  -5.960  1.00 20.00     0.220 A 
HETATM    2  C2  UNL     1     -36.110  14.644  -6.038  1.00 20.00     0.128 A 
HETATM    3  C3  UNL     1     -35.809  14.736  -4.522  1.00 20.00     0.100 A 
HETATM    4  N8  UNL     1     -35.219  13.406  -4.633  1.00 20.00    -0.355 N 
HETATM    5  O9  UNL     1     -35.248  12.341  -6.729  1.00 20.00    -0.274 OA
HETATM    6  H22 UNL     1     -34.786  12.778  -3.970  1.00 20.00     0.162 HD
ENDROOT
BRANCH   3   7
HETATM    7  C7  UNL     1     -34.774  15.775  -4.073  1.00 20.00    -0.030 C 
HETATM    8  C4  UNL     1     -35.104  16.245  -2.649  1.00 20.00     0.016 C 
HETATM    9  C5  UNL     1     -34.806  16.976  -5.029  1.00 20.00     0.016 C 
HETATM   10  C6  UNL     1     -33.374  15.144  -4.091  1.00 20.00     0.016 C 
ENDBRANCH   3   7
TORSDOF 1
ENDMDL
MODEL 7
REMARK VINA RESULT:      -3.8     11.697     12.445
REMARK  1 active torsions:
REMARK  status: ('A' for Active; 'I' for Inactive)
REMARK    1  A    between atoms: C3_3  and  C7_7 
ROOT
HETATM    1  C1  UNL     1     -37.097  14.252  -5.151  1.00 20.00     0.220 A 
HETATM    2  C2  UNL     1     -35.784  13.454  -5.236  1.00 20.00     0.128 A 
HETATM    3  C3  UNL     1     -35.130  14.803  -5.625  1.00 20.00     0.100 A 
HETATM    4  N8  UNL     1     -36.451  15.403  -5.479  1.00 20.00    -0.355 N 
HETATM    5  O9  UNL     1     -38.254  14.009  -4.899  1.00 20.00    -0.274 OA
HETATM    6  H22 UNL     1     -36.808  16.341  -5.595  1.00 20.00     0.162 HD
ENDROOT
BRANCH   3   7
HETATM    7  C7  UNL     1     -34.125  15.407  -4.635  1.00 20.00    -0.030 C 
HETATM    8  C4  UNL     1     -34.855  15.811  -3.345  1.00 20.00     0.016 C 
HETATM    9  C5  UNL     1     -33.470  16.646  -5.262  1.00 20.00     0.016 C 
HETATM   10  C6  UNL     1     -33.044  14.368  -4.305  1.00 20.00     0.016 C 
ENDBRANCH   3   7
TORSDOF 1
ENDMDL
MODEL 8
REMARK VINA RESULT:      -3.8     11.565     12.344
REMARK  1 active torsions:
REMARK  status: ('A' for Active; 'I' for Inactive)
REMARK    1  A    between atoms: C3_3  and  C7_7 
ROOT
HETATM    1  C1  UNL     1     -34.817  13.384  -6.104  1.00 20.00     0.220 A 
HETATM    2  C2  UNL     1     -35.776  13.770  -4.966  1.00 20.00     0.128 A 
HETATM    3  C3  UNL     1     -34.540  14.429  -4.308  1.00 20.00     0.100 A 
HETATM    4  N8  UNL     1     -33.780  14.001  -5.477  1.00 20.00    -0.355 N 
HETATM    5  O9  UNL     1     -34.896  12.784  -7.151  1.00 20.00    -0.274 OA
HETATM    6  H22 UNL     1     -32.812  14.092  -5.750  1.00 20.00     0.162 HD
ENDROOT
BRANCH   3   7
HETATM    7  C7  UNL     1     -34.548  15.958  -4.171  1.00 20.00    -0.030 C 
HETATM    8  C4  UNL     1     -34.427  16.341  -2.689  1.00 20.00     0.016 C 
HETATM    9  C5  UNL     1     -35.861  16.515  -4.739  1.00 20.00     0.016 C 
HETATM   10  C6  UNL     1     -33.363  16.547  -4.949  1.00 20.00     0.016 C 
ENDBRANCH   3   7
TORSDOF 1
ENDMDL
MODEL 9
REMARK VINA RESULT:      -3.7     11.264     12.327
REMARK  1 active torsions:
REMARK  status: ('A' for Active; 'I' for Inactive)
REMARK    1  A    between atoms: C3_3  and  C7_7 
ROOT
HETATM    1  C1  UNL     1     -35.349  13.807  -4.962  1.00 20.00     0.220 A 
HETATM    2  C2  UNL     1     -34.145  14.168  -4.076  1.00 20.00     0.128 A 
HETATM    3  C3  UNL     1     -34.301  15.597  -4.651  1.00 20.00     0.100 A 
HETATM    4  N8  UNL     1     -35.438  15.088  -5.410  1.00 20.00    -0.355 N 
HETATM    5  O9  UNL     1     -35.995  12.813  -5.201  1.00 20.00    -0.274 OA
HETATM    6  H22 UNL     1     -36.080  15.506  -6.069  1.00 20.00     0.162 HD
ENDROOT
BRANCH   3   7
HETATM    7  C7  UNL     1     -34.725  16.704  -3.677  1.00 20.00    -0.030 C 
HETATM    8  C4  UNL     1     -34.795  18.045  -4.423  1.00 20.00     0.016 C 
HETATM    9  C5  UNL     1     -33.700  16.804  -2.538  1.00 20.00     0.016 C 
HETATM   10  C6  UNL     1     -36.107  16.372  -3.095  1.00 20.00     0.016 C 
ENDBRANCH   3   7
TORSDOF 1
ENDMDL
