MODEL 1
REMARK VINA RESULT:      -4.9      0.000      0.000
REMARK  2 active torsions:
REMARK  status: ('A' for Active; 'I' for Inactive)
REMARK    1  A    between atoms: C5_5  and  C6_6 
REMARK    2  A    between atoms: C6_6  and  N7_7 
ROOT
HETATM    1  C1  UNL     1     -31.862   8.336   2.602  1.00 20.00     0.012 C 
HETATM    2  C2  UNL     1     -32.558   7.390   2.852  1.00 20.00    -0.115 C 
HETATM    3  C5  UNL     1     -33.408   6.227   3.151  1.00 20.00     0.128 C 
ENDROOT
BRANCH   3   4
HETATM    4  C6  UNL     1     -34.453   6.537   4.233  1.00 20.00     0.227 C 
HETATM    5  C3  UNL     1     -33.819   7.079   5.515  1.00 20.00     0.043 C 
BRANCH   4   6
HETATM    6  N7  UNL     1     -35.181   5.308   4.559  1.00 20.00     0.084 N 
HETATM    7  C4  UNL     1     -34.310   4.150   4.445  1.00 20.00     0.307 C 
HETATM    8  H18 UNL     1     -35.532   5.379   5.511  1.00 20.00     0.315 HD
ENDBRANCH   4   6
ENDBRANCH   3   4
TORSDOF 2
ENDMDL
MODEL 2
REMARK VINA RESULT:      -4.5      1.876      3.891
REMARK  2 active torsions:
REMARK  status: ('A' for Active; 'I' for Inactive)
REMARK    1  A    between atoms: C5_5  and  C6_6 
REMARK    2  A    between atoms: C6_6  and  N7_7 
ROOT
HETATM    1  C1  UNL     1     -34.747   4.967   5.738  1.00 20.00     0.012 C 
HETATM    2  C2  UNL     1     -34.246   5.997   5.377  1.00 20.00    -0.115 C 
HETATM    3  C5  UNL     1     -33.634   7.262   4.941  1.00 20.00     0.128 C 
ENDROOT
BRANCH   3   4
HETATM    4  C6  UNL     1     -33.333   7.271   3.435  1.00 20.00     0.227 C 
HETATM    5  C3  UNL     1     -33.337   5.865   2.834  1.00 20.00     0.043 C 
BRANCH   4   6
HETATM    6  N7  UNL     1     -32.013   7.867   3.217  1.00 20.00     0.084 N 
HETATM    7  C4  UNL     1     -31.972   8.576   1.949  1.00 20.00     0.307 C 
HETATM    8  H18 UNL     1     -31.817   8.515   3.977  1.00 20.00     0.315 HD
ENDBRANCH   4   6
ENDBRANCH   3   4
TORSDOF 2
ENDMDL
MODEL 3
REMARK VINA RESULT:      -4.5      1.187      1.428
REMARK  2 active torsions:
REMARK  status: ('A' for Active; 'I' for Inactive)
REMARK    1  A    between atoms: C5_5  and  C6_6 
REMARK    2  A    between atoms: C6_6  and  N7_7 
ROOT
HETATM    1  C1  UNL     1     -32.197   9.138   1.162  1.00 20.00     0.012 C 
HETATM    2  C2  UNL     1     -32.187   8.441   2.138  1.00 20.00    -0.115 C 
HETATM    3  C5  UNL     1     -32.169   7.583   3.334  1.00 20.00     0.128 C 
ENDROOT
BRANCH   3   4
HETATM    4  C6  UNL     1     -33.583   7.265   3.841  1.00 20.00     0.227 C 
HETATM    5  C3  UNL     1     -33.667   7.263   5.368  1.00 20.00     0.043 C 
BRANCH   4   6
HETATM    6  N7  UNL     1     -33.977   5.941   3.352  1.00 20.00     0.084 N 
HETATM    7  C4  UNL     1     -34.792   5.251   4.337  1.00 20.00     0.307 C 
HETATM    8  H18 UNL     1     -34.507   6.056   2.491  1.00 20.00     0.315 HD
ENDBRANCH   4   6
ENDBRANCH   3   4
TORSDOF 2
ENDMDL
MODEL 4
REMARK VINA RESULT:      -4.1      0.835      1.934
REMARK  2 active torsions:
REMARK  status: ('A' for Active; 'I' for Inactive)
REMARK    1  A    between atoms: C5_5  and  C6_6 
REMARK    2  A    between atoms: C6_6  and  N7_7 
ROOT
HETATM    1  C1  UNL     1     -32.031   8.239   2.433  1.00 20.00     0.012 C 
HETATM    2  C2  UNL     1     -32.706   7.258   2.586  1.00 20.00    -0.115 C 
HETATM    3  C5  UNL     1     -33.536   6.056   2.768  1.00 20.00     0.128 C 
ENDROOT
BRANCH   3   4
HETATM    4  C6  UNL     1     -33.727   5.703   4.250  1.00 20.00     0.227 C 
HETATM    5  C3  UNL     1     -34.513   4.405   4.442  1.00 20.00     0.043 C 
BRANCH   4   6
HETATM    6  N7  UNL     1     -34.456   6.790   4.909  1.00 20.00     0.084 N 
HETATM    7  C4  UNL     1     -33.684   7.328   6.017  1.00 20.00     0.307 C 
HETATM    8  H18 UNL     1     -34.632   7.524   4.228  1.00 20.00     0.315 HD
ENDBRANCH   4   6
ENDBRANCH   3   4
TORSDOF 2
ENDMDL
MODEL 5
REMARK VINA RESULT:      -4.1      2.286      3.935
REMARK  2 active torsions:
REMARK  status: ('A' for Active; 'I' for Inactive)
REMARK    1  A    between atoms: C5_5  and  C6_6 
REMARK    2  A    between atoms: C6_6  and  N7_7 
ROOT
HETATM    1  C1  UNL     1     -33.807   7.268   5.777  1.00 20.00     0.012 C 
HETATM    2  C2  UNL     1     -33.661   7.083   4.600  1.00 20.00    -0.115 C 
HETATM    3  C5  UNL     1     -33.485   6.849   3.158  1.00 20.00     0.128 C 
ENDROOT
BRANCH   3   4
HETATM    4  C6  UNL     1     -32.315   7.658   2.579  1.00 20.00     0.227 C 
HETATM    5  C3  UNL     1     -31.421   8.249   3.670  1.00 20.00     0.043 C 
BRANCH   4   6
HETATM    6  N7  UNL     1     -32.849   8.756   1.770  1.00 20.00     0.084 N 
HETATM    7  C4  UNL     1     -31.903   9.138   0.734  1.00 20.00     0.307 C 
HETATM    8  H18 UNL     1     -33.720   8.452   1.341  1.00 20.00     0.315 HD
ENDBRANCH   4   6
ENDBRANCH   3   4
TORSDOF 2
ENDMDL
MODEL 6
REMARK VINA RESULT:      -4.0      1.511      3.166
REMARK  2 active torsions:
REMARK  status: ('A' for Active; 'I' for Inactive)
REMARK    1  A    between atoms: C5_5  and  C6_6 
REMARK    2  A    between atoms: C6_6  and  N7_7 
ROOT
HETATM    1  C1  UNL     1     -34.681   5.222   5.918  1.00 20.00     0.012 C 
HETATM    2  C2  UNL     1     -34.240   6.173   5.334  1.00 20.00    -0.115 C 
HETATM    3  C5  UNL     1     -33.703   7.343   4.620  1.00 20.00     0.128 C 
ENDROOT
BRANCH   3   4
HETATM    4  C6  UNL     1     -32.904   6.943   3.371  1.00 20.00     0.227 C 
HETATM    5  C3  UNL     1     -32.573   8.145   2.484  1.00 20.00     0.043 C 
BRANCH   4   6
HETATM    6  N7  UNL     1     -33.692   5.989   2.587  1.00 20.00     0.084 N 
HETATM    7  C4  UNL     1     -33.008   4.710   2.496  1.00 20.00     0.307 C 
HETATM    8  H18 UNL     1     -34.595   5.862   3.038  1.00 20.00     0.315 HD
ENDBRANCH   4   6
ENDBRANCH   3   4
TORSDOF 2
ENDMDL
MODEL 7
REMARK VINA RESULT:      -4.0      1.852      3.695
REMARK  2 active torsions:
REMARK  status: ('A' for Active; 'I' for Inactive)
REMARK    1  A    between atoms: C5_5  and  C6_6 
REMARK    2  A    between atoms: C6_6  and  N7_7 
ROOT
HETATM    1  C1  UNL     1     -34.671   4.662   5.327  1.00 20.00     0.012 C 
HETATM    2  C2  UNL     1     -34.412   5.239   4.307  1.00 20.00    -0.115 C 
HETATM    3  C5  UNL     1     -34.097   5.941   3.053  1.00 20.00     0.128 C 
ENDROOT
BRANCH   3   4
HETATM    4  C6  UNL     1     -32.902   6.893   3.206  1.00 20.00     0.227 C 
HETATM    5  C3  UNL     1     -32.933   7.657   4.531  1.00 20.00     0.043 C 
BRANCH   4   6
HETATM    6  N7  UNL     1     -32.921   7.864   2.109  1.00 20.00     0.084 N 
HETATM    7  C4  UNL     1     -31.751   8.723   2.163  1.00 20.00     0.307 C 
HETATM    8  H18 UNL     1     -32.933   7.358   1.227  1.00 20.00     0.315 HD
ENDBRANCH   4   6
ENDBRANCH   3   4
TORSDOF 2
ENDMDL
MODEL 8
REMARK VINA RESULT:      -4.0      1.651      2.881
REMARK  2 active torsions:
REMARK  status: ('A' for Active; 'I' for Inactive)
REMARK    1  A    between atoms: C5_5  and  C6_6 
REMARK    2  A    between atoms: C6_6  and  N7_7 
ROOT
HETATM    1  C1  UNL     1     -33.340   7.754   5.878  1.00 20.00     0.012 C 
HETATM    2  C2  UNL     1     -33.980   6.739   5.866  1.00 20.00    -0.115 C 
HETATM    3  C5  UNL     1     -34.763   5.493   5.858  1.00 20.00     0.128 C 
ENDROOT
BRANCH   3   4
HETATM    4  C6  UNL     1     -34.914   4.913   4.444  1.00 20.00     0.227 C 
HETATM    5  C3  UNL     1     -33.893   3.810   4.157  1.00 20.00     0.043 C 
BRANCH   4   6
HETATM    6  N7  UNL     1     -34.726   5.987   3.465  1.00 20.00     0.084 N 
HETATM    7  C4  UNL     1     -33.538   5.748   2.662  1.00 20.00     0.307 C 
HETATM    8  H18 UNL     1     -35.544   6.026   2.862  1.00 20.00     0.315 HD
ENDBRANCH   4   6
ENDBRANCH   3   4
TORSDOF 2
ENDMDL
MODEL 9
REMARK VINA RESULT:      -3.9      1.730      2.526
REMARK  2 active torsions:
REMARK  status: ('A' for Active; 'I' for Inactive)
REMARK    1  A    between atoms: C5_5  and  C6_6 
REMARK    2  A    between atoms: C6_6  and  N7_7 
ROOT
HETATM    1  C1  UNL     1     -32.626   9.332   1.003  1.00 20.00     0.012 C 
HETATM    2  C2  UNL     1     -32.266   8.731   1.978  1.00 20.00    -0.115 C 
HETATM    3  C5  UNL     1     -31.818   7.997   3.172  1.00 20.00     0.128 C 
ENDROOT
BRANCH   3   4
HETATM    4  C6  UNL     1     -32.815   6.906   3.589  1.00 20.00     0.227 C 
HETATM    5  C3  UNL     1     -33.423   6.184   2.386  1.00 20.00     0.043 C 
BRANCH   4   6
HETATM    6  N7  UNL     1     -33.900   7.521   4.359  1.00 20.00     0.084 N 
HETATM    7  C4  UNL     1     -33.746   7.240   5.777  1.00 20.00     0.307 C 
HETATM    8  H18 UNL     1     -33.879   8.526   4.206  1.00 20.00     0.315 HD
ENDBRANCH   4   6
ENDBRANCH   3   4
TORSDOF 2
ENDMDL
