MODEL 1
REMARK VINA RESULT:      -5.9      0.000      0.000
REMARK  0 active torsions:
REMARK  status: ('A' for Active; 'I' for Inactive)
ROOT
HETATM    1  C1  UNL     1     -33.683   5.978   2.483  1.00 20.00    -0.008 C 
HETATM    2  C2  UNL     1     -34.138   6.021   3.731  1.00 20.00    -0.037 C 
HETATM    3  C3  UNL     1     -33.502   6.984   4.641  1.00 20.00     0.044 C 
HETATM    4  C4  UNL     1     -32.231   8.001   3.020  1.00 20.00     0.246 C 
HETATM    5  C5  UNL     1     -32.619   6.913   2.015  1.00 20.00     0.133 C 
HETATM    6  C6  UNL     1     -35.126   5.216   4.494  1.00 20.00     0.040 C 
HETATM    7  C7  UNL     1     -34.019   6.784   6.033  1.00 20.00     0.060 C 
HETATM    8  C8  UNL     1     -34.637   5.384   5.937  1.00 20.00     0.011 C 
HETATM    9  N9  UNL     1     -32.636   7.887   4.336  1.00 20.00    -0.218 NA
HETATM   10  O10 UNL     1     -31.527   8.937   2.634  1.00 20.00    -0.271 OA
ENDROOT
TORSDOF 0
ENDMDL
MODEL 2
REMARK VINA RESULT:      -5.3      2.327      4.051
REMARK  0 active torsions:
REMARK  status: ('A' for Active; 'I' for Inactive)
ROOT
HETATM    1  C1  UNL     1     -33.660   7.104   5.889  1.00 20.00    -0.008 C 
HETATM    2  C2  UNL     1     -33.109   7.566   4.770  1.00 20.00    -0.037 C 
HETATM    3  C3  UNL     1     -33.224   6.723   3.572  1.00 20.00     0.044 C 
HETATM    4  C4  UNL     1     -34.636   5.184   4.528  1.00 20.00     0.246 C 
HETATM    5  C5  UNL     1     -34.416   5.818   5.904  1.00 20.00     0.133 C 
HETATM    6  C6  UNL     1     -32.276   8.752   4.448  1.00 20.00     0.040 C 
HETATM    7  C7  UNL     1     -32.414   7.313   2.457  1.00 20.00     0.060 C 
HETATM    8  C8  UNL     1     -31.495   8.276   3.218  1.00 20.00     0.011 C 
HETATM    9  N9  UNL     1     -33.910   5.641   3.445  1.00 20.00    -0.218 NA
HETATM   10  O10 UNL     1     -35.432   4.247   4.431  1.00 20.00    -0.271 OA
ENDROOT
TORSDOF 0
ENDMDL
MODEL 3
REMARK VINA RESULT:      -5.3      2.063      3.592
REMARK  0 active torsions:
REMARK  status: ('A' for Active; 'I' for Inactive)
ROOT
HETATM    1  C1  UNL     1     -34.224   6.090   2.649  1.00 20.00    -0.008 C 
HETATM    2  C2  UNL     1     -33.177   6.908   2.699  1.00 20.00    -0.037 C 
HETATM    3  C3  UNL     1     -32.824   7.462   4.014  1.00 20.00     0.044 C 
HETATM    4  C4  UNL     1     -34.325   6.182   5.193  1.00 20.00     0.246 C 
HETATM    5  C5  UNL     1     -34.961   5.702   3.886  1.00 20.00     0.133 C 
HETATM    6  C6  UNL     1     -32.289   7.506   1.669  1.00 20.00     0.040 C 
HETATM    7  C7  UNL     1     -31.736   8.480   3.860  1.00 20.00     0.060 C 
HETATM    8  C8  UNL     1     -31.809   8.788   2.360  1.00 20.00     0.011 C 
HETATM    9  N9  UNL     1     -33.334   7.145   5.153  1.00 20.00    -0.218 NA
HETATM   10  O10 UNL     1     -34.744   5.723   6.257  1.00 20.00    -0.271 OA
ENDROOT
TORSDOF 0
ENDMDL
MODEL 4
REMARK VINA RESULT:      -5.0      1.082      2.131
REMARK  0 active torsions:
REMARK  status: ('A' for Active; 'I' for Inactive)
ROOT
HETATM    1  C1  UNL     1     -33.345   7.591   5.563  1.00 20.00    -0.008 C 
HETATM    2  C2  UNL     1     -33.731   6.380   5.173  1.00 20.00    -0.037 C 
HETATM    3  C3  UNL     1     -33.425   5.996   3.787  1.00 20.00     0.044 C 
HETATM    4  C4  UNL     1     -32.145   7.848   3.330  1.00 20.00     0.246 C 
HETATM    5  C5  UNL     1     -32.578   8.489   4.652  1.00 20.00     0.133 C 
HETATM    6  C6  UNL     1     -34.527   5.300   5.808  1.00 20.00     0.040 C 
HETATM    7  C7  UNL     1     -34.070   4.681   3.471  1.00 20.00     0.060 C 
HETATM    8  C8  UNL     1     -35.109   4.567   4.594  1.00 20.00     0.011 C 
HETATM    9  N9  UNL     1     -32.709   6.649   2.939  1.00 20.00    -0.218 NA
HETATM   10  O10 UNL     1     -31.327   8.444   2.626  1.00 20.00    -0.271 OA
ENDROOT
TORSDOF 0
ENDMDL
MODEL 5
REMARK VINA RESULT:      -4.7     11.909     12.406
REMARK  0 active torsions:
REMARK  status: ('A' for Active; 'I' for Inactive)
ROOT
HETATM    1  C1  UNL     1     -34.296  18.347   0.821  1.00 20.00    -0.008 C 
HETATM    2  C2  UNL     1     -34.345  17.747  -0.365  1.00 20.00    -0.037 C 
HETATM    3  C3  UNL     1     -33.127  17.794  -1.188  1.00 20.00     0.044 C 
HETATM    4  C4  UNL     1     -31.808  18.739   0.439  1.00 20.00     0.246 C 
HETATM    5  C5  UNL     1     -33.039  18.979   1.316  1.00 20.00     0.133 C 
HETATM    6  C6  UNL     1     -35.426  17.087  -1.140  1.00 20.00     0.040 C 
HETATM    7  C7  UNL     1     -33.408  17.219  -2.542  1.00 20.00     0.060 C 
HETATM    8  C8  UNL     1     -34.941  17.258  -2.585  1.00 20.00     0.011 C 
HETATM    9  N9  UNL     1     -31.971  18.240  -0.840  1.00 20.00    -0.218 NA
HETATM   10  O10 UNL     1     -30.698  19.036   0.886  1.00 20.00    -0.271 OA
ENDROOT
TORSDOF 0
ENDMDL
MODEL 6
REMARK VINA RESULT:      -4.6     11.703     12.089
REMARK  0 active torsions:
REMARK  status: ('A' for Active; 'I' for Inactive)
ROOT
HETATM    1  C1  UNL     1     -37.145  15.148  -4.455  1.00 20.00    -0.008 C 
HETATM    2  C2  UNL     1     -36.107  15.752  -3.885  1.00 20.00    -0.037 C 
HETATM    3  C3  UNL     1     -34.799  15.092  -4.010  1.00 20.00     0.044 C 
HETATM    4  C4  UNL     1     -35.520  13.467  -5.466  1.00 20.00     0.246 C 
HETATM    5  C5  UNL     1     -36.974  13.893  -5.242  1.00 20.00     0.133 C 
HETATM    6  C6  UNL     1     -35.961  16.951  -3.021  1.00 20.00     0.040 C 
HETATM    7  C7  UNL     1     -33.784  15.815  -3.179  1.00 20.00     0.060 C 
HETATM    8  C8  UNL     1     -34.678  16.636  -2.242  1.00 20.00     0.011 C 
HETATM    9  N9  UNL     1     -34.516  14.056  -4.722  1.00 20.00    -0.218 NA
HETATM   10  O10 UNL     1     -35.287  12.574  -6.284  1.00 20.00    -0.271 OA
ENDROOT
TORSDOF 0
ENDMDL
MODEL 7
REMARK VINA RESULT:      -4.4     11.621     12.102
REMARK  0 active torsions:
REMARK  status: ('A' for Active; 'I' for Inactive)
ROOT
HETATM    1  C1  UNL     1     -33.232  15.124  -4.203  1.00 20.00    -0.008 C 
HETATM    2  C2  UNL     1     -33.946  15.931  -3.425  1.00 20.00    -0.037 C 
HETATM    3  C3  UNL     1     -35.408  15.782  -3.471  1.00 20.00     0.044 C 
HETATM    4  C4  UNL     1     -35.388  13.900  -4.790  1.00 20.00     0.246 C 
HETATM    5  C5  UNL     1     -33.886  14.072  -5.033  1.00 20.00     0.133 C 
HETATM    6  C6  UNL     1     -33.606  17.076  -2.543  1.00 20.00     0.040 C 
HETATM    7  C7  UNL     1     -36.054  16.868  -2.666  1.00 20.00     0.060 C 
HETATM    8  C8  UNL     1     -34.911  17.881  -2.537  1.00 20.00     0.011 C 
HETATM    9  N9  UNL     1     -36.077  14.868  -4.084  1.00 20.00    -0.218 NA
HETATM   10  O10 UNL     1     -35.955  12.915  -5.268  1.00 20.00    -0.271 OA
ENDROOT
TORSDOF 0
ENDMDL
MODEL 8
REMARK VINA RESULT:      -4.3     11.792     12.356
REMARK  0 active torsions:
REMARK  status: ('A' for Active; 'I' for Inactive)
ROOT
HETATM    1  C1  UNL     1     -32.383  18.649  -0.101  1.00 20.00    -0.008 C 
HETATM    2  C2  UNL     1     -33.289  18.111  -0.912  1.00 20.00    -0.037 C 
HETATM    3  C3  UNL     1     -34.561  17.689  -0.307  1.00 20.00     0.044 C 
HETATM    4  C4  UNL     1     -34.122  18.591   1.760  1.00 20.00     0.246 C 
HETATM    5  C5  UNL     1     -32.676  18.873   1.344  1.00 20.00     0.133 C 
HETATM    6  C6  UNL     1     -33.286  17.725  -2.346  1.00 20.00     0.040 C 
HETATM    7  C7  UNL     1     -35.389  16.963  -1.322  1.00 20.00     0.060 C 
HETATM    8  C8  UNL     1     -34.342  16.614  -2.386  1.00 20.00     0.011 C 
HETATM    9  N9  UNL     1     -34.953  17.898   0.902  1.00 20.00    -0.218 NA
HETATM   10  O10 UNL     1     -34.496  18.958   2.876  1.00 20.00    -0.271 OA
ENDROOT
TORSDOF 0
ENDMDL
MODEL 9
REMARK VINA RESULT:      -4.3     11.784     12.941
REMARK  0 active torsions:
REMARK  status: ('A' for Active; 'I' for Inactive)
ROOT
HETATM    1  C1  UNL     1     -33.749  15.422  -7.193  1.00 20.00    -0.008 C 
HETATM    2  C2  UNL     1     -33.798  15.702  -5.894  1.00 20.00    -0.037 C 
HETATM    3  C3  UNL     1     -34.519  14.753  -5.034  1.00 20.00     0.044 C 
HETATM    4  C4  UNL     1     -34.852  13.184  -6.679  1.00 20.00     0.246 C 
HETATM    5  C5  UNL     1     -34.344  14.168  -7.737  1.00 20.00     0.133 C 
HETATM    6  C6  UNL     1     -33.355  16.857  -5.074  1.00 20.00     0.040 C 
HETATM    7  C7  UNL     1     -34.615  15.302  -3.643  1.00 20.00     0.060 C 
HETATM    8  C8  UNL     1     -34.306  16.786  -3.873  1.00 20.00     0.011 C 
HETATM    9  N9  UNL     1     -35.004  13.609  -5.373  1.00 20.00    -0.218 NA
HETATM   10  O10 UNL     1     -35.152  12.042  -7.032  1.00 20.00    -0.271 OA
ENDROOT
TORSDOF 0
ENDMDL
