MODEL 1
REMARK VINA RESULT:      -4.7      0.000      0.000
REMARK  2 active torsions:
REMARK  status: ('A' for Active; 'I' for Inactive)
REMARK    1  A    between atoms: C1_1  and  C7_7 
REMARK    2  A    between atoms: C7_7  and  C10_10 
ROOT
HETATM    1  C2  UNL     1     -35.722  16.132  -7.900  1.00 20.00     0.000 C 
HETATM    2  C3  UNL     1     -36.691  16.329  -6.741  1.00 20.00     0.001 C 
HETATM    3  C4  UNL     1     -35.037  14.770  -7.831  1.00 20.00     0.001 C 
HETATM    4  C5  UNL     1     -36.003  16.132  -5.389  1.00 20.00     0.021 C 
HETATM    5  C6  UNL     1     -34.333  14.559  -6.491  1.00 20.00     0.021 C 
HETATM    6  C7  UNL     1     -35.253  14.802  -5.292  1.00 20.00     0.051 C 
ENDROOT
BRANCH   6   7
HETATM    7  C1  UNL     1     -36.258  13.656  -5.178  1.00 20.00     0.182 C 
HETATM    8  O11 UNL     1     -37.418  13.991  -4.810  1.00 20.00    -0.647 OA
HETATM    9  O12 UNL     1     -35.797  12.517  -5.466  1.00 20.00    -0.647 OA
ENDBRANCH   6   7
BRANCH   6  10
HETATM   10  C10 UNL     1     -34.481  14.701  -3.976  1.00 20.00    -0.004 C 
HETATM   11  C8  UNL     1     -33.000  14.455  -4.246  1.00 20.00     0.011 C 
HETATM   12  C9  UNL     1     -34.676  15.965  -3.146  1.00 20.00     0.011 C 
ENDBRANCH   6  10
TORSDOF 2
ENDMDL
MODEL 2
REMARK VINA RESULT:      -4.7      0.682      3.539
REMARK  2 active torsions:
REMARK  status: ('A' for Active; 'I' for Inactive)
REMARK    1  A    between atoms: C1_1  and  C7_7 
REMARK    2  A    between atoms: C7_7  and  C10_10 
ROOT
HETATM    1  C2  UNL     1     -34.354  15.964  -3.263  1.00 20.00     0.000 C 
HETATM    2  C3  UNL     1     -33.874  14.627  -3.813  1.00 20.00     0.001 C 
HETATM    3  C4  UNL     1     -35.816  16.220  -3.611  1.00 20.00     0.001 C 
HETATM    4  C5  UNL     1     -34.101  14.521  -5.321  1.00 20.00     0.021 C 
HETATM    5  C6  UNL     1     -36.063  16.130  -5.117  1.00 20.00     0.021 C 
HETATM    6  C7  UNL     1     -35.545  14.825  -5.728  1.00 20.00     0.051 C 
ENDROOT
BRANCH   6   7
HETATM    7  C1  UNL     1     -36.449  13.669  -5.304  1.00 20.00     0.182 C 
HETATM    8  O11 UNL     1     -35.906  12.529  -5.310  1.00 20.00    -0.647 OA
HETATM    9  O12 UNL     1     -37.629  14.002  -5.001  1.00 20.00    -0.647 OA
ENDBRANCH   6   7
BRANCH   6  10
HETATM   10  C10 UNL     1     -35.699  14.829  -7.249  1.00 20.00    -0.004 C 
HETATM   11  C8  UNL     1     -36.177  16.195  -7.731  1.00 20.00     0.011 C 
HETATM   12  C9  UNL     1     -34.382  14.449  -7.918  1.00 20.00     0.011 C 
ENDBRANCH   6  10
TORSDOF 2
ENDMDL
MODEL 3
REMARK VINA RESULT:      -4.6      1.640      3.454
REMARK  2 active torsions:
REMARK  status: ('A' for Active; 'I' for Inactive)
REMARK    1  A    between atoms: C1_1  and  C7_7 
REMARK    2  A    between atoms: C7_7  and  C10_10 
ROOT
HETATM    1  C2  UNL     1     -33.282  15.693  -4.482  1.00 20.00     0.000 C 
HETATM    2  C3  UNL     1     -33.402  16.019  -5.966  1.00 20.00     0.001 C 
HETATM    3  C4  UNL     1     -33.817  14.300  -4.170  1.00 20.00     0.001 C 
HETATM    4  C5  UNL     1     -34.840  15.863  -6.465  1.00 20.00     0.021 C 
HETATM    5  C6  UNL     1     -35.258  14.127  -4.650  1.00 20.00     0.021 C 
HETATM    6  C7  UNL     1     -35.441  14.497  -6.125  1.00 20.00     0.051 C 
ENDROOT
BRANCH   6   7
HETATM    7  C1  UNL     1     -34.803  13.424  -7.005  1.00 20.00     0.182 C 
HETATM    8  O11 UNL     1     -34.046  13.855  -7.918  1.00 20.00    -0.647 OA
HETATM    9  O12 UNL     1     -35.116  12.238  -6.705  1.00 20.00    -0.647 OA
ENDBRANCH   6   7
BRANCH   6  10
HETATM   10  C10 UNL     1     -36.914  14.429  -6.530  1.00 20.00    -0.004 C 
HETATM   11  C8  UNL     1     -37.808  14.445  -5.294  1.00 20.00     0.011 C 
HETATM   12  C9  UNL     1     -37.263  15.583  -7.464  1.00 20.00     0.011 C 
ENDBRANCH   6  10
TORSDOF 2
ENDMDL
MODEL 4
REMARK VINA RESULT:      -4.6      0.416      1.020
REMARK  2 active torsions:
REMARK  status: ('A' for Active; 'I' for Inactive)
REMARK    1  A    between atoms: C1_1  and  C7_7 
REMARK    2  A    between atoms: C7_7  and  C10_10 
ROOT
HETATM    1  C2  UNL     1     -36.267  16.527  -7.591  1.00 20.00     0.000 C 
HETATM    2  C3  UNL     1     -37.155  16.508  -6.352  1.00 20.00     0.001 C 
HETATM    3  C4  UNL     1     -35.472  15.233  -7.729  1.00 20.00     0.001 C 
HETATM    4  C5  UNL     1     -36.349  16.226  -5.083  1.00 20.00     0.021 C 
HETATM    5  C6  UNL     1     -34.649  14.939  -6.474  1.00 20.00     0.021 C 
HETATM    6  C7  UNL     1     -35.489  14.965  -5.194  1.00 20.00     0.051 C 
ENDROOT
BRANCH   6   7
HETATM    7  C1  UNL     1     -36.385  13.729  -5.145  1.00 20.00     0.182 C 
HETATM    8  O11 UNL     1     -35.824  12.643  -5.460  1.00 20.00    -0.647 OA
HETATM    9  O12 UNL     1     -37.577  13.952  -4.794  1.00 20.00    -0.647 OA
ENDBRANCH   6   7
BRANCH   6  10
HETATM   10  C10 UNL     1     -34.609  14.789  -3.955  1.00 20.00    -0.004 C 
HETATM   11  C8  UNL     1     -33.158  14.552  -4.363  1.00 20.00     0.011 C 
HETATM   12  C9  UNL     1     -34.723  16.006  -3.044  1.00 20.00     0.011 C 
ENDBRANCH   6  10
TORSDOF 2
ENDMDL
MODEL 5
REMARK VINA RESULT:      -4.5      1.584      2.163
REMARK  2 active torsions:
REMARK  status: ('A' for Active; 'I' for Inactive)
REMARK    1  A    between atoms: C1_1  and  C7_7 
REMARK    2  A    between atoms: C7_7  and  C10_10 
ROOT
HETATM    1  C2  UNL     1     -34.722  16.284  -7.399  1.00 20.00     0.000 C 
HETATM    2  C3  UNL     1     -35.832  15.485  -6.726  1.00 20.00     0.001 C 
HETATM    3  C4  UNL     1     -33.372  16.033  -6.735  1.00 20.00     0.001 C 
HETATM    4  C5  UNL     1     -35.902  15.767  -5.224  1.00 20.00     0.021 C 
HETATM    5  C6  UNL     1     -33.417  16.321  -5.234  1.00 20.00     0.021 C 
HETATM    6  C7  UNL     1     -34.555  15.584  -4.522  1.00 20.00     0.051 C 
ENDROOT
BRANCH   6   7
HETATM    7  C1  UNL     1     -34.222  14.095  -4.435  1.00 20.00     0.182 C 
HETATM    8  O11 UNL     1     -32.998  13.823  -4.291  1.00 20.00    -0.647 OA
HETATM    9  O12 UNL     1     -35.219  13.324  -4.518  1.00 20.00    -0.647 OA
ENDBRANCH   6   7
BRANCH   6  10
HETATM   10  C10 UNL     1     -34.641  15.994  -3.051  1.00 20.00    -0.004 C 
HETATM   11  C8  UNL     1     -33.520  16.970  -2.705  1.00 20.00     0.011 C 
HETATM   12  C9  UNL     1     -36.004  16.606  -2.749  1.00 20.00     0.011 C 
ENDBRANCH   6  10
TORSDOF 2
ENDMDL
MODEL 6
REMARK VINA RESULT:      -4.4      1.461      2.298
REMARK  2 active torsions:
REMARK  status: ('A' for Active; 'I' for Inactive)
REMARK    1  A    between atoms: C1_1  and  C7_7 
REMARK    2  A    between atoms: C7_7  and  C10_10 
ROOT
HETATM    1  C2  UNL     1     -34.014  15.918  -7.460  1.00 20.00     0.000 C 
HETATM    2  C3  UNL     1     -35.226  15.001  -7.568  1.00 20.00     0.001 C 
HETATM    3  C4  UNL     1     -33.326  15.778  -6.106  1.00 20.00     0.001 C 
HETATM    4  C5  UNL     1     -36.217  15.237  -6.427  1.00 20.00     0.021 C 
HETATM    5  C6  UNL     1     -34.298  16.022  -4.951  1.00 20.00     0.021 C 
HETATM    6  C7  UNL     1     -35.562  15.163  -5.046  1.00 20.00     0.051 C 
ENDROOT
BRANCH   6   7
HETATM    7  C1  UNL     1     -35.218  13.710  -4.721  1.00 20.00     0.182 C 
HETATM    8  O11 UNL     1     -35.982  12.847  -5.235  1.00 20.00    -0.647 OA
HETATM    9  O12 UNL     1     -34.210  13.558  -3.976  1.00 20.00    -0.647 OA
ENDBRANCH   6   7
BRANCH   6  10
HETATM   10  C10 UNL     1     -36.558  15.525  -3.944  1.00 20.00    -0.004 C 
HETATM   11  C8  UNL     1     -35.924  16.495  -2.952  1.00 20.00     0.011 C 
HETATM   12  C9  UNL     1     -37.825  16.121  -4.548  1.00 20.00     0.011 C 
ENDBRANCH   6  10
TORSDOF 2
ENDMDL
MODEL 7
REMARK VINA RESULT:      -4.3      1.404      1.964
REMARK  2 active torsions:
REMARK  status: ('A' for Active; 'I' for Inactive)
REMARK    1  A    between atoms: C1_1  and  C7_7 
REMARK    2  A    between atoms: C7_7  and  C10_10 
ROOT
HETATM    1  C2  UNL     1     -38.151  15.715  -6.393  1.00 20.00     0.000 C 
HETATM    2  C3  UNL     1     -37.996  14.795  -5.188  1.00 20.00     0.001 C 
HETATM    3  C4  UNL     1     -36.999  15.545  -7.378  1.00 20.00     0.001 C 
HETATM    4  C5  UNL     1     -36.649  14.999  -4.491  1.00 20.00     0.021 C 
HETATM    5  C6  UNL     1     -35.643  15.756  -6.703  1.00 20.00     0.021 C 
HETATM    6  C7  UNL     1     -35.462  14.894  -5.451  1.00 20.00     0.051 C 
ENDROOT
BRANCH   6   7
HETATM    7  C1  UNL     1     -35.262  13.435  -5.860  1.00 20.00     0.182 C 
HETATM    8  O11 UNL     1     -34.496  13.252  -6.846  1.00 20.00    -0.647 OA
HETATM    9  O12 UNL     1     -35.891  12.597  -5.156  1.00 20.00    -0.647 OA
ENDBRANCH   6   7
BRANCH   6  10
HETATM   10  C10 UNL     1     -34.149  15.225  -4.740  1.00 20.00    -0.004 C 
HETATM   11  C8  UNL     1     -33.364  16.266  -5.531  1.00 20.00     0.011 C 
HETATM   12  C9  UNL     1     -34.421  15.714  -3.322  1.00 20.00     0.011 C 
ENDBRANCH   6  10
TORSDOF 2
ENDMDL
MODEL 8
REMARK VINA RESULT:      -4.2      1.319      3.263
REMARK  2 active torsions:
REMARK  status: ('A' for Active; 'I' for Inactive)
REMARK    1  A    between atoms: C1_1  and  C7_7 
REMARK    2  A    between atoms: C7_7  and  C10_10 
ROOT
HETATM    1  C2  UNL     1     -36.314  16.747  -3.057  1.00 20.00     0.000 C 
HETATM    2  C3  UNL     1     -34.886  16.224  -2.975  1.00 20.00     0.001 C 
HETATM    3  C4  UNL     1     -37.205  15.816  -3.873  1.00 20.00     0.001 C 
HETATM    4  C5  UNL     1     -34.292  15.980  -4.364  1.00 20.00     0.021 C 
HETATM    5  C6  UNL     1     -36.635  15.569  -5.270  1.00 20.00     0.021 C 
HETATM    6  C7  UNL     1     -35.180  15.095  -5.242  1.00 20.00     0.051 C 
ENDROOT
BRANCH   6   7
HETATM    7  C1  UNL     1     -35.121  13.653  -4.740  1.00 20.00     0.182 C 
HETATM    8  O11 UNL     1     -36.019  12.889  -5.189  1.00 20.00    -0.647 OA
HETATM    9  O12 UNL     1     -34.178  13.410  -3.936  1.00 20.00    -0.647 OA
ENDBRANCH   6   7
BRANCH   6  10
HETATM   10  C10 UNL     1     -34.611  14.979  -6.657  1.00 20.00    -0.004 C 
HETATM   11  C8  UNL     1     -35.669  15.360  -7.688  1.00 20.00     0.011 C 
HETATM   12  C9  UNL     1     -33.371  15.853  -6.806  1.00 20.00     0.011 C 
ENDBRANCH   6  10
TORSDOF 2
ENDMDL
MODEL 9
REMARK VINA RESULT:      -4.2      2.917      4.196
REMARK  2 active torsions:
REMARK  status: ('A' for Active; 'I' for Inactive)
REMARK    1  A    between atoms: C1_1  and  C7_7 
REMARK    2  A    between atoms: C7_7  and  C10_10 
ROOT
HETATM    1  C2  UNL     1     -34.835  14.072  -4.469  1.00 20.00     0.000 C 
HETATM    2  C3  UNL     1     -33.544  14.876  -4.563  1.00 20.00     0.001 C 
HETATM    3  C4  UNL     1     -36.056  14.983  -4.390  1.00 20.00     0.001 C 
HETATM    4  C5  UNL     1     -33.410  15.869  -3.407  1.00 20.00     0.021 C 
HETATM    5  C6  UNL     1     -35.948  15.976  -3.233  1.00 20.00     0.021 C 
HETATM    6  C7  UNL     1     -34.638  16.769  -3.252  1.00 20.00     0.051 C 
ENDROOT
BRANCH   6   7
HETATM    7  C1  UNL     1     -34.673  17.786  -4.391  1.00 20.00     0.182 C 
HETATM    8  O11 UNL     1     -33.582  17.946  -5.006  1.00 20.00    -0.647 OA
HETATM    9  O12 UNL     1     -35.793  18.340  -4.573  1.00 20.00    -0.647 OA
ENDBRANCH   6   7
BRANCH   6  10
HETATM   10  C10 UNL     1     -34.515  17.658  -2.014  1.00 20.00    -0.004 C 
HETATM   11  C8  UNL     1     -35.429  17.152  -0.903  1.00 20.00     0.011 C 
HETATM   12  C9  UNL     1     -33.067  17.713  -1.540  1.00 20.00     0.011 C 
ENDBRANCH   6  10
TORSDOF 2
ENDMDL
