MODEL 1
REMARK VINA RESULT:      -3.8      0.000      0.000
REMARK  0 active torsions:
REMARK  status: ('A' for Active; 'I' for Inactive)
ROOT
HETATM    1  C1  UNL     1     -34.461   5.419   5.650  1.00 20.00     0.158 C 
HETATM    2  C2  UNL     1     -34.079   6.676   5.431  1.00 20.00     0.277 C 
HETATM    3  F3  UNL     1     -34.074   7.558   6.454  1.00 20.00    -0.172 F 
HETATM    4  F4  UNL     1     -33.698   7.079   4.201  1.00 20.00    -0.172 F 
HETATM    5 CL5  UNL     1     -34.507   4.218   4.431  1.00 20.00    -0.091 Cl
ENDROOT
TORSDOF 0
ENDMDL
MODEL 2
REMARK VINA RESULT:      -3.8      1.611      1.804
REMARK  0 active torsions:
REMARK  status: ('A' for Active; 'I' for Inactive)
ROOT
HETATM    1  C1  UNL     1     -33.838   6.835   4.189  1.00 20.00     0.158 C 
HETATM    2  C2  UNL     1     -34.197   6.512   5.430  1.00 20.00     0.277 C 
HETATM    3  F3  UNL     1     -34.023   7.405   6.428  1.00 20.00    -0.172 F 
HETATM    4  F4  UNL     1     -34.732   5.303   5.703  1.00 20.00    -0.172 F 
HETATM    5 CL5  UNL     1     -34.013   5.784   2.849  1.00 20.00    -0.091 Cl
ENDROOT
TORSDOF 0
ENDMDL
MODEL 3
REMARK VINA RESULT:      -3.8      2.142      2.354
REMARK  0 active torsions:
REMARK  status: ('A' for Active; 'I' for Inactive)
ROOT
HETATM    1  C1  UNL     1     -34.089   6.196   4.054  1.00 20.00     0.158 C 
HETATM    2  C2  UNL     1     -34.332   6.203   5.363  1.00 20.00     0.277 C 
HETATM    3  F3  UNL     1     -34.988   5.164   5.924  1.00 20.00    -0.172 F 
HETATM    4  F4  UNL     1     -33.934   7.235   6.136  1.00 20.00    -0.172 F 
HETATM    5 CL5  UNL     1     -33.268   7.457   3.238  1.00 20.00    -0.091 Cl
ENDROOT
TORSDOF 0
ENDMDL
MODEL 4
REMARK VINA RESULT:      -3.7      2.384      2.695
REMARK  0 active torsions:
REMARK  status: ('A' for Active; 'I' for Inactive)
ROOT
HETATM    1  C1  UNL     1     -34.316   5.811   5.692  1.00 20.00     0.158 C 
HETATM    2  C2  UNL     1     -34.578   5.290   4.495  1.00 20.00     0.277 C 
HETATM    3  F3  UNL     1     -34.951   3.996   4.399  1.00 20.00    -0.172 F 
HETATM    4  F4  UNL     1     -34.473   6.037   3.376  1.00 20.00    -0.172 F 
HETATM    5 CL5  UNL     1     -33.836   7.436   5.931  1.00 20.00    -0.091 Cl
ENDROOT
TORSDOF 0
ENDMDL
MODEL 5
REMARK VINA RESULT:      -3.7      2.643      3.046
REMARK  0 active torsions:
REMARK  status: ('A' for Active; 'I' for Inactive)
ROOT
HETATM    1  C1  UNL     1     -33.635   6.962   4.295  1.00 20.00     0.158 C 
HETATM    2  C2  UNL     1     -34.429   6.153   3.597  1.00 20.00     0.277 C 
HETATM    3  F3  UNL     1     -34.190   5.955   2.283  1.00 20.00    -0.172 F 
HETATM    4  F4  UNL     1     -35.471   5.529   4.186  1.00 20.00    -0.172 F 
HETATM    5 CL5  UNL     1     -33.843   7.286   5.963  1.00 20.00    -0.091 Cl
ENDROOT
TORSDOF 0
ENDMDL
MODEL 6
REMARK VINA RESULT:      -3.6      1.266      1.900
REMARK  0 active torsions:
REMARK  status: ('A' for Active; 'I' for Inactive)
ROOT
HETATM    1  C1  UNL     1     -34.336   5.888   4.272  1.00 20.00     0.158 C 
HETATM    2  C2  UNL     1     -33.750   7.078   4.382  1.00 20.00     0.277 C 
HETATM    3  F3  UNL     1     -33.538   7.821   3.274  1.00 20.00    -0.172 F 
HETATM    4  F4  UNL     1     -33.364   7.552   5.586  1.00 20.00    -0.172 F 
HETATM    5 CL5  UNL     1     -34.654   4.863   5.606  1.00 20.00    -0.091 Cl
ENDROOT
TORSDOF 0
ENDMDL
MODEL 7
REMARK VINA RESULT:      -3.6      2.382      2.751
REMARK  0 active torsions:
REMARK  status: ('A' for Active; 'I' for Inactive)
ROOT
HETATM    1  C1  UNL     1     -34.258   5.879   4.001  1.00 20.00     0.158 C 
HETATM    2  C2  UNL     1     -33.453   5.892   2.941  1.00 20.00     0.277 C 
HETATM    3  F3  UNL     1     -33.253   7.046   2.270  1.00 20.00    -0.172 F 
HETATM    4  F4  UNL     1     -32.835   4.765   2.527  1.00 20.00    -0.172 F 
HETATM    5 CL5  UNL     1     -34.583   4.476   4.926  1.00 20.00    -0.091 Cl
ENDROOT
TORSDOF 0
ENDMDL
MODEL 8
REMARK VINA RESULT:      -3.6      2.717      3.180
REMARK  0 active torsions:
REMARK  status: ('A' for Active; 'I' for Inactive)
ROOT
HETATM    1  C1  UNL     1     -33.616   7.058   4.219  1.00 20.00     0.158 C 
HETATM    2  C2  UNL     1     -32.603   7.543   3.504  1.00 20.00     0.277 C 
HETATM    3  F3  UNL     1     -32.561   7.321   2.173  1.00 20.00    -0.172 F 
HETATM    4  F4  UNL     1     -31.616   8.252   4.093  1.00 20.00    -0.172 F 
HETATM    5 CL5  UNL     1     -33.771   7.277   5.910  1.00 20.00    -0.091 Cl
ENDROOT
TORSDOF 0
ENDMDL
MODEL 9
REMARK VINA RESULT:      -3.5      2.558      2.944
REMARK  0 active torsions:
REMARK  status: ('A' for Active; 'I' for Inactive)
ROOT
HETATM    1  C1  UNL     1     -34.178   6.521   4.467  1.00 20.00     0.158 C 
HETATM    2  C2  UNL     1     -33.489   6.503   3.328  1.00 20.00     0.277 C 
HETATM    3  F3  UNL     1     -33.995   5.860   2.254  1.00 20.00    -0.172 F 
HETATM    4  F4  UNL     1     -32.291   7.118   3.234  1.00 20.00    -0.172 F 
HETATM    5 CL5  UNL     1     -33.635   7.303   5.890  1.00 20.00    -0.091 Cl
ENDROOT
TORSDOF 0
ENDMDL
