MODEL 1
REMARK VINA RESULT:      -4.5      0.000      0.000
REMARK  2 active torsions:
REMARK  status: ('A' for Active; 'I' for Inactive)
REMARK    1  A    between atoms: C3_3  and  C8_8 
REMARK    2  A    between atoms: C7_7  and  C8_8 
ROOT
HETATM    1  C1  UNL     1     -31.671   8.270   3.225  1.00 20.00     0.018 A 
HETATM    2  C2  UNL     1     -31.624   9.023   2.016  1.00 20.00     0.032 A 
HETATM    3  C3  UNL     1     -32.744   7.406   3.255  1.00 20.00    -0.001 A 
HETATM    4  C4  UNL     1     -32.662   8.705   1.168  1.00 20.00     0.075 A 
HETATM    5  S9  UNL     1     -33.689   7.505   1.829  1.00 20.00    -0.081 SA
HETATM    6 CL10 UNL     1     -32.992   9.362  -0.380  1.00 20.00    -0.076 Cl
ENDROOT
BRANCH   3   7
HETATM    7  C8  UNL     1     -33.146   6.442   4.348  1.00 20.00     0.102 C 
HETATM    8 BR11 UNL     1     -33.665   7.456   5.942  1.00 20.00    -0.085 Br
BRANCH   7   9
HETATM    9  C7  UNL     1     -34.242   5.515   3.951  1.00 20.00     0.005 A 
HETATM   10  C5  UNL     1     -34.109   4.036   4.190  1.00 20.00     0.006 A 
HETATM   11  C6  UNL     1     -35.083   4.844   5.001  1.00 20.00     0.006 A 
ENDBRANCH   7   9
ENDBRANCH   3   7
TORSDOF 2
ENDMDL
MODEL 2
REMARK VINA RESULT:      -4.2      3.064      5.035
REMARK  2 active torsions:
REMARK  status: ('A' for Active; 'I' for Inactive)
REMARK    1  A    between atoms: C3_3  and  C8_8 
REMARK    2  A    between atoms: C7_7  and  C8_8 
ROOT
HETATM    1  C1  UNL     1     -33.709   5.997   2.686  1.00 20.00     0.018 A 
HETATM    2  C2  UNL     1     -34.275   5.045   3.582  1.00 20.00     0.032 A 
HETATM    3  C3  UNL     1     -33.373   7.171   3.323  1.00 20.00    -0.001 A 
HETATM    4  C4  UNL     1     -34.351   5.529   4.871  1.00 20.00     0.075 A 
HETATM    5  S9  UNL     1     -33.741   7.124   4.995  1.00 20.00    -0.081 SA
HETATM    6 CL10 UNL     1     -34.960   4.729   6.258  1.00 20.00    -0.076 Cl
ENDROOT
BRANCH   3   7
HETATM    7  C8  UNL     1     -32.752   8.418   2.733  1.00 20.00     0.102 C 
HETATM    8 BR11 UNL     1     -30.934   8.624   3.435  1.00 20.00    -0.085 Br
BRANCH   7   9
HETATM    9  C7  UNL     1     -32.730   8.424   1.244  1.00 20.00     0.005 A 
HETATM   10  C5  UNL     1     -32.895   9.714   0.489  1.00 20.00     0.006 A 
HETATM   11  C6  UNL     1     -31.563   9.018   0.506  1.00 20.00     0.006 A 
ENDBRANCH   7   9
ENDBRANCH   3   7
TORSDOF 2
ENDMDL
MODEL 3
REMARK VINA RESULT:      -4.1     11.500     12.175
REMARK  2 active torsions:
REMARK  status: ('A' for Active; 'I' for Inactive)
REMARK    1  A    between atoms: C3_3  and  C8_8 
REMARK    2  A    between atoms: C7_7  and  C8_8 
ROOT
HETATM    1  C1  UNL     1     -34.728  15.124  -3.758  1.00 20.00     0.018 A 
HETATM    2  C2  UNL     1     -34.863  14.159  -4.798  1.00 20.00     0.032 A 
HETATM    3  C3  UNL     1     -34.026  16.235  -4.173  1.00 20.00    -0.001 A 
HETATM    4  C4  UNL     1     -34.259  14.569  -5.967  1.00 20.00     0.075 A 
HETATM    5  S9  UNL     1     -33.534  16.112  -5.809  1.00 20.00    -0.081 SA
HETATM    6 CL10 UNL     1     -34.177  13.728  -7.458  1.00 20.00    -0.076 Cl
ENDROOT
BRANCH   3   7
HETATM    7  C8  UNL     1     -33.671  17.473  -3.380  1.00 20.00     0.102 C 
HETATM    8 BR11 UNL     1     -35.082  18.813  -3.615  1.00 20.00    -0.085 Br
BRANCH   7   9
HETATM    9  C7  UNL     1     -33.451  17.210  -1.931  1.00 20.00     0.005 A 
HETATM   10  C5  UNL     1     -32.610  18.146  -1.109  1.00 20.00     0.006 A 
HETATM   11  C6  UNL     1     -34.096  18.087  -0.895  1.00 20.00     0.006 A 
ENDBRANCH   7   9
ENDBRANCH   3   7
TORSDOF 2
ENDMDL
MODEL 4
REMARK VINA RESULT:      -4.1     11.387     11.846
REMARK  2 active torsions:
REMARK  status: ('A' for Active; 'I' for Inactive)
REMARK    1  A    between atoms: C3_3  and  C8_8 
REMARK    2  A    between atoms: C7_7  and  C8_8 
ROOT
HETATM    1  C1  UNL     1     -35.488  17.016  -1.289  1.00 20.00     0.018 A 
HETATM    2  C2  UNL     1     -34.984  17.669  -0.127  1.00 20.00     0.032 A 
HETATM    3  C3  UNL     1     -34.572  17.012  -2.318  1.00 20.00    -0.001 A 
HETATM    4  C4  UNL     1     -33.701  18.138  -0.313  1.00 20.00     0.075 A 
HETATM    5  S9  UNL     1     -33.111  17.792  -1.883  1.00 20.00    -0.081 SA
HETATM    6 CL10 UNL     1     -32.718  18.979   0.811  1.00 20.00    -0.076 Cl
ENDROOT
BRANCH   3   7
HETATM    7  C8  UNL     1     -34.718  16.425  -3.705  1.00 20.00     0.102 C 
HETATM    8 BR11 UNL     1     -33.669  17.494  -4.969  1.00 20.00    -0.085 Br
BRANCH   7   9
HETATM    9  C7  UNL     1     -34.318  14.993  -3.790  1.00 20.00     0.005 A 
HETATM   10  C5  UNL     1     -35.169  14.012  -4.548  1.00 20.00     0.006 A 
HETATM   11  C6  UNL     1     -33.828  14.420  -5.091  1.00 20.00     0.006 A 
ENDBRANCH   7   9
ENDBRANCH   3   7
TORSDOF 2
ENDMDL
MODEL 5
REMARK VINA RESULT:      -4.0     11.147     11.704
REMARK  2 active torsions:
REMARK  status: ('A' for Active; 'I' for Inactive)
REMARK    1  A    between atoms: C3_3  and  C8_8 
REMARK    2  A    between atoms: C7_7  and  C8_8 
ROOT
HETATM    1  C1  UNL     1     -33.461  15.550  -3.764  1.00 20.00     0.018 A 
HETATM    2  C2  UNL     1     -33.850  14.446  -4.577  1.00 20.00     0.032 A 
HETATM    3  C3  UNL     1     -34.544  16.291  -3.345  1.00 20.00    -0.001 A 
HETATM    4  C4  UNL     1     -35.217  14.385  -4.747  1.00 20.00     0.075 A 
HETATM    5  S9  UNL     1     -36.023  15.655  -3.929  1.00 20.00    -0.081 SA
HETATM    6 CL10 UNL     1     -36.113  13.232  -5.643  1.00 20.00    -0.076 Cl
ENDROOT
BRANCH   3   7
HETATM    7  C8  UNL     1     -34.558  17.528  -2.475  1.00 20.00     0.102 C 
HETATM    8 BR11 UNL     1     -36.409  17.954  -1.992  1.00 20.00    -0.085 Br
BRANCH   7   9
HETATM    9  C7  UNL     1     -33.724  17.402  -1.247  1.00 20.00     0.005 A 
HETATM   10  C5  UNL     1     -32.633  18.397  -0.965  1.00 20.00     0.006 A 
HETATM   11  C6  UNL     1     -33.878  18.388  -0.123  1.00 20.00     0.006 A 
ENDBRANCH   7   9
ENDBRANCH   3   7
TORSDOF 2
ENDMDL
MODEL 6
REMARK VINA RESULT:      -4.0     11.856     12.489
REMARK  2 active torsions:
REMARK  status: ('A' for Active; 'I' for Inactive)
REMARK    1  A    between atoms: C3_3  and  C8_8 
REMARK    2  A    between atoms: C7_7  and  C8_8 
ROOT
HETATM    1  C1  UNL     1     -33.532  16.256  -4.059  1.00 20.00     0.018 A 
HETATM    2  C2  UNL     1     -33.643  16.640  -2.691  1.00 20.00     0.032 A 
HETATM    3  C3  UNL     1     -34.762  16.003  -4.626  1.00 20.00    -0.001 A 
HETATM    4  C4  UNL     1     -34.954  16.667  -2.266  1.00 20.00     0.075 A 
HETATM    5  S9  UNL     1     -36.043  16.230  -3.513  1.00 20.00    -0.081 SA
HETATM    6 CL10 UNL     1     -35.544  17.070  -0.709  1.00 20.00    -0.076 Cl
ENDROOT
BRANCH   3   7
HETATM    7  C8  UNL     1     -35.075  15.575  -6.043  1.00 20.00     0.102 C 
HETATM    8 BR11 UNL     1     -34.618  17.032  -7.271  1.00 20.00    -0.085 Br
BRANCH   7   9
HETATM    9  C7  UNL     1     -34.380  14.323  -6.453  1.00 20.00     0.005 A 
HETATM   10  C5  UNL     1     -35.139  13.229  -7.152  1.00 20.00     0.006 A 
HETATM   11  C6  UNL     1     -34.124  14.041  -7.907  1.00 20.00     0.006 A 
ENDBRANCH   7   9
ENDBRANCH   3   7
TORSDOF 2
ENDMDL
MODEL 7
REMARK VINA RESULT:      -4.0     11.266     11.924
REMARK  2 active torsions:
REMARK  status: ('A' for Active; 'I' for Inactive)
REMARK    1  A    between atoms: C3_3  and  C8_8 
REMARK    2  A    between atoms: C7_7  and  C8_8 
ROOT
HETATM    1  C1  UNL     1     -32.951  18.001  -1.525  1.00 20.00     0.018 A 
HETATM    2  C2  UNL     1     -33.132  18.408  -0.171  1.00 20.00     0.032 A 
HETATM    3  C3  UNL     1     -34.069  17.371  -2.028  1.00 20.00    -0.001 A 
HETATM    4  C4  UNL     1     -34.381  18.075   0.307  1.00 20.00     0.075 A 
HETATM    5  S9  UNL     1     -35.328  17.274  -0.873  1.00 20.00    -0.081 SA
HETATM    6 CL10 UNL     1     -35.020  18.371   1.869  1.00 20.00    -0.076 Cl
ENDROOT
BRANCH   3   7
HETATM    7  C8  UNL     1     -34.281  16.795  -3.411  1.00 20.00     0.102 C 
HETATM    8 BR11 UNL     1     -33.624  18.070  -4.746  1.00 20.00    -0.085 Br
BRANCH   7   9
HETATM    9  C7  UNL     1     -33.636  15.468  -3.609  1.00 20.00     0.005 A 
HETATM   10  C5  UNL     1     -34.420  14.321  -4.183  1.00 20.00     0.006 A 
HETATM   11  C6  UNL     1     -33.335  14.971  -4.995  1.00 20.00     0.006 A 
ENDBRANCH   7   9
ENDBRANCH   3   7
TORSDOF 2
ENDMDL
MODEL 8
REMARK VINA RESULT:      -3.8     11.451     12.577
REMARK  2 active torsions:
REMARK  status: ('A' for Active; 'I' for Inactive)
REMARK    1  A    between atoms: C3_3  and  C8_8 
REMARK    2  A    between atoms: C7_7  and  C8_8 
ROOT
HETATM    1  C1  UNL     1     -35.311  16.524  -2.355  1.00 20.00     0.018 A 
HETATM    2  C2  UNL     1     -35.421  17.002  -1.017  1.00 20.00     0.032 A 
HETATM    3  C3  UNL     1     -34.108  16.870  -2.930  1.00 20.00    -0.001 A 
HETATM    4  C4  UNL     1     -34.298  17.694  -0.621  1.00 20.00     0.075 A 
HETATM    5  S9  UNL     1     -33.117  17.767  -1.859  1.00 20.00    -0.081 SA
HETATM    6 CL10 UNL     1     -34.002  18.436   0.895  1.00 20.00    -0.076 Cl
ENDROOT
BRANCH   3   7
HETATM    7  C8  UNL     1     -33.606  16.557  -4.322  1.00 20.00     0.102 C 
HETATM    8 BR11 UNL     1     -33.237  14.637  -4.456  1.00 20.00    -0.085 Br
BRANCH   7   9
HETATM    9  C7  UNL     1     -34.543  16.976  -5.401  1.00 20.00     0.005 A 
HETATM   10  C5  UNL     1     -34.011  17.483  -6.713  1.00 20.00     0.006 A 
HETATM   11  C6  UNL     1     -34.687  16.142  -6.644  1.00 20.00     0.006 A 
ENDBRANCH   7   9
ENDBRANCH   3   7
TORSDOF 2
ENDMDL
MODEL 9
REMARK VINA RESULT:      -3.8      3.225      5.158
REMARK  2 active torsions:
REMARK  status: ('A' for Active; 'I' for Inactive)
REMARK    1  A    between atoms: C3_3  and  C8_8 
REMARK    2  A    between atoms: C7_7  and  C8_8 
ROOT
HETATM    1  C1  UNL     1     -33.027   6.086   2.242  1.00 20.00     0.018 A 
HETATM    2  C2  UNL     1     -33.699   5.207   3.139  1.00 20.00     0.032 A 
HETATM    3  C3  UNL     1     -32.817   7.330   2.797  1.00 20.00    -0.001 A 
HETATM    4  C4  UNL     1     -33.978   5.812   4.345  1.00 20.00     0.075 A 
HETATM    5  S9  UNL     1     -33.429   7.434   4.393  1.00 20.00    -0.081 SA
HETATM    6 CL10 UNL     1     -34.770   5.131   5.704  1.00 20.00    -0.076 Cl
ENDROOT
BRANCH   3   7
HETATM    7  C8  UNL     1     -32.143   8.534   2.179  1.00 20.00     0.102 C 
HETATM    8 BR11 UNL     1     -31.115   7.962   0.612  1.00 20.00    -0.085 Br
BRANCH   7   9
HETATM    9  C7  UNL     1     -33.091   9.619   1.801  1.00 20.00     0.005 A 
HETATM   10  C5  UNL     1     -32.595  11.023   1.596  1.00 20.00     0.006 A 
HETATM   11  C6  UNL     1     -33.055  10.210   0.419  1.00 20.00     0.006 A 
ENDBRANCH   7   9
ENDBRANCH   3   7
TORSDOF 2
ENDMDL
