MODEL 1
REMARK VINA RESULT:      -5.0      0.000      0.000
REMARK  2 active torsions:
REMARK  status: ('A' for Active; 'I' for Inactive)
REMARK    1  A    between atoms: C4_4  and  C10_10 
REMARK    2  A    between atoms: C7_7  and  C10_10 
ROOT
HETATM    1  C1  UNL     1     -33.784   4.685   3.258  1.00 20.00     0.015 A 
HETATM    2  C2  UNL     1     -32.980   5.556   2.466  1.00 20.00     0.017 A 
HETATM    3  C3  UNL     1     -34.226   5.295   4.411  1.00 20.00    -0.021 A 
HETATM    4  C4  UNL     1     -32.839   6.798   3.046  1.00 20.00    -0.002 A 
HETATM    5  C8  UNL     1     -35.077   4.731   5.482  1.00 20.00     0.056 C 
HETATM    6  S11 UNL     1     -33.673   6.910   4.537  1.00 20.00    -0.099 SA
ENDROOT
BRANCH   4   7
HETATM    7  C10 UNL     1     -32.071   7.995   2.531  1.00 20.00     0.102 C 
HETATM    8 BR12 UNL     1     -31.351   8.995   4.055  1.00 20.00    -0.085 Br
BRANCH   7   9
HETATM    9  C7  UNL     1     -32.882   8.889   1.657  1.00 20.00     0.009 A 
HETATM   10  C5  UNL     1     -32.471  10.322   1.451  1.00 20.00     0.011 A 
HETATM   11  C6  UNL     1     -32.342   9.334   0.322  1.00 20.00    -0.013 A 
HETATM   12  C9  UNL     1     -33.247   9.423  -0.857  1.00 20.00     0.010 C 
ENDBRANCH   7   9
ENDBRANCH   4   7
TORSDOF 2
ENDMDL
MODEL 2
REMARK VINA RESULT:      -4.4     10.681     11.321
REMARK  2 active torsions:
REMARK  status: ('A' for Active; 'I' for Inactive)
REMARK    1  A    between atoms: C4_4  and  C10_10 
REMARK    2  A    between atoms: C7_7  and  C10_10 
ROOT
HETATM    1  C1  UNL     1     -33.853  14.426  -4.553  1.00 20.00     0.015 A 
HETATM    2  C2  UNL     1     -33.514  15.545  -3.738  1.00 20.00     0.017 A 
HETATM    3  C3  UNL     1     -35.206  14.356  -4.799  1.00 20.00    -0.021 A 
HETATM    4  C4  UNL     1     -34.623  16.287  -3.393  1.00 20.00    -0.002 A 
HETATM    5  C8  UNL     1     -35.945  13.352  -5.595  1.00 20.00     0.056 C 
HETATM    6  S11 UNL     1     -36.063  15.635  -4.051  1.00 20.00    -0.099 SA
ENDROOT
BRANCH   4   7
HETATM    7  C10 UNL     1     -34.692  17.540  -2.548  1.00 20.00     0.102 C 
HETATM    8 BR12 UNL     1     -33.340  18.810  -3.178  1.00 20.00    -0.085 Br
BRANCH   7   9
HETATM    9  C7  UNL     1     -34.526  17.282  -1.090  1.00 20.00     0.009 A 
HETATM   10  C5  UNL     1     -33.709  18.221  -0.243  1.00 20.00     0.011 A 
HETATM   11  C6  UNL     1     -35.206  18.172  -0.083  1.00 20.00    -0.013 A 
HETATM   12  C9  UNL     1     -35.808  17.586   1.147  1.00 20.00     0.010 C 
ENDBRANCH   7   9
ENDBRANCH   4   7
TORSDOF 2
ENDMDL
MODEL 3
REMARK VINA RESULT:      -4.3     10.432     11.394
REMARK  2 active torsions:
REMARK  status: ('A' for Active; 'I' for Inactive)
REMARK    1  A    between atoms: C4_4  and  C10_10 
REMARK    2  A    between atoms: C7_7  and  C10_10 
ROOT
HETATM    1  C1  UNL     1     -35.548  17.386   0.166  1.00 20.00     0.015 A 
HETATM    2  C2  UNL     1     -35.240  17.050  -1.184  1.00 20.00     0.017 A 
HETATM    3  C3  UNL     1     -34.574  18.173   0.739  1.00 20.00    -0.021 A 
HETATM    4  C4  UNL     1     -34.041  17.595  -1.591  1.00 20.00    -0.002 A 
HETATM    5  C8  UNL     1     -34.526  18.724   2.111  1.00 20.00     0.056 C 
HETATM    6  S11 UNL     1     -33.294  18.506  -0.347  1.00 20.00    -0.099 SA
ENDROOT
BRANCH   4   7
HETATM    7  C10 UNL     1     -33.362  17.479  -2.938  1.00 20.00     0.102 C 
HETATM    8 BR12 UNL     1     -33.216  19.263  -3.735  1.00 20.00    -0.085 Br
BRANCH   7   9
HETATM    9  C7  UNL     1     -34.052  16.545  -3.871  1.00 20.00     0.009 A 
HETATM   10  C5  UNL     1     -33.399  16.152  -5.169  1.00 20.00     0.011 A 
HETATM   11  C6  UNL     1     -33.532  15.143  -4.059  1.00 20.00    -0.013 A 
HETATM   12  C9  UNL     1     -34.484  14.005  -4.193  1.00 20.00     0.010 C 
ENDBRANCH   7   9
ENDBRANCH   4   7
TORSDOF 2
ENDMDL
MODEL 4
REMARK VINA RESULT:      -4.2     11.159     11.655
REMARK  2 active torsions:
REMARK  status: ('A' for Active; 'I' for Inactive)
REMARK    1  A    between atoms: C4_4  and  C10_10 
REMARK    2  A    between atoms: C7_7  and  C10_10 
ROOT
HETATM    1  C1  UNL     1     -36.749  13.976  -5.362  1.00 20.00     0.015 A 
HETATM    2  C2  UNL     1     -36.726  15.054  -4.431  1.00 20.00     0.017 A 
HETATM    3  C3  UNL     1     -35.599  13.919  -6.118  1.00 20.00    -0.021 A 
HETATM    4  C4  UNL     1     -35.557  15.779  -4.510  1.00 20.00    -0.002 A 
HETATM    5  C8  UNL     1     -35.244  12.955  -7.182  1.00 20.00     0.056 C 
HETATM    6  S11 UNL     1     -34.496  15.161  -5.704  1.00 20.00    -0.099 SA
ENDROOT
BRANCH   4   7
HETATM    7  C10 UNL     1     -35.142  16.989  -3.701  1.00 20.00     0.102 C 
HETATM    8 BR12 UNL     1     -33.595  17.831  -4.560  1.00 20.00    -0.085 Br
BRANCH   7   9
HETATM    9  C7  UNL     1     -34.841  16.675  -2.276  1.00 20.00     0.009 A 
HETATM   10  C5  UNL     1     -33.635  17.277  -1.607  1.00 20.00     0.011 A 
HETATM   11  C6  UNL     1     -35.017  17.731  -1.216  1.00 20.00    -0.013 A 
HETATM   12  C9  UNL     1     -35.575  17.368   0.115  1.00 20.00     0.010 C 
ENDBRANCH   7   9
ENDBRANCH   4   7
TORSDOF 2
ENDMDL
MODEL 5
REMARK VINA RESULT:      -4.1     10.954     11.647
REMARK  2 active torsions:
REMARK  status: ('A' for Active; 'I' for Inactive)
REMARK    1  A    between atoms: C4_4  and  C10_10 
REMARK    2  A    between atoms: C7_7  and  C10_10 
ROOT
HETATM    1  C1  UNL     1     -34.887  17.162  -1.181  1.00 20.00     0.015 A 
HETATM    2  C2  UNL     1     -35.785  16.573  -2.118  1.00 20.00     0.017 A 
HETATM    3  C3  UNL     1     -33.681  17.494  -1.757  1.00 20.00    -0.021 A 
HETATM    4  C4  UNL     1     -35.230  16.480  -3.376  1.00 20.00    -0.002 A 
HETATM    5  C8  UNL     1     -32.500  18.119  -1.124  1.00 20.00     0.056 C 
HETATM    6  S11 UNL     1     -33.633  17.098  -3.422  1.00 20.00    -0.099 SA
ENDROOT
BRANCH   4   7
HETATM    7  C10 UNL     1     -35.848  15.922  -4.639  1.00 20.00     0.102 C 
HETATM    8 BR12 UNL     1     -37.762  15.630  -4.337  1.00 20.00    -0.085 Br
BRANCH   7   9
HETATM    9  C7  UNL     1     -35.198  14.669  -5.115  1.00 20.00     0.009 A 
HETATM   10  C5  UNL     1     -36.016  13.421  -5.318  1.00 20.00     0.011 A 
HETATM   11  C6  UNL     1     -35.464  14.161  -6.508  1.00 20.00    -0.013 A 
HETATM   12  C9  UNL     1     -34.359  13.567  -7.310  1.00 20.00     0.010 C 
ENDBRANCH   7   9
ENDBRANCH   4   7
TORSDOF 2
ENDMDL
MODEL 6
REMARK VINA RESULT:      -4.1     10.576     11.448
REMARK  2 active torsions:
REMARK  status: ('A' for Active; 'I' for Inactive)
REMARK    1  A    between atoms: C4_4  and  C10_10 
REMARK    2  A    between atoms: C7_7  and  C10_10 
ROOT
HETATM    1  C1  UNL     1     -32.597  18.587   0.159  1.00 20.00     0.015 A 
HETATM    2  C2  UNL     1     -32.821  18.247  -1.207  1.00 20.00     0.017 A 
HETATM    3  C3  UNL     1     -33.735  18.442   0.922  1.00 20.00    -0.021 A 
HETATM    4  C4  UNL     1     -34.123  17.854  -1.434  1.00 20.00    -0.002 A 
HETATM    5  C8  UNL     1     -33.910  18.693   2.369  1.00 20.00     0.056 C 
HETATM    6  S11 UNL     1     -35.067  17.898  -0.006  1.00 20.00    -0.099 SA
ENDROOT
BRANCH   4   7
HETATM    7  C10 UNL     1     -34.760  17.416  -2.734  1.00 20.00     0.102 C 
HETATM    8 BR12 UNL     1     -36.673  17.840  -2.681  1.00 20.00    -0.085 Br
BRANCH   7   9
HETATM    9  C7  UNL     1     -34.554  15.973  -3.040  1.00 20.00     0.009 A 
HETATM   10  C5  UNL     1     -35.393  15.294  -4.089  1.00 20.00     0.011 A 
HETATM   11  C6  UNL     1     -33.934  15.559  -4.350  1.00 20.00    -0.013 A 
HETATM   12  C9  UNL     1     -32.964  14.430  -4.393  1.00 20.00     0.010 C 
ENDBRANCH   7   9
ENDBRANCH   4   7
TORSDOF 2
ENDMDL
MODEL 7
REMARK VINA RESULT:      -4.1     11.075     11.730
REMARK  2 active torsions:
REMARK  status: ('A' for Active; 'I' for Inactive)
REMARK    1  A    between atoms: C4_4  and  C10_10 
REMARK    2  A    between atoms: C7_7  and  C10_10 
ROOT
HETATM    1  C1  UNL     1     -37.633  14.170  -5.271  1.00 20.00     0.015 A 
HETATM    2  C2  UNL     1     -36.274  14.451  -4.948  1.00 20.00     0.017 A 
HETATM    3  C3  UNL     1     -38.455  15.251  -5.040  1.00 20.00    -0.021 A 
HETATM    4  C4  UNL     1     -36.109  15.737  -4.483  1.00 20.00    -0.002 A 
HETATM    5  C8  UNL     1     -39.915  15.358  -5.247  1.00 20.00     0.056 C 
HETATM    6  S11 UNL     1     -37.589  16.599  -4.436  1.00 20.00    -0.099 SA
ENDROOT
BRANCH   4   7
HETATM    7  C10 UNL     1     -34.835  16.422  -4.038  1.00 20.00     0.102 C 
HETATM    8 BR12 UNL     1     -33.320  15.639  -5.003  1.00 20.00    -0.085 Br
BRANCH   7   9
HETATM    9  C7  UNL     1     -34.608  16.355  -2.568  1.00 20.00     0.009 A 
HETATM   10  C5  UNL     1     -33.501  17.156  -1.936  1.00 20.00     0.011 A 
HETATM   11  C6  UNL     1     -34.937  17.540  -1.697  1.00 20.00    -0.013 A 
HETATM   12  C9  UNL     1     -35.554  17.334  -0.357  1.00 20.00     0.010 C 
ENDBRANCH   7   9
ENDBRANCH   4   7
TORSDOF 2
ENDMDL
MODEL 8
REMARK VINA RESULT:      -4.0     10.932     11.635
REMARK  2 active torsions:
REMARK  status: ('A' for Active; 'I' for Inactive)
REMARK    1  A    between atoms: C4_4  and  C10_10 
REMARK    2  A    between atoms: C7_7  and  C10_10 
ROOT
HETATM    1  C1  UNL     1     -34.979  17.730  -0.532  1.00 20.00     0.015 A 
HETATM    2  C2  UNL     1     -35.529  16.809  -1.470  1.00 20.00     0.017 A 
HETATM    3  C3  UNL     1     -33.696  18.105  -0.865  1.00 20.00    -0.021 A 
HETATM    4  C4  UNL     1     -34.645  16.518  -2.486  1.00 20.00    -0.002 A 
HETATM    5  C8  UNL     1     -32.794  19.035  -0.151  1.00 20.00     0.056 C 
HETATM    6  S11 UNL     1     -33.159  17.350  -2.305  1.00 20.00    -0.099 SA
ENDROOT
BRANCH   4   7
HETATM    7  C10 UNL     1     -34.842  15.596  -3.669  1.00 20.00     0.102 C 
HETATM    8 BR12 UNL     1     -33.285  15.734  -4.852  1.00 20.00    -0.085 Br
BRANCH   7   9
HETATM    9  C7  UNL     1     -36.097  15.860  -4.426  1.00 20.00     0.009 A 
HETATM   10  C5  UNL     1     -36.199  15.483  -5.880  1.00 20.00     0.011 A 
HETATM   11  C6  UNL     1     -36.982  14.716  -4.847  1.00 20.00    -0.013 A 
HETATM   12  C9  UNL     1     -38.463  14.853  -4.778  1.00 20.00     0.010 C 
ENDBRANCH   7   9
ENDBRANCH   4   7
TORSDOF 2
ENDMDL
MODEL 9
REMARK VINA RESULT:      -4.0     11.037     11.648
REMARK  2 active torsions:
REMARK  status: ('A' for Active; 'I' for Inactive)
REMARK    1  A    between atoms: C4_4  and  C10_10 
REMARK    2  A    between atoms: C7_7  and  C10_10 
ROOT
HETATM    1  C1  UNL     1     -33.298  14.695  -4.942  1.00 20.00     0.015 A 
HETATM    2  C2  UNL     1     -33.567  15.515  -3.807  1.00 20.00     0.017 A 
HETATM    3  C3  UNL     1     -34.435  14.438  -5.675  1.00 20.00    -0.021 A 
HETATM    4  C4  UNL     1     -34.900  15.854  -3.719  1.00 20.00    -0.002 A 
HETATM    5  C8  UNL     1     -34.572  13.635  -6.910  1.00 20.00     0.056 C 
HETATM    6  S11 UNL     1     -35.820  15.183  -4.998  1.00 20.00    -0.099 SA
ENDROOT
BRANCH   4   7
HETATM    7  C10 UNL     1     -35.588  16.703  -2.673  1.00 20.00     0.102 C 
HETATM    8 BR12 UNL     1     -37.278  17.372  -3.405  1.00 20.00    -0.085 Br
BRANCH   7   9
HETATM    9  C7  UNL     1     -34.750  17.831  -2.179  1.00 20.00     0.009 A 
HETATM   10  C5  UNL     1     -35.135  18.568  -0.924  1.00 20.00     0.011 A 
HETATM   11  C6  UNL     1     -33.925  17.670  -0.929  1.00 20.00    -0.013 A 
HETATM   12  C9  UNL     1     -32.559  18.257  -0.854  1.00 20.00     0.010 C 
ENDBRANCH   7   9
ENDBRANCH   4   7
TORSDOF 2
ENDMDL
