MODEL 1
REMARK VINA RESULT:      -4.5      0.000      0.000
REMARK  2 active torsions:
REMARK  status: ('A' for Active; 'I' for Inactive)
REMARK    1  A    between atoms: C4_4  and  C9_9 
REMARK    2  A    between atoms: C7_7  and  C9_9 
ROOT
HETATM    1  C1  UNL     1     -31.543   9.111   2.125  1.00 20.00     0.015 A 
HETATM    2  C2  UNL     1     -31.620   8.312   3.302  1.00 20.00     0.017 A 
HETATM    3  C3  UNL     1     -32.564   8.833   1.243  1.00 20.00    -0.021 A 
HETATM    4  C4  UNL     1     -32.696   7.453   3.275  1.00 20.00    -0.002 A 
HETATM    5  C8  UNL     1     -32.832   9.441  -0.078  1.00 20.00     0.056 C 
HETATM    6  S10 UNL     1     -33.609   7.611   1.835  1.00 20.00    -0.099 SA
ENDROOT
BRANCH   4   7
HETATM    7  C9  UNL     1     -33.126   6.450   4.322  1.00 20.00     0.102 C 
HETATM    8 BR11 UNL     1     -33.713   7.407   5.927  1.00 20.00    -0.085 Br
BRANCH   7   9
HETATM    9  C7  UNL     1     -34.196   5.524   3.856  1.00 20.00     0.005 A 
HETATM   10  C5  UNL     1     -34.090   4.048   4.122  1.00 20.00     0.006 A 
HETATM   11  C6  UNL     1     -35.115   4.870   4.851  1.00 20.00     0.006 A 
ENDBRANCH   7   9
ENDBRANCH   4   7
TORSDOF 2
ENDMDL
MODEL 2
REMARK VINA RESULT:      -4.4      1.774      4.968
REMARK  2 active torsions:
REMARK  status: ('A' for Active; 'I' for Inactive)
REMARK    1  A    between atoms: C4_4  and  C9_9 
REMARK    2  A    between atoms: C7_7  and  C9_9 
ROOT
HETATM    1  C1  UNL     1     -34.122   4.930   3.534  1.00 20.00     0.015 A 
HETATM    2  C2  UNL     1     -33.556   5.905   2.661  1.00 20.00     0.017 A 
HETATM    3  C3  UNL     1     -34.304   5.420   4.808  1.00 20.00    -0.021 A 
HETATM    4  C4  UNL     1     -33.328   7.102   3.303  1.00 20.00    -0.002 A 
HETATM    5  C8  UNL     1     -34.858   4.726   5.991  1.00 20.00     0.056 C 
HETATM    6  S10 UNL     1     -33.793   7.048   4.950  1.00 20.00    -0.099 SA
ENDROOT
BRANCH   4   7
HETATM    7  C9  UNL     1     -32.745   8.377   2.736  1.00 20.00     0.102 C 
HETATM    8 BR11 UNL     1     -30.934   8.626   3.439  1.00 20.00    -0.085 Br
BRANCH   7   9
HETATM    9  C7  UNL     1     -32.727   8.413   1.247  1.00 20.00     0.005 A 
HETATM   10  C5  UNL     1     -32.889   9.719   0.518  1.00 20.00     0.006 A 
HETATM   11  C6  UNL     1     -31.558   9.020   0.520  1.00 20.00     0.006 A 
ENDBRANCH   7   9
ENDBRANCH   4   7
TORSDOF 2
ENDMDL
MODEL 3
REMARK VINA RESULT:      -4.1     11.162     11.780
REMARK  2 active torsions:
REMARK  status: ('A' for Active; 'I' for Inactive)
REMARK    1  A    between atoms: C4_4  and  C9_9 
REMARK    2  A    between atoms: C7_7  and  C9_9 
ROOT
HETATM    1  C1  UNL     1     -35.044  17.614  -0.090  1.00 20.00     0.015 A 
HETATM    2  C2  UNL     1     -35.518  16.961  -1.264  1.00 20.00     0.017 A 
HETATM    3  C3  UNL     1     -33.778  18.129  -0.260  1.00 20.00    -0.021 A 
HETATM    4  C4  UNL     1     -34.595  17.002  -2.286  1.00 20.00    -0.002 A 
HETATM    5  C8  UNL     1     -32.947  18.870   0.715  1.00 20.00     0.056 C 
HETATM    6  S10 UNL     1     -33.165  17.824  -1.829  1.00 20.00    -0.099 SA
ENDROOT
BRANCH   4   7
HETATM    7  C9  UNL     1     -34.712  16.431  -3.682  1.00 20.00     0.102 C 
HETATM    8 BR11 UNL     1     -33.668  17.537  -4.918  1.00 20.00    -0.085 Br
BRANCH   7   9
HETATM    9  C7  UNL     1     -34.283  15.007  -3.781  1.00 20.00     0.005 A 
HETATM   10  C5  UNL     1     -35.115  14.018  -4.551  1.00 20.00     0.006 A 
HETATM   11  C6  UNL     1     -33.781  14.458  -5.088  1.00 20.00     0.006 A 
ENDBRANCH   7   9
ENDBRANCH   4   7
TORSDOF 2
ENDMDL
MODEL 4
REMARK VINA RESULT:      -4.1     11.418     12.168
REMARK  2 active torsions:
REMARK  status: ('A' for Active; 'I' for Inactive)
REMARK    1  A    between atoms: C4_4  and  C9_9 
REMARK    2  A    between atoms: C7_7  and  C9_9 
ROOT
HETATM    1  C1  UNL     1     -34.993  14.142  -4.846  1.00 20.00     0.015 A 
HETATM    2  C2  UNL     1     -34.839  15.114  -3.815  1.00 20.00     0.017 A 
HETATM    3  C3  UNL     1     -34.352  14.513  -6.007  1.00 20.00    -0.021 A 
HETATM    4  C4  UNL     1     -34.086  16.191  -4.229  1.00 20.00    -0.002 A 
HETATM    5  C8  UNL     1     -34.278  13.783  -7.291  1.00 20.00     0.056 C 
HETATM    6  S10 UNL     1     -33.569  16.028  -5.853  1.00 20.00    -0.099 SA
ENDROOT
BRANCH   4   7
HETATM    7  C9  UNL     1     -33.694  17.422  -3.443  1.00 20.00     0.102 C 
HETATM    8 BR11 UNL     1     -35.076  18.793  -3.664  1.00 20.00    -0.085 Br
BRANCH   7   9
HETATM    9  C7  UNL     1     -33.461  17.157  -1.996  1.00 20.00     0.005 A 
HETATM   10  C5  UNL     1     -32.637  18.109  -1.174  1.00 20.00     0.006 A 
HETATM   11  C6  UNL     1     -34.121  18.018  -0.954  1.00 20.00     0.006 A 
ENDBRANCH   7   9
ENDBRANCH   4   7
TORSDOF 2
ENDMDL
MODEL 5
REMARK VINA RESULT:      -4.0     11.702     12.432
REMARK  2 active torsions:
REMARK  status: ('A' for Active; 'I' for Inactive)
REMARK    1  A    between atoms: C4_4  and  C9_9 
REMARK    2  A    between atoms: C7_7  and  C9_9 
ROOT
HETATM    1  C1  UNL     1     -33.654  16.604  -2.680  1.00 20.00     0.015 A 
HETATM    2  C2  UNL     1     -33.580  16.171  -4.036  1.00 20.00     0.017 A 
HETATM    3  C3  UNL     1     -34.955  16.695  -2.237  1.00 20.00    -0.021 A 
HETATM    4  C4  UNL     1     -34.827  15.946  -4.576  1.00 20.00    -0.002 A 
HETATM    5  C8  UNL     1     -35.446  17.105  -0.903  1.00 20.00     0.056 C 
HETATM    6  S10 UNL     1     -36.080  16.259  -3.452  1.00 20.00    -0.099 SA
ENDROOT
BRANCH   4   7
HETATM    7  C9  UNL     1     -35.178  15.481  -5.971  1.00 20.00     0.102 C 
HETATM    8 BR11 UNL     1     -35.024  16.991  -7.210  1.00 20.00    -0.085 Br
BRANCH   7   9
HETATM    9  C7  UNL     1     -34.346  14.341  -6.446  1.00 20.00     0.005 A 
HETATM   10  C5  UNL     1     -34.983  13.190  -7.176  1.00 20.00     0.006 A 
HETATM   11  C6  UNL     1     -34.094  14.150  -7.917  1.00 20.00     0.006 A 
ENDBRANCH   7   9
ENDBRANCH   4   7
TORSDOF 2
ENDMDL
MODEL 6
REMARK VINA RESULT:      -4.0     11.375     11.729
REMARK  2 active torsions:
REMARK  status: ('A' for Active; 'I' for Inactive)
REMARK    1  A    between atoms: C4_4  and  C9_9 
REMARK    2  A    between atoms: C7_7  and  C9_9 
ROOT
HETATM    1  C1  UNL     1     -33.519  17.295  -1.616  1.00 20.00     0.015 A 
HETATM    2  C2  UNL     1     -33.421  16.726  -2.919  1.00 20.00     0.017 A 
HETATM    3  C3  UNL     1     -34.823  17.361  -1.177  1.00 20.00    -0.021 A 
HETATM    4  C4  UNL     1     -34.654  16.380  -3.425  1.00 20.00    -0.002 A 
HETATM    5  C8  UNL     1     -35.336  17.881   0.110  1.00 20.00     0.056 C 
HETATM    6  S10 UNL     1     -35.923  16.740  -2.333  1.00 20.00    -0.099 SA
ENDROOT
BRANCH   4   7
HETATM    7  C9  UNL     1     -34.980  15.753  -4.763  1.00 20.00     0.102 C 
HETATM    8 BR11 UNL     1     -33.364  15.725  -5.870  1.00 20.00    -0.085 Br
BRANCH   7   9
HETATM    9  C7  UNL     1     -35.551  14.382  -4.655  1.00 20.00     0.005 A 
HETATM   10  C5  UNL     1     -36.913  14.081  -5.220  1.00 20.00     0.006 A 
HETATM   11  C6  UNL     1     -35.684  13.519  -5.880  1.00 20.00     0.006 A 
ENDBRANCH   7   9
ENDBRANCH   4   7
TORSDOF 2
ENDMDL
MODEL 7
REMARK VINA RESULT:      -4.0     11.427     11.831
REMARK  2 active torsions:
REMARK  status: ('A' for Active; 'I' for Inactive)
REMARK    1  A    between atoms: C4_4  and  C9_9 
REMARK    2  A    between atoms: C7_7  and  C9_9 
ROOT
HETATM    1  C1  UNL     1     -34.887  17.037  -1.185  1.00 20.00     0.015 A 
HETATM    2  C2  UNL     1     -35.512  16.320  -2.246  1.00 20.00     0.017 A 
HETATM    3  C3  UNL     1     -33.716  17.640  -1.587  1.00 20.00    -0.021 A 
HETATM    4  C4  UNL     1     -34.795  16.404  -3.419  1.00 20.00    -0.002 A 
HETATM    5  C8  UNL     1     -32.784  18.466  -0.789  1.00 20.00     0.056 C 
HETATM    6  S10 UNL     1     -33.374  17.342  -3.239  1.00 20.00    -0.099 SA
ENDROOT
BRANCH   4   7
HETATM    7  C9  UNL     1     -35.115  15.791  -4.764  1.00 20.00     0.102 C 
HETATM    8 BR11 UNL     1     -33.510  15.828  -5.887  1.00 20.00    -0.085 Br
BRANCH   7   9
HETATM    9  C7  UNL     1     -35.646  14.402  -4.674  1.00 20.00     0.005 A 
HETATM   10  C5  UNL     1     -37.002  14.071  -5.236  1.00 20.00     0.006 A 
HETATM   11  C6  UNL     1     -35.762  13.555  -5.912  1.00 20.00     0.006 A 
ENDBRANCH   7   9
ENDBRANCH   4   7
TORSDOF 2
ENDMDL
MODEL 8
REMARK VINA RESULT:      -3.9     11.155     11.866
REMARK  2 active torsions:
REMARK  status: ('A' for Active; 'I' for Inactive)
REMARK    1  A    between atoms: C4_4  and  C9_9 
REMARK    2  A    between atoms: C7_7  and  C9_9 
ROOT
HETATM    1  C1  UNL     1     -35.070  14.524  -4.387  1.00 20.00     0.015 A 
HETATM    2  C2  UNL     1     -34.436  15.452  -3.512  1.00 20.00     0.017 A 
HETATM    3  C3  UNL     1     -36.379  14.868  -4.646  1.00 20.00    -0.021 A 
HETATM    4  C4  UNL     1     -35.285  16.470  -3.135  1.00 20.00    -0.002 A 
HETATM    5  C8  UNL     1     -37.364  14.166  -5.498  1.00 20.00     0.056 C 
HETATM    6  S10 UNL     1     -36.838  16.304  -3.835  1.00 20.00    -0.099 SA
ENDROOT
BRANCH   4   7
HETATM    7  C9  UNL     1     -35.000  17.644  -2.226  1.00 20.00     0.102 C 
HETATM    8 BR11 UNL     1     -36.656  18.175  -1.323  1.00 20.00    -0.085 Br
BRANCH   7   9
HETATM    9  C7  UNL     1     -33.932  17.375  -1.222  1.00 20.00     0.005 A 
HETATM   10  C5  UNL     1     -32.679  18.207  -1.208  1.00 20.00     0.006 A 
HETATM   11  C6  UNL     1     -33.687  18.347  -0.101  1.00 20.00     0.006 A 
ENDBRANCH   7   9
ENDBRANCH   4   7
TORSDOF 2
ENDMDL
MODEL 9
REMARK VINA RESULT:      -3.9     11.327     12.520
REMARK  2 active torsions:
REMARK  status: ('A' for Active; 'I' for Inactive)
REMARK    1  A    between atoms: C4_4  and  C9_9 
REMARK    2  A    between atoms: C7_7  and  C9_9 
ROOT
HETATM    1  C1  UNL     1     -35.419  17.000  -1.046  1.00 20.00     0.015 A 
HETATM    2  C2  UNL     1     -35.298  16.498  -2.374  1.00 20.00     0.017 A 
HETATM    3  C3  UNL     1     -34.306  17.713  -0.659  1.00 20.00    -0.021 A 
HETATM    4  C4  UNL     1     -34.096  16.847  -2.951  1.00 20.00    -0.002 A 
HETATM    5  C8  UNL     1     -34.047  18.386   0.633  1.00 20.00     0.056 C 
HETATM    6  S10 UNL     1     -33.120  17.774  -1.894  1.00 20.00    -0.099 SA
ENDROOT
BRANCH   4   7
HETATM    7  C9  UNL     1     -33.585  16.515  -4.335  1.00 20.00     0.102 C 
HETATM    8 BR11 UNL     1     -33.162  14.604  -4.424  1.00 20.00    -0.085 Br
BRANCH   7   9
HETATM    9  C7  UNL     1     -34.534  16.881  -5.424  1.00 20.00     0.005 A 
HETATM   10  C5  UNL     1     -34.029  17.538  -6.679  1.00 20.00     0.006 A 
HETATM   11  C6  UNL     1     -34.526  16.120  -6.721  1.00 20.00     0.006 A 
ENDBRANCH   7   9
ENDBRANCH   4   7
TORSDOF 2
ENDMDL
