MODEL 1
REMARK VINA RESULT:      -5.0      0.000      0.000
REMARK  2 active torsions:
REMARK  status: ('A' for Active; 'I' for Inactive)
REMARK    1  A    between atoms: C3_3  and  C8_8 
REMARK    2  A    between atoms: C7_7  and  C8_8 
ROOT
HETATM    1  C1  UNL     1     -31.582   8.183   3.548  1.00 20.00     0.018 A 
HETATM    2  C2  UNL     1     -31.458   8.862   2.301  1.00 20.00     0.032 A 
HETATM    3  C3  UNL     1     -32.761   7.476   3.638  1.00 20.00     0.003 A 
HETATM    4  C4  UNL     1     -32.547   8.648   1.486  1.00 20.00     0.075 A 
HETATM    5  S9  UNL     1     -33.712   7.632   2.222  1.00 20.00    -0.081 SA
HETATM    6 CL10 UNL     1     -32.817   9.266  -0.090  1.00 20.00    -0.076 Cl
ENDROOT
BRANCH   3   7
HETATM    7  C8  UNL     1     -33.272   6.624   4.795  1.00 20.00     0.126 C 
HETATM    8 CL11 UNL     1     -33.671   7.719   6.169  1.00 20.00    -0.119 Cl
BRANCH   7   9
HETATM    9  C7  UNL     1     -34.425   5.741   4.465  1.00 20.00     0.009 A 
HETATM   10  C5  UNL     1     -34.193   4.311   4.062  1.00 20.00     0.007 A 
HETATM   11  C6  UNL     1     -34.813   4.623   5.394  1.00 20.00     0.007 A 
ENDBRANCH   7   9
ENDBRANCH   3   7
TORSDOF 2
ENDMDL
MODEL 2
REMARK VINA RESULT:      -4.8      2.063      4.887
REMARK  2 active torsions:
REMARK  status: ('A' for Active; 'I' for Inactive)
REMARK    1  A    between atoms: C3_3  and  C8_8 
REMARK    2  A    between atoms: C7_7  and  C8_8 
ROOT
HETATM    1  C1  UNL     1     -33.103   6.027   2.309  1.00 20.00     0.018 A 
HETATM    2  C2  UNL     1     -33.737   4.972   3.028  1.00 20.00     0.032 A 
HETATM    3  C3  UNL     1     -33.057   7.196   3.037  1.00 20.00     0.003 A 
HETATM    4  C4  UNL     1     -34.152   5.375   4.278  1.00 20.00     0.075 A 
HETATM    5  S9  UNL     1     -33.777   7.019   4.581  1.00 20.00    -0.081 SA
HETATM    6 CL10 UNL     1     -34.952   4.442   5.471  1.00 20.00    -0.076 Cl
ENDROOT
BRANCH   3   7
HETATM    7  C8  UNL     1     -32.470   8.544   2.632  1.00 20.00     0.126 C 
HETATM    8 CL11 UNL     1     -31.010   8.849   3.644  1.00 20.00    -0.119 Cl
BRANCH   7   9
HETATM    9  C7  UNL     1     -32.152   8.684   1.184  1.00 20.00     0.009 A 
HETATM   10  C5  UNL     1     -33.225   9.082   0.209  1.00 20.00     0.007 A 
HETATM   11  C6  UNL     1     -32.120  10.044   0.544  1.00 20.00     0.007 A 
ENDBRANCH   7   9
ENDBRANCH   3   7
TORSDOF 2
ENDMDL
MODEL 3
REMARK VINA RESULT:      -4.5      1.757      1.921
REMARK  2 active torsions:
REMARK  status: ('A' for Active; 'I' for Inactive)
REMARK    1  A    between atoms: C3_3  and  C8_8 
REMARK    2  A    between atoms: C7_7  and  C8_8 
ROOT
HETATM    1  C1  UNL     1     -31.850   7.767   3.448  1.00 20.00     0.018 A 
HETATM    2  C2  UNL     1     -31.504   8.949   2.731  1.00 20.00     0.032 A 
HETATM    3  C3  UNL     1     -32.963   7.149   2.920  1.00 20.00     0.003 A 
HETATM    4  C4  UNL     1     -32.365   9.189   1.683  1.00 20.00     0.075 A 
HETATM    5  S9  UNL     1     -33.585   7.993   1.566  1.00 20.00    -0.081 SA
HETATM    6 CL10 UNL     1     -32.323  10.488   0.566  1.00 20.00    -0.076 Cl
ENDROOT
BRANCH   3   7
HETATM    7  C8  UNL     1     -33.653   5.872   3.390  1.00 20.00     0.126 C 
HETATM    8 CL11 UNL     1     -32.962   4.486   2.470  1.00 20.00    -0.119 Cl
BRANCH   7   9
HETATM    9  C7  UNL     1     -33.585   5.624   4.857  1.00 20.00     0.009 A 
HETATM   10  C5  UNL     1     -34.338   6.510   5.810  1.00 20.00     0.007 A 
HETATM   11  C6  UNL     1     -34.786   5.092   5.591  1.00 20.00     0.007 A 
ENDBRANCH   7   9
ENDBRANCH   3   7
TORSDOF 2
ENDMDL
MODEL 4
REMARK VINA RESULT:      -4.4      1.818      5.140
REMARK  2 active torsions:
REMARK  status: ('A' for Active; 'I' for Inactive)
REMARK    1  A    between atoms: C3_3  and  C8_8 
REMARK    2  A    between atoms: C7_7  and  C8_8 
ROOT
HETATM    1  C1  UNL     1     -33.014   6.056   2.237  1.00 20.00     0.018 A 
HETATM    2  C2  UNL     1     -33.693   5.178   3.132  1.00 20.00     0.032 A 
HETATM    3  C3  UNL     1     -32.813   7.303   2.788  1.00 20.00     0.003 A 
HETATM    4  C4  UNL     1     -33.984   5.787   4.332  1.00 20.00     0.075 A 
HETATM    5  S9  UNL     1     -33.440   7.411   4.378  1.00 20.00    -0.081 SA
HETATM    6 CL10 UNL     1     -34.785   5.110   5.687  1.00 20.00    -0.076 Cl
ENDROOT
BRANCH   3   7
HETATM    7  C8  UNL     1     -32.132   8.517   2.165  1.00 20.00     0.126 C 
HETATM    8 CL11 UNL     1     -31.051   7.942   0.843  1.00 20.00    -0.119 Cl
BRANCH   7   9
HETATM    9  C7  UNL     1     -33.058   9.575   1.674  1.00 20.00     0.009 A 
HETATM   10  C5  UNL     1     -32.534  10.942   1.333  1.00 20.00     0.007 A 
HETATM   11  C6  UNL     1     -33.002  10.024   0.240  1.00 20.00     0.007 A 
ENDBRANCH   7   9
ENDBRANCH   3   7
TORSDOF 2
ENDMDL
MODEL 5
REMARK VINA RESULT:      -4.3      2.073      4.820
REMARK  2 active torsions:
REMARK  status: ('A' for Active; 'I' for Inactive)
REMARK    1  A    between atoms: C3_3  and  C8_8 
REMARK    2  A    between atoms: C7_7  and  C8_8 
ROOT
HETATM    1  C1  UNL     1     -33.560   7.586   5.096  1.00 20.00     0.018 A 
HETATM    2  C2  UNL     1     -34.194   6.369   5.482  1.00 20.00     0.032 A 
HETATM    3  C3  UNL     1     -33.079   7.533   3.806  1.00 20.00     0.003 A 
HETATM    4  C4  UNL     1     -34.173   5.433   4.472  1.00 20.00     0.075 A 
HETATM    5  S9  UNL     1     -33.393   6.020   3.065  1.00 20.00    -0.081 SA
HETATM    6 CL10 UNL     1     -34.816   3.844   4.499  1.00 20.00    -0.076 Cl
ENDROOT
BRANCH   3   7
HETATM    7  C8  UNL     1     -32.343   8.615   3.021  1.00 20.00     0.126 C 
HETATM    8 CL11 UNL     1     -30.572   8.325   3.186  1.00 20.00    -0.119 Cl
BRANCH   7   9
HETATM    9  C7  UNL     1     -32.734   8.728   1.589  1.00 20.00     0.009 A 
HETATM   10  C5  UNL     1     -32.830  10.079   0.935  1.00 20.00     0.007 A 
HETATM   11  C6  UNL     1     -31.719   9.141   0.558  1.00 20.00     0.007 A 
ENDBRANCH   7   9
ENDBRANCH   3   7
TORSDOF 2
ENDMDL
MODEL 6
REMARK VINA RESULT:      -4.1     10.996     12.120
REMARK  2 active torsions:
REMARK  status: ('A' for Active; 'I' for Inactive)
REMARK    1  A    between atoms: C3_3  and  C8_8 
REMARK    2  A    between atoms: C7_7  and  C8_8 
ROOT
HETATM    1  C1  UNL     1     -35.531  16.823  -1.793  1.00 20.00     0.018 A 
HETATM    2  C2  UNL     1     -35.345  17.298  -0.462  1.00 20.00     0.032 A 
HETATM    3  C3  UNL     1     -34.442  17.089  -2.595  1.00 20.00     0.003 A 
HETATM    4  C4  UNL     1     -34.122  17.908  -0.297  1.00 20.00     0.075 A 
HETATM    5  S9  UNL     1     -33.202  17.907  -1.742  1.00 20.00    -0.081 SA
HETATM    6 CL10 UNL     1     -33.485  18.617   1.127  1.00 20.00    -0.076 Cl
ENDROOT
BRANCH   3   7
HETATM    7  C8  UNL     1     -34.242  16.750  -4.068  1.00 20.00     0.126 C 
HETATM    8 CL11 UNL     1     -33.369  18.119  -4.849  1.00 20.00    -0.119 Cl
BRANCH   7   9
HETATM    9  C7  UNL     1     -33.549  15.458  -4.328  1.00 20.00     0.009 A 
HETATM   10  C5  UNL     1     -34.263  14.155  -4.097  1.00 20.00     0.007 A 
HETATM   11  C6  UNL     1     -33.954  14.603  -5.498  1.00 20.00     0.007 A 
ENDBRANCH   7   9
ENDBRANCH   3   7
TORSDOF 2
ENDMDL
MODEL 7
REMARK VINA RESULT:      -4.1     10.974     11.769
REMARK  2 active torsions:
REMARK  status: ('A' for Active; 'I' for Inactive)
REMARK    1  A    between atoms: C3_3  and  C8_8 
REMARK    2  A    between atoms: C7_7  and  C8_8 
ROOT
HETATM    1  C1  UNL     1     -33.553  17.151  -2.482  1.00 20.00     0.018 A 
HETATM    2  C2  UNL     1     -32.986  17.860  -1.384  1.00 20.00     0.032 A 
HETATM    3  C3  UNL     1     -34.869  16.809  -2.255  1.00 20.00     0.003 A 
HETATM    4  C4  UNL     1     -33.890  18.035  -0.360  1.00 20.00     0.075 A 
HETATM    5  S9  UNL     1     -35.415  17.346  -0.722  1.00 20.00    -0.081 SA
HETATM    6 CL10 UNL     1     -33.639  18.827   1.139  1.00 20.00    -0.076 Cl
ENDROOT
BRANCH   3   7
HETATM    7  C8  UNL     1     -35.826  16.052  -3.170  1.00 20.00     0.126 C 
HETATM    8 CL11 UNL     1     -37.107  17.195  -3.716  1.00 20.00    -0.119 Cl
BRANCH   7   9
HETATM    9  C7  UNL     1     -35.183  15.377  -4.331  1.00 20.00     0.009 A 
HETATM   10  C5  UNL     1     -34.399  14.110  -4.132  1.00 20.00     0.007 A 
HETATM   11  C6  UNL     1     -35.723  14.068  -4.840  1.00 20.00     0.007 A 
ENDBRANCH   7   9
ENDBRANCH   3   7
TORSDOF 2
ENDMDL
MODEL 8
REMARK VINA RESULT:      -4.1     11.301     12.160
REMARK  2 active torsions:
REMARK  status: ('A' for Active; 'I' for Inactive)
REMARK    1  A    between atoms: C3_3  and  C8_8 
REMARK    2  A    between atoms: C7_7  and  C8_8 
ROOT
HETATM    1  C1  UNL     1     -33.508  16.501  -3.365  1.00 20.00     0.018 A 
HETATM    2  C2  UNL     1     -33.754  16.940  -2.032  1.00 20.00     0.032 A 
HETATM    3  C3  UNL     1     -34.675  16.219  -4.042  1.00 20.00     0.003 A 
HETATM    4  C4  UNL     1     -35.099  16.977  -1.740  1.00 20.00     0.075 A 
HETATM    5  S9  UNL     1     -36.060  16.484  -3.069  1.00 20.00    -0.081 SA
HETATM    6 CL10 UNL     1     -35.842  17.440  -0.267  1.00 20.00    -0.076 Cl
ENDROOT
BRANCH   3   7
HETATM    7  C8  UNL     1     -34.847  15.727  -5.475  1.00 20.00     0.126 C 
HETATM    8 CL11 UNL     1     -33.613  16.544  -6.504  1.00 20.00    -0.119 Cl
BRANCH   7   9
HETATM    9  C7  UNL     1     -34.787  14.248  -5.644  1.00 20.00     0.009 A 
HETATM   10  C5  UNL     1     -35.957  13.393  -5.247  1.00 20.00     0.007 A 
HETATM   11  C6  UNL     1     -35.618  13.573  -6.700  1.00 20.00     0.007 A 
ENDBRANCH   7   9
ENDBRANCH   3   7
TORSDOF 2
ENDMDL
MODEL 9
REMARK VINA RESULT:      -4.0     11.602     12.229
REMARK  2 active torsions:
REMARK  status: ('A' for Active; 'I' for Inactive)
REMARK    1  A    between atoms: C3_3  and  C8_8 
REMARK    2  A    between atoms: C7_7  and  C8_8 
ROOT
HETATM    1  C1  UNL     1     -33.380  16.591  -5.218  1.00 20.00     0.018 A 
HETATM    2  C2  UNL     1     -33.266  15.617  -6.253  1.00 20.00     0.032 A 
HETATM    3  C3  UNL     1     -34.482  16.373  -4.421  1.00 20.00     0.003 A 
HETATM    4  C4  UNL     1     -34.285  14.692  -6.206  1.00 20.00     0.075 A 
HETATM    5  S9  UNL     1     -35.374  14.998  -4.920  1.00 20.00    -0.081 SA
HETATM    6 CL10 UNL     1     -34.540  13.356  -7.249  1.00 20.00    -0.076 Cl
ENDROOT
BRANCH   3   7
HETATM    7  C8  UNL     1     -34.958  17.180  -3.217  1.00 20.00     0.126 C 
HETATM    8 CL11 UNL     1     -36.735  16.935  -3.041  1.00 20.00    -0.119 Cl
BRANCH   7   9
HETATM    9  C7  UNL     1     -34.250  16.882  -1.941  1.00 20.00     0.009 A 
HETATM   10  C5  UNL     1     -33.052  17.693  -1.533  1.00 20.00     0.007 A 
HETATM   11  C6  UNL     1     -34.346  17.837  -0.782  1.00 20.00     0.007 A 
ENDBRANCH   7   9
ENDBRANCH   3   7
TORSDOF 2
ENDMDL
