MODEL 1
REMARK VINA RESULT:      -5.2      0.000      0.000
REMARK  2 active torsions:
REMARK  status: ('A' for Active; 'I' for Inactive)
REMARK    1  A    between atoms: C4_4  and  C10_10 
REMARK    2  A    between atoms: C7_7  and  C10_10 
ROOT
HETATM    1  C1  UNL     1     -33.925   5.119   3.332  1.00 20.00     0.015 A 
HETATM    2  C2  UNL     1     -33.310   6.174   2.599  1.00 20.00     0.017 A 
HETATM    3  C3  UNL     1     -34.203   5.484   4.631  1.00 20.00    -0.021 A 
HETATM    4  C4  UNL     1     -33.143   7.307   3.365  1.00 20.00     0.002 A 
HETATM    5  C8  UNL     1     -34.834   4.678   5.699  1.00 20.00     0.056 C 
HETATM    6  S11 UNL     1     -33.726   7.095   4.961  1.00 20.00    -0.098 SA
ENDROOT
BRANCH   4   7
HETATM    7  C10 UNL     1     -32.532   8.645   2.960  1.00 20.00     0.126 C 
HETATM    8 CL12 UNL     1     -30.750   8.429   2.806  1.00 20.00    -0.119 Cl
BRANCH   7   9
HETATM    9  C7  UNL     1     -33.103   9.251   1.726  1.00 20.00     0.013 A 
HETATM   10  C5  UNL     1     -32.596  10.579   1.229  1.00 20.00     0.011 A 
HETATM   11  C6  UNL     1     -32.279   9.320   0.466  1.00 20.00    -0.012 A 
HETATM   12  C9  UNL     1     -32.914   9.068  -0.858  1.00 20.00     0.010 C 
ENDBRANCH   7   9
ENDBRANCH   4   7
TORSDOF 2
ENDMDL
MODEL 2
REMARK VINA RESULT:      -4.8     10.245     11.193
REMARK  2 active torsions:
REMARK  status: ('A' for Active; 'I' for Inactive)
REMARK    1  A    between atoms: C4_4  and  C10_10 
REMARK    2  A    between atoms: C7_7  and  C10_10 
ROOT
HETATM    1  C1  UNL     1     -33.003  17.800  -1.412  1.00 20.00     0.015 A 
HETATM    2  C2  UNL     1     -33.565  17.083  -2.507  1.00 20.00     0.017 A 
HETATM    3  C3  UNL     1     -33.919  18.006  -0.404  1.00 20.00    -0.021 A 
HETATM    4  C4  UNL     1     -34.889  16.768  -2.294  1.00 20.00     0.002 A 
HETATM    5  C8  UNL     1     -33.725  18.702   0.888  1.00 20.00     0.056 C 
HETATM    6  S11 UNL     1     -35.448  17.335  -0.779  1.00 20.00    -0.098 SA
ENDROOT
BRANCH   4   7
HETATM    7  C10 UNL     1     -35.844  16.011  -3.213  1.00 20.00     0.126 C 
HETATM    8 CL12 UNL     1     -37.110  17.161  -3.781  1.00 20.00    -0.119 Cl
BRANCH   7   9
HETATM    9  C7  UNL     1     -35.198  15.321  -4.362  1.00 20.00     0.013 A 
HETATM   10  C5  UNL     1     -34.358  14.091  -4.132  1.00 20.00     0.011 A 
HETATM   11  C6  UNL     1     -35.696  13.971  -4.812  1.00 20.00    -0.012 A 
HETATM   12  C9  UNL     1     -35.772  13.648  -6.263  1.00 20.00     0.010 C 
ENDBRANCH   7   9
ENDBRANCH   4   7
TORSDOF 2
ENDMDL
MODEL 3
REMARK VINA RESULT:      -4.8     10.629     11.232
REMARK  2 active torsions:
REMARK  status: ('A' for Active; 'I' for Inactive)
REMARK    1  A    between atoms: C4_4  and  C10_10 
REMARK    2  A    between atoms: C7_7  and  C10_10 
ROOT
HETATM    1  C1  UNL     1     -33.964  14.500  -4.491  1.00 20.00     0.015 A 
HETATM    2  C2  UNL     1     -33.638  15.596  -3.641  1.00 20.00     0.017 A 
HETATM    3  C3  UNL     1     -35.321  14.397  -4.705  1.00 20.00    -0.021 A 
HETATM    4  C4  UNL     1     -34.759  16.289  -3.239  1.00 20.00     0.002 A 
HETATM    5  C8  UNL     1     -36.052  13.402  -5.521  1.00 20.00     0.056 C 
HETATM    6  S11 UNL     1     -36.195  15.619  -3.884  1.00 20.00    -0.098 SA
ENDROOT
BRANCH   4   7
HETATM    7  C10 UNL     1     -34.842  17.516  -2.335  1.00 20.00     0.126 C 
HETATM    8 CL12 UNL     1     -36.566  17.764  -1.876  1.00 20.00    -0.119 Cl
BRANCH   7   9
HETATM    9  C7  UNL     1     -33.971  17.469  -1.128  1.00 20.00     0.013 A 
HETATM   10  C5  UNL     1     -32.608  18.110  -1.152  1.00 20.00     0.011 A 
HETATM   11  C6  UNL     1     -33.713  18.723  -0.332  1.00 20.00    -0.012 A 
HETATM   12  C9  UNL     1     -33.661  18.666   1.155  1.00 20.00     0.010 C 
ENDBRANCH   7   9
ENDBRANCH   4   7
TORSDOF 2
ENDMDL
MODEL 4
REMARK VINA RESULT:      -4.7     11.021     12.010
REMARK  2 active torsions:
REMARK  status: ('A' for Active; 'I' for Inactive)
REMARK    1  A    between atoms: C4_4  and  C10_10 
REMARK    2  A    between atoms: C7_7  and  C10_10 
ROOT
HETATM    1  C1  UNL     1     -33.334  15.708  -6.305  1.00 20.00     0.015 A 
HETATM    2  C2  UNL     1     -33.656  16.636  -5.273  1.00 20.00     0.017 A 
HETATM    3  C3  UNL     1     -34.316  14.755  -6.469  1.00 20.00    -0.021 A 
HETATM    4  C4  UNL     1     -34.872  16.358  -4.689  1.00 20.00     0.002 A 
HETATM    5  C8  UNL     1     -34.355  13.629  -7.428  1.00 20.00     0.056 C 
HETATM    6  S11 UNL     1     -35.619  14.983  -5.383  1.00 20.00    -0.098 SA
ENDROOT
BRANCH   4   7
HETATM    7  C10 UNL     1     -35.575  17.105  -3.559  1.00 20.00     0.126 C 
HETATM    8 CL12 UNL     1     -37.353  16.889  -3.759  1.00 20.00    -0.119 Cl
BRANCH   7   9
HETATM    9  C7  UNL     1     -35.144  16.721  -2.186  1.00 20.00     0.013 A 
HETATM   10  C5  UNL     1     -33.811  17.181  -1.656  1.00 20.00     0.011 A 
HETATM   11  C6  UNL     1     -35.084  17.759  -1.095  1.00 20.00    -0.012 A 
HETATM   12  C9  UNL     1     -35.516  17.415   0.288  1.00 20.00     0.010 C 
ENDBRANCH   7   9
ENDBRANCH   4   7
TORSDOF 2
ENDMDL
MODEL 5
REMARK VINA RESULT:      -4.7     10.695     11.401
REMARK  2 active torsions:
REMARK  status: ('A' for Active; 'I' for Inactive)
REMARK    1  A    between atoms: C4_4  and  C10_10 
REMARK    2  A    between atoms: C7_7  and  C10_10 
ROOT
HETATM    1  C1  UNL     1     -33.768  17.272  -1.470  1.00 20.00     0.015 A 
HETATM    2  C2  UNL     1     -33.535  16.950  -2.839  1.00 20.00     0.017 A 
HETATM    3  C3  UNL     1     -35.110  17.273  -1.160  1.00 20.00    -0.021 A 
HETATM    4  C4  UNL     1     -34.709  16.718  -3.522  1.00 20.00     0.002 A 
HETATM    5  C8  UNL     1     -35.753  17.555   0.142  1.00 20.00     0.056 C 
HETATM    6  S11 UNL     1     -36.083  16.887  -2.515  1.00 20.00    -0.098 SA
ENDROOT
BRANCH   4   7
HETATM    7  C10 UNL     1     -34.895  16.346  -4.990  1.00 20.00     0.126 C 
HETATM    8 CL12 UNL     1     -33.906  17.476  -5.988  1.00 20.00    -0.119 Cl
BRANCH   7   9
HETATM    9  C7  UNL     1     -34.585  14.929  -5.326  1.00 20.00     0.013 A 
HETATM   10  C5  UNL     1     -35.435  13.816  -4.770  1.00 20.00     0.011 A 
HETATM   11  C6  UNL     1     -35.498  14.151  -6.238  1.00 20.00    -0.012 A 
HETATM   12  C9  UNL     1     -34.927  13.213  -7.244  1.00 20.00     0.010 C 
ENDBRANCH   7   9
ENDBRANCH   4   7
TORSDOF 2
ENDMDL
MODEL 6
REMARK VINA RESULT:      -4.6     10.743     11.539
REMARK  2 active torsions:
REMARK  status: ('A' for Active; 'I' for Inactive)
REMARK    1  A    between atoms: C4_4  and  C10_10 
REMARK    2  A    between atoms: C7_7  and  C10_10 
ROOT
HETATM    1  C1  UNL     1     -35.473  13.947  -4.589  1.00 20.00     0.015 A 
HETATM    2  C2  UNL     1     -34.321  14.699  -4.217  1.00 20.00     0.017 A 
HETATM    3  C3  UNL     1     -36.564  14.754  -4.824  1.00 20.00    -0.021 A 
HETATM    4  C4  UNL     1     -34.576  16.052  -4.184  1.00 20.00     0.002 A 
HETATM    5  C8  UNL     1     -37.932  14.359  -5.227  1.00 20.00     0.056 C 
HETATM    6  S11 UNL     1     -36.198  16.411  -4.598  1.00 20.00    -0.098 SA
ENDROOT
BRANCH   4   7
HETATM    7  C10 UNL     1     -33.619  17.190  -3.838  1.00 20.00     0.126 C 
HETATM    8 CL12 UNL     1     -33.588  18.342  -5.223  1.00 20.00    -0.119 Cl
BRANCH   7   9
HETATM    9  C7  UNL     1     -33.917  17.898  -2.563  1.00 20.00     0.013 A 
HETATM   10  C5  UNL     1     -34.319  17.116  -1.339  1.00 20.00     0.011 A 
HETATM   11  C6  UNL     1     -32.970  17.785  -1.396  1.00 20.00    -0.012 A 
HETATM   12  C9  UNL     1     -32.689  18.975  -0.545  1.00 20.00     0.010 C 
ENDBRANCH   7   9
ENDBRANCH   4   7
TORSDOF 2
ENDMDL
MODEL 7
REMARK VINA RESULT:      -4.6     10.819     11.605
REMARK  2 active torsions:
REMARK  status: ('A' for Active; 'I' for Inactive)
REMARK    1  A    between atoms: C4_4  and  C10_10 
REMARK    2  A    between atoms: C7_7  and  C10_10 
ROOT
HETATM    1  C1  UNL     1     -35.054  14.018  -4.856  1.00 20.00     0.015 A 
HETATM    2  C2  UNL     1     -34.808  14.962  -3.818  1.00 20.00     0.017 A 
HETATM    3  C3  UNL     1     -34.423  14.365  -6.031  1.00 20.00    -0.021 A 
HETATM    4  C4  UNL     1     -33.998  15.994  -4.239  1.00 20.00     0.002 A 
HETATM    5  C8  UNL     1     -34.432  13.650  -7.326  1.00 20.00     0.056 C 
HETATM    6  S11 UNL     1     -33.538  15.822  -5.879  1.00 20.00    -0.098 SA
ENDROOT
BRANCH   4   7
HETATM    7  C10 UNL     1     -33.500  17.196  -3.441  1.00 20.00     0.126 C 
HETATM    8 CL12 UNL     1     -34.336  18.668  -4.057  1.00 20.00    -0.119 Cl
BRANCH   7   9
HETATM    9  C7  UNL     1     -33.649  17.077  -1.965  1.00 20.00     0.013 A 
HETATM   10  C5  UNL     1     -33.162  18.182  -1.063  1.00 20.00     0.011 A 
HETATM   11  C6  UNL     1     -34.640  17.946  -1.232  1.00 20.00    -0.012 A 
HETATM   12  C9  UNL     1     -35.440  17.383  -0.110  1.00 20.00     0.010 C 
ENDBRANCH   7   9
ENDBRANCH   4   7
TORSDOF 2
ENDMDL
MODEL 8
REMARK VINA RESULT:      -4.5     10.727     11.550
REMARK  2 active torsions:
REMARK  status: ('A' for Active; 'I' for Inactive)
REMARK    1  A    between atoms: C4_4  and  C10_10 
REMARK    2  A    between atoms: C7_7  and  C10_10 
ROOT
HETATM    1  C1  UNL     1     -35.404  17.008  -1.131  1.00 20.00     0.015 A 
HETATM    2  C2  UNL     1     -35.229  16.391  -2.403  1.00 20.00     0.017 A 
HETATM    3  C3  UNL     1     -34.303  17.746  -0.758  1.00 20.00    -0.021 A 
HETATM    4  C4  UNL     1     -34.000  16.681  -2.954  1.00 20.00     0.002 A 
HETATM    5  C8  UNL     1     -34.096  18.530   0.480  1.00 20.00     0.056 C 
HETATM    6  S11 UNL     1     -33.065  17.694  -1.939  1.00 20.00    -0.098 SA
ENDROOT
BRANCH   4   7
HETATM    7  C10 UNL     1     -33.428  16.222  -4.291  1.00 20.00     0.126 C 
HETATM    8 CL12 UNL     1     -32.990  14.480  -4.150  1.00 20.00    -0.119 Cl
BRANCH   7   9
HETATM    9  C7  UNL     1     -34.309  16.456  -5.468  1.00 20.00     0.013 A 
HETATM   10  C5  UNL     1     -34.090  17.656  -6.352  1.00 20.00     0.011 A 
HETATM   11  C6  UNL     1     -33.772  16.276  -6.864  1.00 20.00    -0.012 A 
HETATM   12  C9  UNL     1     -34.622  15.654  -7.918  1.00 20.00     0.010 C 
ENDBRANCH   7   9
ENDBRANCH   4   7
TORSDOF 2
ENDMDL
MODEL 9
REMARK VINA RESULT:      -4.5      2.006      5.280
REMARK  2 active torsions:
REMARK  status: ('A' for Active; 'I' for Inactive)
REMARK    1  A    between atoms: C4_4  and  C10_10 
REMARK    2  A    between atoms: C7_7  and  C10_10 
ROOT
HETATM    1  C1  UNL     1     -31.557   8.871   2.664  1.00 20.00     0.015 A 
HETATM    2  C2  UNL     1     -32.029   7.618   3.152  1.00 20.00     0.017 A 
HETATM    3  C3  UNL     1     -32.303   9.326   1.599  1.00 20.00    -0.021 A 
HETATM    4  C4  UNL     1     -33.119   7.165   2.442  1.00 20.00     0.002 A 
HETATM    5  C8  UNL     1     -32.133  10.574   0.823  1.00 20.00     0.056 C 
HETATM    6  S11 UNL     1     -33.568   8.246   1.193  1.00 20.00    -0.098 SA
ENDROOT
BRANCH   4   7
HETATM    7  C10 UNL     1     -33.916   5.879   2.645  1.00 20.00     0.126 C 
HETATM    8 CL12 UNL     1     -32.785   4.485   2.498  1.00 20.00    -0.119 Cl
BRANCH   7   9
HETATM    9  C7  UNL     1     -34.686   5.809   3.917  1.00 20.00     0.013 A 
HETATM   10  C5  UNL     1     -34.635   4.565   4.765  1.00 20.00     0.011 A 
HETATM   11  C6  UNL     1     -33.963   5.826   5.240  1.00 20.00    -0.012 A 
HETATM   12  C9  UNL     1     -34.528   6.587   6.389  1.00 20.00     0.010 C 
ENDBRANCH   7   9
ENDBRANCH   4   7
TORSDOF 2
ENDMDL
