MODEL 1
REMARK VINA RESULT:      -3.8      0.000      0.000
REMARK  0 active torsions:
REMARK  status: ('A' for Active; 'I' for Inactive)
ROOT
HETATM    1  C1  UNL     1     -33.379   7.151   5.364  1.00 20.00     0.149 A 
HETATM    2  C2  UNL     1     -33.999   6.075   4.765  1.00 20.00     0.094 A 
HETATM    3  C3  UNL     1     -32.797   7.548   3.287  1.00 20.00     0.145 A 
HETATM    4  N4  UNL     1     -32.688   7.997   4.518  1.00 20.00    -0.244 NA
HETATM    5  S5  UNL     1     -33.716   6.115   3.074  1.00 20.00    -0.049 SA
HETATM    6 CL6  UNL     1     -34.931   4.835   5.477  1.00 20.00    -0.075 Cl
HETATM    7 BR7  UNL     1     -31.977   8.445   1.813  1.00 20.00    -0.021 Br
ENDROOT
TORSDOF 0
ENDMDL
MODEL 2
REMARK VINA RESULT:      -3.8      1.537      1.759
REMARK  0 active torsions:
REMARK  status: ('A' for Active; 'I' for Inactive)
ROOT
HETATM    1  C1  UNL     1     -33.860   5.192   3.317  1.00 20.00     0.149 A 
HETATM    2  C2  UNL     1     -34.083   5.745   4.560  1.00 20.00     0.094 A 
HETATM    3  C3  UNL     1     -32.981   7.170   2.961  1.00 20.00     0.145 A 
HETATM    4  N4  UNL     1     -33.229   6.008   2.398  1.00 20.00    -0.244 NA
HETATM    5  S5  UNL     1     -33.480   7.350   4.592  1.00 20.00    -0.049 SA
HETATM    6 CL6  UNL     1     -34.826   5.050   5.931  1.00 20.00    -0.075 Cl
HETATM    7 BR7  UNL     1     -32.112   8.582   2.013  1.00 20.00    -0.021 Br
ENDROOT
TORSDOF 0
ENDMDL
MODEL 3
REMARK VINA RESULT:      -3.7      3.248      3.524
REMARK  0 active torsions:
REMARK  status: ('A' for Active; 'I' for Inactive)
ROOT
HETATM    1  C1  UNL     1     -32.452   8.116   4.237  1.00 20.00     0.149 A 
HETATM    2  C2  UNL     1     -32.473   7.704   2.921  1.00 20.00     0.094 A 
HETATM    3  C3  UNL     1     -33.696   6.324   4.471  1.00 20.00     0.145 A 
HETATM    4  N4  UNL     1     -33.154   7.326   5.127  1.00 20.00    -0.244 NA
HETATM    5  S5  UNL     1     -33.403   6.270   2.782  1.00 20.00    -0.049 SA
HETATM    6 CL6  UNL     1     -31.732   8.415   1.557  1.00 20.00    -0.075 Cl
HETATM    7 BR7  UNL     1     -34.753   4.999   5.352  1.00 20.00    -0.021 Br
ENDROOT
TORSDOF 0
ENDMDL
MODEL 4
REMARK VINA RESULT:      -3.2     12.127     12.478
REMARK  0 active torsions:
REMARK  status: ('A' for Active; 'I' for Inactive)
ROOT
HETATM    1  C1  UNL     1     -34.451  14.394  -3.908  1.00 20.00     0.149 A 
HETATM    2  C2  UNL     1     -33.938  15.671  -3.825  1.00 20.00     0.094 A 
HETATM    3  C3  UNL     1     -34.089  14.744  -6.043  1.00 20.00     0.145 A 
HETATM    4  N4  UNL     1     -34.539  13.860  -5.179  1.00 20.00    -0.244 NA
HETATM    5  S5  UNL     1     -33.543  16.235  -5.395  1.00 20.00    -0.049 SA
HETATM    6 CL6  UNL     1     -33.682  16.642  -2.444  1.00 20.00    -0.075 Cl
HETATM    7 BR7  UNL     1     -34.042  14.384  -7.918  1.00 20.00    -0.021 Br
ENDROOT
TORSDOF 0
ENDMDL
MODEL 5
REMARK VINA RESULT:      -3.1     12.437     12.722
REMARK  0 active torsions:
REMARK  status: ('A' for Active; 'I' for Inactive)
ROOT
HETATM    1  C1  UNL     1     -33.297  15.767  -6.028  1.00 20.00     0.149 A 
HETATM    2  C2  UNL     1     -34.099  14.650  -5.930  1.00 20.00     0.094 A 
HETATM    3  C3  UNL     1     -33.986  16.036  -3.963  1.00 20.00     0.145 A 
HETATM    4  N4  UNL     1     -33.231  16.564  -4.902  1.00 20.00    -0.244 NA
HETATM    5  S5  UNL     1     -34.802  14.583  -4.367  1.00 20.00    -0.049 SA
HETATM    6 CL6  UNL     1     -34.421  13.448  -7.099  1.00 20.00    -0.075 Cl
HETATM    7 BR7  UNL     1     -34.164  16.844  -2.242  1.00 20.00    -0.021 Br
ENDROOT
TORSDOF 0
ENDMDL
MODEL 6
REMARK VINA RESULT:      -3.0     12.472     12.718
REMARK  0 active torsions:
REMARK  status: ('A' for Active; 'I' for Inactive)
ROOT
HETATM    1  C1  UNL     1     -33.243  16.326  -5.272  1.00 20.00     0.149 A 
HETATM    2  C2  UNL     1     -33.799  15.928  -4.074  1.00 20.00     0.094 A 
HETATM    3  C3  UNL     1     -34.349  14.573  -5.989  1.00 20.00     0.145 A 
HETATM    4  N4  UNL     1     -33.556  15.550  -6.371  1.00 20.00    -0.244 NA
HETATM    5  S5  UNL     1     -34.758  14.528  -4.323  1.00 20.00    -0.049 SA
HETATM    6 CL6  UNL     1     -33.641  16.629  -2.526  1.00 20.00    -0.075 Cl
HETATM    7 BR7  UNL     1     -35.011  13.274  -7.223  1.00 20.00    -0.021 Br
ENDROOT
TORSDOF 0
ENDMDL
MODEL 7
REMARK VINA RESULT:      -3.0     12.468     12.651
REMARK  0 active torsions:
REMARK  status: ('A' for Active; 'I' for Inactive)
ROOT
HETATM    1  C1  UNL     1     -35.004  14.122  -5.091  1.00 20.00     0.149 A 
HETATM    2  C2  UNL     1     -34.208  14.635  -6.093  1.00 20.00     0.094 A 
HETATM    3  C3  UNL     1     -34.090  15.773  -3.973  1.00 20.00     0.145 A 
HETATM    4  N4  UNL     1     -34.938  14.773  -3.874  1.00 20.00    -0.244 NA
HETATM    5  S5  UNL     1     -33.338  15.989  -5.500  1.00 20.00    -0.049 SA
HETATM    6 CL6  UNL     1     -34.027  14.103  -7.705  1.00 20.00    -0.075 Cl
HETATM    7 BR7  UNL     1     -33.716  16.925  -2.496  1.00 20.00    -0.021 Br
ENDROOT
TORSDOF 0
ENDMDL
MODEL 8
REMARK VINA RESULT:      -2.9     12.415     12.450
REMARK  0 active torsions:
REMARK  status: ('A' for Active; 'I' for Inactive)
ROOT
HETATM    1  C1  UNL     1     -30.722  18.831   1.879  1.00 20.00     0.149 A 
HETATM    2  C2  UNL     1     -31.843  18.979   2.668  1.00 20.00     0.094 A 
HETATM    3  C3  UNL     1     -32.252  18.595   0.326  1.00 20.00     0.145 A 
HETATM    4  N4  UNL     1     -30.954  18.610   0.536  1.00 20.00    -0.244 NA
HETATM    5  S5  UNL     1     -33.251  18.842   1.698  1.00 20.00    -0.049 SA
HETATM    6 CL6  UNL     1     -31.949  19.263   4.348  1.00 20.00    -0.075 Cl
HETATM    7 BR7  UNL     1     -32.986  18.316  -1.415  1.00 20.00    -0.021 Br
ENDROOT
TORSDOF 0
ENDMDL
MODEL 9
REMARK VINA RESULT:      -2.9     13.001     13.381
REMARK  0 active torsions:
REMARK  status: ('A' for Active; 'I' for Inactive)
ROOT
HETATM    1  C1  UNL     1     -36.055  13.402  -5.367  1.00 20.00     0.149 A 
HETATM    2  C2  UNL     1     -35.706  13.908  -6.601  1.00 20.00     0.094 A 
HETATM    3  C3  UNL     1     -37.853  14.595  -5.755  1.00 20.00     0.145 A 
HETATM    4  N4  UNL     1     -37.286  13.795  -4.879  1.00 20.00    -0.244 NA
HETATM    5  S5  UNL     1     -36.964  14.917  -7.186  1.00 20.00    -0.049 SA
HETATM    6 CL6  UNL     1     -34.285  13.649  -7.511  1.00 20.00    -0.075 Cl
HETATM    7 BR7  UNL     1     -39.578  15.358  -5.450  1.00 20.00    -0.021 Br
ENDROOT
TORSDOF 0
ENDMDL
