MODEL 1
REMARK VINA RESULT:      -4.2      0.000      0.000
REMARK  2 active torsions:
REMARK  status: ('A' for Active; 'I' for Inactive)
REMARK    1  A    between atoms: C3_3  and  C5_5 
REMARK    2  A    between atoms: C5_5  and  S6_6 
ROOT
HETATM    1  C1  UNL     1     -34.504   4.851   4.477  1.00 20.00     0.010 A 
HETATM    2  C2  UNL     1     -35.431   5.861   3.862  1.00 20.00     0.010 A 
HETATM    3  C3  UNL     1     -33.994   6.234   4.144  1.00 20.00    -0.036 A 
HETATM    4  C4  UNL     1     -33.721   7.178   5.282  1.00 20.00     0.016 C 
ENDROOT
BRANCH   3   5
HETATM    5  C5  UNL     1     -33.060   6.378   2.973  1.00 20.00     0.079 C 
BRANCH   5   6
HETATM    6  S6  UNL     1     -32.101   7.918   3.091  1.00 20.00    -0.181 SA
HETATM    7  H16 UNL     1     -33.087   8.728   2.684  1.00 20.00     0.101 HD
ENDBRANCH   5   6
ENDBRANCH   3   5
TORSDOF 2
ENDMDL
MODEL 2
REMARK VINA RESULT:      -4.0      0.832      1.727
REMARK  2 active torsions:
REMARK  status: ('A' for Active; 'I' for Inactive)
REMARK    1  A    between atoms: C3_3  and  C5_5 
REMARK    2  A    between atoms: C5_5  and  S6_6 
ROOT
HETATM    1  C1  UNL     1     -35.431   5.781   3.873  1.00 20.00     0.010 A 
HETATM    2  C2  UNL     1     -34.560   5.206   4.954  1.00 20.00     0.010 A 
HETATM    3  C3  UNL     1     -33.931   5.936   3.789  1.00 20.00    -0.036 A 
HETATM    4  C4  UNL     1     -33.194   5.122   2.762  1.00 20.00     0.016 C 
ENDROOT
BRANCH   3   5
HETATM    5  C5  UNL     1     -33.347   7.299   4.044  1.00 20.00     0.079 C 
BRANCH   5   6
HETATM    6  S6  UNL     1     -32.343   7.851   2.633  1.00 20.00    -0.181 SA
HETATM    7  H16 UNL     1     -31.178   7.880   3.294  1.00 20.00     0.101 HD
ENDBRANCH   5   6
ENDBRANCH   3   5
TORSDOF 2
ENDMDL
MODEL 3
REMARK VINA RESULT:      -3.7      0.789      1.720
REMARK  2 active torsions:
REMARK  status: ('A' for Active; 'I' for Inactive)
REMARK    1  A    between atoms: C3_3  and  C5_5 
REMARK    2  A    between atoms: C5_5  and  S6_6 
ROOT
HETATM    1  C1  UNL     1     -34.206   6.375   5.643  1.00 20.00     0.010 A 
HETATM    2  C2  UNL     1     -34.458   4.906   5.457  1.00 20.00     0.010 A 
HETATM    3  C3  UNL     1     -34.427   5.822   4.255  1.00 20.00    -0.036 A 
HETATM    4  C4  UNL     1     -35.729   6.132   3.570  1.00 20.00     0.016 C 
ENDROOT
BRANCH   3   5
HETATM    5  C5  UNL     1     -33.241   5.734   3.334  1.00 20.00     0.079 C 
BRANCH   5   6
HETATM    6  S6  UNL     1     -32.611   7.390   2.925  1.00 20.00    -0.181 SA
HETATM    7  H16 UNL     1     -33.427   7.597   1.884  1.00 20.00     0.101 HD
ENDBRANCH   5   6
ENDBRANCH   3   5
TORSDOF 2
ENDMDL
MODEL 4
REMARK VINA RESULT:      -3.6      2.134      3.236
REMARK  2 active torsions:
REMARK  status: ('A' for Active; 'I' for Inactive)
REMARK    1  A    between atoms: C3_3  and  C5_5 
REMARK    2  A    between atoms: C5_5  and  S6_6 
ROOT
HETATM    1  C1  UNL     1     -31.762   7.775   3.207  1.00 20.00     0.010 A 
HETATM    2  C2  UNL     1     -32.907   8.109   2.293  1.00 20.00     0.010 A 
HETATM    3  C3  UNL     1     -33.027   6.951   3.256  1.00 20.00    -0.036 A 
HETATM    4  C4  UNL     1     -32.984   5.558   2.692  1.00 20.00     0.016 C 
ENDROOT
BRANCH   3   5
HETATM    5  C5  UNL     1     -33.932   7.116   4.446  1.00 20.00     0.079 C 
BRANCH   5   6
HETATM    6  S6  UNL     1     -34.646   5.521   4.948  1.00 20.00    -0.181 SA
HETATM    7  H16 UNL     1     -35.820   5.692   4.325  1.00 20.00     0.101 HD
ENDBRANCH   5   6
ENDBRANCH   3   5
TORSDOF 2
ENDMDL
MODEL 5
REMARK VINA RESULT:      -3.5      2.132      2.925
REMARK  2 active torsions:
REMARK  status: ('A' for Active; 'I' for Inactive)
REMARK    1  A    between atoms: C3_3  and  C5_5 
REMARK    2  A    between atoms: C5_5  and  S6_6 
ROOT
HETATM    1  C1  UNL     1     -33.274   8.057   2.622  1.00 20.00     0.010 A 
HETATM    2  C2  UNL     1     -31.972   7.516   3.139  1.00 20.00     0.010 A 
HETATM    3  C3  UNL     1     -33.277   6.936   3.634  1.00 20.00    -0.036 A 
HETATM    4  C4  UNL     1     -33.702   7.255   5.040  1.00 20.00     0.016 C 
ENDROOT
BRANCH   3   5
HETATM    5  C5  UNL     1     -33.661   5.560   3.161  1.00 20.00     0.079 C 
BRANCH   5   6
HETATM    6  S6  UNL     1     -34.490   4.626   4.482  1.00 20.00    -0.181 SA
HETATM    7  H16 UNL     1     -33.760   3.512   4.345  1.00 20.00     0.101 HD
ENDBRANCH   5   6
ENDBRANCH   3   5
TORSDOF 2
ENDMDL
MODEL 6
REMARK VINA RESULT:      -3.5      1.694      2.218
REMARK  2 active torsions:
REMARK  status: ('A' for Active; 'I' for Inactive)
REMARK    1  A    between atoms: C3_3  and  C5_5 
REMARK    2  A    between atoms: C5_5  and  S6_6 
ROOT
HETATM    1  C1  UNL     1     -33.029   5.073   2.750  1.00 20.00     0.010 A 
HETATM    2  C2  UNL     1     -34.212   5.780   2.151  1.00 20.00     0.010 A 
HETATM    3  C3  UNL     1     -33.949   5.881   3.635  1.00 20.00    -0.036 A 
HETATM    4  C4  UNL     1     -34.865   5.137   4.566  1.00 20.00     0.016 C 
ENDROOT
BRANCH   3   5
HETATM    5  C5  UNL     1     -33.439   7.190   4.173  1.00 20.00     0.079 C 
BRANCH   5   6
HETATM    6  S6  UNL     1     -33.735   7.320   5.962  1.00 20.00    -0.181 SA
HETATM    7  H16 UNL     1     -35.012   6.919   5.921  1.00 20.00     0.101 HD
ENDBRANCH   5   6
ENDBRANCH   3   5
TORSDOF 2
ENDMDL
MODEL 7
REMARK VINA RESULT:      -3.3      1.709      2.454
REMARK  2 active torsions:
REMARK  status: ('A' for Active; 'I' for Inactive)
REMARK    1  A    between atoms: C3_3  and  C5_5 
REMARK    2  A    between atoms: C5_5  and  S6_6 
ROOT
HETATM    1  C1  UNL     1     -34.087   5.751   2.039  1.00 20.00     0.010 A 
HETATM    2  C2  UNL     1     -33.052   4.942   2.768  1.00 20.00     0.010 A 
HETATM    3  C3  UNL     1     -33.520   6.258   3.344  1.00 20.00    -0.036 A 
HETATM    4  C4  UNL     1     -32.573   7.425   3.297  1.00 20.00     0.016 C 
ENDROOT
BRANCH   3   5
HETATM    5  C5  UNL     1     -34.406   6.220   4.560  1.00 20.00     0.079 C 
BRANCH   5   6
HETATM    6  S6  UNL     1     -33.718   7.238   5.899  1.00 20.00    -0.181 SA
HETATM    7  H16 UNL     1     -33.986   6.372   6.885  1.00 20.00     0.101 HD
ENDBRANCH   5   6
ENDBRANCH   3   5
TORSDOF 2
ENDMDL
MODEL 8
REMARK VINA RESULT:      -3.3      2.585      3.867
REMARK  2 active torsions:
REMARK  status: ('A' for Active; 'I' for Inactive)
REMARK    1  A    between atoms: C3_3  and  C5_5 
REMARK    2  A    between atoms: C5_5  and  S6_6 
ROOT
HETATM    1  C1  UNL     1     -32.603   9.426   1.563  1.00 20.00     0.010 A 
HETATM    2  C2  UNL     1     -31.533   8.527   1.012  1.00 20.00     0.010 A 
HETATM    3  C3  UNL     1     -32.170   8.208   2.345  1.00 20.00    -0.036 A 
HETATM    4  C4  UNL     1     -31.351   8.421   3.588  1.00 20.00     0.016 C 
ENDROOT
BRANCH   3   5
HETATM    5  C5  UNL     1     -33.116   7.040   2.412  1.00 20.00     0.079 C 
BRANCH   5   6
HETATM    6  S6  UNL     1     -33.828   6.874   4.076  1.00 20.00    -0.181 SA
HETATM    7  H16 UNL     1     -33.191   7.925   4.607  1.00 20.00     0.101 HD
ENDBRANCH   5   6
ENDBRANCH   3   5
TORSDOF 2
ENDMDL
MODEL 9
REMARK VINA RESULT:      -3.1      1.994      2.620
REMARK  2 active torsions:
REMARK  status: ('A' for Active; 'I' for Inactive)
REMARK    1  A    between atoms: C3_3  and  C5_5 
REMARK    2  A    between atoms: C5_5  and  S6_6 
ROOT
HETATM    1  C1  UNL     1     -32.922   6.217   2.930  1.00 20.00     0.010 A 
HETATM    2  C2  UNL     1     -33.821   7.251   3.548  1.00 20.00     0.010 A 
HETATM    3  C3  UNL     1     -32.635   7.685   2.717  1.00 20.00    -0.036 A 
HETATM    4  C4  UNL     1     -31.455   8.285   3.430  1.00 20.00     0.016 C 
ENDROOT
BRANCH   3   5
HETATM    5  C5  UNL     1     -32.905   8.266   1.356  1.00 20.00     0.079 C 
BRANCH   5   6
HETATM    6  S6  UNL     1     -32.488  10.035   1.308  1.00 20.00    -0.181 SA
HETATM    7  H16 UNL     1     -33.326  10.402   2.287  1.00 20.00     0.101 HD
ENDBRANCH   5   6
ENDBRANCH   3   5
TORSDOF 2
ENDMDL
