MODEL 1
REMARK VINA RESULT:      -5.8      0.000      0.000
REMARK  1 active torsions:
REMARK  status: ('A' for Active; 'I' for Inactive)
REMARK    1  A    between atoms: C1_1  and  C2_2 
ROOT
HETATM    1  C1  UNL     1     -33.554   5.941   2.937  1.00 20.00     0.384 C 
HETATM    2  F3  UNL     1     -34.353   6.087   1.847  1.00 20.00    -0.181 F 
HETATM    3  F4  UNL     1     -32.813   4.822   2.712  1.00 20.00    -0.181 F 
HETATM    4 CL6  UNL     1     -32.466   7.340   3.045  1.00 20.00    -0.042 Cl
ENDROOT
BRANCH   1   5
HETATM    5  C2  UNL     1     -34.423   5.726   4.171  1.00 20.00     0.336 C 
HETATM    6  F5  UNL     1     -35.718   5.949   3.804  1.00 20.00    -0.199 F 
HETATM    7 CL7  UNL     1     -34.022   6.876   5.473  1.00 20.00    -0.058 Cl
HETATM    8 CL8  UNL     1     -34.311   4.055   4.781  1.00 20.00    -0.058 Cl
ENDBRANCH   1   5
TORSDOF 1
ENDMDL
MODEL 2
REMARK VINA RESULT:      -5.5      1.706      2.159
REMARK  1 active torsions:
REMARK  status: ('A' for Active; 'I' for Inactive)
REMARK    1  A    between atoms: C1_1  and  C2_2 
ROOT
HETATM    1  C1  UNL     1     -33.608   7.050   4.214  1.00 20.00     0.384 C 
HETATM    2  F3  UNL     1     -34.311   8.037   3.599  1.00 20.00    -0.181 F 
HETATM    3  F4  UNL     1     -32.348   7.113   3.706  1.00 20.00    -0.181 F 
HETATM    4 CL6  UNL     1     -33.544   7.391   5.957  1.00 20.00    -0.042 Cl
ENDROOT
BRANCH   1   5
HETATM    5  C2  UNL     1     -34.224   5.701   3.862  1.00 20.00     0.336 C 
HETATM    6  F5  UNL     1     -35.418   5.943   3.248  1.00 20.00    -0.199 F 
HETATM    7 CL7  UNL     1     -34.549   4.721   5.315  1.00 20.00    -0.058 Cl
HETATM    8 CL8  UNL     1     -33.205   4.782   2.724  1.00 20.00    -0.058 Cl
ENDBRANCH   1   5
TORSDOF 1
ENDMDL
MODEL 3
REMARK VINA RESULT:      -5.4      1.276      3.040
REMARK  1 active torsions:
REMARK  status: ('A' for Active; 'I' for Inactive)
REMARK    1  A    between atoms: C1_1  and  C2_2 
ROOT
HETATM    1  C1  UNL     1     -34.574   5.590   4.275  1.00 20.00     0.384 C 
HETATM    2  F3  UNL     1     -34.486   4.273   4.598  1.00 20.00    -0.181 F 
HETATM    3  F4  UNL     1     -35.880   5.814   3.966  1.00 20.00    -0.181 F 
HETATM    4 CL6  UNL     1     -34.145   6.561   5.699  1.00 20.00    -0.042 Cl
ENDROOT
BRANCH   1   5
HETATM    5  C2  UNL     1     -33.714   5.865   3.047  1.00 20.00     0.336 C 
HETATM    6  F5  UNL     1     -34.554   6.184   2.021  1.00 20.00    -0.199 F 
HETATM    7 CL7  UNL     1     -32.780   4.428   2.557  1.00 20.00    -0.058 Cl
HETATM    8 CL8  UNL     1     -32.616   7.245   3.300  1.00 20.00    -0.058 Cl
ENDBRANCH   1   5
TORSDOF 1
ENDMDL
MODEL 4
REMARK VINA RESULT:      -5.3      1.165      2.756
REMARK  1 active torsions:
REMARK  status: ('A' for Active; 'I' for Inactive)
REMARK    1  A    between atoms: C1_1  and  C2_2 
ROOT
HETATM    1  C1  UNL     1     -34.430   5.727   3.958  1.00 20.00     0.384 C 
HETATM    2  F3  UNL     1     -33.743   5.029   3.015  1.00 20.00    -0.181 F 
HETATM    3  F4  UNL     1     -35.675   5.924   3.447  1.00 20.00    -0.181 F 
HETATM    4 CL6  UNL     1     -34.560   4.734   5.426  1.00 20.00    -0.042 Cl
ENDROOT
BRANCH   1   5
HETATM    5  C2  UNL     1     -33.756   7.077   4.173  1.00 20.00     0.336 C 
HETATM    6  F5  UNL     1     -34.616   8.039   3.730  1.00 20.00    -0.199 F 
HETATM    7 CL7  UNL     1     -32.248   7.223   3.234  1.00 20.00    -0.058 Cl
HETATM    8 CL8  UNL     1     -33.432   7.391   5.897  1.00 20.00    -0.058 Cl
ENDBRANCH   1   5
TORSDOF 1
ENDMDL
MODEL 5
REMARK VINA RESULT:      -5.3      1.269      1.543
REMARK  1 active torsions:
REMARK  status: ('A' for Active; 'I' for Inactive)
REMARK    1  A    between atoms: C1_1  and  C2_2 
ROOT
HETATM    1  C1  UNL     1     -33.673   5.896   2.947  1.00 20.00     0.384 C 
HETATM    2  F3  UNL     1     -32.794   6.926   3.065  1.00 20.00    -0.181 F 
HETATM    3  F4  UNL     1     -34.491   6.217   1.909  1.00 20.00    -0.181 F 
HETATM    4 CL6  UNL     1     -32.776   4.418   2.537  1.00 20.00    -0.042 Cl
ENDROOT
BRANCH   1   5
HETATM    5  C2  UNL     1     -34.499   5.793   4.224  1.00 20.00     0.336 C 
HETATM    6  F5  UNL     1     -35.803   6.014   3.888  1.00 20.00    -0.199 F 
HETATM    7 CL7  UNL     1     -34.030   7.030   5.419  1.00 20.00    -0.058 Cl
HETATM    8 CL8  UNL     1     -34.394   4.171   4.955  1.00 20.00    -0.058 Cl
ENDBRANCH   1   5
TORSDOF 1
ENDMDL
MODEL 6
REMARK VINA RESULT:      -4.8      1.322      2.949
REMARK  1 active torsions:
REMARK  status: ('A' for Active; 'I' for Inactive)
REMARK    1  A    between atoms: C1_1  and  C2_2 
ROOT
HETATM    1  C1  UNL     1     -34.520   5.560   4.323  1.00 20.00     0.384 C 
HETATM    2  F3  UNL     1     -34.419   4.247   4.660  1.00 20.00    -0.181 F 
HETATM    3  F4  UNL     1     -35.824   5.765   3.994  1.00 20.00    -0.181 F 
HETATM    4 CL6  UNL     1     -34.123   6.551   5.743  1.00 20.00    -0.042 Cl
ENDROOT
BRANCH   1   5
HETATM    5  C2  UNL     1     -33.646   5.834   3.105  1.00 20.00     0.336 C 
HETATM    6  F5  UNL     1     -32.885   4.723   2.889  1.00 20.00    -0.199 F 
HETATM    7 CL7  UNL     1     -32.540   7.205   3.376  1.00 20.00    -0.058 Cl
HETATM    8 CL8  UNL     1     -34.619   6.118   1.639  1.00 20.00    -0.058 Cl
ENDBRANCH   1   5
TORSDOF 1
ENDMDL
MODEL 7
REMARK VINA RESULT:      -4.8      1.291      1.654
REMARK  1 active torsions:
REMARK  status: ('A' for Active; 'I' for Inactive)
REMARK    1  A    between atoms: C1_1  and  C2_2 
ROOT
HETATM    1  C1  UNL     1     -33.324   5.980   2.950  1.00 20.00     0.384 C 
HETATM    2  F3  UNL     1     -34.069   6.132   1.823  1.00 20.00    -0.181 F 
HETATM    3  F4  UNL     1     -32.577   4.860   2.758  1.00 20.00    -0.181 F 
HETATM    4 CL6  UNL     1     -32.237   7.376   3.113  1.00 20.00    -0.042 Cl
ENDROOT
BRANCH   1   5
HETATM    5  C2  UNL     1     -34.252   5.767   4.140  1.00 20.00     0.336 C 
HETATM    6  F5  UNL     1     -34.092   4.479   4.560  1.00 20.00    -0.199 F 
HETATM    7 CL7  UNL     1     -35.964   5.983   3.693  1.00 20.00    -0.058 Cl
HETATM    8 CL8  UNL     1     -33.840   6.838   5.504  1.00 20.00    -0.058 Cl
ENDBRANCH   1   5
TORSDOF 1
ENDMDL
MODEL 8
REMARK VINA RESULT:      -4.7      1.290      1.690
REMARK  1 active torsions:
REMARK  status: ('A' for Active; 'I' for Inactive)
REMARK    1  A    between atoms: C1_1  and  C2_2 
ROOT
HETATM    1  C1  UNL     1     -33.324   5.935   2.877  1.00 20.00     0.384 C 
HETATM    2  F3  UNL     1     -34.066   6.116   1.753  1.00 20.00    -0.181 F 
HETATM    3  F4  UNL     1     -32.563   4.830   2.652  1.00 20.00    -0.181 F 
HETATM    4 CL6  UNL     1     -32.254   7.337   3.092  1.00 20.00    -0.042 Cl
ENDROOT
BRANCH   1   5
HETATM    5  C2  UNL     1     -34.255   5.671   4.055  1.00 20.00     0.336 C 
HETATM    6  F5  UNL     1     -33.853   6.473   5.083  1.00 20.00    -0.199 F 
HETATM    7 CL7  UNL     1     -34.155   3.981   4.614  1.00 20.00    -0.058 Cl
HETATM    8 CL8  UNL     1     -35.945   6.086   3.672  1.00 20.00    -0.058 Cl
ENDBRANCH   1   5
TORSDOF 1
ENDMDL
MODEL 9
REMARK VINA RESULT:      -4.6      1.805      2.223
REMARK  1 active torsions:
REMARK  status: ('A' for Active; 'I' for Inactive)
REMARK    1  A    between atoms: C1_1  and  C2_2 
ROOT
HETATM    1  C1  UNL     1     -33.562   7.010   4.233  1.00 20.00     0.384 C 
HETATM    2  F3  UNL     1     -34.195   8.014   3.570  1.00 20.00    -0.181 F 
HETATM    3  F4  UNL     1     -32.343   6.880   3.643  1.00 20.00    -0.181 F 
HETATM    4 CL6  UNL     1     -33.334   7.493   5.927  1.00 20.00    -0.042 Cl
ENDROOT
BRANCH   1   5
HETATM    5  C2  UNL     1     -34.347   5.716   4.051  1.00 20.00     0.336 C 
HETATM    6  F5  UNL     1     -33.678   4.955   3.138  1.00 20.00    -0.199 F 
HETATM    7 CL7  UNL     1     -35.984   6.017   3.411  1.00 20.00    -0.058 Cl
HETATM    8 CL8  UNL     1     -34.449   4.782   5.566  1.00 20.00    -0.058 Cl
ENDBRANCH   1   5
TORSDOF 1
ENDMDL
