MODEL 1
REMARK VINA RESULT:      -4.9      0.000      0.000
REMARK  1 active torsions:
REMARK  status: ('A' for Active; 'I' for Inactive)
REMARK    1  A    between atoms: C2_2  and  C6_6 
ROOT
HETATM    1  C1  UNL     1     -32.916   7.427   4.726  1.00 20.00     0.080 A 
HETATM    2  C2  UNL     1     -33.675   6.770   3.781  1.00 20.00     0.047 A 
HETATM    3  C3  UNL     1     -32.454   7.993   2.431  1.00 20.00     0.144 A 
HETATM    4  N7  UNL     1     -33.411   7.093   2.465  1.00 20.00    -0.238 NA
HETATM    5  S8  UNL     1     -31.825   8.495   3.947  1.00 20.00    -0.073 SA
HETATM    6 BR9  UNL     1     -31.800   8.704   0.784  1.00 20.00    -0.021 Br
ENDROOT
BRANCH   2   7
HETATM    7  C6  UNL     1     -34.750   5.738   4.160  1.00 20.00     0.038 A 
HETATM    8  C4  UNL     1     -34.697   5.110   5.534  1.00 20.00     0.011 A 
HETATM    9  C5  UNL     1     -34.339   4.294   4.332  1.00 20.00     0.011 A 
ENDBRANCH   2   7
TORSDOF 1
ENDMDL
MODEL 2
REMARK VINA RESULT:      -4.7      2.789      4.601
REMARK  1 active torsions:
REMARK  status: ('A' for Active; 'I' for Inactive)
REMARK    1  A    between atoms: C2_2  and  C6_6 
ROOT
HETATM    1  C1  UNL     1     -33.089   6.712   1.784  1.00 20.00     0.080 A 
HETATM    2  C2  UNL     1     -32.645   7.944   2.217  1.00 20.00     0.047 A 
HETATM    3  C3  UNL     1     -33.398   7.174   4.127  1.00 20.00     0.144 A 
HETATM    4  N7  UNL     1     -32.821   8.210   3.561  1.00 20.00    -0.238 NA
HETATM    5  S8  UNL     1     -33.755   5.844   3.103  1.00 20.00    -0.073 SA
HETATM    6 BR9  UNL     1     -33.815   7.151   5.991  1.00 20.00    -0.021 Br
ENDROOT
BRANCH   2   7
HETATM    7  C6  UNL     1     -31.991   8.964   1.270  1.00 20.00     0.038 A 
HETATM    8  C4  UNL     1     -32.648  10.314   1.097  1.00 20.00     0.011 A 
HETATM    9  C5  UNL     1     -32.701   9.315  -0.017  1.00 20.00     0.011 A 
ENDBRANCH   2   7
TORSDOF 1
ENDMDL
MODEL 3
REMARK VINA RESULT:      -4.7      2.441      4.414
REMARK  1 active torsions:
REMARK  status: ('A' for Active; 'I' for Inactive)
REMARK    1  A    between atoms: C2_2  and  C6_6 
ROOT
HETATM    1  C1  UNL     1     -31.842   8.588   3.506  1.00 20.00     0.080 A 
HETATM    2  C2  UNL     1     -32.389   8.276   2.279  1.00 20.00     0.047 A 
HETATM    3  C3  UNL     1     -33.606   6.948   3.530  1.00 20.00     0.144 A 
HETATM    4  N7  UNL     1     -33.401   7.337   2.291  1.00 20.00    -0.238 NA
HETATM    5  S8  UNL     1     -32.618   7.674   4.731  1.00 20.00    -0.073 SA
HETATM    6 BR9  UNL     1     -34.933   5.646   3.968  1.00 20.00    -0.021 Br
ENDROOT
BRANCH   2   7
HETATM    7  C6  UNL     1     -31.910   8.931   0.973  1.00 20.00     0.038 A 
HETATM    8  C4  UNL     1     -32.415  10.313   0.629  1.00 20.00     0.011 A 
HETATM    9  C5  UNL     1     -32.907   9.130  -0.145  1.00 20.00     0.011 A 
ENDBRANCH   2   7
TORSDOF 1
ENDMDL
MODEL 4
REMARK VINA RESULT:      -4.0     11.297     11.829
REMARK  1 active torsions:
REMARK  status: ('A' for Active; 'I' for Inactive)
REMARK    1  A    between atoms: C2_2  and  C6_6 
ROOT
HETATM    1  C1  UNL     1     -35.622  16.606  -2.130  1.00 20.00     0.080 A 
HETATM    2  C2  UNL     1     -34.460  16.462  -2.857  1.00 20.00     0.047 A 
HETATM    3  C3  UNL     1     -33.672  17.681  -1.213  1.00 20.00     0.144 A 
HETATM    4  N7  UNL     1     -33.340  17.078  -2.332  1.00 20.00    -0.238 NA
HETATM    5  S8  UNL     1     -35.314  17.547  -0.730  1.00 20.00    -0.073 SA
HETATM    6 BR9  UNL     1     -32.395  18.654  -0.178  1.00 20.00    -0.021 Br
ENDROOT
BRANCH   2   7
HETATM    7  C6  UNL     1     -34.403  15.666  -4.171  1.00 20.00     0.038 A 
HETATM    8  C4  UNL     1     -34.388  14.157  -4.102  1.00 20.00     0.011 A 
HETATM    9  C5  UNL     1     -33.146  14.893  -4.495  1.00 20.00     0.011 A 
ENDBRANCH   2   7
TORSDOF 1
ENDMDL
MODEL 5
REMARK VINA RESULT:      -3.9     11.839     12.257
REMARK  1 active torsions:
REMARK  status: ('A' for Active; 'I' for Inactive)
REMARK    1  A    between atoms: C2_2  and  C6_6 
ROOT
HETATM    1  C1  UNL     1     -31.786  18.663   0.161  1.00 20.00     0.080 A 
HETATM    2  C2  UNL     1     -33.154  18.489   0.203  1.00 20.00     0.047 A 
HETATM    3  C3  UNL     1     -32.778  18.671   2.356  1.00 20.00     0.144 A 
HETATM    4  N7  UNL     1     -33.724  18.494   1.461  1.00 20.00    -0.238 NA
HETATM    5  S8  UNL     1     -31.179  18.841   1.755  1.00 20.00    -0.073 SA
HETATM    6 BR9  UNL     1     -33.163  18.737   4.226  1.00 20.00    -0.021 Br
ENDROOT
BRANCH   2   7
HETATM    7  C6  UNL     1     -34.000  18.302  -1.067  1.00 20.00     0.038 A 
HETATM    8  C4  UNL     1     -34.857  17.064  -1.188  1.00 20.00     0.011 A 
HETATM    9  C5  UNL     1     -33.627  17.198  -2.029  1.00 20.00     0.011 A 
ENDBRANCH   2   7
TORSDOF 1
ENDMDL
MODEL 6
REMARK VINA RESULT:      -3.8     12.016     12.607
REMARK  1 active torsions:
REMARK  status: ('A' for Active; 'I' for Inactive)
REMARK    1  A    between atoms: C2_2  and  C6_6 
ROOT
HETATM    1  C1  UNL     1     -33.550  16.918  -5.289  1.00 20.00     0.080 A 
HETATM    2  C2  UNL     1     -33.873  15.957  -4.354  1.00 20.00     0.047 A 
HETATM    3  C3  UNL     1     -34.366  14.830  -6.170  1.00 20.00     0.144 A 
HETATM    4  N7  UNL     1     -34.341  14.759  -4.858  1.00 20.00    -0.238 NA
HETATM    5  S8  UNL     1     -33.838  16.308  -6.865  1.00 20.00    -0.073 SA
HETATM    6 BR9  UNL     1     -34.957  13.365  -7.244  1.00 20.00    -0.021 Br
ENDROOT
BRANCH   2   7
HETATM    7  C6  UNL     1     -33.725  16.195  -2.843  1.00 20.00     0.038 A 
HETATM    8  C4  UNL     1     -34.926  16.682  -2.066  1.00 20.00     0.011 A 
HETATM    9  C5  UNL     1     -33.784  17.614  -2.324  1.00 20.00     0.011 A 
ENDBRANCH   2   7
TORSDOF 1
ENDMDL
MODEL 7
REMARK VINA RESULT:      -3.8     11.618     12.170
REMARK  1 active torsions:
REMARK  status: ('A' for Active; 'I' for Inactive)
REMARK    1  A    between atoms: C2_2  and  C6_6 
ROOT
HETATM    1  C1  UNL     1     -34.556  14.353  -4.250  1.00 20.00     0.080 A 
HETATM    2  C2  UNL     1     -35.043  15.495  -3.650  1.00 20.00     0.047 A 
HETATM    3  C3  UNL     1     -36.879  14.841  -4.655  1.00 20.00     0.144 A 
HETATM    4  N7  UNL     1     -36.375  15.777  -3.882  1.00 20.00    -0.238 NA
HETATM    5  S8  UNL     1     -35.808  13.592  -5.141  1.00 20.00    -0.073 SA
HETATM    6 BR9  UNL     1     -38.707  14.872  -5.209  1.00 20.00    -0.021 Br
ENDROOT
BRANCH   2   7
HETATM    7  C6  UNL     1     -34.165  16.405  -2.776  1.00 20.00     0.038 A 
HETATM    8  C4  UNL     1     -34.714  16.884  -1.452  1.00 20.00     0.011 A 
HETATM    9  C5  UNL     1     -34.577  17.847  -2.590  1.00 20.00     0.011 A 
ENDBRANCH   2   7
TORSDOF 1
ENDMDL
MODEL 8
REMARK VINA RESULT:      -3.8     11.954     12.411
REMARK  1 active torsions:
REMARK  status: ('A' for Active; 'I' for Inactive)
REMARK    1  A    between atoms: C2_2  and  C6_6 
ROOT
HETATM    1  C1  UNL     1     -33.660  17.121  -4.610  1.00 20.00     0.080 A 
HETATM    2  C2  UNL     1     -33.938  16.474  -3.425  1.00 20.00     0.047 A 
HETATM    3  C3  UNL     1     -34.936  15.088  -4.800  1.00 20.00     0.144 A 
HETATM    4  N7  UNL     1     -34.669  15.307  -3.532  1.00 20.00    -0.238 NA
HETATM    5  S8  UNL     1     -34.336  16.243  -5.918  1.00 20.00    -0.073 SA
HETATM    6 BR9  UNL     1     -35.938  13.563  -5.366  1.00 20.00    -0.021 Br
ENDROOT
BRANCH   2   7
HETATM    7  C6  UNL     1     -33.465  17.010  -2.063  1.00 20.00     0.038 A 
HETATM    8  C4  UNL     1     -34.505  17.461  -1.063  1.00 20.00     0.011 A 
HETATM    9  C5  UNL     1     -33.653  18.478  -1.758  1.00 20.00     0.011 A 
ENDBRANCH   2   7
TORSDOF 1
ENDMDL
MODEL 9
REMARK VINA RESULT:      -3.7     11.807     12.157
REMARK  1 active torsions:
REMARK  status: ('A' for Active; 'I' for Inactive)
REMARK    1  A    between atoms: C2_2  and  C6_6 
ROOT
HETATM    1  C1  UNL     1     -34.390  14.411  -5.436  1.00 20.00     0.080 A 
HETATM    2  C2  UNL     1     -35.585  14.699  -4.811  1.00 20.00     0.047 A 
HETATM    3  C3  UNL     1     -34.256  15.910  -3.556  1.00 20.00     0.144 A 
HETATM    4  N7  UNL     1     -35.510  15.559  -3.733  1.00 20.00    -0.238 NA
HETATM    5  S8  UNL     1     -33.114  15.245  -4.651  1.00 20.00    -0.073 SA
HETATM    6 BR9  UNL     1     -33.734  17.098  -2.155  1.00 20.00    -0.021 Br
ENDROOT
BRANCH   2   7
HETATM    7  C6  UNL     1     -36.924  14.105  -5.280  1.00 20.00     0.038 A 
HETATM    8  C4  UNL     1     -37.781  14.913  -6.227  1.00 20.00     0.011 A 
HETATM    9  C5  UNL     1     -38.206  14.745  -4.802  1.00 20.00     0.011 A 
ENDBRANCH   2   7
TORSDOF 1
ENDMDL
