MODEL 1
REMARK VINA RESULT:      -5.0      0.000      0.000
REMARK  1 active torsions:
REMARK  status: ('A' for Active; 'I' for Inactive)
REMARK    1  A    between atoms: C4_4  and  C7_7 
ROOT
HETATM    1  C1  UNL     1     -34.339   4.974   4.419  1.00 20.00     0.069 C 
HETATM    2  C6  UNL     1     -34.279   6.672   6.215  1.00 20.00     0.031 C 
HETATM    3  C7  UNL     1     -34.368   6.439   4.689  1.00 20.00     0.128 C 
HETATM    4  N8  UNL     1     -34.297   3.838   4.192  1.00 20.00    -0.197 NA
ENDROOT
BRANCH   3   5
HETATM    5  C4  UNL     1     -33.346   7.185   3.924  1.00 20.00     0.001 A 
HETATM    6  C2  UNL     1     -32.306   7.952   4.403  1.00 20.00     0.018 A 
HETATM    7  C3  UNL     1     -31.528   8.515   3.351  1.00 20.00     0.032 A 
HETATM    8  C5  UNL     1     -32.002   8.156   2.108  1.00 20.00     0.075 A 
HETATM    9  S9  UNL     1     -33.380   7.146   2.213  1.00 20.00    -0.081 SA
HETATM   10 CL10 UNL     1     -31.376   8.604   0.577  1.00 20.00    -0.076 Cl
ENDBRANCH   3   5
TORSDOF 1
ENDMDL
MODEL 2
REMARK VINA RESULT:      -4.3     11.859     12.471
REMARK  1 active torsions:
REMARK  status: ('A' for Active; 'I' for Inactive)
REMARK    1  A    between atoms: C4_4  and  C7_7 
ROOT
HETATM    1  C1  UNL     1     -33.178  17.815  -2.139  1.00 20.00     0.069 C 
HETATM    2  C6  UNL     1     -35.412  16.780  -1.907  1.00 20.00     0.031 C 
HETATM    3  C7  UNL     1     -33.962  16.575  -2.403  1.00 20.00     0.128 C 
HETATM    4  N8  UNL     1     -32.561  18.779  -1.957  1.00 20.00    -0.197 NA
ENDROOT
BRANCH   3   5
HETATM    5  C4  UNL     1     -33.883  16.136  -3.812  1.00 20.00     0.001 A 
HETATM    6  C2  UNL     1     -33.398  16.828  -4.901  1.00 20.00     0.018 A 
HETATM    7  C3  UNL     1     -33.491  16.068  -6.102  1.00 20.00     0.032 A 
HETATM    8  C5  UNL     1     -34.041  14.823  -5.886  1.00 20.00     0.075 A 
HETATM    9  S9  UNL     1     -34.445  14.577  -4.241  1.00 20.00    -0.081 SA
HETATM   10 CL10 UNL     1     -34.335  13.591  -7.040  1.00 20.00    -0.076 Cl
ENDBRANCH   3   5
TORSDOF 1
ENDMDL
MODEL 3
REMARK VINA RESULT:      -4.2      3.421      4.670
REMARK  1 active torsions:
REMARK  status: ('A' for Active; 'I' for Inactive)
REMARK    1  A    between atoms: C4_4  and  C7_7 
ROOT
HETATM    1  C1  UNL     1     -32.600   9.015   1.499  1.00 20.00     0.069 C 
HETATM    2  C6  UNL     1     -31.005   8.769   3.372  1.00 20.00     0.031 C 
HETATM    3  C7  UNL     1     -31.915   8.020   2.371  1.00 20.00     0.128 C 
HETATM    4  N8  UNL     1     -33.156   9.778   0.826  1.00 20.00    -0.197 NA
ENDROOT
BRANCH   3   5
HETATM    5  C4  UNL     1     -32.855   7.084   3.023  1.00 20.00     0.001 A 
HETATM    6  C2  UNL     1     -33.550   6.035   2.462  1.00 20.00     0.018 A 
HETATM    7  C3  UNL     1     -34.364   5.360   3.416  1.00 20.00     0.032 A 
HETATM    8  C5  UNL     1     -34.258   5.916   4.672  1.00 20.00     0.075 A 
HETATM    9  S9  UNL     1     -33.184   7.249   4.695  1.00 20.00    -0.081 SA
HETATM   10 CL10 UNL     1     -35.053   5.426   6.109  1.00 20.00    -0.076 Cl
ENDBRANCH   3   5
TORSDOF 1
ENDMDL
MODEL 4
REMARK VINA RESULT:      -4.1     11.630     12.208
REMARK  1 active torsions:
REMARK  status: ('A' for Active; 'I' for Inactive)
REMARK    1  A    between atoms: C4_4  and  C7_7 
ROOT
HETATM    1  C1  UNL     1     -35.772  14.006  -5.304  1.00 20.00     0.069 C 
HETATM    2  C6  UNL     1     -36.889  16.123  -5.923  1.00 20.00     0.031 C 
HETATM    3  C7  UNL     1     -35.599  15.485  -5.356  1.00 20.00     0.128 C 
HETATM    4  N8  UNL     1     -35.898  12.855  -5.238  1.00 20.00    -0.197 NA
ENDROOT
BRANCH   3   5
HETATM    5  C4  UNL     1     -35.184  16.061  -4.060  1.00 20.00     0.001 A 
HETATM    6  C2  UNL     1     -35.911  16.163  -2.894  1.00 20.00     0.018 A 
HETATM    7  C3  UNL     1     -35.166  16.783  -1.850  1.00 20.00     0.032 A 
HETATM    8  C5  UNL     1     -33.896  17.129  -2.257  1.00 20.00     0.075 A 
HETATM    9  S9  UNL     1     -33.609  16.710  -3.892  1.00 20.00    -0.081 SA
HETATM   10 CL10 UNL     1     -32.668  17.891  -1.335  1.00 20.00    -0.076 Cl
ENDBRANCH   3   5
TORSDOF 1
ENDMDL
MODEL 5
REMARK VINA RESULT:      -4.1     11.611     12.183
REMARK  1 active torsions:
REMARK  status: ('A' for Active; 'I' for Inactive)
REMARK    1  A    between atoms: C4_4  and  C7_7 
ROOT
HETATM    1  C1  UNL     1     -35.546  13.932  -5.380  1.00 20.00     0.069 C 
HETATM    2  C6  UNL     1     -36.145  16.162  -6.263  1.00 20.00     0.031 C 
HETATM    3  C7  UNL     1     -35.105  15.353  -5.453  1.00 20.00     0.128 C 
HETATM    4  N8  UNL     1     -35.886  12.826  -5.297  1.00 20.00    -0.197 NA
ENDROOT
BRANCH   3   5
HETATM    5  C4  UNL     1     -34.820  15.935  -4.124  1.00 20.00     0.001 A 
HETATM    6  C2  UNL     1     -33.598  16.239  -3.565  1.00 20.00     0.018 A 
HETATM    7  C3  UNL     1     -33.729  16.790  -2.258  1.00 20.00     0.032 A 
HETATM    8  C5  UNL     1     -35.047  16.887  -1.868  1.00 20.00     0.075 A 
HETATM    9  S9  UNL     1     -36.118  16.314  -3.075  1.00 20.00    -0.081 SA
HETATM   10 CL10 UNL     1     -35.662  17.487  -0.385  1.00 20.00    -0.076 Cl
ENDBRANCH   3   5
TORSDOF 1
ENDMDL
MODEL 6
REMARK VINA RESULT:      -4.1     11.553     12.170
REMARK  1 active torsions:
REMARK  status: ('A' for Active; 'I' for Inactive)
REMARK    1  A    between atoms: C4_4  and  C7_7 
ROOT
HETATM    1  C1  UNL     1     -33.615  14.985  -4.263  1.00 20.00     0.069 C 
HETATM    2  C6  UNL     1     -34.172  17.207  -5.193  1.00 20.00     0.031 C 
HETATM    3  C7  UNL     1     -33.506  16.451  -4.020  1.00 20.00     0.128 C 
HETATM    4  N8  UNL     1     -33.709  13.841  -4.429  1.00 20.00    -0.197 NA
ENDROOT
BRANCH   3   5
HETATM    5  C4  UNL     1     -34.025  16.853  -2.695  1.00 20.00     0.001 A 
HETATM    6  C2  UNL     1     -35.246  16.560  -2.127  1.00 20.00     0.018 A 
HETATM    7  C3  UNL     1     -35.382  17.129  -0.828  1.00 20.00     0.032 A 
HETATM    8  C5  UNL     1     -34.260  17.834  -0.452  1.00 20.00     0.075 A 
HETATM    9  S9  UNL     1     -33.051  17.811  -1.664  1.00 20.00    -0.081 SA
HETATM   10 CL10 UNL     1     -33.992  18.675   1.017  1.00 20.00    -0.076 Cl
ENDBRANCH   3   5
TORSDOF 1
ENDMDL
MODEL 7
REMARK VINA RESULT:      -4.0     12.091     12.589
REMARK  1 active torsions:
REMARK  status: ('A' for Active; 'I' for Inactive)
REMARK    1  A    between atoms: C4_4  and  C7_7 
ROOT
HETATM    1  C1  UNL     1     -33.258  18.134  -3.040  1.00 20.00     0.069 C 
HETATM    2  C6  UNL     1     -34.788  16.933  -1.514  1.00 20.00     0.031 C 
HETATM    3  C7  UNL     1     -33.707  16.780  -2.609  1.00 20.00     0.128 C 
HETATM    4  N8  UNL     1     -32.912  19.180  -3.400  1.00 20.00    -0.197 NA
ENDROOT
BRANCH   3   5
HETATM    5  C4  UNL     1     -34.139  15.931  -3.740  1.00 20.00     0.001 A 
HETATM    6  C2  UNL     1     -35.223  15.083  -3.812  1.00 20.00     0.018 A 
HETATM    7  C3  UNL     1     -35.310  14.432  -5.076  1.00 20.00     0.032 A 
HETATM    8  C5  UNL     1     -34.291  14.809  -5.923  1.00 20.00     0.075 A 
HETATM    9  S9  UNL     1     -33.234  15.940  -5.193  1.00 20.00    -0.081 SA
HETATM   10 CL10 UNL     1     -34.010  14.278  -7.529  1.00 20.00    -0.076 Cl
ENDBRANCH   3   5
TORSDOF 1
ENDMDL
MODEL 8
REMARK VINA RESULT:      -4.0     11.664     12.109
REMARK  1 active torsions:
REMARK  status: ('A' for Active; 'I' for Inactive)
REMARK    1  A    between atoms: C4_4  and  C7_7 
ROOT
HETATM    1  C1  UNL     1     -35.155  13.782  -4.976  1.00 20.00     0.069 C 
HETATM    2  C6  UNL     1     -33.723  15.508  -6.017  1.00 20.00     0.031 C 
HETATM    3  C7  UNL     1     -34.128  14.823  -4.691  1.00 20.00     0.128 C 
HETATM    4  N8  UNL     1     -35.969  12.981  -5.180  1.00 20.00    -0.197 NA
ENDROOT
BRANCH   3   5
HETATM    5  C4  UNL     1     -34.555  15.780  -3.647  1.00 20.00     0.001 A 
HETATM    6  C2  UNL     1     -33.791  16.387  -2.675  1.00 20.00     0.018 A 
HETATM    7  C3  UNL     1     -34.564  17.251  -1.848  1.00 20.00     0.032 A 
HETATM    8  C5  UNL     1     -35.891  17.273  -2.220  1.00 20.00     0.075 A 
HETATM    9  S9  UNL     1     -36.199  16.253  -3.560  1.00 20.00    -0.081 SA
HETATM   10 CL10 UNL     1     -37.167  18.168  -1.507  1.00 20.00    -0.076 Cl
ENDBRANCH   3   5
TORSDOF 1
ENDMDL
MODEL 9
REMARK VINA RESULT:      -4.0     11.969     12.505
REMARK  1 active torsions:
REMARK  status: ('A' for Active; 'I' for Inactive)
REMARK    1  A    between atoms: C4_4  and  C7_7 
ROOT
HETATM    1  C1  UNL     1     -33.431  17.893  -3.531  1.00 20.00     0.069 C 
HETATM    2  C6  UNL     1     -34.387  17.103  -1.392  1.00 20.00     0.031 C 
HETATM    3  C7  UNL     1     -33.796  16.674  -2.755  1.00 20.00     0.128 C 
HETATM    4  N8  UNL     1     -33.159  18.832  -4.154  1.00 20.00    -0.197 NA
ENDROOT
BRANCH   3   5
HETATM    5  C4  UNL     1     -34.676  15.756  -3.510  1.00 20.00     0.001 A 
HETATM    6  C2  UNL     1     -34.358  14.548  -4.092  1.00 20.00     0.018 A 
HETATM    7  C3  UNL     1     -35.480  13.952  -4.736  1.00 20.00     0.032 A 
HETATM    8  C5  UNL     1     -36.614  14.726  -4.619  1.00 20.00     0.075 A 
HETATM    9  S9  UNL     1     -36.322  16.165  -3.740  1.00 20.00    -0.081 SA
HETATM   10 CL10 UNL     1     -38.179  14.396  -5.237  1.00 20.00    -0.076 Cl
ENDBRANCH   3   5
TORSDOF 1
ENDMDL
