MODEL 1
REMARK VINA RESULT:      -4.8      0.000      0.000
REMARK  3 active torsions:
REMARK  status: ('A' for Active; 'I' for Inactive)
REMARK    1  A    between atoms: C4_4  and  C7_7 
REMARK    2  A    between atoms: C6_6  and  N9_9 
REMARK    3  A    between atoms: C7_7  and  N9_9 
ROOT
HETATM    1  C1  UNL     1     -33.726   7.326   5.025  1.00 20.00     0.095 C 
HETATM    2  C7  UNL     1     -33.813   7.245   3.549  1.00 20.00     0.330 C 
HETATM    3  N8  UNL     1     -33.668   7.368   6.183  1.00 20.00    -0.195 NA
ENDROOT
BRANCH   2   4
HETATM    4  C4  UNL     1     -32.471   7.273   2.901  1.00 20.00     0.033 A 
HETATM    5  C2  UNL     1     -32.115   8.376   1.944  1.00 20.00     0.008 A 
HETATM    6  C3  UNL     1     -31.462   8.314   3.296  1.00 20.00     0.008 A 
ENDBRANCH   2   4
BRANCH   2   7
HETATM    7  N9  UNL     1     -34.559   6.051   3.193  1.00 20.00     0.101 N 
HETATM    8  H21 UNL     1     -35.372   5.963   3.805  1.00 20.00     0.317 HD
BRANCH   7   9
HETATM    9  C6  UNL     1     -33.733   4.856   3.328  1.00 20.00     0.267 C 
HETATM   10  C5  UNL     1     -34.219   3.988   4.439  1.00 20.00     0.037 C 
ENDBRANCH   7   9
ENDBRANCH   2   7
TORSDOF 3
ENDMDL
MODEL 2
REMARK VINA RESULT:      -4.6      1.225      3.538
REMARK  3 active torsions:
REMARK  status: ('A' for Active; 'I' for Inactive)
REMARK    1  A    between atoms: C4_4  and  C7_7 
REMARK    2  A    between atoms: C6_6  and  N9_9 
REMARK    3  A    between atoms: C7_7  and  N9_9 
ROOT
HETATM    1  C1  UNL     1     -33.342   7.284   4.883  1.00 20.00     0.095 C 
HETATM    2  C7  UNL     1     -32.925   7.026   3.486  1.00 20.00     0.330 C 
HETATM    3  N8  UNL     1     -33.676   7.509   5.972  1.00 20.00    -0.195 NA
ENDROOT
BRANCH   2   4
HETATM    4  C4  UNL     1     -33.692   5.911   2.864  1.00 20.00     0.033 A 
HETATM    5  C2  UNL     1     -33.014   4.603   2.559  1.00 20.00     0.008 A 
HETATM    6  C3  UNL     1     -34.028   4.684   3.666  1.00 20.00     0.008 A 
ENDBRANCH   2   4
BRANCH   2   7
HETATM    7  N9  UNL     1     -33.056   8.258   2.728  1.00 20.00     0.101 N 
HETATM    8  H21 UNL     1     -33.910   8.225   2.169  1.00 20.00     0.317 HD
BRANCH   7   9
HETATM    9  C6  UNL     1     -31.915   8.454   1.841  1.00 20.00     0.267 C 
HETATM   10  C5  UNL     1     -32.234   9.430   0.761  1.00 20.00     0.037 C 
ENDBRANCH   7   9
ENDBRANCH   2   7
TORSDOF 3
ENDMDL
MODEL 3
REMARK VINA RESULT:      -4.4      1.660      3.877
REMARK  3 active torsions:
REMARK  status: ('A' for Active; 'I' for Inactive)
REMARK    1  A    between atoms: C4_4  and  C7_7 
REMARK    2  A    between atoms: C6_6  and  N9_9 
REMARK    3  A    between atoms: C7_7  and  N9_9 
ROOT
HETATM    1  C1  UNL     1     -33.242   5.686   2.908  1.00 20.00     0.095 C 
HETATM    2  C7  UNL     1     -33.521   7.082   3.318  1.00 20.00     0.330 C 
HETATM    3  N8  UNL     1     -32.999   4.597   2.589  1.00 20.00    -0.195 NA
ENDROOT
BRANCH   2   4
HETATM    4  C4  UNL     1     -34.318   7.153   4.575  1.00 20.00     0.033 A 
HETATM    5  C2  UNL     1     -34.289   6.012   5.555  1.00 20.00     0.008 A 
HETATM    6  C3  UNL     1     -33.627   7.317   5.900  1.00 20.00     0.008 A 
ENDBRANCH   2   4
BRANCH   2   7
HETATM    7  N9  UNL     1     -32.259   7.791   3.439  1.00 20.00     0.101 N 
HETATM    8  H21 UNL     1     -32.394   8.631   4.003  1.00 20.00     0.317 HD
BRANCH   7   9
HETATM    9  C6  UNL     1     -31.745   8.175   2.131  1.00 20.00     0.267 C 
HETATM   10  C5  UNL     1     -32.487   9.346   1.582  1.00 20.00     0.037 C 
ENDBRANCH   7   9
ENDBRANCH   2   7
TORSDOF 3
ENDMDL
MODEL 4
REMARK VINA RESULT:      -4.2      1.529      2.810
REMARK  3 active torsions:
REMARK  status: ('A' for Active; 'I' for Inactive)
REMARK    1  A    between atoms: C4_4  and  C7_7 
REMARK    2  A    between atoms: C6_6  and  N9_9 
REMARK    3  A    between atoms: C7_7  and  N9_9 
ROOT
HETATM    1  C1  UNL     1     -32.516   7.928   2.718  1.00 20.00     0.095 C 
HETATM    2  C7  UNL     1     -33.089   6.832   3.533  1.00 20.00     0.330 C 
HETATM    3  N8  UNL     1     -32.079   8.777   2.060  1.00 20.00    -0.195 NA
ENDROOT
BRANCH   2   4
HETATM    4  C4  UNL     1     -33.965   7.339   4.626  1.00 20.00     0.033 A 
HETATM    5  C2  UNL     1     -34.266   6.474   5.819  1.00 20.00     0.008 A 
HETATM    6  C3  UNL     1     -33.380   7.679   5.969  1.00 20.00     0.008 A 
ENDBRANCH   2   4
BRANCH   2   7
HETATM    7  N9  UNL     1     -33.799   5.921   2.652  1.00 20.00     0.101 N 
HETATM    8  H21 UNL     1     -34.788   5.903   2.908  1.00 20.00     0.317 HD
BRANCH   7   9
HETATM    9  C6  UNL     1     -33.259   4.570   2.748  1.00 20.00     0.267 C 
HETATM   10  C5  UNL     1     -33.903   3.810   3.857  1.00 20.00     0.037 C 
ENDBRANCH   7   9
ENDBRANCH   2   7
TORSDOF 3
ENDMDL
MODEL 5
REMARK VINA RESULT:      -4.1     11.449     12.310
REMARK  3 active torsions:
REMARK  status: ('A' for Active; 'I' for Inactive)
REMARK    1  A    between atoms: C4_4  and  C7_7 
REMARK    2  A    between atoms: C6_6  and  N9_9 
REMARK    3  A    between atoms: C7_7  and  N9_9 
ROOT
HETATM    1  C1  UNL     1     -36.941  14.114  -5.152  1.00 20.00     0.095 C 
HETATM    2  C7  UNL     1     -35.490  14.147  -5.444  1.00 20.00     0.330 C 
HETATM    3  N8  UNL     1     -38.080  14.066  -4.933  1.00 20.00    -0.195 NA
ENDROOT
BRANCH   2   4
HETATM    4  C4  UNL     1     -34.667  14.260  -4.207  1.00 20.00     0.033 A 
HETATM    5  C2  UNL     1     -33.389  15.053  -4.217  1.00 20.00     0.008 A 
HETATM    6  C3  UNL     1     -34.587  15.567  -3.468  1.00 20.00     0.008 A 
ENDBRANCH   2   4
BRANCH   2   7
HETATM    7  N9  UNL     1     -35.145  12.965  -6.214  1.00 20.00     0.101 N 
HETATM    8  H21 UNL     1     -34.241  12.608  -5.902  1.00 20.00     0.317 HD
BRANCH   7   9
HETATM    9  C6  UNL     1     -35.069  13.269  -7.638  1.00 20.00     0.267 C 
HETATM   10  C5  UNL     1     -34.008  14.279  -7.918  1.00 20.00     0.037 C 
ENDBRANCH   7   9
ENDBRANCH   2   7
TORSDOF 3
ENDMDL
MODEL 6
REMARK VINA RESULT:      -4.1      1.537      2.510
REMARK  3 active torsions:
REMARK  status: ('A' for Active; 'I' for Inactive)
REMARK    1  A    between atoms: C4_4  and  C7_7 
REMARK    2  A    between atoms: C6_6  and  N9_9 
REMARK    3  A    between atoms: C7_7  and  N9_9 
ROOT
HETATM    1  C1  UNL     1     -32.897   5.836   2.798  1.00 20.00     0.095 C 
HETATM    2  C7  UNL     1     -32.870   7.270   3.166  1.00 20.00     0.330 C 
HETATM    3  N8  UNL     1     -32.939   4.710   2.522  1.00 20.00    -0.195 NA
ENDROOT
BRANCH   2   4
HETATM    4  C4  UNL     1     -32.887   8.160   1.971  1.00 20.00     0.033 A 
HETATM    5  C2  UNL     1     -32.229   9.512   2.024  1.00 20.00     0.008 A 
HETATM    6  C3  UNL     1     -31.622   8.412   1.198  1.00 20.00     0.008 A 
ENDBRANCH   2   4
BRANCH   2   7
HETATM    7  N9  UNL     1     -33.986   7.542   4.055  1.00 20.00     0.101 N 
HETATM    8  H21 UNL     1     -34.210   8.538   4.025  1.00 20.00     0.317 HD
BRANCH   7   9
HETATM    9  C6  UNL     1     -33.667   7.168   5.428  1.00 20.00     0.267 C 
HETATM   10  C5  UNL     1     -34.481   6.000   5.871  1.00 20.00     0.037 C 
ENDBRANCH   7   9
ENDBRANCH   2   7
TORSDOF 3
ENDMDL
MODEL 7
REMARK VINA RESULT:      -3.8     11.480     12.512
REMARK  3 active torsions:
REMARK  status: ('A' for Active; 'I' for Inactive)
REMARK    1  A    between atoms: C4_4  and  C7_7 
REMARK    2  A    between atoms: C6_6  and  N9_9 
REMARK    3  A    between atoms: C7_7  and  N9_9 
ROOT
HETATM    1  C1  UNL     1     -36.793  13.855  -5.248  1.00 20.00     0.095 C 
HETATM    2  C7  UNL     1     -35.353  13.641  -5.522  1.00 20.00     0.330 C 
HETATM    3  N8  UNL     1     -37.916  14.027  -5.010  1.00 20.00    -0.195 NA
ENDROOT
BRANCH   2   4
HETATM    4  C4  UNL     1     -34.834  14.567  -6.567  1.00 20.00     0.033 A 
HETATM    5  C2  UNL     1     -34.221  14.019  -7.827  1.00 20.00     0.008 A 
HETATM    6  C3  UNL     1     -35.555  14.709  -7.878  1.00 20.00     0.008 A 
ENDBRANCH   2   4
BRANCH   2   7
HETATM    7  N9  UNL     1     -34.620  13.771  -4.275  1.00 20.00     0.101 N 
HETATM    8  H21 UNL     1     -35.266  13.673  -3.489  1.00 20.00     0.317 HD
BRANCH   7   9
HETATM    9  C6  UNL     1     -33.958  15.066  -4.187  1.00 20.00     0.267 C 
HETATM   10  C5  UNL     1     -34.566  15.911  -3.119  1.00 20.00     0.037 C 
ENDBRANCH   7   9
ENDBRANCH   2   7
TORSDOF 3
ENDMDL
MODEL 8
REMARK VINA RESULT:      -3.8     11.488     12.739
REMARK  3 active torsions:
REMARK  status: ('A' for Active; 'I' for Inactive)
REMARK    1  A    between atoms: C4_4  and  C7_7 
REMARK    2  A    between atoms: C6_6  and  N9_9 
REMARK    3  A    between atoms: C7_7  and  N9_9 
ROOT
HETATM    1  C1  UNL     1     -35.327  13.874  -5.109  1.00 20.00     0.095 C 
HETATM    2  C7  UNL     1     -34.484  15.089  -5.033  1.00 20.00     0.330 C 
HETATM    3  N8  UNL     1     -35.971  12.912  -5.183  1.00 20.00    -0.195 NA
ENDROOT
BRANCH   2   4
HETATM    4  C4  UNL     1     -34.055  15.394  -3.639  1.00 20.00     0.033 A 
HETATM    5  C2  UNL     1     -33.701  16.802  -3.246  1.00 20.00     0.008 A 
HETATM    6  C3  UNL     1     -34.959  16.168  -2.722  1.00 20.00     0.008 A 
ENDBRANCH   2   4
BRANCH   2   7
HETATM    7  N9  UNL     1     -33.348  14.921  -5.923  1.00 20.00     0.101 N 
HETATM    8  H21 UNL     1     -32.524  15.356  -5.506  1.00 20.00     0.317 HD
BRANCH   7   9
HETATM    9  C6  UNL     1     -33.602  15.534  -7.221  1.00 20.00     0.267 C 
HETATM   10  C5  UNL     1     -33.974  16.970  -7.076  1.00 20.00     0.037 C 
ENDBRANCH   7   9
ENDBRANCH   2   7
TORSDOF 3
ENDMDL
MODEL 9
REMARK VINA RESULT:      -3.6     11.489     12.458
REMARK  3 active torsions:
REMARK  status: ('A' for Active; 'I' for Inactive)
REMARK    1  A    between atoms: C4_4  and  C7_7 
REMARK    2  A    between atoms: C6_6  and  N9_9 
REMARK    3  A    between atoms: C7_7  and  N9_9 
ROOT
HETATM    1  C1  UNL     1     -35.623  13.914  -4.798  1.00 20.00     0.095 C 
HETATM    2  C7  UNL     1     -35.313  15.246  -4.231  1.00 20.00     0.330 C 
HETATM    3  N8  UNL     1     -35.888  12.872  -5.236  1.00 20.00    -0.195 NA
ENDROOT
BRANCH   2   4
HETATM    4  C4  UNL     1     -34.797  16.192  -5.259  1.00 20.00     0.033 A 
HETATM    5  C2  UNL     1     -33.407  16.756  -5.139  1.00 20.00     0.008 A 
HETATM    6  C3  UNL     1     -33.722  15.756  -6.216  1.00 20.00     0.008 A 
ENDBRANCH   2   4
BRANCH   2   7
HETATM    7  N9  UNL     1     -36.504  15.759  -3.577  1.00 20.00     0.101 N 
HETATM    8  H21 UNL     1     -37.220  15.955  -4.279  1.00 20.00     0.317 HD
BRANCH   7   9
HETATM    9  C6  UNL     1     -36.214  16.983  -2.841  1.00 20.00     0.267 C 
HETATM   10  C5  UNL     1     -35.276  16.723  -1.711  1.00 20.00     0.037 C 
ENDBRANCH   7   9
ENDBRANCH   2   7
TORSDOF 3
ENDMDL
