MODEL 1
REMARK VINA RESULT:      -5.1      0.000      0.000
REMARK  3 active torsions:
REMARK  status: ('A' for Active; 'I' for Inactive)
REMARK    1  A    between atoms: C6_6  and  C8_8 
REMARK    2  A    between atoms: C7_7  and  N10_10 
REMARK    3  A    between atoms: C8_8  and  N10_10 
ROOT
HETATM    1  C1  UNL     1     -33.100   7.455   4.929  1.00 20.00     0.095 C 
HETATM    2  C8  UNL     1     -32.421   7.225   3.632  1.00 20.00     0.330 C 
HETATM    3  N9  UNL     1     -33.629   7.659   5.941  1.00 20.00    -0.195 NA
ENDROOT
BRANCH   2   4
HETATM    4  C6  UNL     1     -33.267   6.450   2.683  1.00 20.00     0.033 A 
HETATM    5  C2  UNL     1     -33.168   4.950   2.632  1.00 20.00     0.008 A 
HETATM    6  C3  UNL     1     -34.399   5.604   3.195  1.00 20.00     0.008 A 
ENDBRANCH   2   4
BRANCH   2   7
HETATM    7  N10 UNL     1     -32.031   8.511   3.079  1.00 20.00     0.106 N 
HETATM    8  H22 UNL     1     -32.366   9.259   3.688  1.00 20.00     0.318 HD
BRANCH   7   9
HETATM    9  C7  UNL     1     -32.587   8.699   1.745  1.00 20.00     0.222 A 
HETATM   10  C4  UNL     1     -32.697  10.077   1.153  1.00 20.00     0.038 A 
HETATM   11  C5  UNL     1     -31.702   9.100   0.597  1.00 20.00     0.038 A 
ENDBRANCH   7   9
ENDBRANCH   2   7
TORSDOF 3
ENDMDL
MODEL 2
REMARK VINA RESULT:      -4.8      1.532      2.511
REMARK  3 active torsions:
REMARK  status: ('A' for Active; 'I' for Inactive)
REMARK    1  A    between atoms: C6_6  and  C8_8 
REMARK    2  A    between atoms: C7_7  and  N10_10 
REMARK    3  A    between atoms: C8_8  and  N10_10 
ROOT
HETATM    1  C1  UNL     1     -33.176   5.788   2.878  1.00 20.00     0.095 C 
HETATM    2  C8  UNL     1     -33.266   7.082   3.594  1.00 20.00     0.330 C 
HETATM    3  N9  UNL     1     -33.087   4.783   2.305  1.00 20.00    -0.195 NA
ENDROOT
BRANCH   2   4
HETATM    4  C6  UNL     1     -33.136   6.920   5.068  1.00 20.00     0.033 A 
HETATM    5  C2  UNL     1     -34.038   7.685   5.996  1.00 20.00     0.008 A 
HETATM    6  C3  UNL     1     -34.199   6.198   5.848  1.00 20.00     0.008 A 
ENDBRANCH   2   4
BRANCH   2   7
HETATM    7  N10 UNL     1     -32.256   7.979   3.059  1.00 20.00     0.106 N 
HETATM    8  H22 UNL     1     -32.169   8.794   3.667  1.00 20.00     0.318 HD
BRANCH   7   9
HETATM    9  C7  UNL     1     -32.607   8.423   1.716  1.00 20.00     0.222 A 
HETATM   10  C4  UNL     1     -32.510   9.878   1.346  1.00 20.00     0.038 A 
HETATM   11  C5  UNL     1     -31.542   8.891   0.762  1.00 20.00     0.038 A 
ENDBRANCH   7   9
ENDBRANCH   2   7
TORSDOF 3
ENDMDL
MODEL 3
REMARK VINA RESULT:      -4.7      1.209      1.507
REMARK  3 active torsions:
REMARK  status: ('A' for Active; 'I' for Inactive)
REMARK    1  A    between atoms: C6_6  and  C8_8 
REMARK    2  A    between atoms: C7_7  and  N10_10 
REMARK    3  A    between atoms: C8_8  and  N10_10 
ROOT
HETATM    1  C1  UNL     1     -33.326   7.304   4.943  1.00 20.00     0.095 C 
HETATM    2  C8  UNL     1     -33.326   6.498   3.700  1.00 20.00     0.330 C 
HETATM    3  N9  UNL     1     -33.329   7.955   5.903  1.00 20.00    -0.195 NA
ENDROOT
BRANCH   2   4
HETATM    4  C6  UNL     1     -34.388   5.455   3.704  1.00 20.00     0.033 A 
HETATM    5  C2  UNL     1     -34.052   4.034   4.064  1.00 20.00     0.008 A 
HETATM    6  C3  UNL     1     -34.873   4.874   5.003  1.00 20.00     0.008 A 
ENDBRANCH   2   4
BRANCH   2   7
HETATM    7  N10 UNL     1     -33.458   7.397   2.565  1.00 20.00     0.106 N 
HETATM    8  H22 UNL     1     -33.558   6.850   1.709  1.00 20.00     0.318 HD
BRANCH   7   9
HETATM    9  C7  UNL     1     -32.292   8.262   2.443  1.00 20.00     0.222 A 
HETATM   10  C4  UNL     1     -31.611   8.439   1.113  1.00 20.00     0.038 A 
HETATM   11  C5  UNL     1     -32.387   9.575   1.713  1.00 20.00     0.038 A 
ENDBRANCH   7   9
ENDBRANCH   2   7
TORSDOF 3
ENDMDL
MODEL 4
REMARK VINA RESULT:      -4.2      1.677      4.117
REMARK  3 active torsions:
REMARK  status: ('A' for Active; 'I' for Inactive)
REMARK    1  A    between atoms: C6_6  and  C8_8 
REMARK    2  A    between atoms: C7_7  and  N10_10 
REMARK    3  A    between atoms: C8_8  and  N10_10 
ROOT
HETATM    1  C1  UNL     1     -33.566   7.537   4.927  1.00 20.00     0.095 C 
HETATM    2  C8  UNL     1     -33.732   7.325   3.470  1.00 20.00     0.330 C 
HETATM    3  N9  UNL     1     -33.445   7.682   6.071  1.00 20.00    -0.195 NA
ENDROOT
BRANCH   2   4
HETATM    4  C6  UNL     1     -32.447   7.462   2.731  1.00 20.00     0.033 A 
HETATM    5  C2  UNL     1     -32.176   8.691   1.907  1.00 20.00     0.008 A 
HETATM    6  C3  UNL     1     -31.416   8.459   3.183  1.00 20.00     0.008 A 
ENDBRANCH   2   4
BRANCH   2   7
HETATM    7  N10 UNL     1     -34.338   6.021   3.258  1.00 20.00     0.106 N 
HETATM    8  H22 UNL     1     -35.343   6.082   3.425  1.00 20.00     0.318 HD
BRANCH   7   9
HETATM    9  C7  UNL     1     -33.767   5.025   4.155  1.00 20.00     0.222 A 
HETATM   10  C4  UNL     1     -34.620   4.370   5.207  1.00 20.00     0.038 A 
HETATM   11  C5  UNL     1     -34.145   3.574   4.027  1.00 20.00     0.038 A 
ENDBRANCH   7   9
ENDBRANCH   2   7
TORSDOF 3
ENDMDL
MODEL 5
REMARK VINA RESULT:      -4.2      1.527      4.051
REMARK  3 active torsions:
REMARK  status: ('A' for Active; 'I' for Inactive)
REMARK    1  A    between atoms: C6_6  and  C8_8 
REMARK    2  A    between atoms: C7_7  and  N10_10 
REMARK    3  A    between atoms: C8_8  and  N10_10 
ROOT
HETATM    1  C1  UNL     1     -31.797   8.392   3.227  1.00 20.00     0.095 C 
HETATM    2  C8  UNL     1     -32.815   8.240   2.162  1.00 20.00     0.330 C 
HETATM    3  N9  UNL     1     -31.001   8.486   4.065  1.00 20.00    -0.195 NA
ENDROOT
BRANCH   2   4
HETATM    4  C6  UNL     1     -32.334   8.745   0.846  1.00 20.00     0.033 A 
HETATM    5  C2  UNL     1     -33.303   9.338  -0.138  1.00 20.00     0.008 A 
HETATM    6  C3  UNL     1     -32.310  10.221   0.564  1.00 20.00     0.008 A 
ENDBRANCH   2   4
BRANCH   2   7
HETATM    7  N10 UNL     1     -33.209   6.843   2.092  1.00 20.00     0.106 N 
HETATM    8  H22 UNL     1     -34.000   6.745   1.454  1.00 20.00     0.318 HD
BRANCH   7   9
HETATM    9  C7  UNL     1     -33.593   6.340   3.405  1.00 20.00     0.222 A 
HETATM   10  C4  UNL     1     -35.015   5.937   3.680  1.00 20.00     0.038 A 
HETATM   11  C5  UNL     1     -33.944   4.889   3.595  1.00 20.00     0.038 A 
ENDBRANCH   7   9
ENDBRANCH   2   7
TORSDOF 3
ENDMDL
MODEL 6
REMARK VINA RESULT:      -4.1     10.638     11.490
REMARK  3 active torsions:
REMARK  status: ('A' for Active; 'I' for Inactive)
REMARK    1  A    between atoms: C6_6  and  C8_8 
REMARK    2  A    between atoms: C7_7  and  N10_10 
REMARK    3  A    between atoms: C8_8  and  N10_10 
ROOT
HETATM    1  C1  UNL     1     -36.844  13.940  -5.152  1.00 20.00     0.095 C 
HETATM    2  C8  UNL     1     -35.381  13.813  -5.345  1.00 20.00     0.330 C 
HETATM    3  N9  UNL     1     -37.986  14.049  -4.979  1.00 20.00    -0.195 NA
ENDROOT
BRANCH   2   4
HETATM    4  C6  UNL     1     -34.899  14.585  -6.524  1.00 20.00     0.033 A 
HETATM    5  C2  UNL     1     -34.247  13.876  -7.679  1.00 20.00     0.008 A 
HETATM    6  C3  UNL     1     -35.614  14.480  -7.842  1.00 20.00     0.008 A 
ENDBRANCH   2   4
BRANCH   2   7
HETATM    7  N10 UNL     1     -34.714  14.225  -4.121  1.00 20.00     0.106 N 
HETATM    8  H22 UNL     1     -35.180  13.798  -3.320  1.00 20.00     0.318 HD
BRANCH   7   9
HETATM    9  C7  UNL     1     -34.742  15.674  -3.971  1.00 20.00     0.222 A 
HETATM   10  C4  UNL     1     -35.173  16.296  -2.671  1.00 20.00     0.038 A 
HETATM   11  C5  UNL     1     -33.736  16.372  -3.097  1.00 20.00     0.038 A 
ENDBRANCH   7   9
ENDBRANCH   2   7
TORSDOF 3
ENDMDL
MODEL 7
REMARK VINA RESULT:      -4.0      1.676      4.206
REMARK  3 active torsions:
REMARK  status: ('A' for Active; 'I' for Inactive)
REMARK    1  A    between atoms: C6_6  and  C8_8 
REMARK    2  A    between atoms: C7_7  and  N10_10 
REMARK    3  A    between atoms: C8_8  and  N10_10 
ROOT
HETATM    1  C1  UNL     1     -32.778   5.928   2.594  1.00 20.00     0.095 C 
HETATM    2  C8  UNL     1     -32.617   7.378   2.855  1.00 20.00     0.330 C 
HETATM    3  N9  UNL     1     -32.923   4.793   2.406  1.00 20.00    -0.195 NA
ENDROOT
BRANCH   2   4
HETATM    4  C6  UNL     1     -32.768   8.193   1.618  1.00 20.00     0.033 A 
HETATM    5  C2  UNL     1     -32.351   9.638   1.608  1.00 20.00     0.008 A 
HETATM    6  C3  UNL     1     -31.554   8.621   0.840  1.00 20.00     0.008 A 
ENDBRANCH   2   4
BRANCH   2   7
HETATM    7  N10 UNL     1     -33.567   7.773   3.880  1.00 20.00     0.106 N 
HETATM    8  H22 UNL     1     -33.480   8.775   4.056  1.00 20.00     0.318 HD
BRANCH   7   9
HETATM    9  C7  UNL     1     -33.330   7.050   5.123  1.00 20.00     0.222 A 
HETATM   10  C4  UNL     1     -33.985   7.496   6.401  1.00 20.00     0.038 A 
HETATM   11  C5  UNL     1     -34.419   6.218   5.744  1.00 20.00     0.038 A 
ENDBRANCH   7   9
ENDBRANCH   2   7
TORSDOF 3
ENDMDL
MODEL 8
REMARK VINA RESULT:      -3.9     10.563     11.376
REMARK  3 active torsions:
REMARK  status: ('A' for Active; 'I' for Inactive)
REMARK    1  A    between atoms: C6_6  and  C8_8 
REMARK    2  A    between atoms: C7_7  and  N10_10 
REMARK    3  A    between atoms: C8_8  and  N10_10 
ROOT
HETATM    1  C1  UNL     1     -35.804  13.838  -4.960  1.00 20.00     0.095 C 
HETATM    2  C8  UNL     1     -35.798  15.239  -4.480  1.00 20.00     0.330 C 
HETATM    3  N9  UNL     1     -35.792  12.735  -5.321  1.00 20.00    -0.195 NA
ENDROOT
BRANCH   2   4
HETATM    4  C6  UNL     1     -37.131  15.668  -3.975  1.00 20.00     0.033 A 
HETATM    5  C2  UNL     1     -37.977  16.615  -4.780  1.00 20.00     0.008 A 
HETATM    6  C3  UNL     1     -38.387  15.175  -4.639  1.00 20.00     0.008 A 
ENDBRANCH   2   4
BRANCH   2   7
HETATM    7  N10 UNL     1     -34.767  15.376  -3.464  1.00 20.00     0.106 N 
HETATM    8  H22 UNL     1     -34.930  14.696  -2.721  1.00 20.00     0.318 HD
BRANCH   7   9
HETATM    9  C7  UNL     1     -34.771  16.716  -2.891  1.00 20.00     0.222 A 
HETATM   10  C4  UNL     1     -34.990  16.912  -1.416  1.00 20.00     0.038 A 
HETATM   11  C5  UNL     1     -33.638  17.175  -2.013  1.00 20.00     0.038 A 
ENDBRANCH   7   9
ENDBRANCH   2   7
TORSDOF 3
ENDMDL
MODEL 9
REMARK VINA RESULT:      -3.8     10.600     11.796
REMARK  3 active torsions:
REMARK  status: ('A' for Active; 'I' for Inactive)
REMARK    1  A    between atoms: C6_6  and  C8_8 
REMARK    2  A    between atoms: C7_7  and  N10_10 
REMARK    3  A    between atoms: C8_8  and  N10_10 
ROOT
HETATM    1  C1  UNL     1     -35.474  13.879  -5.066  1.00 20.00     0.095 C 
HETATM    2  C8  UNL     1     -34.937  15.250  -4.904  1.00 20.00     0.330 C 
HETATM    3  N9  UNL     1     -35.911  12.810  -5.176  1.00 20.00    -0.195 NA
ENDROOT
BRANCH   2   4
HETATM    4  C6  UNL     1     -34.900  15.996  -6.192  1.00 20.00     0.033 A 
HETATM    5  C2  UNL     1     -33.596  16.522  -6.725  1.00 20.00     0.008 A 
HETATM    6  C3  UNL     1     -34.279  15.372  -7.412  1.00 20.00     0.008 A 
ENDBRANCH   2   4
BRANCH   2   7
HETATM    7  N10 UNL     1     -35.730  15.943  -3.903  1.00 20.00     0.106 N 
HETATM    8  H22 UNL     1     -35.975  16.872  -4.247  1.00 20.00     0.318 HD
BRANCH   7   9
HETATM    9  C7  UNL     1     -34.994  16.078  -2.652  1.00 20.00     0.222 A 
HETATM   10  C4  UNL     1     -33.683  16.813  -2.616  1.00 20.00     0.038 A 
HETATM   11  C5  UNL     1     -34.895  17.412  -1.963  1.00 20.00     0.038 A 
ENDBRANCH   7   9
ENDBRANCH   2   7
TORSDOF 3
ENDMDL
