MODEL 1
REMARK VINA RESULT:      -5.3      0.000      0.000
REMARK  0 active torsions:
REMARK  status: ('A' for Active; 'I' for Inactive)
ROOT
HETATM    1  C1  UNL     1     -33.611  17.482  -4.702  1.00 20.00     0.068 C 
HETATM    2  C2  UNL     1     -35.475  17.300  -0.590  1.00 20.00     0.009 A 
HETATM    3  C3  UNL     1     -34.587  18.053   0.182  1.00 20.00     0.024 A 
HETATM    4  C4  UNL     1     -32.856  17.834  -1.514  1.00 20.00     0.033 A 
HETATM    5  C5  UNL     1     -35.036  16.814  -1.810  1.00 20.00    -0.050 A 
HETATM    6  C6  UNL     1     -33.741  17.083  -2.273  1.00 20.00    -0.033 A 
HETATM    7  C7  UNL     1     -33.287  18.317  -0.276  1.00 20.00     0.034 A 
HETATM    8  C8  UNL     1     -35.810  16.022  -2.814  1.00 20.00     0.041 C 
HETATM    9  C9  UNL     1     -34.675  15.465  -3.693  1.00 20.00     0.028 C 
HETATM   10  C10 UNL     1     -33.514  16.482  -3.630  1.00 20.00     0.126 C 
HETATM   11  N11 UNL     1     -33.686  18.271  -5.548  1.00 20.00    -0.197 NA
HETATM   12 CL12 UNL     1     -32.214  19.253   0.694  1.00 20.00    -0.084 Cl
ENDROOT
TORSDOF 0
ENDMDL
MODEL 2
REMARK VINA RESULT:      -5.0      3.022      4.747
REMARK  0 active torsions:
REMARK  status: ('A' for Active; 'I' for Inactive)
ROOT
HETATM    1  C1  UNL     1     -37.003  18.515   0.562  1.00 20.00     0.068 C 
HETATM    2  C2  UNL     1     -32.970  18.086  -1.430  1.00 20.00     0.009 A 
HETATM    3  C3  UNL     1     -33.266  17.314  -2.555  1.00 20.00     0.024 A 
HETATM    4  C4  UNL     1     -35.374  16.604  -1.571  1.00 20.00     0.033 A 
HETATM    5  C5  UNL     1     -33.877  18.096  -0.384  1.00 20.00    -0.050 A 
HETATM    6  C6  UNL     1     -35.072  17.368  -0.454  1.00 20.00    -0.033 A 
HETATM    7  C7  UNL     1     -34.458  16.578  -2.625  1.00 20.00     0.034 A 
HETATM    8  C8  UNL     1     -33.794  18.866   0.895  1.00 20.00     0.041 C 
HETATM    9  C9  UNL     1     -34.844  18.136   1.751  1.00 20.00     0.028 C 
HETATM   10  C10 UNL     1     -35.902  17.567   0.781  1.00 20.00     0.126 C 
HETATM   11  N11 UNL     1     -37.872  19.263   0.389  1.00 20.00    -0.197 NA
HETATM   12 CL12 UNL     1     -34.800  15.640  -4.029  1.00 20.00    -0.084 Cl
ENDROOT
TORSDOF 0
ENDMDL
MODEL 3
REMARK VINA RESULT:      -4.9      2.849      4.216
REMARK  0 active torsions:
REMARK  status: ('A' for Active; 'I' for Inactive)
ROOT
HETATM    1  C1  UNL     1     -31.887  18.776   0.128  1.00 20.00     0.068 C 
HETATM    2  C2  UNL     1     -35.326  16.482  -1.697  1.00 20.00     0.009 A 
HETATM    3  C3  UNL     1     -34.881  16.250  -3.000  1.00 20.00     0.024 A 
HETATM    4  C4  UNL     1     -33.208  18.003  -2.790  1.00 20.00     0.033 A 
HETATM    5  C5  UNL     1     -34.712  17.482  -0.961  1.00 20.00    -0.050 A 
HETATM    6  C6  UNL     1     -33.658  18.232  -1.498  1.00 20.00    -0.033 A 
HETATM    7  C7  UNL     1     -33.831  17.006  -3.543  1.00 20.00     0.034 A 
HETATM    8  C8  UNL     1     -34.991  17.885   0.451  1.00 20.00     0.041 C 
HETATM    9  C9  UNL     1     -34.303  19.261   0.510  1.00 20.00     0.028 C 
HETATM   10  C10 UNL     1     -33.136  19.226  -0.501  1.00 20.00     0.126 C 
HETATM   11  N11 UNL     1     -30.901  18.421   0.624  1.00 20.00    -0.197 NA
HETATM   12 CL12 UNL     1     -33.298  16.693  -5.151  1.00 20.00    -0.084 Cl
ENDROOT
TORSDOF 0
ENDMDL
MODEL 4
REMARK VINA RESULT:      -4.9      3.240      4.815
REMARK  0 active torsions:
REMARK  status: ('A' for Active; 'I' for Inactive)
ROOT
HETATM    1  C1  UNL     1     -36.422  18.166  -2.527  1.00 20.00     0.068 C 
HETATM    2  C2  UNL     1     -33.151  15.473  -4.096  1.00 20.00     0.009 A 
HETATM    3  C3  UNL     1     -33.846  14.615  -4.951  1.00 20.00     0.024 A 
HETATM    4  C4  UNL     1     -35.959  15.209  -3.904  1.00 20.00     0.033 A 
HETATM    5  C5  UNL     1     -33.870  16.180  -3.148  1.00 20.00    -0.050 A 
HETATM    6  C6  UNL     1     -35.263  16.056  -3.055  1.00 20.00    -0.033 A 
HETATM    7  C7  UNL     1     -35.239  14.483  -4.855  1.00 20.00     0.034 A 
HETATM    8  C8  UNL     1     -33.354  17.173  -2.156  1.00 20.00     0.041 C 
HETATM    9  C9  UNL     1     -34.536  17.255  -1.173  1.00 20.00     0.028 C 
HETATM   10  C10 UNL     1     -35.817  16.945  -1.979  1.00 20.00     0.126 C 
HETATM   11  N11 UNL     1     -36.900  19.130  -2.959  1.00 20.00    -0.197 NA
HETATM   12 CL12 UNL     1     -36.071  13.422  -5.927  1.00 20.00    -0.084 Cl
ENDROOT
TORSDOF 0
ENDMDL
MODEL 5
REMARK VINA RESULT:      -4.9      1.993      2.830
REMARK  0 active torsions:
REMARK  status: ('A' for Active; 'I' for Inactive)
ROOT
HETATM    1  C1  UNL     1     -34.847  14.705  -4.137  1.00 20.00     0.068 C 
HETATM    2  C2  UNL     1     -33.136  18.293  -1.989  1.00 20.00     0.009 A 
HETATM    3  C3  UNL     1     -33.758  18.228  -0.741  1.00 20.00     0.024 A 
HETATM    4  C4  UNL     1     -35.469  16.740  -1.622  1.00 20.00     0.033 A 
HETATM    5  C5  UNL     1     -33.697  17.589  -3.041  1.00 20.00    -0.050 A 
HETATM    6  C6  UNL     1     -34.849  16.813  -2.860  1.00 20.00    -0.033 A 
HETATM    7  C7  UNL     1     -34.917  17.458  -0.559  1.00 20.00     0.034 A 
HETATM    8  C8  UNL     1     -33.194  17.482  -4.445  1.00 20.00     0.041 C 
HETATM    9  C9  UNL     1     -34.441  16.940  -5.167  1.00 20.00     0.028 C 
HETATM   10  C10 UNL     1     -35.243  16.120  -4.132  1.00 20.00     0.126 C 
HETATM   11  N11 UNL     1     -34.535  13.589  -4.141  1.00 20.00    -0.197 NA
HETATM   12 CL12 UNL     1     -35.661  17.390   0.994  1.00 20.00    -0.084 Cl
ENDROOT
TORSDOF 0
ENDMDL
MODEL 6
REMARK VINA RESULT:      -4.9      2.006      2.807
REMARK  0 active torsions:
REMARK  status: ('A' for Active; 'I' for Inactive)
ROOT
HETATM    1  C1  UNL     1     -34.077  14.764  -6.383  1.00 20.00     0.068 C 
HETATM    2  C2  UNL     1     -36.376  16.542  -2.923  1.00 20.00     0.009 A 
HETATM    3  C3  UNL     1     -35.382  17.217  -2.211  1.00 20.00     0.024 A 
HETATM    4  C4  UNL     1     -33.644  15.940  -3.336  1.00 20.00     0.033 A 
HETATM    5  C5  UNL     1     -35.989  15.565  -3.825  1.00 20.00    -0.050 A 
HETATM    6  C6  UNL     1     -34.636  15.270  -4.036  1.00 20.00    -0.033 A 
HETATM    7  C7  UNL     1     -34.026  16.918  -2.415  1.00 20.00     0.034 A 
HETATM    8  C8  UNL     1     -36.862  14.742  -4.716  1.00 20.00     0.041 C 
HETATM    9  C9  UNL     1     -35.896  13.615  -5.122  1.00 20.00     0.028 C 
HETATM   10  C10 UNL     1     -34.469  14.206  -5.082  1.00 20.00     0.126 C 
HETATM   11  N11 UNL     1     -33.768  15.205  -7.410  1.00 20.00    -0.197 NA
HETATM   12 CL12 UNL     1     -32.821  17.771  -1.527  1.00 20.00    -0.084 Cl
ENDROOT
TORSDOF 0
ENDMDL
MODEL 7
REMARK VINA RESULT:      -4.9      2.715      3.699
REMARK  0 active torsions:
REMARK  status: ('A' for Active; 'I' for Inactive)
ROOT
HETATM    1  C1  UNL     1     -35.682  13.905  -5.357  1.00 20.00     0.068 C 
HETATM    2  C2  UNL     1     -33.513  16.737  -2.582  1.00 20.00     0.009 A 
HETATM    3  C3  UNL     1     -34.556  17.294  -1.839  1.00 20.00     0.024 A 
HETATM    4  C4  UNL     1     -36.183  16.581  -3.501  1.00 20.00     0.033 A 
HETATM    5  C5  UNL     1     -33.820  16.118  -3.783  1.00 20.00    -0.050 A 
HETATM    6  C6  UNL     1     -35.143  16.033  -4.236  1.00 20.00    -0.033 A 
HETATM    7  C7  UNL     1     -35.881  17.218  -2.296  1.00 20.00     0.034 A 
HETATM    8  C8  UNL     1     -32.886  15.427  -4.724  1.00 20.00     0.041 C 
HETATM    9  C9  UNL     1     -33.750  15.347  -5.995  1.00 20.00     0.028 C 
HETATM   10  C10 UNL     1     -35.224  15.289  -5.538  1.00 20.00     0.126 C 
HETATM   11  N11 UNL     1     -36.044  12.813  -5.214  1.00 20.00    -0.197 NA
HETATM   12 CL12 UNL     1     -37.148  17.910  -1.355  1.00 20.00    -0.084 Cl
ENDROOT
TORSDOF 0
ENDMDL
MODEL 8
REMARK VINA RESULT:      -4.8      2.528      3.653
REMARK  0 active torsions:
REMARK  status: ('A' for Active; 'I' for Inactive)
ROOT
HETATM    1  C1  UNL     1     -35.955  13.970  -5.250  1.00 20.00     0.068 C 
HETATM    2  C2  UNL     1     -33.275  17.193  -3.564  1.00 20.00     0.009 A 
HETATM    3  C3  UNL     1     -33.763  17.347  -2.265  1.00 20.00     0.024 A 
HETATM    4  C4  UNL     1     -35.844  16.242  -2.866  1.00 20.00     0.033 A 
HETATM    5  C5  UNL     1     -34.085  16.574  -4.501  1.00 20.00    -0.050 A 
HETATM    6  C6  UNL     1     -35.356  16.095  -4.155  1.00 20.00    -0.033 A 
HETATM    7  C7  UNL     1     -35.039  16.876  -1.918  1.00 20.00     0.034 A 
HETATM    8  C8  UNL     1     -33.768  16.269  -5.930  1.00 20.00     0.041 C 
HETATM    9  C9  UNL     1     -35.173  15.985  -6.492  1.00 20.00     0.028 C 
HETATM   10  C10 UNL     1     -36.024  15.435  -5.327  1.00 20.00     0.126 C 
HETATM   11  N11 UNL     1     -35.901  12.813  -5.189  1.00 20.00    -0.197 NA
HETATM   12 CL12 UNL     1     -35.613  17.075  -0.306  1.00 20.00    -0.084 Cl
ENDROOT
TORSDOF 0
ENDMDL
MODEL 9
REMARK VINA RESULT:      -4.5      1.879      2.468
REMARK  0 active torsions:
REMARK  status: ('A' for Active; 'I' for Inactive)
ROOT
HETATM    1  C1  UNL     1     -33.112  18.392  -2.214  1.00 20.00     0.068 C 
HETATM    2  C2  UNL     1     -36.874  18.182   0.280  1.00 20.00     0.009 A 
HETATM    3  C3  UNL     1     -36.442  18.647   1.523  1.00 20.00     0.024 A 
HETATM    4  C4  UNL     1     -34.121  18.245   0.919  1.00 20.00     0.033 A 
HETATM    5  C5  UNL     1     -35.921  17.743  -0.624  1.00 20.00    -0.050 A 
HETATM    6  C6  UNL     1     -34.556  17.780  -0.312  1.00 20.00    -0.033 A 
HETATM    7  C7  UNL     1     -35.076  18.677   1.842  1.00 20.00     0.034 A 
HETATM    8  C8  UNL     1     -36.139  17.239  -2.015  1.00 20.00     0.041 C 
HETATM    9  C9  UNL     1     -34.791  16.551  -2.297  1.00 20.00     0.028 C 
HETATM   10  C10 UNL     1     -33.723  17.288  -1.461  1.00 20.00     0.126 C 
HETATM   11  N11 UNL     1     -32.629  19.263  -2.808  1.00 20.00    -0.197 NA
HETATM   12 CL12 UNL     1     -34.572  19.263   3.382  1.00 20.00    -0.084 Cl
ENDROOT
TORSDOF 0
ENDMDL
