MODEL 1
REMARK VINA RESULT:      -4.6      0.000      0.000
REMARK  2 active torsions:
REMARK  status: ('A' for Active; 'I' for Inactive)
REMARK    1  A    between atoms: C5_5  and  N8_8 
REMARK    2  A    between atoms: C7_7  and  N8_8 
ROOT
HETATM    1  C1  UNL     1     -32.465   9.206   1.240  1.00 20.00     0.013 C 
HETATM    2  C2  UNL     1     -32.328   8.468   2.177  1.00 20.00    -0.087 C 
HETATM    3  C7  UNL     1     -32.154   7.568   3.320  1.00 20.00     0.364 C 
ENDROOT
BRANCH   3   4
HETATM    4  N8  UNL     1     -33.420   7.384   4.029  1.00 20.00     0.099 N 
HETATM    5  C6  UNL     1     -33.240   7.610   5.463  1.00 20.00     0.311 C 
BRANCH   4   6
HETATM    6  C5  UNL     1     -33.953   6.045   3.785  1.00 20.00     0.223 A 
HETATM    7  C3  UNL     1     -34.638   5.285   4.887  1.00 20.00     0.038 A 
HETATM    8  C4  UNL     1     -35.438   5.811   3.731  1.00 20.00     0.038 A 
ENDBRANCH   4   6
ENDBRANCH   3   4
TORSDOF 2
ENDMDL
MODEL 2
REMARK VINA RESULT:      -4.5      1.240      4.024
REMARK  2 active torsions:
REMARK  status: ('A' for Active; 'I' for Inactive)
REMARK    1  A    between atoms: C5_5  and  N8_8 
REMARK    2  A    between atoms: C7_7  and  N8_8 
ROOT
HETATM    1  C1  UNL     1     -34.550   5.136   5.916  1.00 20.00     0.013 C 
HETATM    2  C2  UNL     1     -34.799   5.507   4.802  1.00 20.00    -0.087 C 
HETATM    3  C7  UNL     1     -35.109   5.959   3.443  1.00 20.00     0.364 C 
ENDROOT
BRANCH   3   4
HETATM    4  N8  UNL     1     -33.882   6.218   2.693  1.00 20.00     0.099 N 
HETATM    5  C6  UNL     1     -32.960   5.088   2.814  1.00 20.00     0.311 C 
BRANCH   4   6
HETATM    6  C5  UNL     1     -33.245   7.449   3.161  1.00 20.00     0.223 A 
HETATM    7  C3  UNL     1     -31.752   7.608   3.093  1.00 20.00     0.038 A 
HETATM    8  C4  UNL     1     -32.633   8.412   2.183  1.00 20.00     0.038 A 
ENDBRANCH   4   6
ENDBRANCH   3   4
TORSDOF 2
ENDMDL
MODEL 3
REMARK VINA RESULT:      -4.4      1.186      2.021
REMARK  2 active torsions:
REMARK  status: ('A' for Active; 'I' for Inactive)
REMARK    1  A    between atoms: C5_5  and  N8_8 
REMARK    2  A    between atoms: C7_7  and  N8_8 
ROOT
HETATM    1  C1  UNL     1     -31.687   8.803   2.300  1.00 20.00     0.013 C 
HETATM    2  C2  UNL     1     -32.481   7.903   2.319  1.00 20.00    -0.087 C 
HETATM    3  C7  UNL     1     -33.452   6.805   2.336  1.00 20.00     0.364 C 
ENDROOT
BRANCH   3   4
HETATM    4  N8  UNL     1     -33.368   6.063   3.593  1.00 20.00     0.099 N 
HETATM    5  C6  UNL     1     -33.667   4.648   3.371  1.00 20.00     0.311 C 
BRANCH   4   6
HETATM    6  C5  UNL     1     -34.282   6.629   4.584  1.00 20.00     0.223 A 
HETATM    7  C3  UNL     1     -34.503   5.936   5.900  1.00 20.00     0.038 A 
HETATM    8  C4  UNL     1     -33.752   7.235   5.854  1.00 20.00     0.038 A 
ENDBRANCH   4   6
ENDBRANCH   3   4
TORSDOF 2
ENDMDL
MODEL 4
REMARK VINA RESULT:      -4.4      1.558      4.057
REMARK  2 active torsions:
REMARK  status: ('A' for Active; 'I' for Inactive)
REMARK    1  A    between atoms: C5_5  and  N8_8 
REMARK    2  A    between atoms: C7_7  and  N8_8 
ROOT
HETATM    1  C1  UNL     1     -33.710   7.314   5.449  1.00 20.00     0.013 C 
HETATM    2  C2  UNL     1     -33.490   7.084   4.291  1.00 20.00    -0.087 C 
HETATM    3  C7  UNL     1     -33.226   6.798   2.879  1.00 20.00     0.364 C 
ENDROOT
BRANCH   3   4
HETATM    4  N8  UNL     1     -32.290   7.774   2.322  1.00 20.00     0.099 N 
HETATM    5  C6  UNL     1     -31.458   8.346   3.380  1.00 20.00     0.311 C 
BRANCH   4   6
HETATM    6  C5  UNL     1     -33.012   8.829   1.613  1.00 20.00     0.223 A 
HETATM    7  C3  UNL     1     -32.376  10.174   1.395  1.00 20.00     0.038 A 
HETATM    8  C4  UNL     1     -32.590   9.250   0.232  1.00 20.00     0.038 A 
ENDBRANCH   4   6
ENDBRANCH   3   4
TORSDOF 2
ENDMDL
MODEL 5
REMARK VINA RESULT:      -4.4      0.999      1.787
REMARK  2 active torsions:
REMARK  status: ('A' for Active; 'I' for Inactive)
REMARK    1  A    between atoms: C5_5  and  N8_8 
REMARK    2  A    between atoms: C7_7  and  N8_8 
ROOT
HETATM    1  C1  UNL     1     -32.537   9.138   0.952  1.00 20.00     0.013 C 
HETATM    2  C2  UNL     1     -32.212   8.677   2.011  1.00 20.00    -0.087 C 
HETATM    3  C7  UNL     1     -31.811   8.118   3.305  1.00 20.00     0.364 C 
ENDROOT
BRANCH   3   4
HETATM    4  N8  UNL     1     -32.579   6.910   3.605  1.00 20.00     0.099 N 
HETATM    5  C6  UNL     1     -32.961   6.226   2.370  1.00 20.00     0.311 C 
BRANCH   4   6
HETATM    6  C5  UNL     1     -33.766   7.242   4.394  1.00 20.00     0.223 A 
HETATM    7  C3  UNL     1     -34.507   6.170   5.144  1.00 20.00     0.038 A 
HETATM    8  C4  UNL     1     -33.721   7.203   5.896  1.00 20.00     0.038 A 
ENDBRANCH   4   6
ENDBRANCH   3   4
TORSDOF 2
ENDMDL
MODEL 6
REMARK VINA RESULT:      -4.4      1.140      4.110
REMARK  2 active torsions:
REMARK  status: ('A' for Active; 'I' for Inactive)
REMARK    1  A    between atoms: C5_5  and  N8_8 
REMARK    2  A    between atoms: C7_7  and  N8_8 
ROOT
HETATM    1  C1  UNL     1     -34.682   5.686   5.602  1.00 20.00     0.013 C 
HETATM    2  C2  UNL     1     -33.967   6.539   5.153  1.00 20.00    -0.087 C 
HETATM    3  C7  UNL     1     -33.094   7.583   4.611  1.00 20.00     0.364 C 
ENDROOT
BRANCH   3   4
HETATM    4  N8  UNL     1     -33.100   7.553   3.149  1.00 20.00     0.099 N 
HETATM    5  C6  UNL     1     -32.904   6.186   2.665  1.00 20.00     0.311 C 
BRANCH   4   6
HETATM    6  C5  UNL     1     -32.066   8.438   2.614  1.00 20.00     0.223 A 
HETATM    7  C3  UNL     1     -31.686   8.375   1.161  1.00 20.00     0.038 A 
HETATM    8  C4  UNL     1     -32.429   9.567   1.689  1.00 20.00     0.038 A 
ENDBRANCH   4   6
ENDBRANCH   3   4
TORSDOF 2
ENDMDL
MODEL 7
REMARK VINA RESULT:      -3.7      1.226      3.765
REMARK  2 active torsions:
REMARK  status: ('A' for Active; 'I' for Inactive)
REMARK    1  A    between atoms: C5_5  and  N8_8 
REMARK    2  A    between atoms: C7_7  and  N8_8 
ROOT
HETATM    1  C1  UNL     1     -34.080   3.457   4.166  1.00 20.00     0.013 C 
HETATM    2  C2  UNL     1     -34.353   4.611   4.349  1.00 20.00    -0.087 C 
HETATM    3  C7  UNL     1     -34.693   6.019   4.572  1.00 20.00     0.364 C 
ENDROOT
BRANCH   3   4
HETATM    4  N8  UNL     1     -33.484   6.815   4.777  1.00 20.00     0.099 N 
HETATM    5  C6  UNL     1     -33.595   7.607   6.002  1.00 20.00     0.311 C 
BRANCH   4   6
HETATM    6  C5  UNL     1     -33.242   7.684   3.627  1.00 20.00     0.223 A 
HETATM    7  C3  UNL     1     -31.851   8.159   3.309  1.00 20.00     0.038 A 
HETATM    8  C4  UNL     1     -32.525   7.163   2.412  1.00 20.00     0.038 A 
ENDBRANCH   4   6
ENDBRANCH   3   4
TORSDOF 2
ENDMDL
MODEL 8
REMARK VINA RESULT:      -3.6      2.196      3.530
REMARK  2 active torsions:
REMARK  status: ('A' for Active; 'I' for Inactive)
REMARK    1  A    between atoms: C5_5  and  N8_8 
REMARK    2  A    between atoms: C7_7  and  N8_8 
ROOT
HETATM    1  C1  UNL     1     -33.399   7.796   6.052  1.00 20.00     0.013 C 
HETATM    2  C2  UNL     1     -34.015   6.776   5.915  1.00 20.00    -0.087 C 
HETATM    3  C7  UNL     1     -34.769   5.530   5.752  1.00 20.00     0.364 C 
ENDROOT
BRANCH   3   4
HETATM    4  N8  UNL     1     -34.691   5.056   4.371  1.00 20.00     0.099 N 
HETATM    5  C6  UNL     1     -34.084   3.726   4.321  1.00 20.00     0.311 C 
BRANCH   4   6
HETATM    6  C5  UNL     1     -33.930   5.996   3.549  1.00 20.00     0.223 A 
HETATM    7  C3  UNL     1     -32.966   5.494   2.511  1.00 20.00     0.038 A 
HETATM    8  C4  UNL     1     -34.242   6.159   2.087  1.00 20.00     0.038 A 
ENDBRANCH   4   6
ENDBRANCH   3   4
TORSDOF 2
ENDMDL
MODEL 9
REMARK VINA RESULT:      -3.5      1.396      3.115
REMARK  2 active torsions:
REMARK  status: ('A' for Active; 'I' for Inactive)
REMARK    1  A    between atoms: C5_5  and  N8_8 
REMARK    2  A    between atoms: C7_7  and  N8_8 
ROOT
HETATM    1  C1  UNL     1     -34.065   7.004   6.165  1.00 20.00     0.013 C 
HETATM    2  C2  UNL     1     -33.289   7.485   5.386  1.00 20.00    -0.087 C 
HETATM    3  C7  UNL     1     -32.341   8.076   4.439  1.00 20.00     0.364 C 
ENDROOT
BRANCH   3   4
HETATM    4  N8  UNL     1     -32.340   7.335   3.178  1.00 20.00     0.099 N 
HETATM    5  C6  UNL     1     -32.532   8.246   2.050  1.00 20.00     0.311 C 
BRANCH   4   6
HETATM    6  C5  UNL     1     -33.381   6.307   3.188  1.00 20.00     0.223 A 
HETATM    7  C3  UNL     1     -33.976   5.812   1.900  1.00 20.00     0.038 A 
HETATM    8  C4  UNL     1     -33.084   4.914   2.706  1.00 20.00     0.038 A 
ENDBRANCH   4   6
ENDBRANCH   3   4
TORSDOF 2
ENDMDL
