MODEL 1
REMARK VINA RESULT:      -5.1      0.000      0.000
REMARK  1 active torsions:
REMARK  status: ('A' for Active; 'I' for Inactive)
REMARK    1  A    between atoms: C6_6  and  N8_8 
ROOT
HETATM    1  C1  UNL     1     -32.577   9.489   0.385  1.00 20.00     0.014 C 
HETATM    2  C2  UNL     1     -32.224   9.033   1.438  1.00 20.00    -0.096 C 
HETATM    3  C6  UNL     1     -31.789   8.477   2.722  1.00 20.00     0.243 C 
ENDROOT
BRANCH   3   4
HETATM    4  N8  UNL     1     -32.707   7.480   3.217  1.00 20.00    -0.269 N 
HETATM    5  C4  UNL     1     -33.126   7.334   4.507  1.00 20.00     0.138 A 
HETATM    6  C5  UNL     1     -33.986   6.262   4.504  1.00 20.00     0.070 A 
HETATM    7  C3  UNL     1     -34.013   5.837   3.161  1.00 20.00     0.164 A 
HETATM    8 CL9  UNL     1     -34.834   5.583   5.797  1.00 20.00    -0.081 Cl
HETATM    9  N7  UNL     1     -33.233   6.579   2.370  1.00 20.00    -0.183 NA
ENDBRANCH   3   4
TORSDOF 1
ENDMDL
MODEL 2
REMARK VINA RESULT:      -4.6      2.621      4.380
REMARK  1 active torsions:
REMARK  status: ('A' for Active; 'I' for Inactive)
REMARK    1  A    between atoms: C6_6  and  N8_8 
ROOT
HETATM    1  C1  UNL     1     -34.399   4.171   4.447  1.00 20.00     0.014 C 
HETATM    2  C2  UNL     1     -34.386   5.368   4.536  1.00 20.00    -0.096 C 
HETATM    3  C6  UNL     1     -34.375   6.829   4.647  1.00 20.00     0.243 C 
ENDROOT
BRANCH   3   4
HETATM    4  N8  UNL     1     -33.315   7.421   3.868  1.00 20.00    -0.269 N 
HETATM    5  C4  UNL     1     -33.285   7.554   2.510  1.00 20.00     0.138 A 
HETATM    6  C5  UNL     1     -32.091   8.169   2.220  1.00 20.00     0.070 A 
HETATM    7  C3  UNL     1     -31.480   8.361   3.474  1.00 20.00     0.164 A 
HETATM    8 CL9  UNL     1     -31.467   8.608   0.712  1.00 20.00    -0.081 Cl
HETATM    9  N7  UNL     1     -32.224   7.906   4.485  1.00 20.00    -0.183 NA
ENDBRANCH   3   4
TORSDOF 1
ENDMDL
MODEL 3
REMARK VINA RESULT:      -4.4      2.605      4.412
REMARK  1 active torsions:
REMARK  status: ('A' for Active; 'I' for Inactive)
REMARK    1  A    between atoms: C6_6  and  N8_8 
ROOT
HETATM    1  C1  UNL     1     -34.633   5.714   5.527  1.00 20.00     0.014 C 
HETATM    2  C2  UNL     1     -34.208   5.740   4.404  1.00 20.00    -0.096 C 
HETATM    3  C6  UNL     1     -33.690   5.768   3.033  1.00 20.00     0.243 C 
ENDROOT
BRANCH   3   4
HETATM    4  N8  UNL     1     -33.033   7.016   2.730  1.00 20.00    -0.269 N 
HETATM    5  C4  UNL     1     -33.302   7.838   1.674  1.00 20.00     0.138 A 
HETATM    6  C5  UNL     1     -32.435   8.897   1.793  1.00 20.00     0.070 A 
HETATM    7  C3  UNL     1     -31.689   8.613   2.953  1.00 20.00     0.164 A 
HETATM    8 CL9  UNL     1     -32.274  10.248   0.791  1.00 20.00    -0.081 Cl
HETATM    9  N7  UNL     1     -32.052   7.464   3.530  1.00 20.00    -0.183 NA
ENDBRANCH   3   4
TORSDOF 1
ENDMDL
MODEL 4
REMARK VINA RESULT:      -4.3      2.622      4.276
REMARK  1 active torsions:
REMARK  status: ('A' for Active; 'I' for Inactive)
REMARK    1  A    between atoms: C6_6  and  N8_8 
ROOT
HETATM    1  C1  UNL     1     -34.747   5.028   5.969  1.00 20.00     0.014 C 
HETATM    2  C2  UNL     1     -34.155   6.046   5.734  1.00 20.00    -0.096 C 
HETATM    3  C6  UNL     1     -33.434   7.290   5.452  1.00 20.00     0.243 C 
ENDROOT
BRANCH   3   4
HETATM    4  N8  UNL     1     -33.077   7.402   4.059  1.00 20.00    -0.269 N 
HETATM    5  C4  UNL     1     -32.156   8.256   3.525  1.00 20.00     0.138 A 
HETATM    6  C5  UNL     1     -32.155   8.008   2.173  1.00 20.00     0.070 A 
HETATM    7  C3  UNL     1     -33.111   6.989   2.001  1.00 20.00     0.164 A 
HETATM    8 CL9  UNL     1     -31.230   8.743   0.965  1.00 20.00    -0.081 Cl
HETATM    9  N7  UNL     1     -33.678   6.614   3.151  1.00 20.00    -0.183 NA
ENDBRANCH   3   4
TORSDOF 1
ENDMDL
MODEL 5
REMARK VINA RESULT:      -3.9     10.889     11.164
REMARK  1 active torsions:
REMARK  status: ('A' for Active; 'I' for Inactive)
REMARK    1  A    between atoms: C6_6  and  N8_8 
ROOT
HETATM    1  C1  UNL     1     -34.236  17.184  -1.643  1.00 20.00     0.014 C 
HETATM    2  C2  UNL     1     -33.983  16.502  -2.598  1.00 20.00    -0.096 C 
HETATM    3  C6  UNL     1     -33.670  15.672  -3.765  1.00 20.00     0.243 C 
ENDROOT
BRANCH   3   4
HETATM    4  N8  UNL     1     -34.837  14.993  -4.272  1.00 20.00    -0.269 N 
HETATM    5  C4  UNL     1     -36.109  15.485  -4.310  1.00 20.00     0.138 A 
HETATM    6  C5  UNL     1     -36.878  14.494  -4.871  1.00 20.00     0.070 A 
HETATM    7  C3  UNL     1     -35.971  13.450  -5.133  1.00 20.00     0.164 A 
HETATM    8 CL9  UNL     1     -38.538  14.496  -5.186  1.00 20.00    -0.081 Cl
HETATM    9  N7  UNL     1     -34.721  13.750  -4.769  1.00 20.00    -0.183 NA
ENDBRANCH   3   4
TORSDOF 1
ENDMDL
MODEL 6
REMARK VINA RESULT:      -3.7     10.861     11.342
REMARK  1 active torsions:
REMARK  status: ('A' for Active; 'I' for Inactive)
REMARK    1  A    between atoms: C6_6  and  N8_8 
ROOT
HETATM    1  C1  UNL     1     -38.530  14.715  -5.175  1.00 20.00     0.014 C 
HETATM    2  C2  UNL     1     -37.466  14.162  -5.246  1.00 20.00    -0.096 C 
HETATM    3  C6  UNL     1     -36.170  13.483  -5.334  1.00 20.00     0.243 C 
ENDROOT
BRANCH   3   4
HETATM    4  N8  UNL     1     -35.111  14.262  -4.741  1.00 20.00    -0.269 N 
HETATM    5  C4  UNL     1     -35.257  15.262  -3.824  1.00 20.00     0.138 A 
HETATM    6  C5  UNL     1     -33.987  15.710  -3.552  1.00 20.00     0.070 A 
HETATM    7  C3  UNL     1     -33.152  14.912  -4.359  1.00 20.00     0.164 A 
HETATM    8 CL9  UNL     1     -33.502  16.937  -2.498  1.00 20.00    -0.081 Cl
HETATM    9  N7  UNL     1     -33.835  14.025  -5.087  1.00 20.00    -0.183 NA
ENDBRANCH   3   4
TORSDOF 1
ENDMDL
MODEL 7
REMARK VINA RESULT:      -3.7     10.784     11.378
REMARK  1 active torsions:
REMARK  status: ('A' for Active; 'I' for Inactive)
REMARK    1  A    between atoms: C6_6  and  N8_8 
ROOT
HETATM    1  C1  UNL     1     -34.407  13.781  -7.571  1.00 20.00     0.014 C 
HETATM    2  C2  UNL     1     -35.052  13.666  -6.565  1.00 20.00    -0.096 C 
HETATM    3  C6  UNL     1     -35.842  13.523  -5.339  1.00 20.00     0.243 C 
ENDROOT
BRANCH   3   4
HETATM    4  N8  UNL     1     -35.625  14.618  -4.425  1.00 20.00    -0.269 N 
HETATM    5  C4  UNL     1     -34.440  14.965  -3.845  1.00 20.00     0.138 A 
HETATM    6  C5  UNL     1     -34.714  16.059  -3.059  1.00 20.00     0.070 A 
HETATM    7  C3  UNL     1     -36.092  16.286  -3.239  1.00 20.00     0.164 A 
HETATM    8 CL9  UNL     1     -33.660  16.950  -2.085  1.00 20.00    -0.081 Cl
HETATM    9  N7  UNL     1     -36.654  15.407  -4.074  1.00 20.00    -0.183 NA
ENDBRANCH   3   4
TORSDOF 1
ENDMDL
MODEL 8
REMARK VINA RESULT:      -3.6     11.255     11.763
REMARK  1 active torsions:
REMARK  status: ('A' for Active; 'I' for Inactive)
REMARK    1  A    between atoms: C6_6  and  N8_8 
ROOT
HETATM    1  C1  UNL     1     -32.943  17.789  -1.520  1.00 20.00     0.014 C 
HETATM    2  C2  UNL     1     -33.776  17.103  -2.047  1.00 20.00    -0.096 C 
HETATM    3  C6  UNL     1     -34.795  16.266  -2.687  1.00 20.00     0.243 C 
ENDROOT
BRANCH   3   4
HETATM    4  N8  UNL     1     -34.365  15.783  -3.976  1.00 20.00    -0.269 N 
HETATM    5  C4  UNL     1     -34.887  14.724  -4.659  1.00 20.00     0.138 A 
HETATM    6  C5  UNL     1     -34.167  14.639  -5.827  1.00 20.00     0.070 A 
HETATM    7  C3  UNL     1     -33.237  15.694  -5.745  1.00 20.00     0.164 A 
HETATM    8 CL9  UNL     1     -34.333  13.533  -7.093  1.00 20.00    -0.081 Cl
HETATM    9  N7  UNL     1     -33.355  16.397  -4.615  1.00 20.00    -0.183 NA
ENDBRANCH   3   4
TORSDOF 1
ENDMDL
MODEL 9
REMARK VINA RESULT:      -3.6     10.827     11.068
REMARK  1 active torsions:
REMARK  status: ('A' for Active; 'I' for Inactive)
REMARK    1  A    between atoms: C6_6  and  N8_8 
ROOT
HETATM    1  C1  UNL     1     -35.379  17.282  -0.529  1.00 20.00     0.014 C 
HETATM    2  C2  UNL     1     -34.587  17.136  -1.420  1.00 20.00    -0.096 C 
HETATM    3  C6  UNL     1     -33.618  16.963  -2.506  1.00 20.00     0.243 C 
ENDROOT
BRANCH   3   4
HETATM    4  N8  UNL     1     -34.012  15.917  -3.418  1.00 20.00    -0.269 N 
HETATM    5  C4  UNL     1     -35.285  15.496  -3.667  1.00 20.00     0.138 A 
HETATM    6  C5  UNL     1     -35.173  14.490  -4.596  1.00 20.00     0.070 A 
HETATM    7  C3  UNL     1     -33.789  14.386  -4.837  1.00 20.00     0.164 A 
HETATM    8 CL9  UNL     1     -36.396  13.566  -5.307  1.00 20.00    -0.081 Cl
HETATM    9  N7  UNL     1     -33.075  15.257  -4.119  1.00 20.00    -0.183 NA
ENDBRANCH   3   4
TORSDOF 1
ENDMDL
