MODEL 1
REMARK VINA RESULT:      -5.6      0.000      0.000
REMARK  3 active torsions:
REMARK  status: ('A' for Active; 'I' for Inactive)
REMARK    1  A    between atoms: C6_6  and  N11_11 
REMARK    2  A    between atoms: C8_8  and  C9_9 
REMARK    3  A    between atoms: C9_9  and  N11_11 
ROOT
HETATM    1  C1  UNL     1     -32.371   9.567   1.397  1.00 20.00     0.060 C 
HETATM    2  C8  UNL     1     -31.760   8.263   1.695  1.00 20.00     0.153 C 
HETATM    3  N10 UNL     1     -32.852  10.596   1.159  1.00 20.00    -0.197 NA
ENDROOT
BRANCH   2   4
HETATM    4  C9  UNL     1     -32.309   7.658   2.983  1.00 20.00     0.284 C 
BRANCH   4   5
HETATM    5  N11 UNL     1     -32.870   6.341   2.737  1.00 20.00     0.093 N 
HETATM    6  H27 UNL     1     -32.152   5.632   2.865  1.00 20.00     0.316 HD
BRANCH   5   7
HETATM    7  C6  UNL     1     -33.951   6.071   3.657  1.00 20.00     0.154 C 
HETATM    8  C4  UNL     1     -33.782   6.867   4.956  1.00 20.00     0.041 C 
HETATM    9  C2  UNL     1     -34.565   6.084   6.007  1.00 20.00     0.003 C 
HETATM   10  C3  UNL     1     -34.637   4.644   5.500  1.00 20.00     0.003 C 
HETATM   11  C5  UNL     1     -33.895   4.626   4.167  1.00 20.00     0.041 C 
HETATM   12  C7  UNL     1     -35.286   6.380   2.971  1.00 20.00     0.049 C 
ENDBRANCH   5   7
ENDBRANCH   4   5
ENDBRANCH   2   4
TORSDOF 3
ENDMDL
MODEL 2
REMARK VINA RESULT:      -5.5      1.232      1.849
REMARK  3 active torsions:
REMARK  status: ('A' for Active; 'I' for Inactive)
REMARK    1  A    between atoms: C6_6  and  N11_11 
REMARK    2  A    between atoms: C8_8  and  C9_9 
REMARK    3  A    between atoms: C9_9  and  N11_11 
ROOT
HETATM    1  C1  UNL     1     -32.803   9.362   0.242  1.00 20.00     0.060 C 
HETATM    2  C8  UNL     1     -32.131   9.585   1.531  1.00 20.00     0.153 C 
HETATM    3  N10 UNL     1     -33.332   9.187  -0.776  1.00 20.00    -0.197 NA
ENDROOT
BRANCH   2   4
HETATM    4  C9  UNL     1     -32.154   8.338   2.409  1.00 20.00     0.284 C 
BRANCH   4   5
HETATM    5  N11 UNL     1     -33.387   7.594   2.219  1.00 20.00     0.093 N 
HETATM    6  H27 UNL     1     -33.375   7.135   1.312  1.00 20.00     0.316 HD
BRANCH   5   7
HETATM    7  C6  UNL     1     -33.535   6.586   3.243  1.00 20.00     0.154 C 
HETATM    8  C4  UNL     1     -34.998   6.150   3.382  1.00 20.00     0.041 C 
HETATM    9  C2  UNL     1     -35.118   5.602   4.801  1.00 20.00     0.003 C 
HETATM   10  C3  UNL     1     -33.994   6.255   5.606  1.00 20.00     0.003 C 
HETATM   11  C5  UNL     1     -33.249   7.165   4.634  1.00 20.00     0.041 C 
HETATM   12  C7  UNL     1     -32.618   5.402   2.922  1.00 20.00     0.049 C 
ENDBRANCH   5   7
ENDBRANCH   4   5
ENDBRANCH   2   4
TORSDOF 3
ENDMDL
MODEL 3
REMARK VINA RESULT:      -4.8      1.835      4.759
REMARK  3 active torsions:
REMARK  status: ('A' for Active; 'I' for Inactive)
REMARK    1  A    between atoms: C6_6  and  N11_11 
REMARK    2  A    between atoms: C8_8  and  C9_9 
REMARK    3  A    between atoms: C9_9  and  N11_11 
ROOT
HETATM    1  C1  UNL     1     -34.501   4.774   5.179  1.00 20.00     0.060 C 
HETATM    2  C8  UNL     1     -34.420   5.973   6.027  1.00 20.00     0.153 C 
HETATM    3  N10 UNL     1     -34.566   3.827   4.511  1.00 20.00    -0.197 NA
ENDROOT
BRANCH   2   4
HETATM    4  C9  UNL     1     -33.867   7.173   5.267  1.00 20.00     0.284 C 
BRANCH   4   5
HETATM    5  N11 UNL     1     -34.257   7.124   3.868  1.00 20.00     0.093 N 
HETATM    6  H27 UNL     1     -34.914   7.874   3.668  1.00 20.00     0.316 HD
BRANCH   5   7
HETATM    7  C6  UNL     1     -33.103   7.283   3.014  1.00 20.00     0.154 C 
HETATM    8  C4  UNL     1     -31.945   7.946   3.768  1.00 20.00     0.041 C 
HETATM    9  C2  UNL     1     -31.080   8.588   2.687  1.00 20.00     0.003 C 
HETATM   10  C3  UNL     1     -31.999   8.817   1.487  1.00 20.00     0.003 C 
HETATM   11  C5  UNL     1     -33.375   8.302   1.901  1.00 20.00     0.041 C 
HETATM   12  C7  UNL     1     -32.703   5.916   2.447  1.00 20.00     0.049 C 
ENDBRANCH   5   7
ENDBRANCH   4   5
ENDBRANCH   2   4
TORSDOF 3
ENDMDL
MODEL 4
REMARK VINA RESULT:      -4.5     11.220     11.951
REMARK  3 active torsions:
REMARK  status: ('A' for Active; 'I' for Inactive)
REMARK    1  A    between atoms: C6_6  and  N11_11 
REMARK    2  A    between atoms: C8_8  and  C9_9 
REMARK    3  A    between atoms: C9_9  and  N11_11 
ROOT
HETATM    1  C1  UNL     1     -36.694  14.009  -4.989  1.00 20.00     0.060 C 
HETATM    2  C8  UNL     1     -35.223  13.984  -4.984  1.00 20.00     0.153 C 
HETATM    3  N10 UNL     1     -37.854  14.025  -4.994  1.00 20.00    -0.197 NA
ENDROOT
BRANCH   2   4
HETATM    4  C9  UNL     1     -34.641  14.955  -3.961  1.00 20.00     0.284 C 
BRANCH   4   5
HETATM    5  N11 UNL     1     -35.681  15.799  -3.399  1.00 20.00     0.093 N 
HETATM    6  H27 UNL     1     -36.225  15.268  -2.723  1.00 20.00     0.316 HD
BRANCH   5   7
HETATM    7  C6  UNL     1     -35.101  16.940  -2.728  1.00 20.00     0.154 C 
HETATM    8  C4  UNL     1     -33.569  16.871  -2.747  1.00 20.00     0.041 C 
HETATM    9  C2  UNL     1     -33.118  17.719  -1.561  1.00 20.00     0.003 C 
HETATM   10  C3  UNL     1     -34.291  17.741  -0.582  1.00 20.00     0.003 C 
HETATM   11  C5  UNL     1     -35.396  16.906  -1.224  1.00 20.00     0.041 C 
HETATM   12  C7  UNL     1     -35.620  18.226  -3.380  1.00 20.00     0.049 C 
ENDBRANCH   5   7
ENDBRANCH   4   5
ENDBRANCH   2   4
TORSDOF 3
ENDMDL
MODEL 5
REMARK VINA RESULT:      -4.5     11.312     12.483
REMARK  3 active torsions:
REMARK  status: ('A' for Active; 'I' for Inactive)
REMARK    1  A    between atoms: C6_6  and  N11_11 
REMARK    2  A    between atoms: C8_8  and  C9_9 
REMARK    3  A    between atoms: C9_9  and  N11_11 
ROOT
HETATM    1  C1  UNL     1     -34.604  13.404  -7.278  1.00 20.00     0.060 C 
HETATM    2  C8  UNL     1     -33.956  14.591  -7.857  1.00 20.00     0.153 C 
HETATM    3  N10 UNL     1     -35.114  12.466  -6.823  1.00 20.00    -0.197 NA
ENDROOT
BRANCH   2   4
HETATM    4  C9  UNL     1     -33.821  15.719  -6.840  1.00 20.00     0.284 C 
BRANCH   4   5
HETATM    5  N11 UNL     1     -34.782  15.562  -5.763  1.00 20.00     0.093 N 
HETATM    6  H27 UNL     1     -35.162  14.619  -5.776  1.00 20.00     0.316 HD
BRANCH   5   7
HETATM    7  C6  UNL     1     -34.150  15.785  -4.483  1.00 20.00     0.154 C 
HETATM    8  C4  UNL     1     -35.187  15.818  -3.353  1.00 20.00     0.041 C 
HETATM    9  C2  UNL     1     -34.533  16.625  -2.236  1.00 20.00     0.003 C 
HETATM   10  C3  UNL     1     -33.483  17.510  -2.907  1.00 20.00     0.003 C 
HETATM   11  C5  UNL     1     -33.553  17.194  -4.399  1.00 20.00     0.041 C 
HETATM   12  C7  UNL     1     -33.090  14.704  -4.249  1.00 20.00     0.049 C 
ENDBRANCH   5   7
ENDBRANCH   4   5
ENDBRANCH   2   4
TORSDOF 3
ENDMDL
MODEL 6
REMARK VINA RESULT:      -4.4      1.631      5.109
REMARK  3 active torsions:
REMARK  status: ('A' for Active; 'I' for Inactive)
REMARK    1  A    between atoms: C6_6  and  N11_11 
REMARK    2  A    between atoms: C8_8  and  C9_9 
REMARK    3  A    between atoms: C9_9  and  N11_11 
ROOT
HETATM    1  C1  UNL     1     -34.415   5.008   4.743  1.00 20.00     0.060 C 
HETATM    2  C8  UNL     1     -34.421   6.419   5.161  1.00 20.00     0.153 C 
HETATM    3  N10 UNL     1     -34.413   3.896   4.414  1.00 20.00    -0.197 NA
ENDROOT
BRANCH   2   4
HETATM    4  C9  UNL     1     -33.285   7.208   4.518  1.00 20.00     0.284 C 
BRANCH   4   5
HETATM    5  N11 UNL     1     -33.433   7.244   3.074  1.00 20.00     0.093 N 
HETATM    6  H27 UNL     1     -34.393   7.475   2.832  1.00 20.00     0.316 HD
BRANCH   5   7
HETATM    7  C6  UNL     1     -32.561   8.243   2.500  1.00 20.00     0.154 C 
HETATM    8  C4  UNL     1     -33.323   9.543   2.215  1.00 20.00     0.041 C 
HETATM    9  C2  UNL     1     -32.524  10.241   1.118  1.00 20.00     0.003 C 
HETATM   10  C3  UNL     1     -31.741   9.144   0.398  1.00 20.00     0.003 C 
HETATM   11  C5  UNL     1     -32.104   7.835   1.094  1.00 20.00     0.041 C 
HETATM   12  C7  UNL     1     -31.372   8.475   3.438  1.00 20.00     0.049 C 
ENDBRANCH   5   7
ENDBRANCH   4   5
ENDBRANCH   2   4
TORSDOF 3
ENDMDL
MODEL 7
REMARK VINA RESULT:      -4.4     11.270     12.249
REMARK  3 active torsions:
REMARK  status: ('A' for Active; 'I' for Inactive)
REMARK    1  A    between atoms: C6_6  and  N11_11 
REMARK    2  A    between atoms: C8_8  and  C9_9 
REMARK    3  A    between atoms: C9_9  and  N11_11 
ROOT
HETATM    1  C1  UNL     1     -36.337  13.613  -5.325  1.00 20.00     0.060 C 
HETATM    2  C8  UNL     1     -37.338  14.573  -4.835  1.00 20.00     0.153 C 
HETATM    3  N10 UNL     1     -35.549  12.855  -5.712  1.00 20.00    -0.197 NA
ENDROOT
BRANCH   2   4
HETATM    4  C9  UNL     1     -36.691  15.834  -4.271  1.00 20.00     0.284 C 
BRANCH   4   5
HETATM    5  N11 UNL     1     -35.395  16.068  -4.883  1.00 20.00     0.093 N 
HETATM    6  H27 UNL     1     -35.441  16.887  -5.484  1.00 20.00     0.316 HD
BRANCH   5   7
HETATM    7  C6  UNL     1     -34.389  16.296  -3.871  1.00 20.00     0.154 C 
HETATM    8  C4  UNL     1     -35.012  16.314  -2.470  1.00 20.00     0.041 C 
HETATM    9  C2  UNL     1     -34.044  17.128  -1.615  1.00 20.00     0.003 C 
HETATM   10  C3  UNL     1     -33.274  18.027  -2.581  1.00 20.00     0.003 C 
HETATM   11  C5  UNL     1     -33.813  17.713  -3.975  1.00 20.00     0.041 C 
HETATM   12  C7  UNL     1     -33.298  15.228  -3.993  1.00 20.00     0.049 C 
ENDBRANCH   5   7
ENDBRANCH   4   5
ENDBRANCH   2   4
TORSDOF 3
ENDMDL
MODEL 8
REMARK VINA RESULT:      -4.3     11.458     12.116
REMARK  3 active torsions:
REMARK  status: ('A' for Active; 'I' for Inactive)
REMARK    1  A    between atoms: C6_6  and  N11_11 
REMARK    2  A    between atoms: C8_8  and  C9_9 
REMARK    3  A    between atoms: C9_9  and  N11_11 
ROOT
HETATM    1  C1  UNL     1     -35.287  13.627  -5.955  1.00 20.00     0.060 C 
HETATM    2  C8  UNL     1     -34.509  14.553  -6.792  1.00 20.00     0.153 C 
HETATM    3  N10 UNL     1     -35.901  12.895  -5.296  1.00 20.00    -0.197 NA
ENDROOT
BRANCH   2   4
HETATM    4  C9  UNL     1     -33.859  15.658  -5.967  1.00 20.00     0.284 C 
BRANCH   4   5
HETATM    5  N11 UNL     1     -33.851  15.313  -4.556  1.00 20.00     0.093 N 
HETATM    6  H27 UNL     1     -32.902  15.102  -4.259  1.00 20.00     0.316 HD
BRANCH   5   7
HETATM    7  C6  UNL     1     -34.346  16.414  -3.762  1.00 20.00     0.154 C 
HETATM    8  C4  UNL     1     -33.400  16.724  -2.596  1.00 20.00     0.041 C 
HETATM    9  C2  UNL     1     -34.269  17.418  -1.551  1.00 20.00     0.003 C 
HETATM   10  C3  UNL     1     -35.704  16.971  -1.826  1.00 20.00     0.003 C 
HETATM   11  C5  UNL     1     -35.634  16.028  -3.024  1.00 20.00     0.041 C 
HETATM   12  C7  UNL     1     -34.553  17.635  -4.665  1.00 20.00     0.049 C 
ENDBRANCH   5   7
ENDBRANCH   4   5
ENDBRANCH   2   4
TORSDOF 3
ENDMDL
MODEL 9
REMARK VINA RESULT:      -4.2     10.919     12.010
REMARK  3 active torsions:
REMARK  status: ('A' for Active; 'I' for Inactive)
REMARK    1  A    between atoms: C6_6  and  N11_11 
REMARK    2  A    between atoms: C8_8  and  C9_9 
REMARK    3  A    between atoms: C9_9  and  N11_11 
ROOT
HETATM    1  C1  UNL     1     -33.315  17.793  -1.382  1.00 20.00     0.060 C 
HETATM    2  C8  UNL     1     -34.596  17.071  -1.414  1.00 20.00     0.153 C 
HETATM    3  N10 UNL     1     -32.305  18.362  -1.354  1.00 20.00    -0.197 NA
ENDROOT
BRANCH   2   4
HETATM    4  C9  UNL     1     -34.773  16.283  -2.708  1.00 20.00     0.284 C 
BRANCH   4   5
HETATM    5  N11 UNL     1     -33.527  16.222  -3.451  1.00 20.00     0.093 N 
HETATM    6  H27 UNL     1     -32.760  16.010  -2.818  1.00 20.00     0.316 HD
BRANCH   5   7
HETATM    7  C6  UNL     1     -33.589  15.190  -4.461  1.00 20.00     0.154 C 
HETATM    8  C4  UNL     1     -33.435  15.783  -5.866  1.00 20.00     0.041 C 
HETATM    9  C2  UNL     1     -34.099  14.774  -6.799  1.00 20.00     0.003 C 
HETATM   10  C3  UNL     1     -35.098  13.996  -5.944  1.00 20.00     0.003 C 
HETATM   11  C5  UNL     1     -34.990  14.572  -4.534  1.00 20.00     0.041 C 
HETATM   12  C7  UNL     1     -32.517  14.134  -4.170  1.00 20.00     0.049 C 
ENDBRANCH   5   7
ENDBRANCH   4   5
ENDBRANCH   2   4
TORSDOF 3
ENDMDL
