MODEL 1
REMARK VINA RESULT:      -5.6      0.000      0.000
REMARK  4 active torsions:
REMARK  status: ('A' for Active; 'I' for Inactive)
REMARK    1  A    between atoms: C6_6  and  N10_10 
REMARK    2  A    between atoms: C7_7  and  C8_8 
REMARK    3  A    between atoms: C7_7  and  C9_9 
REMARK    4  A    between atoms: C8_8  and  N10_10 
ROOT
HETATM    1  C1  UNL     1     -32.562  10.643   0.887  1.00 20.00     0.013 C 
HETATM    2  C2  UNL     1     -32.414   9.481   1.151  1.00 20.00    -0.087 C 
HETATM    3  C6  UNL     1     -32.231   8.063   1.469  1.00 20.00     0.364 C 
ENDROOT
BRANCH   3   4
HETATM    4  N10 UNL     1     -32.587   7.795   2.872  1.00 20.00     0.095 N 
HETATM    5  C5  UNL     1     -31.476   8.202   3.746  1.00 20.00     0.310 C 
BRANCH   4   6
HETATM    6  C8  UNL     1     -32.932   6.414   3.070  1.00 20.00     0.273 C 
BRANCH   6   7
HETATM    7  C7  UNL     1     -34.427   6.212   3.303  1.00 20.00     0.034 C 
BRANCH   7   8
HETATM    8  C9  UNL     1     -34.806   5.729   4.718  1.00 20.00    -0.021 C 
HETATM    9  C3  UNL     1     -34.129   6.618   5.765  1.00 20.00     0.009 C 
HETATM   10  C4  UNL     1     -34.424   4.268   4.958  1.00 20.00     0.009 C 
ENDBRANCH   7   8
ENDBRANCH   6   7
ENDBRANCH   4   6
ENDBRANCH   3   4
TORSDOF 4
ENDMDL
MODEL 2
REMARK VINA RESULT:      -5.4      0.941      5.151
REMARK  4 active torsions:
REMARK  status: ('A' for Active; 'I' for Inactive)
REMARK    1  A    between atoms: C6_6  and  N10_10 
REMARK    2  A    between atoms: C7_7  and  C8_8 
REMARK    3  A    between atoms: C7_7  and  C9_9 
REMARK    4  A    between atoms: C8_8  and  N10_10 
ROOT
HETATM    1  C1  UNL     1     -34.778   5.113   5.529  1.00 20.00     0.013 C 
HETATM    2  C2  UNL     1     -34.176   6.110   5.239  1.00 20.00    -0.087 C 
HETATM    3  C6  UNL     1     -33.439   7.327   4.889  1.00 20.00     0.364 C 
ENDROOT
BRANCH   3   4
HETATM    4  N10 UNL     1     -33.215   7.399   3.435  1.00 20.00     0.095 N 
HETATM    5  C5  UNL     1     -33.233   6.041   2.869  1.00 20.00     0.310 C 
BRANCH   4   6
HETATM    6  C8  UNL     1     -31.988   8.079   3.128  1.00 20.00     0.273 C 
BRANCH   6   7
HETATM    7  C7  UNL     1     -31.855   8.406   1.643  1.00 20.00     0.034 C 
BRANCH   7   8
HETATM    8  C9  UNL     1     -32.885   9.420   1.104  1.00 20.00    -0.021 C 
HETATM    9  C3  UNL     1     -32.980   9.300  -0.419  1.00 20.00     0.009 C 
HETATM   10  C4  UNL     1     -32.541  10.860   1.487  1.00 20.00     0.009 C 
ENDBRANCH   7   8
ENDBRANCH   6   7
ENDBRANCH   4   6
ENDBRANCH   3   4
TORSDOF 4
ENDMDL
MODEL 3
REMARK VINA RESULT:      -5.3      0.876      1.411
REMARK  4 active torsions:
REMARK  status: ('A' for Active; 'I' for Inactive)
REMARK    1  A    between atoms: C6_6  and  N10_10 
REMARK    2  A    between atoms: C7_7  and  C8_8 
REMARK    3  A    between atoms: C7_7  and  C9_9 
REMARK    4  A    between atoms: C8_8  and  N10_10 
ROOT
HETATM    1  C1  UNL     1     -33.291   9.591  -0.390  1.00 20.00     0.013 C 
HETATM    2  C2  UNL     1     -32.538   9.109   0.412  1.00 20.00    -0.087 C 
HETATM    3  C6  UNL     1     -31.615   8.524   1.387  1.00 20.00     0.364 C 
ENDROOT
BRANCH   3   4
HETATM    4  N10 UNL     1     -32.317   8.204   2.641  1.00 20.00     0.095 N 
HETATM    5  C5  UNL     1     -31.417   8.441   3.781  1.00 20.00     0.310 C 
BRANCH   4   6
HETATM    6  C8  UNL     1     -32.812   6.856   2.634  1.00 20.00     0.273 C 
BRANCH   6   7
HETATM    7  C7  UNL     1     -34.073   6.691   3.478  1.00 20.00     0.034 C 
BRANCH   7   8
HETATM    8  C9  UNL     1     -33.846   6.082   4.877  1.00 20.00    -0.021 C 
HETATM    9  C3  UNL     1     -34.853   4.953   5.118  1.00 20.00     0.009 C 
HETATM   10  C4  UNL     1     -33.962   7.122   5.993  1.00 20.00     0.009 C 
ENDBRANCH   7   8
ENDBRANCH   6   7
ENDBRANCH   4   6
ENDBRANCH   3   4
TORSDOF 4
ENDMDL
MODEL 4
REMARK VINA RESULT:      -5.2      1.051      4.961
REMARK  4 active torsions:
REMARK  status: ('A' for Active; 'I' for Inactive)
REMARK    1  A    between atoms: C6_6  and  N10_10 
REMARK    2  A    between atoms: C7_7  and  C8_8 
REMARK    3  A    between atoms: C7_7  and  C9_9 
REMARK    4  A    between atoms: C8_8  and  N10_10 
ROOT
HETATM    1  C1  UNL     1     -34.401   4.271   4.419  1.00 20.00     0.013 C 
HETATM    2  C2  UNL     1     -34.085   5.227   3.763  1.00 20.00    -0.087 C 
HETATM    3  C6  UNL     1     -33.703   6.391   2.962  1.00 20.00     0.364 C 
ENDROOT
BRANCH   3   4
HETATM    4  N10 UNL     1     -32.738   7.231   3.691  1.00 20.00     0.095 N 
HETATM    5  C5  UNL     1     -33.227   7.462   5.060  1.00 20.00     0.310 C 
BRANCH   4   6
HETATM    6  C8  UNL     1     -32.497   8.468   3.004  1.00 20.00     0.273 C 
BRANCH   6   7
HETATM    7  C7  UNL     1     -31.976   8.258   1.584  1.00 20.00     0.034 C 
BRANCH   7   8
HETATM    8  C9  UNL     1     -32.147   9.466   0.641  1.00 20.00    -0.021 C 
HETATM    9  C3  UNL     1     -32.698  10.660   1.426  1.00 20.00     0.009 C 
HETATM   10  C4  UNL     1     -33.066   9.158  -0.542  1.00 20.00     0.009 C 
ENDBRANCH   7   8
ENDBRANCH   6   7
ENDBRANCH   4   6
ENDBRANCH   3   4
TORSDOF 4
ENDMDL
MODEL 5
REMARK VINA RESULT:      -4.9      1.245      4.506
REMARK  4 active torsions:
REMARK  status: ('A' for Active; 'I' for Inactive)
REMARK    1  A    between atoms: C6_6  and  N10_10 
REMARK    2  A    between atoms: C7_7  and  C8_8 
REMARK    3  A    between atoms: C7_7  and  C9_9 
REMARK    4  A    between atoms: C8_8  and  N10_10 
ROOT
HETATM    1  C1  UNL     1     -33.670   7.237   6.132  1.00 20.00     0.013 C 
HETATM    2  C2  UNL     1     -34.294   6.736   5.236  1.00 20.00    -0.087 C 
HETATM    3  C6  UNL     1     -35.058   6.129   4.144  1.00 20.00     0.364 C 
ENDROOT
BRANCH   3   4
HETATM    4  N10 UNL     1     -34.220   5.187   3.384  1.00 20.00     0.095 N 
HETATM    5  C5  UNL     1     -33.948   3.998   4.209  1.00 20.00     0.310 C 
BRANCH   4   6
HETATM    6  C8  UNL     1     -33.003   5.808   2.942  1.00 20.00     0.273 C 
BRANCH   6   7
HETATM    7  C7  UNL     1     -33.250   7.124   2.209  1.00 20.00     0.034 C 
BRANCH   7   8
HETATM    8  C9  UNL     1     -32.018   8.043   2.085  1.00 20.00    -0.021 C 
HETATM    9  C3  UNL     1     -31.453   8.339   3.478  1.00 20.00     0.009 C 
HETATM   10  C4  UNL     1     -32.339   9.357   1.370  1.00 20.00     0.009 C 
ENDBRANCH   7   8
ENDBRANCH   6   7
ENDBRANCH   4   6
ENDBRANCH   3   4
TORSDOF 4
ENDMDL
MODEL 6
REMARK VINA RESULT:      -4.0      1.078      2.746
REMARK  4 active torsions:
REMARK  status: ('A' for Active; 'I' for Inactive)
REMARK    1  A    between atoms: C6_6  and  N10_10 
REMARK    2  A    between atoms: C7_7  and  C8_8 
REMARK    3  A    between atoms: C7_7  and  C9_9 
REMARK    4  A    between atoms: C8_8  and  N10_10 
ROOT
HETATM    1  C1  UNL     1     -33.477   7.628   5.821  1.00 20.00     0.013 C 
HETATM    2  C2  UNL     1     -32.679   7.912   4.970  1.00 20.00    -0.087 C 
HETATM    3  C6  UNL     1     -31.702   8.260   3.936  1.00 20.00     0.364 C 
ENDROOT
BRANCH   3   4
HETATM    4  N10 UNL     1     -32.078   7.663   2.643  1.00 20.00     0.095 N 
HETATM    5  C5  UNL     1     -32.077   8.704   1.604  1.00 20.00     0.310 C 
BRANCH   4   6
HETATM    6  C8  UNL     1     -33.351   7.002   2.723  1.00 20.00     0.273 C 
BRANCH   6   7
HETATM    7  C7  UNL     1     -33.216   5.486   2.841  1.00 20.00     0.034 C 
BRANCH   7   8
HETATM    8  C9  UNL     1     -34.406   4.777   3.520  1.00 20.00    -0.021 C 
HETATM    9  C3  UNL     1     -35.523   5.789   3.790  1.00 20.00     0.009 C 
HETATM   10  C4  UNL     1     -34.007   4.090   4.827  1.00 20.00     0.009 C 
ENDBRANCH   7   8
ENDBRANCH   6   7
ENDBRANCH   4   6
ENDBRANCH   3   4
TORSDOF 4
ENDMDL
MODEL 7
REMARK VINA RESULT:      -3.9     10.460     11.493
REMARK  4 active torsions:
REMARK  status: ('A' for Active; 'I' for Inactive)
REMARK    1  A    between atoms: C6_6  and  N10_10 
REMARK    2  A    between atoms: C7_7  and  C8_8 
REMARK    3  A    between atoms: C7_7  and  C9_9 
REMARK    4  A    between atoms: C8_8  and  N10_10 
ROOT
HETATM    1  C1  UNL     1     -33.174  17.812  -1.219  1.00 20.00     0.013 C 
HETATM    2  C2  UNL     1     -33.684  17.120  -2.058  1.00 20.00    -0.087 C 
HETATM    3  C6  UNL     1     -34.309  16.276  -3.078  1.00 20.00     0.364 C 
ENDROOT
BRANCH   3   4
HETATM    4  N10 UNL     1     -33.398  16.075  -4.217  1.00 20.00     0.095 N 
HETATM    5  C5  UNL     1     -33.711  17.051  -5.273  1.00 20.00     0.310 C 
BRANCH   4   6
HETATM    6  C8  UNL     1     -33.467  14.728  -4.711  1.00 20.00     0.273 C 
BRANCH   6   7
HETATM    7  C7  UNL     1     -34.658  13.958  -4.146  1.00 20.00     0.034 C 
BRANCH   7   8
HETATM    8  C9  UNL     1     -35.712  13.531  -5.189  1.00 20.00    -0.021 C 
HETATM    9  C3  UNL     1     -35.127  13.665  -6.598  1.00 20.00     0.009 C 
HETATM   10  C4  UNL     1     -37.000  14.350  -5.086  1.00 20.00     0.009 C 
ENDBRANCH   7   8
ENDBRANCH   6   7
ENDBRANCH   4   6
ENDBRANCH   3   4
TORSDOF 4
ENDMDL
MODEL 8
REMARK VINA RESULT:      -3.8     10.849     11.718
REMARK  4 active torsions:
REMARK  status: ('A' for Active; 'I' for Inactive)
REMARK    1  A    between atoms: C6_6  and  N10_10 
REMARK    2  A    between atoms: C7_7  and  C8_8 
REMARK    3  A    between atoms: C7_7  and  C9_9 
REMARK    4  A    between atoms: C8_8  and  N10_10 
ROOT
HETATM    1  C1  UNL     1     -34.351  13.891  -7.557  1.00 20.00     0.013 C 
HETATM    2  C2  UNL     1     -35.041  13.696  -6.593  1.00 20.00    -0.087 C 
HETATM    3  C6  UNL     1     -35.882  13.452  -5.419  1.00 20.00     0.364 C 
ENDROOT
BRANCH   3   4
HETATM    4  N10 UNL     1     -35.871  14.620  -4.522  1.00 20.00     0.095 N 
HETATM    5  C5  UNL     1     -36.399  15.792  -5.238  1.00 20.00     0.310 C 
BRANCH   4   6
HETATM    6  C8  UNL     1     -34.556  14.870  -4.003  1.00 20.00     0.273 C 
BRANCH   6   7
HETATM    7  C7  UNL     1     -34.320  16.346  -3.692  1.00 20.00     0.034 C 
BRANCH   7   8
HETATM    8  C9  UNL     1     -34.062  16.666  -2.206  1.00 20.00    -0.021 C 
HETATM    9  C3  UNL     1     -35.397  16.851  -1.478  1.00 20.00     0.009 C 
HETATM   10  C4  UNL     1     -33.197  17.913  -2.018  1.00 20.00     0.009 C 
ENDBRANCH   7   8
ENDBRANCH   6   7
ENDBRANCH   4   6
ENDBRANCH   3   4
TORSDOF 4
ENDMDL
MODEL 9
REMARK VINA RESULT:      -3.8     10.832     11.653
REMARK  4 active torsions:
REMARK  status: ('A' for Active; 'I' for Inactive)
REMARK    1  A    between atoms: C6_6  and  N10_10 
REMARK    2  A    between atoms: C7_7  and  C8_8 
REMARK    3  A    between atoms: C7_7  and  C9_9 
REMARK    4  A    between atoms: C8_8  and  N10_10 
ROOT
HETATM    1  C1  UNL     1     -38.419  14.721  -5.114  1.00 20.00     0.013 C 
HETATM    2  C2  UNL     1     -37.362  14.153  -5.170  1.00 20.00    -0.087 C 
HETATM    3  C6  UNL     1     -36.075  13.457  -5.238  1.00 20.00     0.364 C 
ENDROOT
BRANCH   3   4
HETATM    4  N10 UNL     1     -34.981  14.410  -5.485  1.00 20.00     0.095 N 
HETATM    5  C5  UNL     1     -34.286  14.045  -6.730  1.00 20.00     0.310 C 
BRANCH   4   6
HETATM    6  C8  UNL     1     -34.072  14.464  -4.374  1.00 20.00     0.273 C 
BRANCH   6   7
HETATM    7  C7  UNL     1     -33.836  15.889  -3.880  1.00 20.00     0.034 C 
BRANCH   7   8
HETATM    8  C9  UNL     1     -34.524  16.237  -2.544  1.00 20.00    -0.021 C 
HETATM    9  C3  UNL     1     -35.963  16.692  -2.808  1.00 20.00     0.009 C 
HETATM   10  C4  UNL     1     -33.775  17.321  -1.767  1.00 20.00     0.009 C 
ENDBRANCH   7   8
ENDBRANCH   6   7
ENDBRANCH   4   6
ENDBRANCH   3   4
TORSDOF 4
ENDMDL
