MODEL 1
REMARK VINA RESULT:      -6.7      0.000      0.000
REMARK  3 active torsions:
REMARK  status: ('A' for Active; 'I' for Inactive)
REMARK    1  A    between atoms: C5_5  and  C8_8 
REMARK    2  A    between atoms: C8_8  and  C9_9 
REMARK    3  A    between atoms: C9_9  and  C10_10 
ROOT
HETATM    1  C1  UNL     1     -33.697   6.888   4.825  1.00 20.00     0.131 C 
HETATM    2  C2  UNL     1     -34.597   5.687   4.975  1.00 20.00     0.079 C 
HETATM    3  C3  UNL     1     -34.176   4.827   3.790  1.00 20.00     0.008 C 
HETATM    4  C4  UNL     1     -33.755   5.830   2.723  1.00 20.00     0.013 C 
HETATM    5  C5  UNL     1     -32.968   6.890   3.498  1.00 20.00     0.055 C 
HETATM    6  O11 UNL     1     -33.578   7.756   5.682  1.00 20.00    -0.298 OA
ENDROOT
BRANCH   5   7
HETATM    7  C8  UNL     1     -32.975   8.245   2.819  1.00 20.00     0.012 C 
BRANCH   7   8
HETATM    8  C9  UNL     1     -31.913   8.323   1.720  1.00 20.00     0.005 C 
BRANCH   8   9
HETATM    9  C10 UNL     1     -32.125   9.495   0.744  1.00 20.00    -0.023 C 
HETATM   10  C6  UNL     1     -32.730  10.688   1.489  1.00 20.00     0.009 C 
HETATM   11  C7  UNL     1     -33.020   9.117  -0.438  1.00 20.00     0.009 C 
ENDBRANCH   8   9
ENDBRANCH   7   8
ENDBRANCH   5   7
TORSDOF 3
ENDMDL
MODEL 2
REMARK VINA RESULT:      -6.4      1.573      2.233
REMARK  3 active torsions:
REMARK  status: ('A' for Active; 'I' for Inactive)
REMARK    1  A    between atoms: C5_5  and  C8_8 
REMARK    2  A    between atoms: C8_8  and  C9_9 
REMARK    3  A    between atoms: C9_9  and  C10_10 
ROOT
HETATM    1  C1  UNL     1     -34.055   5.262   4.093  1.00 20.00     0.131 C 
HETATM    2  C2  UNL     1     -34.366   5.052   5.553  1.00 20.00     0.079 C 
HETATM    3  C3  UNL     1     -34.512   6.483   6.054  1.00 20.00     0.008 C 
HETATM    4  C4  UNL     1     -33.560   7.290   5.180  1.00 20.00     0.013 C 
HETATM    5  C5  UNL     1     -33.764   6.715   3.777  1.00 20.00     0.055 C 
HETATM    6  O11 UNL     1     -34.039   4.358   3.266  1.00 20.00    -0.298 OA
ENDROOT
BRANCH   5   7
HETATM    7  C8  UNL     1     -32.555   6.897   2.882  1.00 20.00     0.012 C 
BRANCH   7   8
HETATM    8  C9  UNL     1     -32.192   8.376   2.730  1.00 20.00     0.005 C 
BRANCH   8   9
HETATM    9  C10 UNL     1     -32.482   8.938   1.326  1.00 20.00    -0.023 C 
HETATM   10  C6  UNL     1     -31.294   8.662   0.401  1.00 20.00     0.009 C 
HETATM   11  C7  UNL     1     -32.781  10.438   1.347  1.00 20.00     0.009 C 
ENDBRANCH   8   9
ENDBRANCH   7   8
ENDBRANCH   5   7
TORSDOF 3
ENDMDL
MODEL 3
REMARK VINA RESULT:      -6.4      0.882      1.274
REMARK  3 active torsions:
REMARK  status: ('A' for Active; 'I' for Inactive)
REMARK    1  A    between atoms: C5_5  and  C8_8 
REMARK    2  A    between atoms: C8_8  and  C9_9 
REMARK    3  A    between atoms: C9_9  and  C10_10 
ROOT
HETATM    1  C1  UNL     1     -34.012   6.449   5.318  1.00 20.00     0.131 C 
HETATM    2  C2  UNL     1     -34.765   5.160   5.532  1.00 20.00     0.079 C 
HETATM    3  C3  UNL     1     -34.277   4.312   4.364  1.00 20.00     0.008 C 
HETATM    4  C4  UNL     1     -33.999   5.318   3.254  1.00 20.00     0.013 C 
HETATM    5  C5  UNL     1     -33.320   6.487   3.971  1.00 20.00     0.055 C 
HETATM    6  O11 UNL     1     -33.972   7.355   6.142  1.00 20.00    -0.298 OA
ENDROOT
BRANCH   5   7
HETATM    7  C8  UNL     1     -33.499   7.807   3.249  1.00 20.00     0.012 C 
BRANCH   7   8
HETATM    8  C9  UNL     1     -32.207   8.239   2.552  1.00 20.00     0.005 C 
BRANCH   8   9
HETATM    9  C10 UNL     1     -32.442   8.909   1.185  1.00 20.00    -0.023 C 
HETATM   10  C6  UNL     1     -31.210   8.717   0.295  1.00 20.00     0.009 C 
HETATM   11  C7  UNL     1     -32.758  10.400   1.311  1.00 20.00     0.009 C 
ENDBRANCH   8   9
ENDBRANCH   7   8
ENDBRANCH   5   7
TORSDOF 3
ENDMDL
MODEL 4
REMARK VINA RESULT:      -5.0      1.424      4.769
REMARK  3 active torsions:
REMARK  status: ('A' for Active; 'I' for Inactive)
REMARK    1  A    between atoms: C5_5  and  C8_8 
REMARK    2  A    between atoms: C8_8  and  C9_9 
REMARK    3  A    between atoms: C9_9  and  C10_10 
ROOT
HETATM    1  C1  UNL     1     -31.726   8.363   2.502  1.00 20.00     0.131 C 
HETATM    2  C2  UNL     1     -31.307   9.063   1.234  1.00 20.00     0.079 C 
HETATM    3  C3  UNL     1     -32.626   9.168   0.479  1.00 20.00     0.008 C 
HETATM    4  C4  UNL     1     -33.410   7.936   0.913  1.00 20.00     0.013 C 
HETATM    5  C5  UNL     1     -33.144   7.835   2.416  1.00 20.00     0.055 C 
HETATM    6  O11 UNL     1     -30.999   8.238   3.480  1.00 20.00    -0.298 OA
ENDROOT
BRANCH   5   7
HETATM    7  C8  UNL     1     -33.284   6.422   2.948  1.00 20.00     0.012 C 
BRANCH   7   8
HETATM    8  C9  UNL     1     -34.721   6.133   3.387  1.00 20.00     0.005 C 
BRANCH   8   9
HETATM    9  C10 UNL     1     -34.845   5.766   4.877  1.00 20.00    -0.023 C 
HETATM   10  C6  UNL     1     -34.028   6.747   5.723  1.00 20.00     0.009 C 
HETATM   11  C7  UNL     1     -34.390   4.334   5.167  1.00 20.00     0.009 C 
ENDBRANCH   8   9
ENDBRANCH   7   8
ENDBRANCH   5   7
TORSDOF 3
ENDMDL
MODEL 5
REMARK VINA RESULT:      -5.0      2.048      4.994
REMARK  3 active torsions:
REMARK  status: ('A' for Active; 'I' for Inactive)
REMARK    1  A    between atoms: C5_5  and  C8_8 
REMARK    2  A    between atoms: C8_8  and  C9_9 
REMARK    3  A    between atoms: C9_9  and  C10_10 
ROOT
HETATM    1  C1  UNL     1     -31.694   8.848   0.731  1.00 20.00     0.131 C 
HETATM    2  C2  UNL     1     -32.522   9.918   0.064  1.00 20.00     0.079 C 
HETATM    3  C3  UNL     1     -33.080  10.677   1.261  1.00 20.00     0.008 C 
HETATM    4  C4  UNL     1     -33.218   9.620   2.350  1.00 20.00     0.013 C 
HETATM    5  C5  UNL     1     -31.941   8.786   2.224  1.00 20.00     0.055 C 
HETATM    6  O11 UNL     1     -30.917   8.118   0.127  1.00 20.00    -0.298 OA
ENDROOT
BRANCH   5   7
HETATM    7  C8  UNL     1     -32.106   7.371   2.740  1.00 20.00     0.012 C 
BRANCH   7   8
HETATM    8  C9  UNL     1     -33.372   7.231   3.589  1.00 20.00     0.005 C 
BRANCH   8   9
HETATM    9  C10 UNL     1     -34.134   5.916   3.343  1.00 20.00    -0.023 C 
HETATM   10  C6  UNL     1     -34.747   5.419   4.655  1.00 20.00     0.009 C 
HETATM   11  C7  UNL     1     -33.242   4.825   2.747  1.00 20.00     0.009 C 
ENDBRANCH   8   9
ENDBRANCH   7   8
ENDBRANCH   5   7
TORSDOF 3
ENDMDL
MODEL 6
REMARK VINA RESULT:      -4.9      2.057      5.022
REMARK  3 active torsions:
REMARK  status: ('A' for Active; 'I' for Inactive)
REMARK    1  A    between atoms: C5_5  and  C8_8 
REMARK    2  A    between atoms: C8_8  and  C9_9 
REMARK    3  A    between atoms: C9_9  and  C10_10 
ROOT
HETATM    1  C1  UNL     1     -31.697   8.802   0.745  1.00 20.00     0.131 C 
HETATM    2  C2  UNL     1     -32.630   9.710  -0.016  1.00 20.00     0.079 C 
HETATM    3  C3  UNL     1     -33.192  10.588   1.095  1.00 20.00     0.008 C 
HETATM    4  C4  UNL     1     -33.203   9.686   2.323  1.00 20.00     0.013 C 
HETATM    5  C5  UNL     1     -31.874   8.932   2.244  1.00 20.00     0.055 C 
HETATM    6  O11 UNL     1     -30.894   8.050   0.206  1.00 20.00    -0.298 OA
ENDROOT
BRANCH   5   7
HETATM    7  C8  UNL     1     -31.909   7.594   2.955  1.00 20.00     0.012 C 
BRANCH   7   8
HETATM    8  C9  UNL     1     -33.312   6.983   2.920  1.00 20.00     0.005 C 
BRANCH   8   9
HETATM    9  C10 UNL     1     -33.724   6.316   4.245  1.00 20.00    -0.023 C 
HETATM   10  C6  UNL     1     -35.120   5.704   4.106  1.00 20.00     0.009 C 
HETATM   11  C7  UNL     1     -33.706   7.294   5.422  1.00 20.00     0.009 C 
ENDBRANCH   8   9
ENDBRANCH   7   8
ENDBRANCH   5   7
TORSDOF 3
ENDMDL
MODEL 7
REMARK VINA RESULT:      -4.9      1.417      4.662
REMARK  3 active torsions:
REMARK  status: ('A' for Active; 'I' for Inactive)
REMARK    1  A    between atoms: C5_5  and  C8_8 
REMARK    2  A    between atoms: C8_8  and  C9_9 
REMARK    3  A    between atoms: C9_9  and  C10_10 
ROOT
HETATM    1  C1  UNL     1     -32.513   7.816   3.871  1.00 20.00     0.131 C 
HETATM    2  C2  UNL     1     -31.299   8.590   3.421  1.00 20.00     0.079 C 
HETATM    3  C3  UNL     1     -31.652   8.917   1.975  1.00 20.00     0.008 C 
HETATM    4  C4  UNL     1     -32.509   7.744   1.518  1.00 20.00     0.013 C 
HETATM    5  C5  UNL     1     -33.422   7.461   2.713  1.00 20.00     0.055 C 
HETATM    6  O11 UNL     1     -32.728   7.513   5.038  1.00 20.00    -0.298 OA
ENDROOT
BRANCH   5   7
HETATM    7  C8  UNL     1     -33.909   6.027   2.759  1.00 20.00     0.012 C 
BRANCH   7   8
HETATM    8  C9  UNL     1     -35.114   5.878   3.691  1.00 20.00     0.005 C 
BRANCH   8   9
HETATM    9  C10 UNL     1     -34.971   4.720   4.697  1.00 20.00    -0.023 C 
HETATM   10  C6  UNL     1     -34.666   5.278   6.090  1.00 20.00     0.009 C 
HETATM   11  C7  UNL     1     -33.884   3.724   4.292  1.00 20.00     0.009 C 
ENDBRANCH   8   9
ENDBRANCH   7   8
ENDBRANCH   5   7
TORSDOF 3
ENDMDL
MODEL 8
REMARK VINA RESULT:      -4.8     10.370     11.478
REMARK  3 active torsions:
REMARK  status: ('A' for Active; 'I' for Inactive)
REMARK    1  A    between atoms: C5_5  and  C8_8 
REMARK    2  A    between atoms: C8_8  and  C9_9 
REMARK    3  A    between atoms: C9_9  and  C10_10 
ROOT
HETATM    1  C1  UNL     1     -35.197  13.579  -5.837  1.00 20.00     0.131 C 
HETATM    2  C2  UNL     1     -35.285  13.918  -7.304  1.00 20.00     0.079 C 
HETATM    3  C3  UNL     1     -34.004  14.713  -7.521  1.00 20.00     0.008 C 
HETATM    4  C4  UNL     1     -33.757  15.407  -6.187  1.00 20.00     0.013 C 
HETATM    5  C5  UNL     1     -34.084  14.337  -5.143  1.00 20.00     0.055 C 
HETATM    6  O11 UNL     1     -35.945  12.784  -5.279  1.00 20.00    -0.298 OA
ENDROOT
BRANCH   5   7
HETATM    7  C8  UNL     1     -34.505  14.920  -3.809  1.00 20.00     0.012 C 
BRANCH   7   8
HETATM    8  C9  UNL     1     -33.993  16.353  -3.642  1.00 20.00     0.005 C 
BRANCH   8   9
HETATM    9  C10 UNL     1     -33.849  16.785  -2.171  1.00 20.00    -0.023 C 
HETATM   10  C6  UNL     1     -35.232  16.899  -1.525  1.00 20.00     0.009 C 
HETATM   11  C7  UNL     1     -33.101  18.112  -2.022  1.00 20.00     0.009 C 
ENDBRANCH   8   9
ENDBRANCH   7   8
ENDBRANCH   5   7
TORSDOF 3
ENDMDL
MODEL 9
REMARK VINA RESULT:      -4.8      2.032      4.824
REMARK  3 active torsions:
REMARK  status: ('A' for Active; 'I' for Inactive)
REMARK    1  A    between atoms: C5_5  and  C8_8 
REMARK    2  A    between atoms: C8_8  and  C9_9 
REMARK    3  A    between atoms: C9_9  and  C10_10 
ROOT
HETATM    1  C1  UNL     1     -32.586   8.174   1.734  1.00 20.00     0.131 C 
HETATM    2  C2  UNL     1     -32.067   9.378   2.479  1.00 20.00     0.079 C 
HETATM    3  C3  UNL     1     -31.430   8.738   3.707  1.00 20.00     0.008 C 
HETATM    4  C4  UNL     1     -32.269   7.493   3.964  1.00 20.00     0.013 C 
HETATM    5  C5  UNL     1     -32.513   6.913   2.570  1.00 20.00     0.055 C 
HETATM    6  O11 UNL     1     -33.016   8.221   0.587  1.00 20.00    -0.298 OA
ENDROOT
BRANCH   5   7
HETATM    7  C8  UNL     1     -33.773   6.075   2.490  1.00 20.00     0.012 C 
BRANCH   7   8
HETATM    8  C9  UNL     1     -34.734   6.405   3.634  1.00 20.00     0.005 C 
BRANCH   8   9
HETATM    9  C10 UNL     1     -34.952   5.234   4.610  1.00 20.00    -0.023 C 
HETATM   10  C6  UNL     1     -34.586   5.668   6.032  1.00 20.00     0.009 C 
HETATM   11  C7  UNL     1     -34.142   3.994   4.226  1.00 20.00     0.009 C 
ENDBRANCH   8   9
ENDBRANCH   7   8
ENDBRANCH   5   7
TORSDOF 3
ENDMDL
