MODEL 1
REMARK VINA RESULT:      -6.6      0.000      0.000
REMARK  3 active torsions:
REMARK  status: ('A' for Active; 'I' for Inactive)
REMARK    1  A    between atoms: C5_5  and  C8_8 
REMARK    2  A    between atoms: C8_8  and  C9_9 
REMARK    3  A    between atoms: C9_9  and  C10_10 
ROOT
HETATM    1  C1  UNL     1     -33.672   7.125   4.957  1.00 20.00     0.131 C 
HETATM    2  C2  UNL     1     -34.416   5.821   5.116  1.00 20.00     0.079 C 
HETATM    3  C3  UNL     1     -34.854   5.532   3.686  1.00 20.00     0.008 C 
HETATM    4  C4  UNL     1     -33.756   6.138   2.822  1.00 20.00     0.013 C 
HETATM    5  C5  UNL     1     -33.440   7.472   3.500  1.00 20.00     0.055 C 
HETATM    6  O11 UNL     1     -33.304   7.813   5.900  1.00 20.00    -0.298 OA
ENDROOT
BRANCH   5   7
HETATM    7  C8  UNL     1     -32.032   7.958   3.225  1.00 20.00     0.012 C 
BRANCH   7   8
HETATM    8  C9  UNL     1     -31.843   8.312   1.748  1.00 20.00     0.005 C 
BRANCH   8   9
HETATM    9  C10 UNL     1     -32.868   9.337   1.227  1.00 20.00    -0.023 C 
HETATM   10  C6  UNL     1     -32.999   9.216  -0.293  1.00 20.00     0.009 C 
HETATM   11  C7  UNL     1     -32.498  10.773   1.601  1.00 20.00     0.009 C 
ENDBRANCH   8   9
ENDBRANCH   7   8
ENDBRANCH   5   7
TORSDOF 3
ENDMDL
MODEL 2
REMARK VINA RESULT:      -6.4      0.999      1.343
REMARK  3 active torsions:
REMARK  status: ('A' for Active; 'I' for Inactive)
REMARK    1  A    between atoms: C5_5  and  C8_8 
REMARK    2  A    between atoms: C8_8  and  C9_9 
REMARK    3  A    between atoms: C9_9  and  C10_10 
ROOT
HETATM    1  C1  UNL     1     -34.060   6.620   5.448  1.00 20.00     0.131 C 
HETATM    2  C2  UNL     1     -34.417   5.210   5.847  1.00 20.00     0.079 C 
HETATM    3  C3  UNL     1     -34.843   4.604   4.516  1.00 20.00     0.008 C 
HETATM    4  C4  UNL     1     -33.998   5.333   3.479  1.00 20.00     0.013 C 
HETATM    5  C5  UNL     1     -34.012   6.791   3.944  1.00 20.00     0.055 C 
HETATM    6  O11 UNL     1     -33.835   7.515   6.254  1.00 20.00    -0.298 OA
ENDROOT
BRANCH   5   7
HETATM    7  C8  UNL     1     -32.803   7.573   3.475  1.00 20.00     0.012 C 
BRANCH   7   8
HETATM    8  C9  UNL     1     -32.893   7.895   1.980  1.00 20.00     0.005 C 
BRANCH   8   9
HETATM    9  C10 UNL     1     -32.006   9.079   1.553  1.00 20.00    -0.023 C 
HETATM   10  C6  UNL     1     -32.879  10.289   1.218  1.00 20.00     0.009 C 
HETATM   11  C7  UNL     1     -31.114   8.738   0.358  1.00 20.00     0.009 C 
ENDBRANCH   8   9
ENDBRANCH   7   8
ENDBRANCH   5   7
TORSDOF 3
ENDMDL
MODEL 3
REMARK VINA RESULT:      -6.3      1.596      2.211
REMARK  3 active torsions:
REMARK  status: ('A' for Active; 'I' for Inactive)
REMARK    1  A    between atoms: C5_5  and  C8_8 
REMARK    2  A    between atoms: C8_8  and  C9_9 
REMARK    3  A    between atoms: C9_9  and  C10_10 
ROOT
HETATM    1  C1  UNL     1     -33.568   5.382   3.335  1.00 20.00     0.131 C 
HETATM    2  C2  UNL     1     -34.451   4.915   4.465  1.00 20.00     0.079 C 
HETATM    3  C3  UNL     1     -34.312   6.054   5.466  1.00 20.00     0.008 C 
HETATM    4  C4  UNL     1     -34.095   7.292   4.604  1.00 20.00     0.013 C 
HETATM    5  C5  UNL     1     -33.132   6.822   3.512  1.00 20.00     0.055 C 
HETATM    6  O11 UNL     1     -33.247   4.673   2.388  1.00 20.00    -0.298 OA
ENDROOT
BRANCH   5   7
HETATM    7  C8  UNL     1     -33.241   7.634   2.238  1.00 20.00     0.012 C 
BRANCH   7   8
HETATM    8  C9  UNL     1     -31.934   8.371   1.933  1.00 20.00     0.005 C 
BRANCH   8   9
HETATM    9  C10 UNL     1     -32.093   9.501   0.899  1.00 20.00    -0.023 C 
HETATM   10  C6  UNL     1     -32.804  10.695   1.539  1.00 20.00     0.009 C 
HETATM   11  C7  UNL     1     -32.860   9.048  -0.345  1.00 20.00     0.009 C 
ENDBRANCH   8   9
ENDBRANCH   7   8
ENDBRANCH   5   7
TORSDOF 3
ENDMDL
MODEL 4
REMARK VINA RESULT:      -5.0      1.816      4.662
REMARK  3 active torsions:
REMARK  status: ('A' for Active; 'I' for Inactive)
REMARK    1  A    between atoms: C5_5  and  C8_8 
REMARK    2  A    between atoms: C8_8  and  C9_9 
REMARK    3  A    between atoms: C9_9  and  C10_10 
ROOT
HETATM    1  C1  UNL     1     -32.565  10.228   1.182  1.00 20.00     0.131 C 
HETATM    2  C2  UNL     1     -33.321  10.063  -0.113  1.00 20.00     0.079 C 
HETATM    3  C3  UNL     1     -32.760   8.750  -0.641  1.00 20.00     0.008 C 
HETATM    4  C4  UNL     1     -32.425   7.950   0.611  1.00 20.00     0.013 C 
HETATM    5  C5  UNL     1     -31.795   8.977   1.553  1.00 20.00     0.055 C 
HETATM    6  O11 UNL     1     -32.579  11.256   1.848  1.00 20.00    -0.298 OA
ENDROOT
BRANCH   5   7
HETATM    7  C8  UNL     1     -31.939   8.607   3.015  1.00 20.00     0.012 C 
BRANCH   7   8
HETATM    8  C9  UNL     1     -32.530   7.204   3.179  1.00 20.00     0.005 C 
BRANCH   8   9
HETATM    9  C10 UNL     1     -33.872   7.188   3.934  1.00 20.00    -0.023 C 
HETATM   10  C6  UNL     1     -33.622   7.295   5.440  1.00 20.00     0.009 C 
HETATM   11  C7  UNL     1     -34.695   5.934   3.634  1.00 20.00     0.009 C 
ENDBRANCH   8   9
ENDBRANCH   7   8
ENDBRANCH   5   7
TORSDOF 3
ENDMDL
MODEL 5
REMARK VINA RESULT:      -5.0      1.284      4.500
REMARK  3 active torsions:
REMARK  status: ('A' for Active; 'I' for Inactive)
REMARK    1  A    between atoms: C5_5  and  C8_8 
REMARK    2  A    between atoms: C8_8  and  C9_9 
REMARK    3  A    between atoms: C9_9  and  C10_10 
ROOT
HETATM    1  C1  UNL     1     -31.858   8.439   2.920  1.00 20.00     0.131 C 
HETATM    2  C2  UNL     1     -32.195   9.728   2.213  1.00 20.00     0.079 C 
HETATM    3  C3  UNL     1     -32.539   9.239   0.812  1.00 20.00     0.008 C 
HETATM    4  C4  UNL     1     -33.129   7.852   1.029  1.00 20.00     0.013 C 
HETATM    5  C5  UNL     1     -32.227   7.224   2.093  1.00 20.00     0.055 C 
HETATM    6  O11 UNL     1     -31.348   8.390   4.033  1.00 20.00    -0.298 OA
ENDROOT
BRANCH   5   7
HETATM    7  C8  UNL     1     -32.924   6.148   2.901  1.00 20.00     0.012 C 
BRANCH   7   8
HETATM    8  C9  UNL     1     -34.322   6.597   3.338  1.00 20.00     0.005 C 
BRANCH   8   9
HETATM    9  C10 UNL     1     -34.744   6.039   4.709  1.00 20.00    -0.023 C 
HETATM   10  C6  UNL     1     -34.006   6.784   5.824  1.00 20.00     0.009 C 
HETATM   11  C7  UNL     1     -34.484   4.536   4.832  1.00 20.00     0.009 C 
ENDBRANCH   8   9
ENDBRANCH   7   8
ENDBRANCH   5   7
TORSDOF 3
ENDMDL
MODEL 6
REMARK VINA RESULT:      -4.8     10.426     11.470
REMARK  3 active torsions:
REMARK  status: ('A' for Active; 'I' for Inactive)
REMARK    1  A    between atoms: C5_5  and  C8_8 
REMARK    2  A    between atoms: C8_8  and  C9_9 
REMARK    3  A    between atoms: C9_9  and  C10_10 
ROOT
HETATM    1  C1  UNL     1     -35.253  13.680  -5.806  1.00 20.00     0.131 C 
HETATM    2  C2  UNL     1     -34.544  13.470  -7.121  1.00 20.00     0.079 C 
HETATM    3  C3  UNL     1     -34.087  14.882  -7.462  1.00 20.00     0.008 C 
HETATM    4  C4  UNL     1     -33.842  15.539  -6.110  1.00 20.00     0.013 C 
HETATM    5  C5  UNL     1     -35.016  15.069  -5.249  1.00 20.00     0.055 C 
HETATM    6  O11 UNL     1     -35.936  12.822  -5.261  1.00 20.00    -0.298 OA
ENDROOT
BRANCH   5   7
HETATM    7  C8  UNL     1     -34.700  15.066  -3.767  1.00 20.00     0.012 C 
BRANCH   7   8
HETATM    8  C9  UNL     1     -33.644  16.118  -3.421  1.00 20.00     0.005 C 
BRANCH   8   9
HETATM    9  C10 UNL     1     -34.166  17.229  -2.491  1.00 20.00    -0.023 C 
HETATM   10  C6  UNL     1     -33.033  17.734  -1.595  1.00 20.00     0.009 C 
HETATM   11  C7  UNL     1     -35.338  16.761  -1.626  1.00 20.00     0.009 C 
ENDBRANCH   8   9
ENDBRANCH   7   8
ENDBRANCH   5   7
TORSDOF 3
ENDMDL
MODEL 7
REMARK VINA RESULT:      -4.6      2.047      4.938
REMARK  3 active torsions:
REMARK  status: ('A' for Active; 'I' for Inactive)
REMARK    1  A    between atoms: C5_5  and  C8_8 
REMARK    2  A    between atoms: C8_8  and  C9_9 
REMARK    3  A    between atoms: C9_9  and  C10_10 
ROOT
HETATM    1  C1  UNL     1     -32.745   8.223   1.720  1.00 20.00     0.131 C 
HETATM    2  C2  UNL     1     -31.367   8.776   1.986  1.00 20.00     0.079 C 
HETATM    3  C3  UNL     1     -31.271   8.666   3.502  1.00 20.00     0.008 C 
HETATM    4  C4  UNL     1     -32.113   7.445   3.848  1.00 20.00     0.013 C 
HETATM    5  C5  UNL     1     -33.345   7.573   2.950  1.00 20.00     0.055 C 
HETATM    6  O11 UNL     1     -33.305   8.295   0.632  1.00 20.00    -0.298 OA
ENDROOT
BRANCH   5   7
HETATM    7  C8  UNL     1     -34.004   6.242   2.654  1.00 20.00     0.012 C 
BRANCH   7   8
HETATM    8  C9  UNL     1     -35.238   6.023   3.534  1.00 20.00     0.005 C 
BRANCH   8   9
HETATM    9  C10 UNL     1     -35.001   5.029   4.686  1.00 20.00    -0.023 C 
HETATM   10  C6  UNL     1     -34.507   5.776   5.926  1.00 20.00     0.009 C 
HETATM   11  C7  UNL     1     -34.004   3.931   4.312  1.00 20.00     0.009 C 
ENDBRANCH   8   9
ENDBRANCH   7   8
ENDBRANCH   5   7
TORSDOF 3
ENDMDL
MODEL 8
REMARK VINA RESULT:      -4.6     10.166     10.934
REMARK  3 active torsions:
REMARK  status: ('A' for Active; 'I' for Inactive)
REMARK    1  A    between atoms: C5_5  and  C8_8 
REMARK    2  A    between atoms: C8_8  and  C9_9 
REMARK    3  A    between atoms: C9_9  and  C10_10 
ROOT
HETATM    1  C1  UNL     1     -33.206  18.240  -0.990  1.00 20.00     0.131 C 
HETATM    2  C2  UNL     1     -33.636  18.361   0.450  1.00 20.00     0.079 C 
HETATM    3  C3  UNL     1     -35.128  18.071   0.360  1.00 20.00     0.008 C 
HETATM    4  C4  UNL     1     -35.256  17.099  -0.807  1.00 20.00     0.013 C 
HETATM    5  C5  UNL     1     -34.298  17.655  -1.862  1.00 20.00     0.055 C 
HETATM    6  O11 UNL     1     -32.101  18.577  -1.398  1.00 20.00    -0.298 OA
ENDROOT
BRANCH   5   7
HETATM    7  C8  UNL     1     -33.789  16.595  -2.817  1.00 20.00     0.012 C 
BRANCH   7   8
HETATM    8  C9  UNL     1     -34.935  15.732  -3.354  1.00 20.00     0.005 C 
BRANCH   8   9
HETATM    9  C10 UNL     1     -34.465  14.397  -3.959  1.00 20.00    -0.023 C 
HETATM   10  C6  UNL     1     -33.038  14.541  -4.492  1.00 20.00     0.009 C 
HETATM   11  C7  UNL     1     -35.387  13.906  -5.077  1.00 20.00     0.009 C 
ENDBRANCH   8   9
ENDBRANCH   7   8
ENDBRANCH   5   7
TORSDOF 3
ENDMDL
MODEL 9
REMARK VINA RESULT:      -4.5      2.079      4.934
REMARK  3 active torsions:
REMARK  status: ('A' for Active; 'I' for Inactive)
REMARK    1  A    between atoms: C5_5  and  C8_8 
REMARK    2  A    between atoms: C8_8  and  C9_9 
REMARK    3  A    between atoms: C9_9  and  C10_10 
ROOT
HETATM    1  C1  UNL     1     -31.796   8.884   0.892  1.00 20.00     0.131 C 
HETATM    2  C2  UNL     1     -32.004  10.355   0.632  1.00 20.00     0.079 C 
HETATM    3  C3  UNL     1     -33.387  10.588   1.226  1.00 20.00     0.008 C 
HETATM    4  C4  UNL     1     -33.479   9.594   2.376  1.00 20.00     0.013 C 
HETATM    5  C5  UNL     1     -32.855   8.315   1.815  1.00 20.00     0.055 C 
HETATM    6  O11 UNL     1     -30.876   8.235   0.410  1.00 20.00    -0.298 OA
ENDROOT
BRANCH   5   7
HETATM    7  C8  UNL     1     -32.281   7.415   2.890  1.00 20.00     0.012 C 
BRANCH   7   8
HETATM    8  C9  UNL     1     -33.128   6.152   3.069  1.00 20.00     0.005 C 
BRANCH   8   9
HETATM    9  C10 UNL     1     -34.239   6.304   4.125  1.00 20.00    -0.023 C 
HETATM   10  C6  UNL     1     -33.734   7.156   5.292  1.00 20.00     0.009 C 
HETATM   11  C7  UNL     1     -34.736   4.955   4.647  1.00 20.00     0.009 C 
ENDBRANCH   8   9
ENDBRANCH   7   8
ENDBRANCH   5   7
TORSDOF 3
ENDMDL
