MODEL 1
REMARK VINA RESULT:      -6.6      0.000      0.000
REMARK  1 active torsions:
REMARK  status: ('A' for Active; 'I' for Inactive)
REMARK    1  A    between atoms: C7_7  and  C8_8 
ROOT
HETATM    1  C1  UNL     1     -32.168   9.136   1.124  1.00 20.00     0.012 C 
HETATM    2  C2  UNL     1     -32.177   8.462   2.117  1.00 20.00    -0.117 C 
HETATM    3  C8  UNL     1     -32.188   7.638   3.333  1.00 20.00     0.105 C 
ENDROOT
BRANCH   3   4
HETATM    4  C7  UNL     1     -33.598   7.240   3.721  1.00 20.00     0.066 C 
HETATM    5  C3  UNL     1     -33.750   6.965   5.203  1.00 20.00     0.132 C 
HETATM    6  C4  UNL     1     -34.546   5.712   5.466  1.00 20.00     0.079 C 
HETATM    7  O9  UNL     1     -33.284   7.669   6.090  1.00 20.00    -0.298 OA
HETATM    8  C5  UNL     1     -35.094   5.388   4.081  1.00 20.00     0.008 C 
HETATM    9  C6  UNL     1     -34.026   5.899   3.123  1.00 20.00     0.013 C 
ENDBRANCH   3   4
TORSDOF 1
ENDMDL
MODEL 2
REMARK VINA RESULT:      -5.4      1.812      2.244
REMARK  1 active torsions:
REMARK  status: ('A' for Active; 'I' for Inactive)
REMARK    1  A    between atoms: C7_7  and  C8_8 
ROOT
HETATM    1  C1  UNL     1     -31.605   8.375   1.868  1.00 20.00     0.012 C 
HETATM    2  C2  UNL     1     -32.592   8.026   2.455  1.00 20.00    -0.117 C 
HETATM    3  C8  UNL     1     -33.800   7.597   3.173  1.00 20.00     0.105 C 
ENDROOT
BRANCH   3   4
HETATM    4  C7  UNL     1     -33.497   6.481   4.153  1.00 20.00     0.066 C 
HETATM    5  C3  UNL     1     -33.647   5.102   3.545  1.00 20.00     0.132 C 
HETATM    6  C4  UNL     1     -34.387   4.158   4.459  1.00 20.00     0.079 C 
HETATM    7  O9  UNL     1     -33.222   4.781   2.442  1.00 20.00    -0.298 OA
HETATM    8  C5  UNL     1     -34.445   4.956   5.757  1.00 20.00     0.008 C 
HETATM    9  C6  UNL     1     -34.500   6.410   5.306  1.00 20.00     0.013 C 
ENDBRANCH   3   4
TORSDOF 1
ENDMDL
MODEL 3
REMARK VINA RESULT:      -5.4      1.712      2.187
REMARK  1 active torsions:
REMARK  status: ('A' for Active; 'I' for Inactive)
REMARK    1  A    between atoms: C7_7  and  C8_8 
ROOT
HETATM    1  C1  UNL     1     -32.150   8.687   1.813  1.00 20.00     0.012 C 
HETATM    2  C2  UNL     1     -32.712   7.673   2.123  1.00 20.00    -0.117 C 
HETATM    3  C8  UNL     1     -33.401   6.432   2.502  1.00 20.00     0.105 C 
ENDROOT
BRANCH   3   4
HETATM    4  C7  UNL     1     -33.260   6.149   3.984  1.00 20.00     0.066 C 
HETATM    5  C3  UNL     1     -34.149   5.019   4.460  1.00 20.00     0.132 C 
HETATM    6  C4  UNL     1     -34.848   5.355   5.753  1.00 20.00     0.079 C 
HETATM    7  O9  UNL     1     -34.291   3.955   3.870  1.00 20.00    -0.298 OA
HETATM    8  C5  UNL     1     -34.136   6.635   6.174  1.00 20.00     0.008 C 
HETATM    9  C6  UNL     1     -33.750   7.303   4.861  1.00 20.00     0.013 C 
ENDBRANCH   3   4
TORSDOF 1
ENDMDL
MODEL 4
REMARK VINA RESULT:      -5.0      2.367      3.633
REMARK  1 active torsions:
REMARK  status: ('A' for Active; 'I' for Inactive)
REMARK    1  A    between atoms: C7_7  and  C8_8 
ROOT
HETATM    1  C1  UNL     1     -33.264   7.972   6.307  1.00 20.00     0.012 C 
HETATM    2  C2  UNL     1     -33.951   7.025   6.037  1.00 20.00    -0.117 C 
HETATM    3  C8  UNL     1     -34.792   5.867   5.705  1.00 20.00     0.105 C 
ENDROOT
BRANCH   3   4
HETATM    4  C7  UNL     1     -34.804   5.598   4.213  1.00 20.00     0.066 C 
HETATM    5  C3  UNL     1     -33.956   4.406   3.819  1.00 20.00     0.132 C 
HETATM    6  C4  UNL     1     -33.108   4.692   2.605  1.00 20.00     0.079 C 
HETATM    7  O9  UNL     1     -33.951   3.334   4.410  1.00 20.00    -0.298 OA
HETATM    8  C5  UNL     1     -33.680   6.022   2.126  1.00 20.00     0.008 C 
HETATM    9  C6  UNL     1     -34.146   6.715   3.401  1.00 20.00     0.013 C 
ENDBRANCH   3   4
TORSDOF 1
ENDMDL
MODEL 5
REMARK VINA RESULT:      -4.6      2.011      3.914
REMARK  1 active torsions:
REMARK  status: ('A' for Active; 'I' for Inactive)
REMARK    1  A    between atoms: C7_7  and  C8_8 
ROOT
HETATM    1  C1  UNL     1     -33.735   3.634   4.453  1.00 20.00     0.012 C 
HETATM    2  C2  UNL     1     -34.436   4.584   4.243  1.00 20.00    -0.117 C 
HETATM    3  C8  UNL     1     -35.296   5.748   3.985  1.00 20.00     0.105 C 
ENDROOT
BRANCH   3   4
HETATM    4  C7  UNL     1     -34.545   7.049   4.190  1.00 20.00     0.066 C 
HETATM    5  C3  UNL     1     -33.341   7.187   3.281  1.00 20.00     0.132 C 
HETATM    6  C4  UNL     1     -32.130   7.697   4.021  1.00 20.00     0.079 C 
HETATM    7  O9  UNL     1     -33.340   6.918   2.086  1.00 20.00    -0.298 OA
HETATM    8  C5  UNL     1     -32.728   8.112   5.360  1.00 20.00     0.008 C 
HETATM    9  C6  UNL     1     -33.891   7.150   5.569  1.00 20.00     0.013 C 
ENDBRANCH   3   4
TORSDOF 1
ENDMDL
MODEL 6
REMARK VINA RESULT:      -4.6      1.028      3.802
REMARK  1 active torsions:
REMARK  status: ('A' for Active; 'I' for Inactive)
REMARK    1  A    between atoms: C7_7  and  C8_8 
ROOT
HETATM    1  C1  UNL     1     -34.782   4.641   5.579  1.00 20.00     0.012 C 
HETATM    2  C2  UNL     1     -34.675   5.319   4.595  1.00 20.00    -0.117 C 
HETATM    3  C8  UNL     1     -34.543   6.150   3.390  1.00 20.00     0.105 C 
ENDROOT
BRANCH   3   4
HETATM    4  C7  UNL     1     -33.107   6.584   3.170  1.00 20.00     0.066 C 
HETATM    5  C3  UNL     1     -32.654   7.650   4.146  1.00 20.00     0.132 C 
HETATM    6  C4  UNL     1     -31.894   8.757   3.462  1.00 20.00     0.079 C 
HETATM    7  O9  UNL     1     -32.876   7.625   5.350  1.00 20.00    -0.298 OA
HETATM    8  C5  UNL     1     -31.679   8.179   2.068  1.00 20.00     0.008 C 
HETATM    9  C6  UNL     1     -32.897   7.297   1.832  1.00 20.00     0.013 C 
ENDBRANCH   3   4
TORSDOF 1
ENDMDL
MODEL 7
REMARK VINA RESULT:      -4.4     11.220     12.363
REMARK  1 active torsions:
REMARK  status: ('A' for Active; 'I' for Inactive)
REMARK    1  A    between atoms: C7_7  and  C8_8 
ROOT
HETATM    1  C1  UNL     1     -35.182  16.686  -2.351  1.00 20.00     0.012 C 
HETATM    2  C2  UNL     1     -34.732  15.845  -3.079  1.00 20.00    -0.117 C 
HETATM    3  C8  UNL     1     -34.180  14.815  -3.970  1.00 20.00     0.105 C 
ENDROOT
BRANCH   3   4
HETATM    4  C7  UNL     1     -34.773  14.910  -5.362  1.00 20.00     0.066 C 
HETATM    5  C3  UNL     1     -35.275  13.580  -5.885  1.00 20.00     0.132 C 
HETATM    6  C4  UNL     1     -34.861  13.342  -7.315  1.00 20.00     0.079 C 
HETATM    7  O9  UNL     1     -35.937  12.784  -5.231  1.00 20.00    -0.298 OA
HETATM    8  C5  UNL     1     -34.313  14.706  -7.717  1.00 20.00     0.008 C 
HETATM    9  C6  UNL     1     -33.738  15.278  -6.427  1.00 20.00     0.013 C 
ENDBRANCH   3   4
TORSDOF 1
ENDMDL
MODEL 8
REMARK VINA RESULT:      -4.3      1.876      2.705
REMARK  1 active torsions:
REMARK  status: ('A' for Active; 'I' for Inactive)
REMARK    1  A    between atoms: C7_7  and  C8_8 
ROOT
HETATM    1  C1  UNL     1     -32.548   3.904   2.592  1.00 20.00     0.012 C 
HETATM    2  C2  UNL     1     -33.150   4.935   2.470  1.00 20.00    -0.117 C 
HETATM    3  C8  UNL     1     -33.888   6.197   2.321  1.00 20.00     0.105 C 
ENDROOT
BRANCH   3   4
HETATM    4  C7  UNL     1     -34.388   6.709   3.657  1.00 20.00     0.066 C 
HETATM    5  C3  UNL     1     -33.286   7.296   4.516  1.00 20.00     0.132 C 
HETATM    6  C4  UNL     1     -33.379   6.834   5.948  1.00 20.00     0.079 C 
HETATM    7  O9  UNL     1     -32.418   8.056   4.105  1.00 20.00    -0.298 OA
HETATM    8  C5  UNL     1     -34.742   6.152   5.973  1.00 20.00     0.008 C 
HETATM    9  C6  UNL     1     -34.912   5.595   4.566  1.00 20.00     0.013 C 
ENDBRANCH   3   4
TORSDOF 1
ENDMDL
MODEL 9
REMARK VINA RESULT:      -4.2     11.207     12.028
REMARK  1 active torsions:
REMARK  status: ('A' for Active; 'I' for Inactive)
REMARK    1  A    between atoms: C7_7  and  C8_8 
ROOT
HETATM    1  C1  UNL     1     -33.515  16.172  -6.877  1.00 20.00     0.012 C 
HETATM    2  C2  UNL     1     -33.519  15.461  -5.911  1.00 20.00    -0.117 C 
HETATM    3  C8  UNL     1     -33.524  14.591  -4.727  1.00 20.00     0.105 C 
ENDROOT
BRANCH   3   4
HETATM    4  C7  UNL     1     -34.928  14.399  -4.186  1.00 20.00     0.066 C 
HETATM    5  C3  UNL     1     -35.830  13.638  -5.136  1.00 20.00     0.132 C 
HETATM    6  C4  UNL     1     -37.191  14.275  -5.254  1.00 20.00     0.079 C 
HETATM    7  O9  UNL     1     -35.501  12.626  -5.742  1.00 20.00    -0.298 OA
HETATM    8  C5  UNL     1     -37.158  15.304  -4.129  1.00 20.00     0.008 C 
HETATM    9  C6  UNL     1     -35.694  15.714  -4.034  1.00 20.00     0.013 C 
ENDBRANCH   3   4
TORSDOF 1
ENDMDL
