MODEL 1
REMARK VINA RESULT:      -5.4      0.000      0.000
REMARK  0 active torsions:
REMARK  status: ('A' for Active; 'I' for Inactive)
ROOT
HETATM    1  C1  UNL     1     -33.828   6.676   5.135  1.00 20.00     0.225 C 
HETATM    2  C2  UNL     1     -32.841   6.953   2.384  1.00 20.00     0.021 C 
HETATM    3  C3  UNL     1     -33.249   5.581   2.899  1.00 20.00     0.020 C 
HETATM    4  C4  UNL     1     -32.228   7.751   3.517  1.00 20.00     0.122 C 
HETATM    5  C5  UNL     1     -34.268   5.680   4.051  1.00 20.00     0.034 C 
HETATM    6  C6  UNL     1     -34.438   4.287   4.679  1.00 20.00     0.025 C 
HETATM    7  C7  UNL     1     -35.637   6.155   3.528  1.00 20.00     0.025 C 
HETATM    8  N8  UNL     1     -33.013   7.715   4.736  1.00 20.00    -0.360 N 
HETATM    9  O9  UNL     1     -34.266   6.610   6.286  1.00 20.00    -0.273 OA
HETATM   10  H22 UNL     1     -32.957   8.523   5.348  1.00 20.00     0.162 HD
ENDROOT
TORSDOF 0
ENDMDL
MODEL 2
REMARK VINA RESULT:      -5.2      1.713      2.837
REMARK  0 active torsions:
REMARK  status: ('A' for Active; 'I' for Inactive)
ROOT
HETATM    1  C1  UNL     1     -33.093   7.254   3.608  1.00 20.00     0.225 C 
HETATM    2  C2  UNL     1     -34.524   5.627   5.589  1.00 20.00     0.021 C 
HETATM    3  C3  UNL     1     -35.046   5.700   4.162  1.00 20.00     0.020 C 
HETATM    4  C4  UNL     1     -33.915   6.961   5.968  1.00 20.00     0.122 C 
HETATM    5  C5  UNL     1     -33.928   6.044   3.159  1.00 20.00     0.034 C 
HETATM    6  C6  UNL     1     -34.567   6.345   1.794  1.00 20.00     0.025 C 
HETATM    7  C7  UNL     1     -32.957   4.859   2.998  1.00 20.00     0.025 C 
HETATM    8  N8  UNL     1     -33.009   7.486   4.965  1.00 20.00    -0.360 N 
HETATM    9  O9  UNL     1     -32.444   7.924   2.801  1.00 20.00    -0.273 OA
HETATM   10  H22 UNL     1     -32.249   8.076   5.290  1.00 20.00     0.162 HD
ENDROOT
TORSDOF 0
ENDMDL
MODEL 3
REMARK VINA RESULT:      -4.8      1.650      2.337
REMARK  0 active torsions:
REMARK  status: ('A' for Active; 'I' for Inactive)
ROOT
HETATM    1  C1  UNL     1     -34.323   5.069   4.587  1.00 20.00     0.225 C 
HETATM    2  C2  UNL     1     -33.533   7.890   4.777  1.00 20.00     0.021 C 
HETATM    3  C3  UNL     1     -32.880   6.998   3.732  1.00 20.00     0.020 C 
HETATM    4  C4  UNL     1     -33.821   7.074   6.021  1.00 20.00     0.122 C 
HETATM    5  C5  UNL     1     -33.779   5.805   3.353  1.00 20.00     0.034 C 
HETATM    6  C6  UNL     1     -32.962   4.826   2.494  1.00 20.00     0.025 C 
HETATM    7  C7  UNL     1     -34.996   6.279   2.535  1.00 20.00     0.025 C 
HETATM    8  N8  UNL     1     -34.471   5.808   5.741  1.00 20.00    -0.360 N 
HETATM    9  O9  UNL     1     -34.706   3.898   4.521  1.00 20.00    -0.273 OA
HETATM   10  H22 UNL     1     -35.086   5.435   6.457  1.00 20.00     0.162 HD
ENDROOT
TORSDOF 0
ENDMDL
MODEL 4
REMARK VINA RESULT:      -4.3      2.185      3.381
REMARK  0 active torsions:
REMARK  status: ('A' for Active; 'I' for Inactive)
ROOT
HETATM    1  C1  UNL     1     -33.452   4.977   3.340  1.00 20.00     0.225 C 
HETATM    2  C2  UNL     1     -34.813   6.006   5.729  1.00 20.00     0.021 C 
HETATM    3  C3  UNL     1     -33.762   6.863   5.039  1.00 20.00     0.020 C 
HETATM    4  C4  UNL     1     -34.418   4.547   5.624  1.00 20.00     0.122 C 
HETATM    5  C5  UNL     1     -33.608   6.492   3.551  1.00 20.00     0.034 C 
HETATM    6  C6  UNL     1     -32.371   7.213   2.990  1.00 20.00     0.025 C 
HETATM    7  C7  UNL     1     -34.844   6.936   2.747  1.00 20.00     0.025 C 
HETATM    8  N8  UNL     1     -34.028   4.153   4.284  1.00 20.00    -0.360 N 
HETATM    9  O9  UNL     1     -32.927   4.519   2.322  1.00 20.00    -0.273 OA
HETATM   10  H22 UNL     1     -34.192   3.186   4.019  1.00 20.00     0.162 HD
ENDROOT
TORSDOF 0
ENDMDL
MODEL 5
REMARK VINA RESULT:      -4.3     11.942     13.003
REMARK  0 active torsions:
REMARK  status: ('A' for Active; 'I' for Inactive)
ROOT
HETATM    1  C1  UNL     1     -35.164  13.638  -5.331  1.00 20.00     0.225 C 
HETATM    2  C2  UNL     1     -33.210  15.823  -5.489  1.00 20.00     0.021 C 
HETATM    3  C3  UNL     1     -33.755  15.211  -6.771  1.00 20.00     0.020 C 
HETATM    4  C4  UNL     1     -33.091  14.744  -4.432  1.00 20.00     0.122 C 
HETATM    5  C5  UNL     1     -35.138  14.566  -6.556  1.00 20.00     0.034 C 
HETATM    6  C6  UNL     1     -35.506  13.760  -7.812  1.00 20.00     0.025 C 
HETATM    7  C7  UNL     1     -36.214  15.644  -6.330  1.00 20.00     0.025 C 
HETATM    8  N8  UNL     1     -34.280  13.923  -4.312  1.00 20.00    -0.360 N 
HETATM    9  O9  UNL     1     -36.006  12.743  -5.219  1.00 20.00    -0.273 OA
HETATM   10  H22 UNL     1     -34.477  13.523  -3.400  1.00 20.00     0.162 HD
ENDROOT
TORSDOF 0
ENDMDL
MODEL 6
REMARK VINA RESULT:      -4.2     12.091     13.141
REMARK  0 active torsions:
REMARK  status: ('A' for Active; 'I' for Inactive)
ROOT
HETATM    1  C1  UNL     1     -35.322  13.512  -5.749  1.00 20.00     0.225 C 
HETATM    2  C2  UNL     1     -33.686  15.510  -7.145  1.00 20.00     0.021 C 
HETATM    3  C3  UNL     1     -34.795  15.971  -6.211  1.00 20.00     0.020 C 
HETATM    4  C4  UNL     1     -34.112  14.231  -7.835  1.00 20.00     0.122 C 
HETATM    5  C5  UNL     1     -35.121  14.910  -5.142  1.00 20.00     0.034 C 
HETATM    6  C6  UNL     1     -36.402  15.333  -4.404  1.00 20.00     0.025 C 
HETATM    7  C7  UNL     1     -33.977  14.798  -4.117  1.00 20.00     0.025 C 
HETATM    8  N8  UNL     1     -34.656  13.240  -6.926  1.00 20.00    -0.360 N 
HETATM    9  O9  UNL     1     -35.965  12.640  -5.160  1.00 20.00    -0.273 OA
HETATM   10  H22 UNL     1     -34.537  12.264  -7.178  1.00 20.00     0.162 HD
ENDROOT
TORSDOF 0
ENDMDL
MODEL 7
REMARK VINA RESULT:      -4.1     11.848     12.714
REMARK  0 active torsions:
REMARK  status: ('A' for Active; 'I' for Inactive)
ROOT
HETATM    1  C1  UNL     1     -35.376  13.763  -4.980  1.00 20.00     0.225 C 
HETATM    2  C2  UNL     1     -33.975  16.261  -4.336  1.00 20.00     0.021 C 
HETATM    3  C3  UNL     1     -34.977  16.237  -5.481  1.00 20.00     0.020 C 
HETATM    4  C4  UNL     1     -33.262  14.926  -4.268  1.00 20.00     0.122 C 
HETATM    5  C5  UNL     1     -36.022  15.119  -5.306  1.00 20.00     0.034 C 
HETATM    6  C6  UNL     1     -36.834  14.996  -6.606  1.00 20.00     0.025 C 
HETATM    7  C7  UNL     1     -36.987  15.450  -4.152  1.00 20.00     0.025 C 
HETATM    8  N8  UNL     1     -34.160  13.789  -4.329  1.00 20.00    -0.360 N 
HETATM    9  O9  UNL     1     -35.964  12.700  -5.197  1.00 20.00    -0.273 OA
HETATM   10  H22 UNL     1     -33.869  12.941  -3.854  1.00 20.00     0.162 HD
ENDROOT
TORSDOF 0
ENDMDL
MODEL 8
REMARK VINA RESULT:      -3.9     12.274     13.467
REMARK  0 active torsions:
REMARK  status: ('A' for Active; 'I' for Inactive)
ROOT
HETATM    1  C1  UNL     1     -34.417  14.163  -5.250  1.00 20.00     0.225 C 
HETATM    2  C2  UNL     1     -34.174  15.482  -7.861  1.00 20.00     0.021 C 
HETATM    3  C3  UNL     1     -35.070  16.092  -6.794  1.00 20.00     0.020 C 
HETATM    4  C4  UNL     1     -34.222  13.972  -7.752  1.00 20.00     0.122 C 
HETATM    5  C5  UNL     1     -34.636  15.679  -5.375  1.00 20.00     0.034 C 
HETATM    6  C6  UNL     1     -35.721  16.120  -4.380  1.00 20.00     0.025 C 
HETATM    7  C7  UNL     1     -33.309  16.361  -4.990  1.00 20.00     0.025 C 
HETATM    8  N8  UNL     1     -34.050  13.488  -6.396  1.00 20.00    -0.360 N 
HETATM    9  O9  UNL     1     -34.466  13.593  -4.158  1.00 20.00    -0.273 OA
HETATM   10  H22 UNL     1     -33.623  12.574  -6.280  1.00 20.00     0.162 HD
ENDROOT
TORSDOF 0
ENDMDL
MODEL 9
REMARK VINA RESULT:      -3.8     12.356     13.207
REMARK  0 active torsions:
REMARK  status: ('A' for Active; 'I' for Inactive)
ROOT
HETATM    1  C1  UNL     1     -33.666  16.107  -5.597  1.00 20.00     0.225 C 
HETATM    2  C2  UNL     1     -33.667  16.925  -2.777  1.00 20.00     0.021 C 
HETATM    3  C3  UNL     1     -34.589  15.804  -3.232  1.00 20.00     0.020 C 
HETATM    4  C4  UNL     1     -33.539  17.948  -3.887  1.00 20.00     0.122 C 
HETATM    5  C5  UNL     1     -34.060  15.105  -4.500  1.00 20.00     0.034 C 
HETATM    6  C6  UNL     1     -35.153  14.167  -5.037  1.00 20.00     0.025 C 
HETATM    7  C7  UNL     1     -32.807  14.268  -4.179  1.00 20.00     0.025 C 
HETATM    8  N8  UNL     1     -33.265  17.360  -5.184  1.00 20.00    -0.360 N 
HETATM    9  O9  UNL     1     -33.611  15.774  -6.783  1.00 20.00    -0.273 OA
HETATM   10  H22 UNL     1     -32.733  17.919  -5.844  1.00 20.00     0.162 HD
ENDROOT
TORSDOF 0
ENDMDL
