MODEL 1
REMARK VINA RESULT:      -4.4      0.000      0.000
REMARK  1 active torsions:
REMARK  status: ('A' for Active; 'I' for Inactive)
REMARK    1  A    between atoms: C7_7  and  N9_9 
ROOT
HETATM    1  C1  UNL     1     -32.106   8.967   1.572  1.00 20.00     0.089 C 
HETATM    2  C7  UNL     1     -31.767   8.234   2.791  1.00 20.00     0.395 C 
HETATM    3  N8  UNL     1     -32.371   9.550   0.604  1.00 20.00    -0.195 NA
ENDROOT
BRANCH   2   4
HETATM    4  N9  UNL     1     -32.971   7.672   3.416  1.00 20.00     0.102 N 
HETATM    5  C3  UNL     1     -33.268   6.359   2.827  1.00 20.00     0.274 C 
HETATM    6  C2  UNL     1     -34.715   5.918   3.064  1.00 20.00     0.040 C 
HETATM    7  C5  UNL     1     -34.946   5.007   4.266  1.00 20.00     0.075 C 
HETATM    8  S10 UNL     1     -34.194   5.461   5.855  1.00 20.00    -0.167 SA
HETATM    9  C6  UNL     1     -34.038   7.259   5.674  1.00 20.00     0.104 C 
HETATM   10  C4  UNL     1     -32.795   7.649   4.874  1.00 20.00     0.283 C 
ENDBRANCH   2   4
TORSDOF 1
ENDMDL
MODEL 2
REMARK VINA RESULT:      -3.8      1.116      2.052
REMARK  1 active torsions:
REMARK  status: ('A' for Active; 'I' for Inactive)
REMARK    1  A    between atoms: C7_7  and  N9_9 
ROOT
HETATM    1  C1  UNL     1     -32.290   9.083   1.829  1.00 20.00     0.089 C 
HETATM    2  C7  UNL     1     -31.456   8.551   2.906  1.00 20.00     0.395 C 
HETATM    3  N8  UNL     1     -32.949   9.508   0.974  1.00 20.00    -0.195 NA
ENDROOT
BRANCH   2   4
HETATM    4  N9  UNL     1     -32.140   7.455   3.605  1.00 20.00     0.102 N 
HETATM    5  C3  UNL     1     -32.971   7.999   4.687  1.00 20.00     0.274 C 
HETATM    6  C2  UNL     1     -33.340   6.946   5.735  1.00 20.00     0.040 C 
HETATM    7  C5  UNL     1     -34.694   6.267   5.551  1.00 20.00     0.075 C 
HETATM    8  S10 UNL     1     -35.135   5.646   3.904  1.00 20.00    -0.167 SA
HETATM    9  C6  UNL     1     -33.496   5.360   3.181  1.00 20.00     0.104 C 
HETATM   10  C4  UNL     1     -32.881   6.645   2.628  1.00 20.00     0.283 C 
ENDBRANCH   2   4
TORSDOF 1
ENDMDL
MODEL 3
REMARK VINA RESULT:      -3.7     11.412     12.364
REMARK  1 active torsions:
REMARK  status: ('A' for Active; 'I' for Inactive)
REMARK    1  A    between atoms: C7_7  and  N9_9 
ROOT
HETATM    1  C1  UNL     1     -35.280  13.840  -5.510  1.00 20.00     0.089 C 
HETATM    2  C7  UNL     1     -34.475  15.029  -5.784  1.00 20.00     0.395 C 
HETATM    3  N8  UNL     1     -35.919  12.895  -5.297  1.00 20.00    -0.195 NA
ENDROOT
BRANCH   2   4
HETATM    4  N9  UNL     1     -34.729  16.075  -4.785  1.00 20.00     0.102 N 
HETATM    5  C3  UNL     1     -34.483  15.544  -3.438  1.00 20.00     0.274 C 
HETATM    6  C2  UNL     1     -35.149  16.380  -2.342  1.00 20.00     0.040 C 
HETATM    7  C5  UNL     1     -34.267  17.431  -1.675  1.00 20.00     0.075 C 
HETATM    8  S10 UNL     1     -33.269  18.520  -2.730  1.00 20.00    -0.167 SA
HETATM    9  C6  UNL     1     -34.229  18.502  -4.269  1.00 20.00     0.104 C 
HETATM   10  C4  UNL     1     -33.932  17.265  -5.116  1.00 20.00     0.283 C 
ENDBRANCH   2   4
TORSDOF 1
ENDMDL
MODEL 4
REMARK VINA RESULT:      -3.7     11.320     12.093
REMARK  1 active torsions:
REMARK  status: ('A' for Active; 'I' for Inactive)
REMARK    1  A    between atoms: C7_7  and  N9_9 
ROOT
HETATM    1  C1  UNL     1     -35.223  13.734  -4.784  1.00 20.00     0.089 C 
HETATM    2  C7  UNL     1     -34.300  14.725  -4.231  1.00 20.00     0.395 C 
HETATM    3  N8  UNL     1     -35.953  12.948  -5.225  1.00 20.00    -0.195 NA
ENDROOT
BRANCH   2   4
HETATM    4  N9  UNL     1     -35.005  15.661  -3.347  1.00 20.00     0.102 N 
HETATM    5  C3  UNL     1     -34.031  16.497  -2.632  1.00 20.00     0.274 C 
HETATM    6  C2  UNL     1     -34.622  17.156  -1.383  1.00 20.00     0.040 C 
HETATM    7  C5  UNL     1     -35.141  18.580  -1.562  1.00 20.00     0.075 C 
HETATM    8  S10 UNL     1     -36.208  18.941  -2.985  1.00 20.00    -0.167 SA
HETATM    9  C6  UNL     1     -36.927  17.308  -3.313  1.00 20.00     0.104 C 
HETATM   10  C4  UNL     1     -35.988  16.421  -4.131  1.00 20.00     0.283 C 
ENDBRANCH   2   4
TORSDOF 1
ENDMDL
MODEL 5
REMARK VINA RESULT:      -3.6     11.316     12.066
REMARK  1 active torsions:
REMARK  status: ('A' for Active; 'I' for Inactive)
REMARK    1  A    between atoms: C7_7  and  N9_9 
ROOT
HETATM    1  C1  UNL     1     -33.318  17.615  -1.796  1.00 20.00     0.089 C 
HETATM    2  C7  UNL     1     -34.519  16.918  -2.256  1.00 20.00     0.395 C 
HETATM    3  N8  UNL     1     -32.368  18.171  -1.429  1.00 20.00    -0.195 NA
ENDROOT
BRANCH   2   4
HETATM    4  N9  UNL     1     -34.195  15.974  -3.332  1.00 20.00     0.102 N 
HETATM    5  C3  UNL     1     -35.408  15.255  -3.743  1.00 20.00     0.274 C 
HETATM    6  C2  UNL     1     -35.101  13.962  -4.502  1.00 20.00     0.040 C 
HETATM    7  C5  UNL     1     -35.105  14.064  -6.025  1.00 20.00     0.075 C 
HETATM    8  S10 UNL     1     -34.210  15.437  -6.803  1.00 20.00    -0.167 SA
HETATM    9  C6  UNL     1     -32.964  15.811  -5.539  1.00 20.00     0.104 C 
HETATM   10  C4  UNL     1     -33.526  16.694  -4.424  1.00 20.00     0.283 C 
ENDBRANCH   2   4
TORSDOF 1
ENDMDL
MODEL 6
REMARK VINA RESULT:      -3.6     11.453     12.622
REMARK  1 active torsions:
REMARK  status: ('A' for Active; 'I' for Inactive)
REMARK    1  A    between atoms: C7_7  and  N9_9 
ROOT
HETATM    1  C1  UNL     1     -36.071  13.876  -4.907  1.00 20.00     0.089 C 
HETATM    2  C7  UNL     1     -36.347  15.204  -4.360  1.00 20.00     0.395 C 
HETATM    3  N8  UNL     1     -35.854  12.822  -5.339  1.00 20.00    -0.195 NA
ENDROOT
BRANCH   2   4
HETATM    4  N9  UNL     1     -35.103  15.957  -4.160  1.00 20.00     0.102 N 
HETATM    5  C3  UNL     1     -35.070  17.112  -5.067  1.00 20.00     0.274 C 
HETATM    6  C2  UNL     1     -33.658  17.670  -5.263  1.00 20.00     0.040 C 
HETATM    7  C5  UNL     1     -33.275  18.845  -4.368  1.00 20.00     0.075 C 
HETATM    8  S10 UNL     1     -33.628  18.732  -2.591  1.00 20.00    -0.167 SA
HETATM    9  C6  UNL     1     -33.635  16.935  -2.344  1.00 20.00     0.104 C 
HETATM   10  C4  UNL     1     -34.971  16.307  -2.738  1.00 20.00     0.283 C 
ENDBRANCH   2   4
TORSDOF 1
ENDMDL
MODEL 7
REMARK VINA RESULT:      -3.6     11.302     12.197
REMARK  1 active torsions:
REMARK  status: ('A' for Active; 'I' for Inactive)
REMARK    1  A    between atoms: C7_7  and  N9_9 
ROOT
HETATM    1  C1  UNL     1     -35.262  13.784  -5.595  1.00 20.00     0.089 C 
HETATM    2  C7  UNL     1     -34.469  14.934  -6.025  1.00 20.00     0.395 C 
HETATM    3  N8  UNL     1     -35.891  12.870  -5.257  1.00 20.00    -0.195 NA
ENDROOT
BRANCH   2   4
HETATM    4  N9  UNL     1     -34.563  16.029  -5.051  1.00 20.00     0.102 N 
HETATM    5  C3  UNL     1     -35.967  16.426  -4.885  1.00 20.00     0.274 C 
HETATM    6  C2  UNL     1     -36.119  17.820  -4.271  1.00 20.00     0.040 C 
HETATM    7  C5  UNL     1     -36.323  17.865  -2.760  1.00 20.00     0.075 C 
HETATM    8  S10 UNL     1     -35.232  16.868  -1.707  1.00 20.00    -0.167 SA
HETATM    9  C6  UNL     1     -33.758  16.728  -2.755  1.00 20.00     0.104 C 
HETATM   10  C4  UNL     1     -33.901  15.624  -3.803  1.00 20.00     0.283 C 
ENDBRANCH   2   4
TORSDOF 1
ENDMDL
MODEL 8
REMARK VINA RESULT:      -3.5     11.419     12.448
REMARK  1 active torsions:
REMARK  status: ('A' for Active; 'I' for Inactive)
REMARK    1  A    between atoms: C7_7  and  N9_9 
ROOT
HETATM    1  C1  UNL     1     -34.726  16.452  -2.398  1.00 20.00     0.089 C 
HETATM    2  C7  UNL     1     -33.697  16.079  -3.368  1.00 20.00     0.395 C 
HETATM    3  N8  UNL     1     -35.540  16.747  -1.626  1.00 20.00    -0.195 NA
ENDROOT
BRANCH   2   4
HETATM    4  N9  UNL     1     -34.292  15.793  -4.679  1.00 20.00     0.102 N 
HETATM    5  C3  UNL     1     -33.248  15.809  -5.712  1.00 20.00     0.274 C 
HETATM    6  C2  UNL     1     -33.815  15.983  -7.123  1.00 20.00     0.040 C 
HETATM    7  C5  UNL     1     -34.045  14.699  -7.914  1.00 20.00     0.075 C 
HETATM    8  S10 UNL     1     -34.897  13.319  -7.097  1.00 20.00    -0.167 SA
HETATM    9  C6  UNL     1     -35.873  14.196  -5.845  1.00 20.00     0.104 C 
HETATM   10  C4  UNL     1     -35.045  14.533  -4.605  1.00 20.00     0.283 C 
ENDBRANCH   2   4
TORSDOF 1
ENDMDL
MODEL 9
REMARK VINA RESULT:      -3.5     11.654     12.607
REMARK  1 active torsions:
REMARK  status: ('A' for Active; 'I' for Inactive)
REMARK    1  A    between atoms: C7_7  and  N9_9 
ROOT
HETATM    1  C1  UNL     1     -35.598  13.394  -6.119  1.00 20.00     0.089 C 
HETATM    2  C7  UNL     1     -36.579  13.974  -5.202  1.00 20.00     0.395 C 
HETATM    3  N8  UNL     1     -34.822  12.930  -6.846  1.00 20.00    -0.195 NA
ENDROOT
BRANCH   2   4
HETATM    4  N9  UNL     1     -36.096  15.249  -4.659  1.00 20.00     0.102 N 
HETATM    5  C3  UNL     1     -34.891  15.020  -3.850  1.00 20.00     0.274 C 
HETATM    6  C2  UNL     1     -34.595  16.174  -2.890  1.00 20.00     0.040 C 
HETATM    7  C5  UNL     1     -33.600  17.218  -3.387  1.00 20.00     0.075 C 
HETATM    8  S10 UNL     1     -33.804  17.879  -5.066  1.00 20.00    -0.167 SA
HETATM    9  C6  UNL     1     -35.582  17.635  -5.329  1.00 20.00     0.104 C 
HETATM   10  C4  UNL     1     -35.908  16.205  -5.759  1.00 20.00     0.283 C 
ENDBRANCH   2   4
TORSDOF 1
ENDMDL
