MODEL 1
REMARK VINA RESULT:      -5.0      0.000      0.000
REMARK  3 active torsions:
REMARK  status: ('A' for Active; 'I' for Inactive)
REMARK    1  A    between atoms: C6_6  and  C9_9 
REMARK    2  A    between atoms: C7_7  and  C10_10 
REMARK    3  A    between atoms: C10_10  and  N11_11 
ROOT
HETATM    1  C1  UNL     1     -34.679   6.006   3.231  1.00 20.00     0.032 C 
HETATM    2  C2  UNL     1     -34.063   7.361   5.271  1.00 20.00     0.032 C 
HETATM    3  C3  UNL     1     -33.252   6.146   2.715  1.00 20.00     0.235 C 
HETATM    4  C4  UNL     1     -32.640   7.494   4.745  1.00 20.00     0.235 C 
HETATM    5  C6  UNL     1     -34.782   6.105   4.759  1.00 20.00    -0.012 C 
HETATM    6  N11 UNL     1     -32.611   7.409   3.238  1.00 20.00    -0.069 N 
HETATM    7  H32 UNL     1     -31.584   7.331   2.979  1.00 20.00     0.280 HD
ENDROOT
BRANCH   6   8
HETATM    8  C10 UNL     1     -33.090   8.660   2.552  1.00 20.00     0.268 C 
BRANCH   8   9
HETATM    9  C7  UNL     1     -32.217   8.931   1.345  1.00 20.00     0.171 A 
HETATM   10  C5  UNL     1     -32.316  10.226   0.589  1.00 20.00     0.201 A 
HETATM   11  O12 UNL     1     -32.927   9.019   0.105  1.00 20.00    -0.380 OA
ENDBRANCH   8   9
ENDBRANCH   6   8
BRANCH   5  12
HETATM   12  C9  UNL     1     -34.261   4.838   5.443  1.00 20.00     0.000 C 
HETATM   13  C8  UNL     1     -34.089   3.716   4.471  1.00 20.00     0.005 C 
ENDBRANCH   5  12
TORSDOF 3
ENDMDL
MODEL 2
REMARK VINA RESULT:      -4.7     11.244     11.952
REMARK  3 active torsions:
REMARK  status: ('A' for Active; 'I' for Inactive)
REMARK    1  A    between atoms: C6_6  and  C9_9 
REMARK    2  A    between atoms: C7_7  and  C10_10 
REMARK    3  A    between atoms: C10_10  and  N11_11 
ROOT
HETATM    1  C1  UNL     1     -33.610  16.058  -3.122  1.00 20.00     0.032 C 
HETATM    2  C2  UNL     1     -35.630  16.873  -1.845  1.00 20.00     0.032 C 
HETATM    3  C3  UNL     1     -34.275  16.475  -4.428  1.00 20.00     0.235 C 
HETATM    4  C4  UNL     1     -36.284  17.286  -3.157  1.00 20.00     0.235 C 
HETATM    5  C6  UNL     1     -34.096  16.864  -1.911  1.00 20.00    -0.012 C 
HETATM    6  N11 UNL     1     -35.779  16.443  -4.302  1.00 20.00    -0.069 N 
HETATM    7  H32 UNL     1     -36.145  16.912  -5.182  1.00 20.00     0.280 HD
ENDROOT
BRANCH   6   8
HETATM    8  C10 UNL     1     -36.359  15.055  -4.333  1.00 20.00     0.268 C 
BRANCH   8   9
HETATM    9  C7  UNL     1     -35.466  14.159  -5.164  1.00 20.00     0.171 A 
HETATM   10  C5  UNL     1     -35.951  13.556  -6.453  1.00 20.00     0.201 A 
HETATM   11  O12 UNL     1     -35.893  12.795  -5.236  1.00 20.00    -0.380 OA
ENDBRANCH   8   9
ENDBRANCH   6   8
BRANCH   5  12
HETATM   12  C9  UNL     1     -33.523  18.284  -1.912  1.00 20.00     0.000 C 
HETATM   13  C8  UNL     1     -32.442  18.444  -0.893  1.00 20.00     0.005 C 
ENDBRANCH   5  12
TORSDOF 3
ENDMDL
MODEL 3
REMARK VINA RESULT:      -4.5     11.423     12.152
REMARK  3 active torsions:
REMARK  status: ('A' for Active; 'I' for Inactive)
REMARK    1  A    between atoms: C6_6  and  C9_9 
REMARK    2  A    between atoms: C7_7  and  C10_10 
REMARK    3  A    between atoms: C10_10  and  N11_11 
ROOT
HETATM    1  C1  UNL     1     -33.277  15.746  -3.815  1.00 20.00     0.032 C 
HETATM    2  C2  UNL     1     -35.458  16.428  -2.741  1.00 20.00     0.032 C 
HETATM    3  C3  UNL     1     -33.809  16.203  -5.169  1.00 20.00     0.235 C 
HETATM    4  C4  UNL     1     -35.978  16.881  -4.098  1.00 20.00     0.235 C 
HETATM    5  C6  UNL     1     -33.927  16.475  -2.633  1.00 20.00    -0.012 C 
HETATM    6  N11 UNL     1     -35.315  16.112  -5.215  1.00 20.00    -0.069 N 
HETATM    7  H32 UNL     1     -35.599  16.611  -6.109  1.00 20.00     0.280 HD
ENDROOT
BRANCH   6   8
HETATM    8  C10 UNL     1     -35.832  14.708  -5.373  1.00 20.00     0.268 C 
BRANCH   8   9
HETATM    9  C7  UNL     1     -34.907  13.936  -6.289  1.00 20.00     0.171 A 
HETATM   10  C5  UNL     1     -35.415  13.301  -7.553  1.00 20.00     0.201 A 
HETATM   11  O12 UNL     1     -35.178  12.533  -6.362  1.00 20.00    -0.380 OA
ENDBRANCH   8   9
ENDBRANCH   6   8
BRANCH   5  12
HETATM   12  C9  UNL     1     -33.415  17.912  -2.505  1.00 20.00     0.000 C 
HETATM   13  C8  UNL     1     -32.665  18.120  -1.230  1.00 20.00     0.005 C 
ENDBRANCH   5  12
TORSDOF 3
ENDMDL
MODEL 4
REMARK VINA RESULT:      -4.5     10.866     11.847
REMARK  3 active torsions:
REMARK  status: ('A' for Active; 'I' for Inactive)
REMARK    1  A    between atoms: C6_6  and  C9_9 
REMARK    2  A    between atoms: C7_7  and  C10_10 
REMARK    3  A    between atoms: C10_10  and  N11_11 
ROOT
HETATM    1  C1  UNL     1     -36.182  16.939  -3.889  1.00 20.00     0.032 C 
HETATM    2  C2  UNL     1     -33.751  16.377  -3.503  1.00 20.00     0.032 C 
HETATM    3  C3  UNL     1     -36.475  15.466  -4.148  1.00 20.00     0.235 C 
HETATM    4  C4  UNL     1     -34.056  14.908  -3.763  1.00 20.00     0.235 C 
HETATM    5  C6  UNL     1     -34.963  17.164  -2.985  1.00 20.00    -0.012 C 
HETATM    6  N11 UNL     1     -35.250  14.757  -4.674  1.00 20.00    -0.069 N 
HETATM    7  H32 UNL     1     -35.493  13.723  -4.653  1.00 20.00     0.280 HD
ENDROOT
BRANCH   6   8
HETATM    8  C10 UNL     1     -34.952  15.056  -6.118  1.00 20.00     0.268 C 
BRANCH   8   9
HETATM    9  C7  UNL     1     -34.501  13.786  -6.807  1.00 20.00     0.171 A 
HETATM   10  C5  UNL     1     -35.420  13.029  -7.724  1.00 20.00     0.201 A 
HETATM   11  O12 UNL     1     -35.177  12.601  -6.374  1.00 20.00    -0.380 OA
ENDBRANCH   8   9
ENDBRANCH   6   8
BRANCH   5  12
HETATM   12  C9  UNL     1     -35.274  16.824  -1.525  1.00 20.00     0.000 C 
HETATM   13  C8  UNL     1     -34.441  17.630  -0.581  1.00 20.00     0.005 C 
ENDBRANCH   5  12
TORSDOF 3
ENDMDL
MODEL 5
REMARK VINA RESULT:      -4.2     11.370     12.236
REMARK  3 active torsions:
REMARK  status: ('A' for Active; 'I' for Inactive)
REMARK    1  A    between atoms: C6_6  and  C9_9 
REMARK    2  A    between atoms: C7_7  and  C10_10 
REMARK    3  A    between atoms: C10_10  and  N11_11 
ROOT
HETATM    1  C1  UNL     1     -33.324  17.420  -1.952  1.00 20.00     0.032 C 
HETATM    2  C2  UNL     1     -35.455  16.266  -2.661  1.00 20.00     0.032 C 
HETATM    3  C3  UNL     1     -33.435  18.349  -3.155  1.00 20.00     0.235 C 
HETATM    4  C4  UNL     1     -35.555  17.201  -3.859  1.00 20.00     0.235 C 
HETATM    5  C6  UNL     1     -34.678  16.872  -1.484  1.00 20.00    -0.012 C 
HETATM    6  N11 UNL     1     -34.190  17.687  -4.281  1.00 20.00    -0.069 N 
HETATM    7  H32 UNL     1     -34.371  18.457  -4.990  1.00 20.00     0.280 HD
ENDROOT
BRANCH   6   8
HETATM    8  C10 UNL     1     -33.385  16.656  -5.025  1.00 20.00     0.268 C 
BRANCH   8   9
HETATM    9  C7  UNL     1     -34.253  16.015  -6.086  1.00 20.00     0.171 A 
HETATM   10  C5  UNL     1     -34.314  14.522  -6.245  1.00 20.00     0.201 A 
HETATM   11  O12 UNL     1     -33.529  15.345  -7.123  1.00 20.00    -0.380 OA
ENDBRANCH   8   9
ENDBRANCH   6   8
BRANCH   5  12
HETATM   12  C9  UNL     1     -35.499  17.941  -0.758  1.00 20.00     0.000 C 
HETATM   13  C8  UNL     1     -35.739  17.577   0.671  1.00 20.00     0.005 C 
ENDBRANCH   5  12
TORSDOF 3
ENDMDL
MODEL 6
REMARK VINA RESULT:      -4.2     10.969     11.996
REMARK  3 active torsions:
REMARK  status: ('A' for Active; 'I' for Inactive)
REMARK    1  A    between atoms: C6_6  and  C9_9 
REMARK    2  A    between atoms: C7_7  and  C10_10 
REMARK    3  A    between atoms: C10_10  and  N11_11 
ROOT
HETATM    1  C1  UNL     1     -34.860  14.217  -4.339  1.00 20.00     0.032 C 
HETATM    2  C2  UNL     1     -32.961  15.624  -5.227  1.00 20.00     0.032 C 
HETATM    3  C3  UNL     1     -35.668  15.483  -4.079  1.00 20.00     0.235 C 
HETATM    4  C4  UNL     1     -33.778  16.882  -4.964  1.00 20.00     0.235 C 
HETATM    5  C6  UNL     1     -33.827  14.379  -5.461  1.00 20.00    -0.012 C 
HETATM    6  N11 UNL     1     -34.758  16.663  -3.837  1.00 20.00    -0.069 N 
HETATM    7  H32 UNL     1     -35.394  17.515  -3.846  1.00 20.00     0.280 HD
ENDROOT
BRANCH   6   8
HETATM    8  C10 UNL     1     -34.124  16.668  -2.473  1.00 20.00     0.268 C 
BRANCH   8   9
HETATM    9  C7  UNL     1     -34.847  17.661  -1.590  1.00 20.00     0.171 A 
HETATM   10  C5  UNL     1     -34.394  17.925  -0.181  1.00 20.00     0.201 A 
HETATM   11  O12 UNL     1     -35.520  17.080  -0.468  1.00 20.00    -0.380 OA
ENDBRANCH   8   9
ENDBRANCH   6   8
BRANCH   5  12
HETATM   12  C9  UNL     1     -34.491  14.405  -6.841  1.00 20.00     0.000 C 
HETATM   13  C8  UNL     1     -35.147  13.102  -7.163  1.00 20.00     0.005 C 
ENDBRANCH   5  12
TORSDOF 3
ENDMDL
MODEL 7
REMARK VINA RESULT:      -4.0     11.068     12.333
REMARK  3 active torsions:
REMARK  status: ('A' for Active; 'I' for Inactive)
REMARK    1  A    between atoms: C6_6  and  C9_9 
REMARK    2  A    between atoms: C7_7  and  C10_10 
REMARK    3  A    between atoms: C10_10  and  N11_11 
ROOT
HETATM    1  C1  UNL     1     -35.199  17.737  -3.546  1.00 20.00     0.032 C 
HETATM    2  C2  UNL     1     -33.510  15.985  -4.220  1.00 20.00     0.032 C 
HETATM    3  C3  UNL     1     -36.217  16.638  -3.266  1.00 20.00     0.235 C 
HETATM    4  C4  UNL     1     -34.536  14.896  -3.936  1.00 20.00     0.235 C 
HETATM    5  C6  UNL     1     -33.746  17.265  -3.407  1.00 20.00    -0.012 C 
HETATM    6  N11 UNL     1     -35.941  15.418  -4.111  1.00 20.00    -0.069 N 
HETATM    7  H32 UNL     1     -36.575  14.659  -3.725  1.00 20.00     0.280 HD
ENDROOT
BRANCH   6   8
HETATM    8  C10 UNL     1     -36.354  15.573  -5.550  1.00 20.00     0.268 C 
BRANCH   8   9
HETATM    9  C7  UNL     1     -37.443  14.571  -5.866  1.00 20.00     0.171 A 
HETATM   10  C5  UNL     1     -38.889  14.879  -5.591  1.00 20.00     0.201 A 
HETATM   11  O12 UNL     1     -38.115  14.039  -4.720  1.00 20.00    -0.380 OA
ENDBRANCH   8   9
ENDBRANCH   6   8
BRANCH   5  12
HETATM   12  C9  UNL     1     -33.351  17.081  -1.939  1.00 20.00     0.000 C 
HETATM   13  C8  UNL     1     -33.317  18.384  -1.208  1.00 20.00     0.005 C 
ENDBRANCH   5  12
TORSDOF 3
ENDMDL
MODEL 8
REMARK VINA RESULT:      -3.9     11.587     12.749
REMARK  3 active torsions:
REMARK  status: ('A' for Active; 'I' for Inactive)
REMARK    1  A    between atoms: C6_6  and  C9_9 
REMARK    2  A    between atoms: C7_7  and  C10_10 
REMARK    3  A    between atoms: C10_10  and  N11_11 
ROOT
HETATM    1  C1  UNL     1     -33.620  15.374  -4.011  1.00 20.00     0.032 C 
HETATM    2  C2  UNL     1     -35.770  16.582  -3.468  1.00 20.00     0.032 C 
HETATM    3  C3  UNL     1     -33.446  16.253  -5.244  1.00 20.00     0.235 C 
HETATM    4  C4  UNL     1     -35.584  17.454  -4.703  1.00 20.00     0.235 C 
HETATM    5  C6  UNL     1     -34.449  16.041  -2.905  1.00 20.00    -0.012 C 
HETATM    6  N11 UNL     1     -34.781  16.733  -5.758  1.00 20.00    -0.069 N 
HETATM    7  H32 UNL     1     -34.553  17.468  -6.491  1.00 20.00     0.280 HD
ENDROOT
BRANCH   6   8
HETATM    8  C10 UNL     1     -35.560  15.679  -6.496  1.00 20.00     0.268 C 
BRANCH   8   9
HETATM    9  C7  UNL     1     -36.888  16.257  -6.938  1.00 20.00     0.171 A 
HETATM   10  C5  UNL     1     -38.185  15.577  -6.598  1.00 20.00     0.201 A 
HETATM   11  O12 UNL     1     -37.590  15.465  -7.901  1.00 20.00    -0.380 OA
ENDBRANCH   8   9
ENDBRANCH   6   8
BRANCH   5  12
HETATM   12  C9  UNL     1     -33.653  17.134  -2.186  1.00 20.00     0.000 C 
HETATM   13  C8  UNL     1     -34.279  17.505  -0.881  1.00 20.00     0.005 C 
ENDBRANCH   5  12
TORSDOF 3
ENDMDL
MODEL 9
REMARK VINA RESULT:      -3.6     11.466     12.475
REMARK  3 active torsions:
REMARK  status: ('A' for Active; 'I' for Inactive)
REMARK    1  A    between atoms: C6_6  and  C9_9 
REMARK    2  A    between atoms: C7_7  and  C10_10 
REMARK    3  A    between atoms: C10_10  and  N11_11 
ROOT
HETATM    1  C1  UNL     1     -35.106  16.398  -2.229  1.00 20.00     0.032 C 
HETATM    2  C2  UNL     1     -33.100  17.774  -1.554  1.00 20.00     0.032 C 
HETATM    3  C3  UNL     1     -36.020  17.557  -1.849  1.00 20.00     0.235 C 
HETATM    4  C4  UNL     1     -34.024  18.926  -1.179  1.00 20.00     0.235 C 
HETATM    5  C6  UNL     1     -33.693  16.846  -2.623  1.00 20.00    -0.012 C 
HETATM    6  N11 UNL     1     -35.388  18.416  -0.782  1.00 20.00    -0.069 N 
HETATM    7  H32 UNL     1     -36.003  19.280  -0.715  1.00 20.00     0.280 HD
ENDROOT
BRANCH   6   8
HETATM    8  C10 UNL     1     -35.429  17.804   0.591  1.00 20.00     0.268 C 
BRANCH   8   9
HETATM    9  C7  UNL     1     -36.097  18.767   1.548  1.00 20.00     0.171 A 
HETATM   10  C5  UNL     1     -37.371  18.402   2.258  1.00 20.00     0.201 A 
HETATM   11  O12 UNL     1     -37.366  19.260   1.106  1.00 20.00    -0.380 OA
ENDBRANCH   8   9
ENDBRANCH   6   8
BRANCH   5  12
HETATM   12  C9  UNL     1     -33.674  17.498  -4.009  1.00 20.00     0.000 C 
HETATM   13  C8  UNL     1     -33.313  16.516  -5.076  1.00 20.00     0.005 C 
ENDBRANCH   5  12
TORSDOF 3
ENDMDL
