MODEL 1
REMARK VINA RESULT:      -4.8      0.000      0.000
REMARK  3 active torsions:
REMARK  status: ('A' for Active; 'I' for Inactive)
REMARK    1  A    between atoms: C3_3  and  C4_4 
REMARK    2  A    between atoms: C3_3  and  C5_5 
REMARK    3  A    between atoms: C4_4  and  N6_6 
ROOT
HETATM    1  C3  UNL     1     -33.917   7.270   3.670  1.00 20.00     0.152 C 
ENDROOT
BRANCH   1   2
HETATM    2  C4  UNL     1     -33.821   6.449   4.966  1.00 20.00     0.224 C 
HETATM    3  C1  UNL     1     -33.916   7.363   6.187  1.00 20.00     0.043 C 
BRANCH   2   4
HETATM    4  N6  UNL     1     -34.885   5.448   5.045  1.00 20.00     0.083 N 
HETATM    5  C2  UNL     1     -34.451   4.189   4.459  1.00 20.00     0.307 C 
HETATM    6  H19 UNL     1     -35.700   5.794   4.543  1.00 20.00     0.315 HD
ENDBRANCH   2   4
ENDBRANCH   1   2
BRANCH   1   7
HETATM    7  C5  UNL     1     -32.664   7.225   2.817  1.00 20.00     0.389 C 
HETATM    8  F7  UNL     1     -31.603   7.769   3.447  1.00 20.00    -0.171 F 
HETATM    9  F8  UNL     1     -32.853   7.916   1.670  1.00 20.00    -0.171 F 
HETATM   10  F9  UNL     1     -32.346   5.957   2.481  1.00 20.00    -0.171 F 
ENDBRANCH   1   7
TORSDOF 3
ENDMDL
MODEL 2
REMARK VINA RESULT:      -4.8      0.167      1.255
REMARK  3 active torsions:
REMARK  status: ('A' for Active; 'I' for Inactive)
REMARK    1  A    between atoms: C3_3  and  C4_4 
REMARK    2  A    between atoms: C3_3  and  C5_5 
REMARK    3  A    between atoms: C4_4  and  N6_6 
ROOT
HETATM    1  C3  UNL     1     -33.869   7.440   3.659  1.00 20.00     0.152 C 
ENDROOT
BRANCH   1   2
HETATM    2  C4  UNL     1     -33.856   6.456   4.839  1.00 20.00     0.224 C 
HETATM    3  C1  UNL     1     -33.968   7.207   6.165  1.00 20.00     0.043 C 
BRANCH   2   4
HETATM    4  N6  UNL     1     -34.957   5.497   4.747  1.00 20.00     0.083 N 
HETATM    5  C2  UNL     1     -34.454   4.160   4.472  1.00 20.00     0.307 C 
HETATM    6  H19 UNL     1     -35.583   5.786   3.999  1.00 20.00     0.315 HD
ENDBRANCH   2   4
ENDBRANCH   1   2
BRANCH   1   7
HETATM    7  C5  UNL     1     -32.636   7.365   2.779  1.00 20.00     0.389 C 
HETATM    8  F7  UNL     1     -32.784   8.068   1.638  1.00 20.00    -0.171 F 
HETATM    9  F8  UNL     1     -32.383   6.082   2.435  1.00 20.00    -0.171 F 
HETATM   10  F9  UNL     1     -31.546   7.836   3.422  1.00 20.00    -0.171 F 
ENDBRANCH   1   7
TORSDOF 3
ENDMDL
MODEL 3
REMARK VINA RESULT:      -4.7      2.895      3.678
REMARK  3 active torsions:
REMARK  status: ('A' for Active; 'I' for Inactive)
REMARK    1  A    between atoms: C3_3  and  C4_4 
REMARK    2  A    between atoms: C3_3  and  C5_5 
REMARK    3  A    between atoms: C4_4  and  N6_6 
ROOT
HETATM    1  C3  UNL     1     -33.501   5.759   3.796  1.00 20.00     0.152 C 
ENDROOT
BRANCH   1   2
HETATM    2  C4  UNL     1     -33.379   7.276   4.007  1.00 20.00     0.224 C 
HETATM    3  C1  UNL     1     -33.377   7.611   5.498  1.00 20.00     0.043 C 
BRANCH   2   4
HETATM    4  N6  UNL     1     -32.155   7.803   3.406  1.00 20.00     0.083 N 
HETATM    5  C2  UNL     1     -32.422   8.341   2.081  1.00 20.00     0.307 C 
HETATM    6  H19 UNL     1     -31.472   7.051   3.336  1.00 20.00     0.315 HD
ENDBRANCH   2   4
ENDBRANCH   1   2
BRANCH   1   7
HETATM    7  C5  UNL     1     -34.736   5.145   4.428  1.00 20.00     0.389 C 
HETATM    8  F7  UNL     1     -34.752   5.303   5.767  1.00 20.00    -0.171 F 
HETATM    9  F8  UNL     1     -34.780   3.817   4.177  1.00 20.00    -0.171 F 
HETATM   10  F9  UNL     1     -35.865   5.691   3.929  1.00 20.00    -0.171 F 
ENDBRANCH   1   7
TORSDOF 3
ENDMDL
MODEL 4
REMARK VINA RESULT:      -4.6      1.877      2.722
REMARK  3 active torsions:
REMARK  status: ('A' for Active; 'I' for Inactive)
REMARK    1  A    between atoms: C3_3  and  C4_4 
REMARK    2  A    between atoms: C3_3  and  C5_5 
REMARK    3  A    between atoms: C4_4  and  N6_6 
ROOT
HETATM    1  C3  UNL     1     -32.000   7.937   2.929  1.00 20.00     0.152 C 
ENDROOT
BRANCH   1   2
HETATM    2  C4  UNL     1     -33.308   7.233   3.325  1.00 20.00     0.224 C 
HETATM    3  C1  UNL     1     -33.293   5.776   2.863  1.00 20.00     0.043 C 
BRANCH   2   4
HETATM    4  N6  UNL     1     -33.516   7.265   4.772  1.00 20.00     0.083 N 
HETATM    5  C2  UNL     1     -34.366   6.163   5.195  1.00 20.00     0.307 C 
HETATM    6  H19 UNL     1     -33.955   8.149   5.022  1.00 20.00     0.315 HD
ENDBRANCH   2   4
ENDBRANCH   1   2
BRANCH   1   7
HETATM    7  C5  UNL     1     -32.092   8.729   1.639  1.00 20.00     0.389 C 
HETATM    8  F7  UNL     1     -33.215   8.445   0.949  1.00 20.00    -0.171 F 
HETATM    9  F8  UNL     1     -31.041   8.443   0.838  1.00 20.00    -0.171 F 
HETATM   10  F9  UNL     1     -32.072  10.058   1.877  1.00 20.00    -0.171 F 
ENDBRANCH   1   7
TORSDOF 3
ENDMDL
MODEL 5
REMARK VINA RESULT:      -4.6      1.855      2.452
REMARK  3 active torsions:
REMARK  status: ('A' for Active; 'I' for Inactive)
REMARK    1  A    between atoms: C3_3  and  C4_4 
REMARK    2  A    between atoms: C3_3  and  C5_5 
REMARK    3  A    between atoms: C4_4  and  N6_6 
ROOT
HETATM    1  C3  UNL     1     -32.028   7.926   2.963  1.00 20.00     0.152 C 
ENDROOT
BRANCH   1   2
HETATM    2  C4  UNL     1     -33.335   7.197   3.313  1.00 20.00     0.224 C 
HETATM    3  C1  UNL     1     -33.275   5.741   2.853  1.00 20.00     0.043 C 
BRANCH   2   4
HETATM    4  N6  UNL     1     -33.593   7.225   4.752  1.00 20.00     0.083 N 
HETATM    5  C2  UNL     1     -34.407   6.088   5.152  1.00 20.00     0.307 C 
HETATM    6  H19 UNL     1     -34.080   8.089   4.982  1.00 20.00     0.315 HD
ENDBRANCH   2   4
ENDBRANCH   1   2
BRANCH   1   7
HETATM    7  C5  UNL     1     -32.090   8.717   1.670  1.00 20.00     0.389 C 
HETATM    8  F7  UNL     1     -32.077  10.048   1.889  1.00 20.00    -0.171 F 
HETATM    9  F8  UNL     1     -33.227   8.429   0.998  1.00 20.00    -0.171 F 
HETATM   10  F9  UNL     1     -31.052   8.416   0.862  1.00 20.00    -0.171 F 
ENDBRANCH   1   7
TORSDOF 3
ENDMDL
MODEL 6
REMARK VINA RESULT:      -4.6      2.820      3.889
REMARK  3 active torsions:
REMARK  status: ('A' for Active; 'I' for Inactive)
REMARK    1  A    between atoms: C3_3  and  C4_4 
REMARK    2  A    between atoms: C3_3  and  C5_5 
REMARK    3  A    between atoms: C4_4  and  N6_6 
ROOT
HETATM    1  C3  UNL     1     -33.144   6.264   2.964  1.00 20.00     0.152 C 
ENDROOT
BRANCH   1   2
HETATM    2  C4  UNL     1     -32.848   7.769   2.868  1.00 20.00     0.224 C 
HETATM    3  C1  UNL     1     -31.575   8.115   3.640  1.00 20.00     0.043 C 
BRANCH   2   4
HETATM    4  N6  UNL     1     -32.684   8.193   1.477  1.00 20.00     0.083 N 
HETATM    5  C2  UNL     1     -32.323   9.600   1.407  1.00 20.00     0.307 C 
HETATM    6  H19 UNL     1     -33.560   8.041   0.981  1.00 20.00     0.315 HD
ENDBRANCH   2   4
ENDBRANCH   1   2
BRANCH   1   7
HETATM    7  C5  UNL     1     -34.248   5.914   3.945  1.00 20.00     0.389 C 
HETATM    8  F7  UNL     1     -34.193   6.670   5.060  1.00 20.00    -0.171 F 
HETATM    9  F8  UNL     1     -34.143   4.621   4.326  1.00 20.00    -0.171 F 
HETATM   10  F9  UNL     1     -35.467   6.078   3.388  1.00 20.00    -0.171 F 
ENDBRANCH   1   7
TORSDOF 3
ENDMDL
MODEL 7
REMARK VINA RESULT:      -4.6      2.842      3.883
REMARK  3 active torsions:
REMARK  status: ('A' for Active; 'I' for Inactive)
REMARK    1  A    between atoms: C3_3  and  C4_4 
REMARK    2  A    between atoms: C3_3  and  C5_5 
REMARK    3  A    between atoms: C4_4  and  N6_6 
ROOT
HETATM    1  C3  UNL     1     -33.273   6.196   3.018  1.00 20.00     0.152 C 
ENDROOT
BRANCH   1   2
HETATM    2  C4  UNL     1     -32.974   7.702   2.943  1.00 20.00     0.224 C 
HETATM    3  C1  UNL     1     -31.652   8.021   3.639  1.00 20.00     0.043 C 
BRANCH   2   4
HETATM    4  N6  UNL     1     -32.898   8.162   1.556  1.00 20.00     0.083 N 
HETATM    5  C2  UNL     1     -32.293   9.483   1.485  1.00 20.00     0.307 C 
HETATM    6  H19 UNL     1     -33.838   8.197   1.169  1.00 20.00     0.315 HD
ENDBRANCH   2   4
ENDBRANCH   1   2
BRANCH   1   7
HETATM    7  C5  UNL     1     -34.404   5.839   3.964  1.00 20.00     0.389 C 
HETATM    8  F7  UNL     1     -34.367   4.542   4.331  1.00 20.00    -0.171 F 
HETATM    9  F8  UNL     1     -35.599   6.057   3.369  1.00 20.00    -0.171 F 
HETATM   10  F9  UNL     1     -34.363   6.592   5.083  1.00 20.00    -0.171 F 
ENDBRANCH   1   7
TORSDOF 3
ENDMDL
MODEL 8
REMARK VINA RESULT:      -4.6      2.475      3.503
REMARK  3 active torsions:
REMARK  status: ('A' for Active; 'I' for Inactive)
REMARK    1  A    between atoms: C3_3  and  C4_4 
REMARK    2  A    between atoms: C3_3  and  C5_5 
REMARK    3  A    between atoms: C4_4  and  N6_6 
ROOT
HETATM    1  C3  UNL     1     -33.043   8.783   1.719  1.00 20.00     0.152 C 
ENDROOT
BRANCH   1   2
HETATM    2  C4  UNL     1     -32.222   7.692   2.424  1.00 20.00     0.224 C 
HETATM    3  C1  UNL     1     -31.499   8.268   3.641  1.00 20.00     0.043 C 
BRANCH   2   4
HETATM    4  N6  UNL     1     -33.071   6.585   2.863  1.00 20.00     0.083 N 
HETATM    5  C2  UNL     1     -33.825   6.953   4.052  1.00 20.00     0.307 C 
HETATM    6  H19 UNL     1     -32.483   5.780   3.069  1.00 20.00     0.315 HD
ENDBRANCH   2   4
ENDBRANCH   1   2
BRANCH   1   7
HETATM    7  C5  UNL     1     -32.366   9.371   0.496  1.00 20.00     0.389 C 
HETATM    8  F7  UNL     1     -33.055   9.120  -0.635  1.00 20.00    -0.171 F 
HETATM    9  F8  UNL     1     -31.131   8.841   0.344  1.00 20.00    -0.171 F 
HETATM   10  F9  UNL     1     -32.223  10.709   0.611  1.00 20.00    -0.171 F 
ENDBRANCH   1   7
TORSDOF 3
ENDMDL
MODEL 9
REMARK VINA RESULT:      -4.6      2.771      3.909
REMARK  3 active torsions:
REMARK  status: ('A' for Active; 'I' for Inactive)
REMARK    1  A    between atoms: C3_3  and  C4_4 
REMARK    2  A    between atoms: C3_3  and  C5_5 
REMARK    3  A    between atoms: C4_4  and  N6_6 
ROOT
HETATM    1  C3  UNL     1     -33.851   6.851   4.562  1.00 20.00     0.152 C 
ENDROOT
BRANCH   1   2
HETATM    2  C4  UNL     1     -32.820   6.786   3.424  1.00 20.00     0.224 C 
HETATM    3  C1  UNL     1     -33.522   6.685   2.070  1.00 20.00     0.043 C 
BRANCH   2   4
HETATM    4  N6  UNL     1     -31.957   7.967   3.418  1.00 20.00     0.083 N 
HETATM    5  C2  UNL     1     -31.961   8.602   2.109  1.00 20.00     0.307 C 
HETATM    6  H19 UNL     1     -31.008   7.682   3.654  1.00 20.00     0.315 HD
ENDBRANCH   2   4
ENDBRANCH   1   2
BRANCH   1   7
HETATM    7  C5  UNL     1     -34.686   5.593   4.710  1.00 20.00     0.389 C 
HETATM    8  F7  UNL     1     -34.044   4.501   4.247  1.00 20.00    -0.171 F 
HETATM    9  F8  UNL     1     -35.839   5.711   4.013  1.00 20.00    -0.171 F 
HETATM   10  F9  UNL     1     -35.012   5.371   6.001  1.00 20.00    -0.171 F 
ENDBRANCH   1   7
TORSDOF 3
ENDMDL
