MODEL 1
REMARK VINA RESULT:      -4.4      0.000      0.000
REMARK  1 active torsions:
REMARK  status: ('A' for Active; 'I' for Inactive)
REMARK    1  A    between atoms: C5_5  and  N7_7 
ROOT
HETATM    1  C1  UNL     1     -32.091   8.351   2.106  1.00 20.00     0.158 C 
HETATM    2  N7  UNL     1     -32.260   7.752   3.102  1.00 20.00    -0.268 NA
HETATM    3  S9  UNL     1     -31.836   9.166   0.761  1.00 20.00    -0.055 SA
ENDROOT
BRANCH   2   4
HETATM    4  C5  UNL     1     -33.633   7.303   3.328  1.00 20.00     0.139 C 
HETATM    5  C2  UNL     1     -33.885   5.992   2.586  1.00 20.00     0.059 C 
HETATM    6  C3  UNL     1     -34.040   4.951   3.684  1.00 20.00     0.274 C 
HETATM    7  N8  UNL     1     -34.615   5.737   4.775  1.00 20.00     0.086 N 
HETATM    8  C4  UNL     1     -33.836   6.976   4.806  1.00 20.00     0.299 C 
HETATM    9  C6  UNL     1     -34.583   5.029   6.047  1.00 20.00     0.310 C 
ENDBRANCH   2   4
TORSDOF 1
ENDMDL
MODEL 2
REMARK VINA RESULT:      -3.6      1.522      2.257
REMARK  1 active torsions:
REMARK  status: ('A' for Active; 'I' for Inactive)
REMARK    1  A    between atoms: C5_5  and  N7_7 
ROOT
HETATM    1  C1  UNL     1     -32.501   9.295   1.013  1.00 20.00     0.158 C 
HETATM    2  N7  UNL     1     -32.139   9.290   2.131  1.00 20.00    -0.268 NA
HETATM    3  S9  UNL     1     -32.989   9.330  -0.504  1.00 20.00    -0.055 SA
ENDROOT
BRANCH   2   4
HETATM    4  C5  UNL     1     -32.007   7.962   2.730  1.00 20.00     0.139 C 
HETATM    5  C2  UNL     1     -31.972   8.075   4.253  1.00 20.00     0.059 C 
HETATM    6  C3  UNL     1     -33.282   7.455   4.715  1.00 20.00     0.274 C 
HETATM    7  N8  UNL     1     -33.529   6.449   3.682  1.00 20.00     0.086 N 
HETATM    8  C4  UNL     1     -33.245   7.126   2.415  1.00 20.00     0.299 C 
HETATM    9  C6  UNL     1     -34.883   5.917   3.737  1.00 20.00     0.310 C 
ENDBRANCH   2   4
TORSDOF 1
ENDMDL
MODEL 3
REMARK VINA RESULT:      -3.4     11.272     12.485
REMARK  1 active torsions:
REMARK  status: ('A' for Active; 'I' for Inactive)
REMARK    1  A    between atoms: C5_5  and  N7_7 
ROOT
HETATM    1  C1  UNL     1     -35.475  13.379  -6.193  1.00 20.00     0.158 C 
HETATM    2  N7  UNL     1     -35.439  13.173  -5.037  1.00 20.00    -0.268 NA
HETATM    3  S9  UNL     1     -35.537  13.635  -7.765  1.00 20.00    -0.055 SA
ENDROOT
BRANCH   2   4
HETATM    4  C5  UNL     1     -34.833  14.239  -4.240  1.00 20.00     0.139 C 
HETATM    5  C2  UNL     1     -33.333  14.313  -4.515  1.00 20.00     0.059 C 
HETATM    6  C3  UNL     1     -33.142  15.628  -5.255  1.00 20.00     0.274 C 
HETATM    7  N8  UNL     1     -34.209  16.456  -4.695  1.00 20.00     0.086 N 
HETATM    8  C4  UNL     1     -35.391  15.592  -4.674  1.00 20.00     0.299 C 
HETATM    9  C6  UNL     1     -34.425  17.677  -5.459  1.00 20.00     0.310 C 
ENDBRANCH   2   4
TORSDOF 1
ENDMDL
MODEL 4
REMARK VINA RESULT:      -3.4     11.552     12.436
REMARK  1 active torsions:
REMARK  status: ('A' for Active; 'I' for Inactive)
REMARK    1  A    between atoms: C5_5  and  N7_7 
ROOT
HETATM    1  C1  UNL     1     -37.498  14.920  -4.740  1.00 20.00     0.158 C 
HETATM    2  N7  UNL     1     -37.374  13.772  -4.959  1.00 20.00    -0.268 NA
HETATM    3  S9  UNL     1     -37.693  16.473  -4.438  1.00 20.00    -0.055 SA
ENDROOT
BRANCH   2   4
HETATM    4  C5  UNL     1     -36.023  13.359  -5.336  1.00 20.00     0.139 C 
HETATM    5  C2  UNL     1     -35.739  13.753  -6.785  1.00 20.00     0.059 C 
HETATM    6  C3  UNL     1     -34.690  14.849  -6.687  1.00 20.00     0.274 C 
HETATM    7  N8  UNL     1     -33.961  14.473  -5.477  1.00 20.00     0.086 N 
HETATM    8  C4  UNL     1     -34.995  14.121  -4.502  1.00 20.00     0.299 C 
HETATM    9  C6  UNL     1     -33.088  15.537  -5.001  1.00 20.00     0.310 C 
ENDBRANCH   2   4
TORSDOF 1
ENDMDL
MODEL 5
REMARK VINA RESULT:      -3.4     11.325     12.248
REMARK  1 active torsions:
REMARK  status: ('A' for Active; 'I' for Inactive)
REMARK    1  A    between atoms: C5_5  and  N7_7 
ROOT
HETATM    1  C1  UNL     1     -34.792  13.635  -6.920  1.00 20.00     0.158 C 
HETATM    2  N7  UNL     1     -35.339  12.887  -6.197  1.00 20.00    -0.268 NA
HETATM    3  S9  UNL     1     -34.048  14.630  -7.918  1.00 20.00    -0.055 SA
ENDROOT
BRANCH   2   4
HETATM    4  C5  UNL     1     -35.759  13.460  -4.919  1.00 20.00     0.139 C 
HETATM    5  C2  UNL     1     -34.548  14.014  -4.169  1.00 20.00     0.059 C 
HETATM    6  C3  UNL     1     -34.744  15.522  -4.184  1.00 20.00     0.274 C 
HETATM    7  N8  UNL     1     -36.201  15.646  -4.183  1.00 20.00     0.086 N 
HETATM    8  C4  UNL     1     -36.668  14.663  -5.163  1.00 20.00     0.299 C 
HETATM    9  C6  UNL     1     -36.645  16.997  -4.496  1.00 20.00     0.310 C 
ENDBRANCH   2   4
TORSDOF 1
ENDMDL
MODEL 6
REMARK VINA RESULT:      -3.3     11.224     12.547
REMARK  1 active torsions:
REMARK  status: ('A' for Active; 'I' for Inactive)
REMARK    1  A    between atoms: C5_5  and  N7_7 
ROOT
HETATM    1  C1  UNL     1     -35.230  14.020  -4.663  1.00 20.00     0.158 C 
HETATM    2  N7  UNL     1     -34.141  13.803  -4.280  1.00 20.00    -0.268 NA
HETATM    3  S9  UNL     1     -36.714  14.290  -5.179  1.00 20.00    -0.055 SA
ENDROOT
BRANCH   2   4
HETATM    4  C5  UNL     1     -33.247  14.959  -4.273  1.00 20.00     0.139 C 
HETATM    5  C2  UNL     1     -33.112  15.527  -5.685  1.00 20.00     0.059 C 
HETATM    6  C3  UNL     1     -33.817  16.873  -5.628  1.00 20.00     0.274 C 
HETATM    7  N8  UNL     1     -33.592  17.282  -4.242  1.00 20.00     0.086 N 
HETATM    8  C4  UNL     1     -33.860  16.085  -3.443  1.00 20.00     0.299 C 
HETATM    9  C6  UNL     1     -34.427  18.409  -3.852  1.00 20.00     0.310 C 
ENDBRANCH   2   4
TORSDOF 1
ENDMDL
MODEL 7
REMARK VINA RESULT:      -3.3     11.261     12.497
REMARK  1 active torsions:
REMARK  status: ('A' for Active; 'I' for Inactive)
REMARK    1  A    between atoms: C5_5  and  N7_7 
ROOT
HETATM    1  C1  UNL     1     -33.733  17.060  -2.219  1.00 20.00     0.158 C 
HETATM    2  N7  UNL     1     -34.359  16.276  -2.830  1.00 20.00    -0.268 NA
HETATM    3  S9  UNL     1     -32.907  18.131  -1.377  1.00 20.00    -0.055 SA
ENDROOT
BRANCH   2   4
HETATM    4  C5  UNL     1     -33.594  15.502  -3.807  1.00 20.00     0.139 C 
HETATM    5  C2  UNL     1     -34.372  14.251  -4.210  1.00 20.00     0.059 C 
HETATM    6  C3  UNL     1     -34.766  14.493  -5.659  1.00 20.00     0.274 C 
HETATM    7  N8  UNL     1     -33.661  15.317  -6.147  1.00 20.00     0.086 N 
HETATM    8  C4  UNL     1     -33.431  16.308  -5.094  1.00 20.00     0.299 C 
HETATM    9  C6  UNL     1     -33.952  15.932  -7.435  1.00 20.00     0.310 C 
ENDBRANCH   2   4
TORSDOF 1
ENDMDL
MODEL 8
REMARK VINA RESULT:      -3.3     11.287     11.763
REMARK  1 active torsions:
REMARK  status: ('A' for Active; 'I' for Inactive)
REMARK    1  A    between atoms: C5_5  and  N7_7 
ROOT
HETATM    1  C1  UNL     1     -34.495  17.298  -1.286  1.00 20.00     0.158 C 
HETATM    2  N7  UNL     1     -35.239  16.575  -1.836  1.00 20.00    -0.268 NA
HETATM    3  S9  UNL     1     -33.496  18.273  -0.516  1.00 20.00    -0.055 SA
ENDROOT
BRANCH   2   4
HETATM    4  C5  UNL     1     -35.046  16.474  -3.282  1.00 20.00     0.139 C 
HETATM    5  C2  UNL     1     -33.740  15.742  -3.587  1.00 20.00     0.059 C 
HETATM    6  C3  UNL     1     -34.174  14.417  -4.193  1.00 20.00     0.274 C 
HETATM    7  N8  UNL     1     -35.426  14.775  -4.859  1.00 20.00     0.086 N 
HETATM    8  C4  UNL     1     -36.146  15.608  -3.893  1.00 20.00     0.299 C 
HETATM    9  C6  UNL     1     -36.193  13.607  -5.266  1.00 20.00     0.310 C 
ENDBRANCH   2   4
TORSDOF 1
ENDMDL
MODEL 9
REMARK VINA RESULT:      -3.2     11.531     12.438
REMARK  1 active torsions:
REMARK  status: ('A' for Active; 'I' for Inactive)
REMARK    1  A    between atoms: C5_5  and  N7_7 
ROOT
HETATM    1  C1  UNL     1     -33.582  17.107  -3.367  1.00 20.00     0.158 C 
HETATM    2  N7  UNL     1     -33.577  16.880  -4.520  1.00 20.00    -0.268 NA
HETATM    3  S9  UNL     1     -33.594  17.440  -1.809  1.00 20.00    -0.055 SA
ENDROOT
BRANCH   2   4
HETATM    4  C5  UNL     1     -33.315  15.485  -4.874  1.00 20.00     0.139 C 
HETATM    5  C2  UNL     1     -34.271  14.564  -4.117  1.00 20.00     0.059 C 
HETATM    6  C3  UNL     1     -35.190  13.998  -5.189  1.00 20.00     0.274 C 
HETATM    7  N8  UNL     1     -34.316  13.969  -6.361  1.00 20.00     0.086 N 
HETATM    8  C4  UNL     1     -33.622  15.259  -6.352  1.00 20.00     0.299 C 
HETATM    9  C6  UNL     1     -35.053  13.743  -7.597  1.00 20.00     0.310 C 
ENDBRANCH   2   4
TORSDOF 1
ENDMDL
