MODEL 1
REMARK VINA RESULT:      -5.1      0.000      0.000
REMARK  3 active torsions:
REMARK  status: ('A' for Active; 'I' for Inactive)
REMARK    1  A    between atoms: C4_4  and  N11_11 
REMARK    2  A    between atoms: C8_8  and  C9_9 
REMARK    3  A    between atoms: C8_8  and  N11_11 
ROOT
HETATM    1  C1  UNL     1     -33.386   7.588   4.877  1.00 20.00     0.067 C 
HETATM    2  C2  UNL     1     -33.931   6.267   5.394  1.00 20.00     0.274 C 
HETATM    3  C3  UNL     1     -33.264   5.828   3.202  1.00 20.00     0.307 C 
HETATM    4  C4  UNL     1     -32.741   7.226   3.543  1.00 20.00     0.250 C 
HETATM    5  C7  UNL     1     -35.634   5.862   3.716  1.00 20.00     0.310 C 
HETATM    6  N10 UNL     1     -34.300   5.501   4.197  1.00 20.00     0.086 N 
ENDROOT
BRANCH   4   7
HETATM    7  N11 UNL     1     -33.048   8.192   2.522  1.00 20.00     0.090 N 
HETATM    8  H31 UNL     1     -33.833   7.857   1.965  1.00 20.00     0.316 HD
BRANCH   7   9
HETATM    9  C8  UNL     1     -31.901   8.409   1.649  1.00 20.00     0.274 C 
BRANCH   9  10
HETATM   10  C9  UNL     1     -32.124   9.593   0.701  1.00 20.00     0.005 C 
HETATM   11  C5  UNL     1     -32.992   9.219  -0.502  1.00 20.00     0.011 C 
HETATM   12  C6  UNL     1     -32.704  10.808   1.426  1.00 20.00     0.011 C 
ENDBRANCH   9  10
ENDBRANCH   7   9
ENDBRANCH   4   7
TORSDOF 3
ENDMDL
MODEL 2
REMARK VINA RESULT:      -4.9      1.219      1.902
REMARK  3 active torsions:
REMARK  status: ('A' for Active; 'I' for Inactive)
REMARK    1  A    between atoms: C4_4  and  N11_11 
REMARK    2  A    between atoms: C8_8  and  C9_9 
REMARK    3  A    between atoms: C8_8  and  N11_11 
ROOT
HETATM    1  C1  UNL     1     -33.211   4.635   3.410  1.00 20.00     0.067 C 
HETATM    2  C2  UNL     1     -34.394   4.339   4.316  1.00 20.00     0.274 C 
HETATM    3  C3  UNL     1     -34.803   6.473   3.468  1.00 20.00     0.307 C 
HETATM    4  C4  UNL     1     -33.610   5.916   2.686  1.00 20.00     0.250 C 
HETATM    5  C7  UNL     1     -34.226   6.240   5.812  1.00 20.00     0.310 C 
HETATM    6  N10 UNL     1     -34.944   5.650   4.681  1.00 20.00     0.086 N 
ENDROOT
BRANCH   4   7
HETATM    7  N11 UNL     1     -32.518   6.849   2.610  1.00 20.00     0.090 N 
HETATM    8  H31 UNL     1     -31.894   6.704   3.404  1.00 20.00     0.316 HD
BRANCH   7   9
HETATM    9  C8  UNL     1     -33.004   8.223   2.629  1.00 20.00     0.274 C 
BRANCH   9  10
HETATM   10  C9  UNL     1     -32.122   9.150   1.785  1.00 20.00     0.005 C 
HETATM   11  C5  UNL     1     -31.398   8.403   0.665  1.00 20.00     0.011 C 
HETATM   12  C6  UNL     1     -32.909  10.334   1.221  1.00 20.00     0.011 C 
ENDBRANCH   9  10
ENDBRANCH   7   9
ENDBRANCH   4   7
TORSDOF 3
ENDMDL
MODEL 3
REMARK VINA RESULT:      -4.8      0.950      1.894
REMARK  3 active torsions:
REMARK  status: ('A' for Active; 'I' for Inactive)
REMARK    1  A    between atoms: C4_4  and  N11_11 
REMARK    2  A    between atoms: C8_8  and  C9_9 
REMARK    3  A    between atoms: C8_8  and  N11_11 
ROOT
HETATM    1  C1  UNL     1     -32.912   5.433   3.029  1.00 20.00     0.067 C 
HETATM    2  C2  UNL     1     -34.125   4.865   3.746  1.00 20.00     0.274 C 
HETATM    3  C3  UNL     1     -34.540   7.155   3.577  1.00 20.00     0.307 C 
HETATM    4  C4  UNL     1     -33.305   6.872   2.716  1.00 20.00     0.250 C 
HETATM    5  C7  UNL     1     -34.056   6.216   5.759  1.00 20.00     0.310 C 
HETATM    6  N10 UNL     1     -34.715   5.998   4.471  1.00 20.00     0.086 N 
ENDROOT
BRANCH   4   7
HETATM    7  N11 UNL     1     -32.229   7.790   2.980  1.00 20.00     0.090 N 
HETATM    8  H31 UNL     1     -32.554   8.516   3.619  1.00 20.00     0.316 HD
BRANCH   7   9
HETATM    9  C8  UNL     1     -31.761   8.413   1.748  1.00 20.00     0.274 C 
BRANCH   9  10
HETATM   10  C9  UNL     1     -32.818   9.344   1.144  1.00 20.00     0.005 C 
HETATM   11  C5  UNL     1     -32.586  10.808   1.519  1.00 20.00     0.011 C 
HETATM   12  C6  UNL     1     -32.921   9.187  -0.374  1.00 20.00     0.011 C 
ENDBRANCH   9  10
ENDBRANCH   7   9
ENDBRANCH   4   7
TORSDOF 3
ENDMDL
MODEL 4
REMARK VINA RESULT:      -4.7      1.137      2.008
REMARK  3 active torsions:
REMARK  status: ('A' for Active; 'I' for Inactive)
REMARK    1  A    between atoms: C4_4  and  N11_11 
REMARK    2  A    between atoms: C8_8  and  C9_9 
REMARK    3  A    between atoms: C8_8  and  N11_11 
ROOT
HETATM    1  C1  UNL     1     -34.557   6.383   2.909  1.00 20.00     0.067 C 
HETATM    2  C2  UNL     1     -35.503   5.786   3.937  1.00 20.00     0.274 C 
HETATM    3  C3  UNL     1     -33.893   6.922   5.186  1.00 20.00     0.307 C 
HETATM    4  C4  UNL     1     -33.662   7.311   3.723  1.00 20.00     0.250 C 
HETATM    5  C7  UNL     1     -33.909   4.498   5.234  1.00 20.00     0.310 C 
HETATM    6  N10 UNL     1     -34.728   5.709   5.182  1.00 20.00     0.086 N 
ENDROOT
BRANCH   4   7
HETATM    7  N11 UNL     1     -32.281   7.198   3.336  1.00 20.00     0.090 N 
HETATM    8  H31 UNL     1     -31.730   6.887   4.136  1.00 20.00     0.316 HD
BRANCH   7   9
HETATM    9  C8  UNL     1     -31.764   8.477   2.868  1.00 20.00     0.274 C 
BRANCH   9  10
HETATM   10  C9  UNL     1     -32.293   8.828   1.473  1.00 20.00     0.005 C 
HETATM   11  C5  UNL     1     -32.762  10.281   1.378  1.00 20.00     0.011 C 
HETATM   12  C6  UNL     1     -31.270   8.521   0.377  1.00 20.00     0.011 C 
ENDBRANCH   9  10
ENDBRANCH   7   9
ENDBRANCH   4   7
TORSDOF 3
ENDMDL
MODEL 5
REMARK VINA RESULT:      -4.2      1.285      4.976
REMARK  3 active torsions:
REMARK  status: ('A' for Active; 'I' for Inactive)
REMARK    1  A    between atoms: C4_4  and  N11_11 
REMARK    2  A    between atoms: C8_8  and  C9_9 
REMARK    3  A    between atoms: C8_8  and  N11_11 
ROOT
HETATM    1  C1  UNL     1     -31.669   7.837   1.613  1.00 20.00     0.067 C 
HETATM    2  C2  UNL     1     -31.182   8.833   0.574  1.00 20.00     0.274 C 
HETATM    3  C3  UNL     1     -32.807   9.979   1.794  1.00 20.00     0.307 C 
HETATM    4  C4  UNL     1     -32.545   8.669   2.542  1.00 20.00     0.250 C 
HETATM    5  C7  UNL     1     -33.296   9.349  -0.496  1.00 20.00     0.310 C 
HETATM    6  N10 UNL     1     -32.266   9.813   0.435  1.00 20.00     0.086 N 
ENDROOT
BRANCH   4   7
HETATM    7  N11 UNL     1     -33.761   7.982   2.889  1.00 20.00     0.090 N 
HETATM    8  H31 UNL     1     -34.258   8.514   3.602  1.00 20.00     0.316 HD
BRANCH   7   9
HETATM    9  C8  UNL     1     -33.477   6.647   3.400  1.00 20.00     0.274 C 
BRANCH   9  10
HETATM   10  C9  UNL     1     -34.393   6.280   4.573  1.00 20.00     0.005 C 
HETATM   11  C5  UNL     1     -34.522   4.768   4.759  1.00 20.00     0.011 C 
HETATM   12  C6  UNL     1     -33.951   6.947   5.877  1.00 20.00     0.011 C 
ENDBRANCH   9  10
ENDBRANCH   7   9
ENDBRANCH   4   7
TORSDOF 3
ENDMDL
MODEL 6
REMARK VINA RESULT:      -4.1     10.211     11.285
REMARK  3 active torsions:
REMARK  status: ('A' for Active; 'I' for Inactive)
REMARK    1  A    between atoms: C4_4  and  N11_11 
REMARK    2  A    between atoms: C8_8  and  C9_9 
REMARK    3  A    between atoms: C8_8  and  N11_11 
ROOT
HETATM    1  C1  UNL     1     -35.881  13.780  -5.036  1.00 20.00     0.067 C 
HETATM    2  C2  UNL     1     -35.326  13.462  -6.414  1.00 20.00     0.274 C 
HETATM    3  C3  UNL     1     -33.625  14.638  -5.335  1.00 20.00     0.307 C 
HETATM    4  C4  UNL     1     -34.682  14.330  -4.271  1.00 20.00     0.250 C 
HETATM    5  C7  UNL     1     -34.810  15.712  -7.157  1.00 20.00     0.310 C 
HETATM    6  N10 UNL     1     -34.267  14.452  -6.646  1.00 20.00     0.086 N 
ENDROOT
BRANCH   4   7
HETATM    7  N11 UNL     1     -35.030  15.487  -3.491  1.00 20.00     0.090 N 
HETATM    8  H31 UNL     1     -35.783  15.994  -3.956  1.00 20.00     0.316 HD
BRANCH   7   9
HETATM    9  C8  UNL     1     -33.884  16.373  -3.333  1.00 20.00     0.274 C 
BRANCH   9  10
HETATM   10  C9  UNL     1     -33.796  16.942  -1.912  1.00 20.00     0.005 C 
HETATM   11  C5  UNL     1     -33.079  18.292  -1.870  1.00 20.00     0.011 C 
HETATM   12  C6  UNL     1     -35.170  17.041  -1.246  1.00 20.00     0.011 C 
ENDBRANCH   9  10
ENDBRANCH   7   9
ENDBRANCH   4   7
TORSDOF 3
ENDMDL
MODEL 7
REMARK VINA RESULT:      -4.0     10.175     11.269
REMARK  3 active torsions:
REMARK  status: ('A' for Active; 'I' for Inactive)
REMARK    1  A    between atoms: C4_4  and  N11_11 
REMARK    2  A    between atoms: C8_8  and  C9_9 
REMARK    3  A    between atoms: C8_8  and  N11_11 
ROOT
HETATM    1  C1  UNL     1     -35.770  13.697  -4.951  1.00 20.00     0.067 C 
HETATM    2  C2  UNL     1     -35.332  13.490  -6.391  1.00 20.00     0.274 C 
HETATM    3  C3  UNL     1     -33.650  14.789  -5.431  1.00 20.00     0.307 C 
HETATM    4  C4  UNL     1     -34.557  14.335  -4.284  1.00 20.00     0.250 C 
HETATM    5  C7  UNL     1     -35.116  15.807  -7.072  1.00 20.00     0.310 C 
HETATM    6  N10 UNL     1     -34.404  14.590  -6.680  1.00 20.00     0.086 N 
ENDROOT
BRANCH   4   7
HETATM    7  N11 UNL     1     -34.933  15.421  -3.417  1.00 20.00     0.090 N 
HETATM    8  H31 UNL     1     -35.694  15.947  -3.847  1.00 20.00     0.316 HD
BRANCH   7   9
HETATM    9  C8  UNL     1     -33.807  16.315  -3.183  1.00 20.00     0.274 C 
BRANCH   9  10
HETATM   10  C9  UNL     1     -34.149  17.406  -2.162  1.00 20.00     0.005 C 
HETATM   11  C5  UNL     1     -35.235  16.963  -1.180  1.00 20.00     0.011 C 
HETATM   12  C6  UNL     1     -32.912  17.899  -1.410  1.00 20.00     0.011 C 
ENDBRANCH   9  10
ENDBRANCH   7   9
ENDBRANCH   4   7
TORSDOF 3
ENDMDL
MODEL 8
REMARK VINA RESULT:      -4.0     10.319     11.374
REMARK  3 active torsions:
REMARK  status: ('A' for Active; 'I' for Inactive)
REMARK    1  A    between atoms: C4_4  and  N11_11 
REMARK    2  A    between atoms: C8_8  and  C9_9 
REMARK    3  A    between atoms: C8_8  and  N11_11 
ROOT
HETATM    1  C1  UNL     1     -35.499  16.429  -5.482  1.00 20.00     0.067 C 
HETATM    2  C2  UNL     1     -34.571  15.530  -6.281  1.00 20.00     0.274 C 
HETATM    3  C3  UNL     1     -35.777  14.082  -4.905  1.00 20.00     0.307 C 
HETATM    4  C4  UNL     1     -36.437  15.457  -4.772  1.00 20.00     0.250 C 
HETATM    5  C7  UNL     1     -33.420  14.430  -4.451  1.00 20.00     0.310 C 
HETATM    6  N10 UNL     1     -34.443  14.299  -5.489  1.00 20.00     0.086 N 
ENDROOT
BRANCH   4   7
HETATM    7  N11 UNL     1     -36.657  15.832  -3.401  1.00 20.00     0.090 N 
HETATM    8  H31 UNL     1     -37.643  16.054  -3.266  1.00 20.00     0.316 HD
BRANCH   7   9
HETATM    9  C8  UNL     1     -35.852  16.993  -3.042  1.00 20.00     0.274 C 
BRANCH   9  10
HETATM   10  C9  UNL     1     -34.972  16.719  -1.817  1.00 20.00     0.005 C 
HETATM   11  C5  UNL     1     -33.532  17.194  -2.019  1.00 20.00     0.011 C 
HETATM   12  C6  UNL     1     -35.562  17.318  -0.540  1.00 20.00     0.011 C 
ENDBRANCH   9  10
ENDBRANCH   7   9
ENDBRANCH   4   7
TORSDOF 3
ENDMDL
MODEL 9
REMARK VINA RESULT:      -3.9     10.109     11.739
REMARK  3 active torsions:
REMARK  status: ('A' for Active; 'I' for Inactive)
REMARK    1  A    between atoms: C4_4  and  N11_11 
REMARK    2  A    between atoms: C8_8  and  C9_9 
REMARK    3  A    between atoms: C8_8  and  N11_11 
ROOT
HETATM    1  C1  UNL     1     -36.993  14.043  -5.149  1.00 20.00     0.067 C 
HETATM    2  C2  UNL     1     -37.896  14.945  -5.972  1.00 20.00     0.274 C 
HETATM    3  C3  UNL     1     -36.076  14.486  -7.357  1.00 20.00     0.307 C 
HETATM    4  C4  UNL     1     -35.942  13.563  -6.143  1.00 20.00     0.250 C 
HETATM    5  C7  UNL     1     -36.325  16.727  -6.465  1.00 20.00     0.310 C 
HETATM    6  N10 UNL     1     -37.023  15.551  -6.986  1.00 20.00     0.086 N 
ENDROOT
BRANCH   4   7
HETATM    7  N11 UNL     1     -34.619  13.589  -5.577  1.00 20.00     0.090 N 
HETATM    8  H31 UNL     1     -34.245  12.641  -5.550  1.00 20.00     0.316 HD
BRANCH   7   9
HETATM    9  C8  UNL     1     -34.641  14.133  -4.226  1.00 20.00     0.274 C 
BRANCH   9  10
HETATM   10  C9  UNL     1     -33.545  15.184  -4.017  1.00 20.00     0.005 C 
HETATM   11  C5  UNL     1     -32.969  15.693  -5.340  1.00 20.00     0.011 C 
HETATM   12  C6  UNL     1     -34.025  16.352  -3.154  1.00 20.00     0.011 C 
ENDBRANCH   9  10
ENDBRANCH   7   9
ENDBRANCH   4   7
TORSDOF 3
ENDMDL
