MODEL 1
REMARK VINA RESULT:      -4.6      0.000      0.000
REMARK  2 active torsions:
REMARK  status: ('A' for Active; 'I' for Inactive)
REMARK    1  A    between atoms: C6_6  and  C9_9 
REMARK    2  A    between atoms: C7_7  and  N10_10 
ROOT
HETATM    1  C1  UNL     1     -32.867   9.340   0.855  1.00 20.00     0.158 C 
HETATM    2  N10 UNL     1     -32.738   9.247   2.017  1.00 20.00    -0.270 NA
HETATM    3  S11 UNL     1     -33.064   9.496  -0.718  1.00 20.00    -0.055 SA
ENDROOT
BRANCH   2   4
HETATM    4  C7  UNL     1     -31.865   8.146   2.450  1.00 20.00     0.109 C 
HETATM    5  C4  UNL     1     -32.567   6.808   2.217  1.00 20.00     0.028 C 
HETATM    6  C2  UNL     1     -33.704   6.547   3.207  1.00 20.00     0.007 C 
HETATM    7  C6  UNL     1     -33.240   6.702   4.660  1.00 20.00    -0.015 C 
HETATM    8  C3  UNL     1     -32.608   8.080   4.889  1.00 20.00     0.007 C 
HETATM    9  C5  UNL     1     -31.464   8.349   3.911  1.00 20.00     0.028 C 
BRANCH   7  10
HETATM   10  C9  UNL     1     -34.405   6.477   5.622  1.00 20.00     0.000 C 
HETATM   11  C8  UNL     1     -34.766   5.032   5.724  1.00 20.00     0.005 C 
ENDBRANCH   7  10
ENDBRANCH   2   4
TORSDOF 2
ENDMDL
MODEL 2
REMARK VINA RESULT:      -4.1     10.910     11.860
REMARK  2 active torsions:
REMARK  status: ('A' for Active; 'I' for Inactive)
REMARK    1  A    between atoms: C6_6  and  C9_9 
REMARK    2  A    between atoms: C7_7  and  N10_10 
ROOT
HETATM    1  C1  UNL     1     -31.539  18.632   0.354  1.00 20.00     0.158 C 
HETATM    2  N10 UNL     1     -31.848  18.442  -0.760  1.00 20.00    -0.270 NA
HETATM    3  S11 UNL     1     -31.089  18.871   1.864  1.00 20.00    -0.055 SA
ENDROOT
BRANCH   2   4
HETATM    4  C7  UNL     1     -33.095  19.104  -1.172  1.00 20.00     0.109 C 
HETATM    5  C4  UNL     1     -34.292  18.385  -0.549  1.00 20.00     0.028 C 
HETATM    6  C2  UNL     1     -34.577  17.027  -1.193  1.00 20.00     0.007 C 
HETATM    7  C6  UNL     1     -34.709  17.137  -2.717  1.00 20.00    -0.015 C 
HETATM    8  C3  UNL     1     -33.465  17.792  -3.328  1.00 20.00     0.007 C 
HETATM    9  C5  UNL     1     -33.173  19.154  -2.698  1.00 20.00     0.028 C 
BRANCH   7  10
HETATM   10  C9  UNL     1     -34.952  15.761  -3.336  1.00 20.00     0.000 C 
HETATM   11  C8  UNL     1     -33.729  15.237  -4.012  1.00 20.00     0.005 C 
ENDBRANCH   7  10
ENDBRANCH   2   4
TORSDOF 2
ENDMDL
MODEL 3
REMARK VINA RESULT:      -4.1     10.739     11.874
REMARK  2 active torsions:
REMARK  status: ('A' for Active; 'I' for Inactive)
REMARK    1  A    between atoms: C6_6  and  C9_9 
REMARK    2  A    between atoms: C7_7  and  N10_10 
ROOT
HETATM    1  C1  UNL     1     -38.880  14.671  -5.183  1.00 20.00     0.158 C 
HETATM    2  N10 UNL     1     -37.895  14.097  -4.911  1.00 20.00    -0.270 NA
HETATM    3  S11 UNL     1     -40.234  15.440  -5.522  1.00 20.00    -0.055 SA
ENDROOT
BRANCH   2   4
HETATM    4  C7  UNL     1     -36.812  14.236  -5.895  1.00 20.00     0.109 C 
HETATM    5  C4  UNL     1     -35.601  13.415  -5.451  1.00 20.00     0.028 C 
HETATM    6  C2  UNL     1     -34.859  14.034  -4.265  1.00 20.00     0.007 C 
HETATM    7  C6  UNL     1     -34.488  15.498  -4.528  1.00 20.00    -0.015 C 
HETATM    8  C3  UNL     1     -35.729  16.319  -4.899  1.00 20.00     0.007 C 
HETATM    9  C5  UNL     1     -36.476  15.715  -6.088  1.00 20.00     0.028 C 
BRANCH   7  10
HETATM   10  C9  UNL     1     -33.787  16.101  -3.312  1.00 20.00     0.000 C 
HETATM   11  C8  UNL     1     -34.765  16.558  -2.281  1.00 20.00     0.005 C 
ENDBRANCH   7  10
ENDBRANCH   2   4
TORSDOF 2
ENDMDL
MODEL 4
REMARK VINA RESULT:      -4.0     10.713     11.517
REMARK  2 active torsions:
REMARK  status: ('A' for Active; 'I' for Inactive)
REMARK    1  A    between atoms: C6_6  and  C9_9 
REMARK    2  A    between atoms: C7_7  and  N10_10 
ROOT
HETATM    1  C1  UNL     1     -35.060  14.937  -6.778  1.00 20.00     0.158 C 
HETATM    2  N10 UNL     1     -35.566  15.602  -5.956  1.00 20.00    -0.270 NA
HETATM    3  S11 UNL     1     -34.373  14.061  -7.918  1.00 20.00    -0.055 SA
ENDROOT
BRANCH   2   4
HETATM    4  C7  UNL     1     -35.794  14.923  -4.672  1.00 20.00     0.109 C 
HETATM    5  C4  UNL     1     -36.526  15.864  -3.714  1.00 20.00     0.028 C 
HETATM    6  C2  UNL     1     -35.635  16.986  -3.179  1.00 20.00     0.007 C 
HETATM    7  C6  UNL     1     -34.340  16.442  -2.564  1.00 20.00    -0.015 C 
HETATM    8  C3  UNL     1     -33.585  15.563  -3.568  1.00 20.00     0.007 C 
HETATM    9  C5  UNL     1     -34.463  14.431  -4.105  1.00 20.00     0.028 C 
BRANCH   7  10
HETATM   10  C9  UNL     1     -33.453  17.586  -2.077  1.00 20.00     0.000 C 
HETATM   11  C8  UNL     1     -33.776  17.975  -0.672  1.00 20.00     0.005 C 
ENDBRANCH   7  10
ENDBRANCH   2   4
TORSDOF 2
ENDMDL
MODEL 5
REMARK VINA RESULT:      -4.0     10.583     11.324
REMARK  2 active torsions:
REMARK  status: ('A' for Active; 'I' for Inactive)
REMARK    1  A    between atoms: C6_6  and  C9_9 
REMARK    2  A    between atoms: C7_7  and  N10_10 
ROOT
HETATM    1  C1  UNL     1     -35.078  14.554  -4.250  1.00 20.00     0.158 C 
HETATM    2  N10 UNL     1     -34.521  15.288  -3.525  1.00 20.00    -0.270 NA
HETATM    3  S11 UNL     1     -35.817  13.529  -5.220  1.00 20.00    -0.055 SA
ENDROOT
BRANCH   2   4
HETATM    4  C7  UNL     1     -34.891  16.702  -3.681  1.00 20.00     0.109 C 
HETATM    5  C4  UNL     1     -33.661  17.585  -3.469  1.00 20.00     0.028 C 
HETATM    6  C2  UNL     1     -33.224  17.664  -2.005  1.00 20.00     0.007 C 
HETATM    7  C6  UNL     1     -34.383  18.073  -1.087  1.00 20.00    -0.015 C 
HETATM    8  C3  UNL     1     -35.578  17.129  -1.262  1.00 20.00     0.007 C 
HETATM    9  C5  UNL     1     -36.029  17.047  -2.720  1.00 20.00     0.028 C 
BRANCH   7  10
HETATM   10  C9  UNL     1     -33.929  18.103   0.371  1.00 20.00     0.000 C 
HETATM   11  C8  UNL     1     -32.630  18.822   0.530  1.00 20.00     0.005 C 
ENDBRANCH   7  10
ENDBRANCH   2   4
TORSDOF 2
ENDMDL
MODEL 6
REMARK VINA RESULT:      -3.9     10.375     11.975
REMARK  2 active torsions:
REMARK  status: ('A' for Active; 'I' for Inactive)
REMARK    1  A    between atoms: C6_6  and  C9_9 
REMARK    2  A    between atoms: C7_7  and  N10_10 
ROOT
HETATM    1  C1  UNL     1     -34.925  16.783  -2.811  1.00 20.00     0.158 C 
HETATM    2  N10 UNL     1     -34.621  16.593  -3.927  1.00 20.00    -0.270 NA
HETATM    3  S11 UNL     1     -35.359  17.067  -1.304  1.00 20.00    -0.055 SA
ENDROOT
BRANCH   2   4
HETATM    4  C7  UNL     1     -33.692  15.472  -4.128  1.00 20.00     0.109 C 
HETATM    5  C4  UNL     1     -32.976  15.629  -5.470  1.00 20.00     0.028 C 
HETATM    6  C2  UNL     1     -33.881  15.342  -6.669  1.00 20.00     0.007 C 
HETATM    7  C6  UNL     1     -34.570  13.978  -6.548  1.00 20.00    -0.015 C 
HETATM    8  C3  UNL     1     -35.343  13.871  -5.229  1.00 20.00     0.007 C 
HETATM    9  C5  UNL     1     -34.448  14.148  -4.021  1.00 20.00     0.028 C 
BRANCH   7  10
HETATM   10  C9  UNL     1     -35.498  13.737  -7.738  1.00 20.00     0.000 C 
HETATM   11  C8  UNL     1     -36.717  14.596  -7.670  1.00 20.00     0.005 C 
ENDBRANCH   7  10
ENDBRANCH   2   4
TORSDOF 2
ENDMDL
MODEL 7
REMARK VINA RESULT:      -3.9     10.984     11.709
REMARK  2 active torsions:
REMARK  status: ('A' for Active; 'I' for Inactive)
REMARK    1  A    between atoms: C6_6  and  C9_9 
REMARK    2  A    between atoms: C7_7  and  N10_10 
ROOT
HETATM    1  C1  UNL     1     -36.737  15.746  -6.699  1.00 20.00     0.158 C 
HETATM    2  N10 UNL     1     -35.751  15.575  -6.089  1.00 20.00    -0.270 NA
HETATM    3  S11 UNL     1     -38.059  15.997  -7.553  1.00 20.00    -0.055 SA
ENDROOT
BRANCH   2   4
HETATM    4  C7  UNL     1     -35.920  14.788  -4.859  1.00 20.00     0.109 C 
HETATM    5  C4  UNL     1     -36.678  15.614  -3.819  1.00 20.00     0.028 C 
HETATM    6  C2  UNL     1     -35.833  16.736  -3.212  1.00 20.00     0.007 C 
HETATM    7  C6  UNL     1     -34.501  16.211  -2.662  1.00 20.00    -0.015 C 
HETATM    8  C3  UNL     1     -33.724  15.451  -3.743  1.00 20.00     0.007 C 
HETATM    9  C5  UNL     1     -34.555  14.322  -4.352  1.00 20.00     0.028 C 
BRANCH   7  10
HETATM   10  C9  UNL     1     -33.663  17.358  -2.101  1.00 20.00     0.000 C 
HETATM   11  C8  UNL     1     -34.115  17.756  -0.735  1.00 20.00     0.005 C 
ENDBRANCH   7  10
ENDBRANCH   2   4
TORSDOF 2
ENDMDL
MODEL 8
REMARK VINA RESULT:      -3.9     11.164     11.755
REMARK  2 active torsions:
REMARK  status: ('A' for Active; 'I' for Inactive)
REMARK    1  A    between atoms: C6_6  and  C9_9 
REMARK    2  A    between atoms: C7_7  and  N10_10 
ROOT
HETATM    1  C1  UNL     1     -35.583  16.720  -6.544  1.00 20.00     0.158 C 
HETATM    2  N10 UNL     1     -34.872  16.787  -5.614  1.00 20.00    -0.270 NA
HETATM    3  S11 UNL     1     -36.536  16.662  -7.819  1.00 20.00    -0.055 SA
ENDROOT
BRANCH   2   4
HETATM    4  C7  UNL     1     -34.920  15.620  -4.722  1.00 20.00     0.109 C 
HETATM    5  C4  UNL     1     -36.184  15.677  -3.863  1.00 20.00     0.028 C 
HETATM    6  C2  UNL     1     -36.120  16.746  -2.772  1.00 20.00     0.007 C 
HETATM    7  C6  UNL     1     -34.856  16.610  -1.915  1.00 20.00    -0.015 C 
HETATM    8  C3  UNL     1     -33.597  16.630  -2.790  1.00 20.00     0.007 C 
HETATM    9  C5  UNL     1     -33.645  15.560  -3.880  1.00 20.00     0.028 C 
BRANCH   7  10
HETATM   10  C9  UNL     1     -34.798  17.715  -0.862  1.00 20.00     0.000 C 
HETATM   11  C8  UNL     1     -33.403  18.202  -0.648  1.00 20.00     0.005 C 
ENDBRANCH   7  10
ENDBRANCH   2   4
TORSDOF 2
ENDMDL
MODEL 9
REMARK VINA RESULT:      -3.8      2.784      4.903
REMARK  2 active torsions:
REMARK  status: ('A' for Active; 'I' for Inactive)
REMARK    1  A    between atoms: C6_6  and  C9_9 
REMARK    2  A    between atoms: C7_7  and  N10_10 
ROOT
HETATM    1  C1  UNL     1     -34.094   6.458   5.020  1.00 20.00     0.158 C 
HETATM    2  N10 UNL     1     -33.641   7.362   4.426  1.00 20.00    -0.270 NA
HETATM    3  S11 UNL     1     -34.737   5.252   5.838  1.00 20.00    -0.055 SA
ENDROOT
BRANCH   2   4
HETATM    4  C7  UNL     1     -32.392   7.061   3.711  1.00 20.00     0.109 C 
HETATM    5  C4  UNL     1     -31.457   8.269   3.776  1.00 20.00     0.028 C 
HETATM    6  C2  UNL     1     -31.911   9.427   2.885  1.00 20.00     0.007 C 
HETATM    7  C6  UNL     1     -32.154   8.972   1.440  1.00 20.00    -0.015 C 
HETATM    8  C3  UNL     1     -33.152   7.809   1.394  1.00 20.00     0.007 C 
HETATM    9  C5  UNL     1     -32.706   6.642   2.275  1.00 20.00     0.028 C 
BRANCH   7  10
HETATM   10  C9  UNL     1     -32.645  10.138   0.585  1.00 20.00     0.000 C 
HETATM   11  C8  UNL     1     -33.297   9.664  -0.672  1.00 20.00     0.005 C 
ENDBRANCH   7  10
ENDBRANCH   2   4
TORSDOF 2
ENDMDL
