MODEL 1
REMARK VINA RESULT:      -5.3      0.000      0.000
REMARK  2 active torsions:
REMARK  status: ('A' for Active; 'I' for Inactive)
REMARK    1  A    between atoms: C6_6  and  C7_7 
REMARK    2  A    between atoms: C7_7  and  N8_8 
ROOT
HETATM    1  C1  UNL     1     -32.135   8.726   1.966  1.00 20.00     0.157 C 
HETATM    2  N8  UNL     1     -31.878   8.091   2.922  1.00 20.00    -0.273 NA
HETATM    3  S10 UNL     1     -32.470   9.603   0.680  1.00 20.00    -0.055 SA
ENDROOT
BRANCH   2   4
HETATM    4  C7  UNL     1     -32.544   6.793   3.001  1.00 20.00     0.182 C 
BRANCH   4   5
HETATM    5  C6  UNL     1     -33.985   7.007   3.460  1.00 20.00     0.141 C 
HETATM    6  C4  UNL     1     -34.089   7.542   4.892  1.00 20.00     0.034 C 
HETATM    7  C2  UNL     1     -33.802   6.464   5.932  1.00 20.00     0.005 C 
HETATM    8  C3  UNL     1     -34.634   5.221   5.650  1.00 20.00     0.026 C 
HETATM    9  C5  UNL     1     -34.462   4.770   4.207  1.00 20.00     0.168 C 
HETATM   10  O9  UNL     1     -34.769   5.821   3.294  1.00 20.00    -0.384 OA
ENDBRANCH   4   5
ENDBRANCH   2   4
TORSDOF 2
ENDMDL
MODEL 2
REMARK VINA RESULT:      -4.4      1.417      1.967
REMARK  2 active torsions:
REMARK  status: ('A' for Active; 'I' for Inactive)
REMARK    1  A    between atoms: C6_6  and  C7_7 
REMARK    2  A    between atoms: C7_7  and  N8_8 
ROOT
HETATM    1  C1  UNL     1     -32.660   9.108   0.914  1.00 20.00     0.157 C 
HETATM    2  N8  UNL     1     -32.420   8.803   2.025  1.00 20.00    -0.273 NA
HETATM    3  S10 UNL     1     -32.965   9.531  -0.591  1.00 20.00    -0.055 SA
ENDROOT
BRANCH   2   4
HETATM    4  C7  UNL     1     -33.475   8.054   2.703  1.00 20.00     0.182 C 
BRANCH   4   5
HETATM    5  C6  UNL     1     -32.843   6.878   3.445  1.00 20.00     0.141 C 
HETATM    6  C4  UNL     1     -33.610   5.565   3.260  1.00 20.00     0.034 C 
HETATM    7  C2  UNL     1     -34.897   5.530   4.076  1.00 20.00     0.005 C 
HETATM    8  C3  UNL     1     -34.618   5.910   5.523  1.00 20.00     0.026 C 
HETATM    9  C5  UNL     1     -33.855   7.225   5.600  1.00 20.00     0.168 C 
HETATM   10  O9  UNL     1     -32.654   7.175   4.832  1.00 20.00    -0.384 OA
ENDBRANCH   4   5
ENDBRANCH   2   4
TORSDOF 2
ENDMDL
MODEL 3
REMARK VINA RESULT:      -4.0     11.675     12.636
REMARK  2 active torsions:
REMARK  status: ('A' for Active; 'I' for Inactive)
REMARK    1  A    between atoms: C6_6  and  C7_7 
REMARK    2  A    between atoms: C7_7  and  N8_8 
ROOT
HETATM    1  C1  UNL     1     -38.773  14.655  -5.199  1.00 20.00     0.157 C 
HETATM    2  N8  UNL     1     -37.839  14.031  -4.849  1.00 20.00    -0.273 NA
HETATM    3  S10 UNL     1     -40.051  15.479  -5.674  1.00 20.00    -0.055 SA
ENDROOT
BRANCH   2   4
HETATM    4  C7  UNL     1     -36.597  14.790  -4.731  1.00 20.00     0.182 C 
BRANCH   4   5
HETATM    5  C6  UNL     1     -35.421  13.817  -4.766  1.00 20.00     0.141 C 
HETATM    6  C4  UNL     1     -34.066  14.513  -4.927  1.00 20.00     0.034 C 
HETATM    7  C2  UNL     1     -33.839  15.010  -6.351  1.00 20.00     0.005 C 
HETATM    8  C3  UNL     1     -34.109  13.894  -7.351  1.00 20.00     0.026 C 
HETATM    9  C5  UNL     1     -35.475  13.270  -7.109  1.00 20.00     0.168 C 
HETATM   10  O9  UNL     1     -35.605  12.809  -5.765  1.00 20.00    -0.384 OA
ENDBRANCH   4   5
ENDBRANCH   2   4
TORSDOF 2
ENDMDL
MODEL 4
REMARK VINA RESULT:      -3.8     11.609     12.635
REMARK  2 active torsions:
REMARK  status: ('A' for Active; 'I' for Inactive)
REMARK    1  A    between atoms: C6_6  and  C7_7 
REMARK    2  A    between atoms: C7_7  and  N8_8 
ROOT
HETATM    1  C1  UNL     1     -38.664  14.805  -4.924  1.00 20.00     0.157 C 
HETATM    2  N8  UNL     1     -37.837  13.969  -4.956  1.00 20.00    -0.273 NA
HETATM    3  S10 UNL     1     -39.795  15.925  -4.864  1.00 20.00    -0.055 SA
ENDROOT
BRANCH   2   4
HETATM    4  C7  UNL     1     -36.807  14.155  -5.975  1.00 20.00     0.182 C 
BRANCH   4   5
HETATM    5  C6  UNL     1     -35.501  13.545  -5.472  1.00 20.00     0.141 C 
HETATM    6  C4  UNL     1     -34.951  14.242  -4.224  1.00 20.00     0.034 C 
HETATM    7  C2  UNL     1     -34.322  15.593  -4.548  1.00 20.00     0.005 C 
HETATM    8  C3  UNL     1     -33.330  15.454  -5.695  1.00 20.00     0.026 C 
HETATM    9  C5  UNL     1     -33.970  14.752  -6.883  1.00 20.00     0.168 C 
HETATM   10  O9  UNL     1     -34.516  13.488  -6.508  1.00 20.00    -0.384 OA
ENDBRANCH   4   5
ENDBRANCH   2   4
TORSDOF 2
ENDMDL
MODEL 5
REMARK VINA RESULT:      -3.8     11.271     11.975
REMARK  2 active torsions:
REMARK  status: ('A' for Active; 'I' for Inactive)
REMARK    1  A    between atoms: C6_6  and  C7_7 
REMARK    2  A    between atoms: C7_7  and  N8_8 
ROOT
HETATM    1  C1  UNL     1     -34.106  17.119  -1.870  1.00 20.00     0.157 C 
HETATM    2  N8  UNL     1     -34.969  16.376  -2.164  1.00 20.00    -0.273 NA
HETATM    3  S10 UNL     1     -32.945  18.124  -1.449  1.00 20.00    -0.055 SA
ENDROOT
BRANCH   2   4
HETATM    4  C7  UNL     1     -35.061  16.067  -3.589  1.00 20.00     0.182 C 
BRANCH   4   5
HETATM    5  C6  UNL     1     -34.062  14.959  -3.917  1.00 20.00     0.141 C 
HETATM    6  C4  UNL     1     -33.091  15.336  -5.040  1.00 20.00     0.034 C 
HETATM    7  C2  UNL     1     -33.753  15.295  -6.413  1.00 20.00     0.005 C 
HETATM    8  C3  UNL     1     -34.480  13.973  -6.611  1.00 20.00     0.026 C 
HETATM    9  C5  UNL     1     -35.418  13.690  -5.447  1.00 20.00     0.168 C 
HETATM   10  O9  UNL     1     -34.725  13.723  -4.201  1.00 20.00    -0.384 OA
ENDBRANCH   4   5
ENDBRANCH   2   4
TORSDOF 2
ENDMDL
MODEL 6
REMARK VINA RESULT:      -3.6     11.386     12.329
REMARK  2 active torsions:
REMARK  status: ('A' for Active; 'I' for Inactive)
REMARK    1  A    between atoms: C6_6  and  C7_7 
REMARK    2  A    between atoms: C7_7  and  N8_8 
ROOT
HETATM    1  C1  UNL     1     -36.358  16.940  -3.133  1.00 20.00     0.157 C 
HETATM    2  N8  UNL     1     -35.609  16.068  -3.384  1.00 20.00    -0.273 NA
HETATM    3  S10 UNL     1     -37.355  18.129  -2.778  1.00 20.00    -0.055 SA
ENDROOT
BRANCH   2   4
HETATM    4  C7  UNL     1     -36.132  15.042  -4.283  1.00 20.00     0.182 C 
BRANCH   4   5
HETATM    5  C6  UNL     1     -35.052  13.986  -4.504  1.00 20.00     0.141 C 
HETATM    6  C4  UNL     1     -33.734  14.569  -5.022  1.00 20.00     0.034 C 
HETATM    7  C2  UNL     1     -33.813  14.955  -6.496  1.00 20.00     0.005 C 
HETATM    8  C3  UNL     1     -34.369  13.799  -7.316  1.00 20.00     0.026 C 
HETATM    9  C5  UNL     1     -35.675  13.292  -6.723  1.00 20.00     0.168 C 
HETATM   10  O9  UNL     1     -35.518  12.931  -5.352  1.00 20.00    -0.384 OA
ENDBRANCH   4   5
ENDBRANCH   2   4
TORSDOF 2
ENDMDL
MODEL 7
REMARK VINA RESULT:      -3.5      2.937      4.908
REMARK  2 active torsions:
REMARK  status: ('A' for Active; 'I' for Inactive)
REMARK    1  A    between atoms: C6_6  and  C7_7 
REMARK    2  A    between atoms: C7_7  and  N8_8 
ROOT
HETATM    1  C1  UNL     1     -33.816   6.510   4.246  1.00 20.00     0.157 C 
HETATM    2  N8  UNL     1     -33.126   7.383   3.865  1.00 20.00    -0.273 NA
HETATM    3  S10 UNL     1     -34.748   5.337   4.785  1.00 20.00    -0.055 SA
ENDROOT
BRANCH   2   4
HETATM    4  C7  UNL     1     -32.834   7.361   2.434  1.00 20.00     0.182 C 
BRANCH   4   5
HETATM    5  C6  UNL     1     -31.778   8.422   2.132  1.00 20.00     0.141 C 
HETATM    6  C4  UNL     1     -32.239   9.845   2.464  1.00 20.00     0.034 C 
HETATM    7  C2  UNL     1     -33.232  10.383   1.439  1.00 20.00     0.005 C 
HETATM    8  C3  UNL     1     -32.689  10.199   0.028  1.00 20.00     0.026 C 
HETATM    9  C5  UNL     1     -32.260   8.757  -0.203  1.00 20.00     0.168 C 
HETATM   10  O9  UNL     1     -31.317   8.332   0.780  1.00 20.00    -0.384 OA
ENDBRANCH   4   5
ENDBRANCH   2   4
TORSDOF 2
ENDMDL
MODEL 8
REMARK VINA RESULT:      -3.4     11.701     12.764
REMARK  2 active torsions:
REMARK  status: ('A' for Active; 'I' for Inactive)
REMARK    1  A    between atoms: C6_6  and  C7_7 
REMARK    2  A    between atoms: C7_7  and  N8_8 
ROOT
HETATM    1  C1  UNL     1     -38.590  14.724  -5.305  1.00 20.00     0.157 C 
HETATM    2  N8  UNL     1     -37.806  13.958  -4.880  1.00 20.00    -0.273 NA
HETATM    3  S10 UNL     1     -39.670  15.751  -5.870  1.00 20.00    -0.055 SA
ENDROOT
BRANCH   2   4
HETATM    4  C7  UNL     1     -36.438  14.143  -5.356  1.00 20.00     0.182 C 
BRANCH   4   5
HETATM    5  C6  UNL     1     -35.795  15.284  -4.572  1.00 20.00     0.141 C 
HETATM    6  C4  UNL     1     -35.350  16.451  -5.460  1.00 20.00     0.034 C 
HETATM    7  C2  UNL     1     -34.082  16.129  -6.243  1.00 20.00     0.005 C 
HETATM    8  C3  UNL     1     -33.007  15.587  -5.311  1.00 20.00     0.026 C 
HETATM    9  C5  UNL     1     -33.545  14.435  -4.476  1.00 20.00     0.168 C 
HETATM   10  O9  UNL     1     -34.716  14.817  -3.756  1.00 20.00    -0.384 OA
ENDBRANCH   4   5
ENDBRANCH   2   4
TORSDOF 2
ENDMDL
MODEL 9
REMARK VINA RESULT:      -3.4     12.551     13.593
REMARK  2 active torsions:
REMARK  status: ('A' for Active; 'I' for Inactive)
REMARK    1  A    between atoms: C6_6  and  C7_7 
REMARK    2  A    between atoms: C7_7  and  N8_8 
ROOT
HETATM    1  C1  UNL     1     -38.569  15.033  -4.735  1.00 20.00     0.157 C 
HETATM    2  N8  UNL     1     -38.090  13.993  -5.005  1.00 20.00    -0.273 NA
HETATM    3  S10 UNL     1     -39.240  16.429  -4.366  1.00 20.00    -0.055 SA
ENDROOT
BRANCH   2   4
HETATM    4  C7  UNL     1     -36.685  14.044  -5.403  1.00 20.00     0.182 C 
BRANCH   4   5
HETATM    5  C6  UNL     1     -36.591  14.654  -6.800  1.00 20.00     0.141 C 
HETATM    6  C4  UNL     1     -35.878  13.748  -7.808  1.00 20.00     0.034 C 
HETATM    7  C2  UNL     1     -34.368  13.726  -7.597  1.00 20.00     0.005 C 
HETATM    8  C3  UNL     1     -33.825  15.146  -7.515  1.00 20.00     0.026 C 
HETATM    9  C5  UNL     1     -34.596  15.963  -6.489  1.00 20.00     0.168 C 
HETATM   10  O9  UNL     1     -35.996  15.955  -6.764  1.00 20.00    -0.384 OA
ENDBRANCH   4   5
ENDBRANCH   2   4
TORSDOF 2
ENDMDL
