MODEL 1
REMARK VINA RESULT:      -5.8      0.000      0.000
REMARK  1 active torsions:
REMARK  status: ('A' for Active; 'I' for Inactive)
REMARK    1  A    between atoms: C1_1  and  O10_10 
ROOT
HETATM    1  C1  UNL     1     -33.815   7.122   4.933  1.00 20.00     0.099 C 
HETATM    2  C2  UNL     1     -34.840   6.264   4.737  1.00 20.00     0.026 C 
HETATM    3  C3  UNL     1     -33.139   7.032   3.604  1.00 20.00     0.183 C 
HETATM    4  C4  UNL     1     -34.745   4.885   5.340  1.00 20.00     0.018 C 
HETATM    5  C5  UNL     1     -35.247   6.210   3.286  1.00 20.00     0.030 C 
HETATM    6  C6  UNL     1     -33.579   4.167   4.608  1.00 20.00     0.002 C 
HETATM    7  C7  UNL     1     -33.391   4.562   3.106  1.00 20.00     0.013 C 
HETATM    8  C8  UNL     1     -33.848   6.001   2.745  1.00 20.00     0.063 C 
HETATM    9  O9  UNL     1     -32.111   7.622   3.313  1.00 20.00    -0.290 OA
ENDROOT
BRANCH   1  10
HETATM   10  O10 UNL     1     -33.055   7.283   6.054  1.00 20.00    -0.360 OA
HETATM   11  H20 UNL     1     -32.114   7.229   5.837  1.00 20.00     0.217 HD
ENDBRANCH   1  10
TORSDOF 1
ENDMDL
MODEL 2
REMARK VINA RESULT:      -5.3      1.757      3.206
REMARK  1 active torsions:
REMARK  status: ('A' for Active; 'I' for Inactive)
REMARK    1  A    between atoms: C1_1  and  O10_10 
ROOT
HETATM    1  C1  UNL     1     -33.680   5.010   2.947  1.00 20.00     0.099 C 
HETATM    2  C2  UNL     1     -34.256   6.232   2.927  1.00 20.00     0.026 C 
HETATM    3  C3  UNL     1     -34.205   4.493   4.247  1.00 20.00     0.183 C 
HETATM    4  C4  UNL     1     -33.407   7.429   3.275  1.00 20.00     0.018 C 
HETATM    5  C5  UNL     1     -35.564   6.240   3.678  1.00 20.00     0.030 C 
HETATM    6  C6  UNL     1     -33.027   7.276   4.773  1.00 20.00     0.002 C 
HETATM    7  C7  UNL     1     -34.109   6.587   5.668  1.00 20.00     0.013 C 
HETATM    8  C8  UNL     1     -35.024   5.574   4.927  1.00 20.00     0.063 C 
HETATM    9  O9  UNL     1     -33.917   3.407   4.722  1.00 20.00    -0.290 OA
ENDROOT
BRANCH   1  10
HETATM   10  O10 UNL     1     -32.418   4.668   2.558  1.00 20.00    -0.360 OA
HETATM   11  H20 UNL     1     -32.318   3.706   2.538  1.00 20.00     0.217 HD
ENDBRANCH   1  10
TORSDOF 1
ENDMDL
MODEL 3
REMARK VINA RESULT:      -4.7     12.221     13.400
REMARK  1 active torsions:
REMARK  status: ('A' for Active; 'I' for Inactive)
REMARK    1  A    between atoms: C1_1  and  O10_10 
ROOT
HETATM    1  C1  UNL     1     -34.892  14.074  -6.744  1.00 20.00     0.099 C 
HETATM    2  C2  UNL     1     -34.658  15.391  -6.557  1.00 20.00     0.026 C 
HETATM    3  C3  UNL     1     -35.590  13.746  -5.465  1.00 20.00     0.183 C 
HETATM    4  C4  UNL     1     -33.268  15.824  -6.166  1.00 20.00     0.018 C 
HETATM    5  C5  UNL     1     -35.706  16.018  -5.671  1.00 20.00     0.030 C 
HETATM    6  C6  UNL     1     -33.012  15.246  -4.748  1.00 20.00     0.002 C 
HETATM    7  C7  UNL     1     -34.273  15.158  -3.827  1.00 20.00     0.013 C 
HETATM    8  C8  UNL     1     -35.621  14.975  -4.576  1.00 20.00     0.063 C 
HETATM    9  O9  UNL     1     -35.970  12.628  -5.155  1.00 20.00    -0.290 OA
ENDROOT
BRANCH   1  10
HETATM   10  O10 UNL     1     -34.067  13.145  -7.307  1.00 20.00    -0.360 OA
HETATM   11  H20 UNL     1     -34.439  12.257  -7.210  1.00 20.00     0.217 HD
ENDBRANCH   1  10
TORSDOF 1
ENDMDL
MODEL 4
REMARK VINA RESULT:      -4.6     12.197     12.940
REMARK  1 active torsions:
REMARK  status: ('A' for Active; 'I' for Inactive)
REMARK    1  A    between atoms: C1_1  and  O10_10 
ROOT
HETATM    1  C1  UNL     1     -33.750  14.447  -5.169  1.00 20.00     0.099 C 
HETATM    2  C2  UNL     1     -33.862  15.793  -5.175  1.00 20.00     0.026 C 
HETATM    3  C3  UNL     1     -35.193  14.063  -5.111  1.00 20.00     0.183 C 
HETATM    4  C4  UNL     1     -33.585  16.540  -3.895  1.00 20.00     0.018 C 
HETATM    5  C5  UNL     1     -35.156  16.237  -5.810  1.00 20.00     0.030 C 
HETATM    6  C6  UNL     1     -34.701  16.128  -2.897  1.00 20.00     0.002 C 
HETATM    7  C7  UNL     1     -36.095  15.833  -3.541  1.00 20.00     0.013 C 
HETATM    8  C8  UNL     1     -36.045  15.313  -5.004  1.00 20.00     0.063 C 
HETATM    9  O9  UNL     1     -35.597  12.913  -5.048  1.00 20.00    -0.290 OA
ENDROOT
BRANCH   1  10
HETATM   10  O10 UNL     1     -32.833  13.681  -4.510  1.00 20.00    -0.360 OA
HETATM   11  H20 UNL     1     -31.986  14.143  -4.450  1.00 20.00     0.217 HD
ENDBRANCH   1  10
TORSDOF 1
ENDMDL
MODEL 5
REMARK VINA RESULT:      -4.5     12.188     13.189
REMARK  1 active torsions:
REMARK  status: ('A' for Active; 'I' for Inactive)
REMARK    1  A    between atoms: C1_1  and  O10_10 
ROOT
HETATM    1  C1  UNL     1     -36.057  13.792  -5.547  1.00 20.00     0.099 C 
HETATM    2  C2  UNL     1     -35.145  14.767  -5.753  1.00 20.00     0.026 C 
HETATM    3  C3  UNL     1     -37.218  14.611  -5.084  1.00 20.00     0.183 C 
HETATM    4  C4  UNL     1     -34.064  14.967  -4.721  1.00 20.00     0.018 C 
HETATM    5  C5  UNL     1     -35.804  16.071  -6.128  1.00 20.00     0.030 C 
HETATM    6  C6  UNL     1     -34.776  15.458  -3.431  1.00 20.00     0.002 C 
HETATM    7  C7  UNL     1     -36.040  16.348  -3.666  1.00 20.00     0.013 C 
HETATM    8  C8  UNL     1     -36.803  16.068  -4.989  1.00 20.00     0.063 C 
HETATM    9  O9  UNL     1     -38.291  14.148  -4.733  1.00 20.00    -0.290 OA
ENDROOT
BRANCH   1  10
HETATM   10  O10 UNL     1     -35.860  12.556  -5.006  1.00 20.00    -0.360 OA
HETATM   11  H20 UNL     1     -35.132  12.102  -5.452  1.00 20.00     0.217 HD
ENDBRANCH   1  10
TORSDOF 1
ENDMDL
MODEL 6
REMARK VINA RESULT:      -4.5      1.246      1.997
REMARK  1 active torsions:
REMARK  status: ('A' for Active; 'I' for Inactive)
REMARK    1  A    between atoms: C1_1  and  O10_10 
ROOT
HETATM    1  C1  UNL     1     -34.511   5.460   5.460  1.00 20.00     0.099 C 
HETATM    2  C2  UNL     1     -34.934   5.124   4.222  1.00 20.00     0.026 C 
HETATM    3  C3  UNL     1     -33.987   6.833   5.196  1.00 20.00     0.183 C 
HETATM    4  C4  UNL     1     -34.079   4.194   3.400  1.00 20.00     0.018 C 
HETATM    5  C5  UNL     1     -35.353   6.339   3.433  1.00 20.00     0.030 C 
HETATM    6  C6  UNL     1     -32.765   4.963   3.094  1.00 20.00     0.002 C 
HETATM    7  C7  UNL     1     -32.924   6.509   2.921  1.00 20.00     0.013 C 
HETATM    8  C8  UNL     1     -34.099   7.141   3.715  1.00 20.00     0.063 C 
HETATM    9  O9  UNL     1     -33.452   7.539   6.036  1.00 20.00    -0.290 OA
ENDROOT
BRANCH   1  10
HETATM   10  O10 UNL     1     -33.875   4.671   6.374  1.00 20.00    -0.360 OA
HETATM   11  H20 UNL     1     -34.388   4.618   7.192  1.00 20.00     0.217 HD
ENDBRANCH   1  10
TORSDOF 1
ENDMDL
MODEL 7
REMARK VINA RESULT:      -4.5     12.253     13.410
REMARK  1 active torsions:
REMARK  status: ('A' for Active; 'I' for Inactive)
REMARK    1  A    between atoms: C1_1  and  O10_10 
ROOT
HETATM    1  C1  UNL     1     -35.646  13.936  -5.009  1.00 20.00     0.099 C 
HETATM    2  C2  UNL     1     -36.145  14.847  -5.873  1.00 20.00     0.026 C 
HETATM    3  C3  UNL     1     -34.217  14.371  -4.965  1.00 20.00     0.183 C 
HETATM    4  C4  UNL     1     -36.400  14.420  -7.296  1.00 20.00     0.018 C 
HETATM    5  C5  UNL     1     -35.381  16.146  -5.809  1.00 20.00     0.030 C 
HETATM    6  C6  UNL     1     -35.010  14.115  -7.917  1.00 20.00     0.002 C 
HETATM    7  C7  UNL     1     -33.834  15.001  -7.388  1.00 20.00     0.013 C 
HETATM    8  C8  UNL     1     -34.008  15.519  -5.934  1.00 20.00     0.063 C 
HETATM    9  O9  UNL     1     -33.345  13.805  -4.326  1.00 20.00    -0.290 OA
ENDROOT
BRANCH   1  10
HETATM   10  O10 UNL     1     -35.937  12.606  -4.928  1.00 20.00    -0.360 OA
HETATM   11  H20 UNL     1     -36.470  12.423  -4.142  1.00 20.00     0.217 HD
ENDBRANCH   1  10
TORSDOF 1
ENDMDL
MODEL 8
REMARK VINA RESULT:      -4.4     11.702     12.940
REMARK  1 active torsions:
REMARK  status: ('A' for Active; 'I' for Inactive)
REMARK    1  A    between atoms: C1_1  and  O10_10 
ROOT
HETATM    1  C1  UNL     1     -35.121  13.934  -4.445  1.00 20.00     0.099 C 
HETATM    2  C2  UNL     1     -35.698  15.146  -4.292  1.00 20.00     0.026 C 
HETATM    3  C3  UNL     1     -33.693  14.287  -4.184  1.00 20.00     0.183 C 
HETATM    4  C4  UNL     1     -36.090  15.914  -5.528  1.00 20.00     0.018 C 
HETATM    5  C5  UNL     1     -34.926  16.007  -3.323  1.00 20.00     0.030 C 
HETATM    6  C6  UNL     1     -34.768  16.276  -6.257  1.00 20.00     0.002 C 
HETATM    7  C7  UNL     1     -33.544  16.545  -5.321  1.00 20.00     0.013 C 
HETATM    8  C8  UNL     1     -33.574  15.784  -3.968  1.00 20.00     0.063 C 
HETATM    9  O9  UNL     1     -32.766  13.497  -4.249  1.00 20.00    -0.290 OA
ENDROOT
BRANCH   1  10
HETATM   10  O10 UNL     1     -35.408  12.976  -5.373  1.00 20.00    -0.360 OA
HETATM   11  H20 UNL     1     -35.148  12.103  -5.051  1.00 20.00     0.217 HD
ENDBRANCH   1  10
TORSDOF 1
ENDMDL
MODEL 9
REMARK VINA RESULT:      -4.4     12.056     13.316
REMARK  1 active torsions:
REMARK  status: ('A' for Active; 'I' for Inactive)
REMARK    1  A    between atoms: C1_1  and  O10_10 
ROOT
HETATM    1  C1  UNL     1     -36.106  15.062  -5.737  1.00 20.00     0.099 C 
HETATM    2  C2  UNL     1     -35.478  16.066  -5.087  1.00 20.00     0.026 C 
HETATM    3  C3  UNL     1     -35.575  13.887  -4.984  1.00 20.00     0.183 C 
HETATM    4  C4  UNL     1     -34.282  16.707  -5.744  1.00 20.00     0.018 C 
HETATM    5  C5  UNL     1     -35.196  15.702  -3.651  1.00 20.00     0.030 C 
HETATM    6  C6  UNL     1     -33.177  15.617  -5.800  1.00 20.00     0.002 C 
HETATM    7  C7  UNL     1     -33.176  14.606  -4.606  1.00 20.00     0.013 C 
HETATM    8  C8  UNL     1     -34.565  14.359  -3.955  1.00 20.00     0.063 C 
HETATM    9  O9  UNL     1     -35.840  12.725  -5.246  1.00 20.00    -0.290 OA
ENDROOT
BRANCH   1  10
HETATM   10  O10 UNL     1     -36.338  14.942  -7.076  1.00 20.00    -0.360 OA
HETATM   11  H20 UNL     1     -35.700  14.337  -7.479  1.00 20.00     0.217 HD
ENDBRANCH   1  10
TORSDOF 1
ENDMDL
