MODEL 1
REMARK VINA RESULT:      -4.5      0.000      0.000
REMARK  1 active torsions:
REMARK  status: ('A' for Active; 'I' for Inactive)
REMARK    1  A    between atoms: C3_3  and  O8_8 
ROOT
HETATM    1  C1  UNL     1     -33.233   5.434   3.521  1.00 20.00     0.040 C 
HETATM    2  C2  UNL     1     -32.827   6.693   2.778  1.00 20.00     0.172 C 
HETATM    3  C3  UNL     1     -33.907   7.323   4.750  1.00 20.00     0.264 C 
HETATM    4  C4  UNL     1     -34.384   5.906   4.403  1.00 20.00     0.004 C 
HETATM    5  C5  UNL     1     -34.587   4.996   5.616  1.00 20.00     0.020 C 
HETATM    6  C6  UNL     1     -35.692   5.965   3.592  1.00 20.00     0.020 C 
HETATM    7  O7  UNL     1     -33.258   7.813   3.565  1.00 20.00    -0.361 OA
ENDROOT
BRANCH   3   8
HETATM    8  O8  UNL     1     -32.984   7.302   5.833  1.00 20.00    -0.371 OA
HETATM    9  H20 UNL     1     -32.445   8.104   5.754  1.00 20.00     0.212 HD
ENDBRANCH   3   8
TORSDOF 1
ENDMDL
MODEL 2
REMARK VINA RESULT:      -3.8     11.967     12.736
REMARK  1 active torsions:
REMARK  status: ('A' for Active; 'I' for Inactive)
REMARK    1  A    between atoms: C3_3  and  O8_8 
ROOT
HETATM    1  C1  UNL     1     -34.796  14.955  -6.447  1.00 20.00     0.040 C 
HETATM    2  C2  UNL     1     -34.681  13.579  -7.078  1.00 20.00     0.172 C 
HETATM    3  C3  UNL     1     -35.844  13.366  -5.064  1.00 20.00     0.264 C 
HETATM    4  C4  UNL     1     -34.998  14.644  -4.968  1.00 20.00     0.004 C 
HETATM    5  C5  UNL     1     -35.682  15.796  -4.229  1.00 20.00     0.020 C 
HETATM    6  C6  UNL     1     -33.647  14.342  -4.293  1.00 20.00     0.020 C 
HETATM    7  O7  UNL     1     -35.332  12.649  -6.200  1.00 20.00    -0.361 OA
ENDROOT
BRANCH   3   8
HETATM    8  O8  UNL     1     -37.218  13.675  -5.266  1.00 20.00    -0.371 OA
HETATM    9  H20 UNL     1     -37.580  13.911  -4.398  1.00 20.00     0.212 HD
ENDBRANCH   3   8
TORSDOF 1
ENDMDL
MODEL 3
REMARK VINA RESULT:      -3.8     12.016     12.878
REMARK  1 active torsions:
REMARK  status: ('A' for Active; 'I' for Inactive)
REMARK    1  A    between atoms: C3_3  and  O8_8 
ROOT
HETATM    1  C1  UNL     1     -33.701  14.596  -5.124  1.00 20.00     0.040 C 
HETATM    2  C2  UNL     1     -34.432  15.127  -3.905  1.00 20.00     0.172 C 
HETATM    3  C3  UNL     1     -35.987  14.065  -5.285  1.00 20.00     0.264 C 
HETATM    4  C4  UNL     1     -34.805  14.484  -6.170  1.00 20.00     0.004 C 
HETATM    5  C5  UNL     1     -34.454  13.476  -7.268  1.00 20.00     0.020 C 
HETATM    6  C6  UNL     1     -35.077  15.856  -6.813  1.00 20.00     0.020 C 
HETATM    7  O7  UNL     1     -35.817  14.780  -4.050  1.00 20.00    -0.361 OA
ENDROOT
BRANCH   3   8
HETATM    8  O8  UNL     1     -35.972  12.663  -5.039  1.00 20.00    -0.371 OA
HETATM    9  H20 UNL     1     -35.199  12.488  -4.481  1.00 20.00     0.212 HD
ENDBRANCH   3   8
TORSDOF 1
ENDMDL
MODEL 4
REMARK VINA RESULT:      -3.8     11.492     12.451
REMARK  1 active torsions:
REMARK  status: ('A' for Active; 'I' for Inactive)
REMARK    1  A    between atoms: C3_3  and  O8_8 
ROOT
HETATM    1  C1  UNL     1     -34.903  15.753  -5.578  1.00 20.00     0.040 C 
HETATM    2  C2  UNL     1     -33.534  15.108  -5.684  1.00 20.00     0.172 C 
HETATM    3  C3  UNL     1     -34.832  13.833  -4.221  1.00 20.00     0.264 C 
HETATM    4  C4  UNL     1     -35.421  15.250  -4.235  1.00 20.00     0.004 C 
HETATM    5  C5  UNL     1     -36.949  15.296  -4.156  1.00 20.00     0.020 C 
HETATM    6  C6  UNL     1     -34.831  16.087  -3.084  1.00 20.00     0.020 C 
HETATM    7  O7  UNL     1     -33.541  13.945  -4.842  1.00 20.00    -0.361 OA
ENDROOT
BRANCH   3   8
HETATM    8  O8  UNL     1     -35.648  12.931  -4.960  1.00 20.00    -0.371 OA
HETATM    9  H20 UNL     1     -36.568  13.172  -4.772  1.00 20.00     0.212 HD
ENDBRANCH   3   8
TORSDOF 1
ENDMDL
MODEL 5
REMARK VINA RESULT:      -3.7     12.295     12.978
REMARK  1 active torsions:
REMARK  status: ('A' for Active; 'I' for Inactive)
REMARK    1  A    between atoms: C3_3  and  O8_8 
ROOT
HETATM    1  C1  UNL     1     -36.225  15.410  -4.140  1.00 20.00     0.040 C 
HETATM    2  C2  UNL     1     -37.672  15.068  -4.444  1.00 20.00     0.172 C 
HETATM    3  C3  UNL     1     -36.307  13.671  -5.722  1.00 20.00     0.264 C 
HETATM    4  C4  UNL     1     -35.485  14.921  -5.381  1.00 20.00     0.004 C 
HETATM    5  C5  UNL     1     -34.008  14.643  -5.094  1.00 20.00     0.020 C 
HETATM    6  C6  UNL     1     -35.593  15.959  -6.513  1.00 20.00     0.020 C 
HETATM    7  O7  UNL     1     -37.669  14.006  -5.409  1.00 20.00    -0.361 OA
ENDROOT
BRANCH   3   8
HETATM    8  O8  UNL     1     -35.892  12.555  -4.941  1.00 20.00    -0.371 OA
HETATM    9  H20 UNL     1     -35.877  11.790  -5.537  1.00 20.00     0.212 HD
ENDBRANCH   3   8
TORSDOF 1
ENDMDL
MODEL 6
REMARK VINA RESULT:      -3.7      1.845      2.761
REMARK  1 active torsions:
REMARK  status: ('A' for Active; 'I' for Inactive)
REMARK    1  A    between atoms: C3_3  and  O8_8 
ROOT
HETATM    1  C1  UNL     1     -33.336   6.683   4.560  1.00 20.00     0.040 C 
HETATM    2  C2  UNL     1     -34.162   6.695   5.833  1.00 20.00     0.172 C 
HETATM    3  C3  UNL     1     -34.601   4.704   4.696  1.00 20.00     0.264 C 
HETATM    4  C4  UNL     1     -34.100   5.719   3.659  1.00 20.00     0.004 C 
HETATM    5  C5  UNL     1     -33.205   5.118   2.573  1.00 20.00     0.020 C 
HETATM    6  C6  UNL     1     -35.290   6.435   2.993  1.00 20.00     0.020 C 
HETATM    7  O7  UNL     1     -34.912   5.472   5.869  1.00 20.00    -0.361 OA
ENDROOT
BRANCH   3   8
HETATM    8  O8  UNL     1     -33.595   3.743   5.000  1.00 20.00    -0.371 OA
HETATM    9  H20 UNL     1     -34.056   2.947   5.307  1.00 20.00     0.212 HD
ENDBRANCH   3   8
TORSDOF 1
ENDMDL
MODEL 7
REMARK VINA RESULT:      -3.6     11.943     12.981
REMARK  1 active torsions:
REMARK  status: ('A' for Active; 'I' for Inactive)
REMARK    1  A    between atoms: C3_3  and  O8_8 
ROOT
HETATM    1  C1  UNL     1     -34.109  14.623  -6.345  1.00 20.00     0.040 C 
HETATM    2  C2  UNL     1     -33.552  14.648  -4.934  1.00 20.00     0.172 C 
HETATM    3  C3  UNL     1     -35.798  14.018  -4.823  1.00 20.00     0.264 C 
HETATM    4  C4  UNL     1     -35.609  14.799  -6.131  1.00 20.00     0.004 C 
HETATM    5  C5  UNL     1     -36.423  14.260  -7.308  1.00 20.00     0.020 C 
HETATM    6  C6  UNL     1     -35.949  16.286  -5.920  1.00 20.00     0.020 C 
HETATM    7  O7  UNL     1     -34.616  14.273  -4.046  1.00 20.00    -0.361 OA
ENDROOT
BRANCH   3   8
HETATM    8  O8  UNL     1     -35.920  12.622  -5.073  1.00 20.00    -0.371 OA
HETATM    9  H20 UNL     1     -35.237  12.396  -5.724  1.00 20.00     0.212 HD
ENDBRANCH   3   8
TORSDOF 1
ENDMDL
MODEL 8
REMARK VINA RESULT:      -3.6      8.480      9.541
REMARK  1 active torsions:
REMARK  status: ('A' for Active; 'I' for Inactive)
REMARK    1  A    between atoms: C3_3  and  O8_8 
ROOT
HETATM    1  C1  UNL     1     -43.065   6.836  -0.808  1.00 20.00     0.040 C 
HETATM    2  C2  UNL     1     -41.931   7.836  -0.669  1.00 20.00     0.172 C 
HETATM    3  C3  UNL     1     -41.235   5.808   0.255  1.00 20.00     0.264 C 
HETATM    4  C4  UNL     1     -42.769   5.821   0.292  1.00 20.00     0.004 C 
HETATM    5  C5  UNL     1     -43.417   4.464   0.007  1.00 20.00     0.020 C 
HETATM    6  C6  UNL     1     -43.268   6.343   1.652  1.00 20.00     0.020 C 
HETATM    7  O7  UNL     1     -40.843   7.163  -0.018  1.00 20.00    -0.361 OA
ENDROOT
BRANCH   3   8
HETATM    8  O8  UNL     1     -40.754   4.949  -0.774  1.00 20.00    -0.371 OA
HETATM    9  H20 UNL     1     -41.389   4.219  -0.844  1.00 20.00     0.212 HD
ENDBRANCH   3   8
TORSDOF 1
ENDMDL
MODEL 9
REMARK VINA RESULT:      -3.6     11.895     12.627
REMARK  1 active torsions:
REMARK  status: ('A' for Active; 'I' for Inactive)
REMARK    1  A    between atoms: C3_3  and  O8_8 
ROOT
HETATM    1  C1  UNL     1     -35.876  14.060  -4.723  1.00 20.00     0.040 C 
HETATM    2  C2  UNL     1     -35.620  13.328  -6.027  1.00 20.00     0.172 C 
HETATM    3  C3  UNL     1     -33.679  14.489  -5.447  1.00 20.00     0.264 C 
HETATM    4  C4  UNL     1     -34.855  15.192  -4.753  1.00 20.00     0.004 C 
HETATM    5  C5  UNL     1     -34.535  15.713  -3.350  1.00 20.00     0.020 C 
HETATM    6  C6  UNL     1     -35.369  16.357  -5.620  1.00 20.00     0.020 C 
HETATM    7  O7  UNL     1     -34.273  13.620  -6.426  1.00 20.00    -0.361 OA
ENDROOT
BRANCH   3   8
HETATM    8  O8  UNL     1     -32.919  13.724  -4.518  1.00 20.00    -0.371 OA
HETATM    9  H20 UNL     1     -32.717  12.881  -4.953  1.00 20.00     0.212 HD
ENDBRANCH   3   8
TORSDOF 1
ENDMDL
