MODEL 1
REMARK VINA RESULT:      -5.6      0.000      0.000
REMARK  3 active torsions:
REMARK  status: ('A' for Active; 'I' for Inactive)
REMARK    1  A    between atoms: C3_3  and  C4_4 
REMARK    2  A    between atoms: C4_4  and  C5_5 
REMARK    3  A    between atoms: C4_4  and  O6_6 
ROOT
HETATM    1  C4  UNL     1     -33.845   7.103   4.330  1.00 20.00     0.229 C 
ENDROOT
BRANCH   1   2
HETATM    2  C3  UNL     1     -32.675   7.056   3.408  1.00 20.00     0.023 A 
HETATM    3  C1  UNL     1     -32.636   7.933   2.188  1.00 20.00     0.008 A 
HETATM    4  C2  UNL     1     -31.717   8.213   3.344  1.00 20.00     0.008 A 
ENDBRANCH   1   2
BRANCH   1   5
HETATM    5  C5  UNL     1     -34.661   5.824   4.295  1.00 20.00     0.413 C 
HETATM    6  F7  UNL     1     -33.982   4.830   3.679  1.00 20.00    -0.168 F 
HETATM    7  F8  UNL     1     -34.949   5.400   5.545  1.00 20.00    -0.168 F 
HETATM    8  F9  UNL     1     -35.826   5.995   3.635  1.00 20.00    -0.168 F 
ENDBRANCH   1   5
BRANCH   1   9
HETATM    9  O6  UNL     1     -33.399   7.299   5.673  1.00 20.00    -0.386 OA
HETATM   10  H16 UNL     1     -34.187   7.515   6.194  1.00 20.00     0.210 HD
ENDBRANCH   1   9
TORSDOF 3
ENDMDL
MODEL 2
REMARK VINA RESULT:      -5.6      0.023      1.265
REMARK  3 active torsions:
REMARK  status: ('A' for Active; 'I' for Inactive)
REMARK    1  A    between atoms: C3_3  and  C4_4 
REMARK    2  A    between atoms: C4_4  and  C5_5 
REMARK    3  A    between atoms: C4_4  and  O6_6 
ROOT
HETATM    1  C4  UNL     1     -33.850   7.099   4.317  1.00 20.00     0.229 C 
ENDROOT
BRANCH   1   2
HETATM    2  C3  UNL     1     -32.681   7.059   3.394  1.00 20.00     0.023 A 
HETATM    3  C1  UNL     1     -32.632   7.961   2.192  1.00 20.00     0.008 A 
HETATM    4  C2  UNL     1     -31.710   8.207   3.353  1.00 20.00     0.008 A 
ENDBRANCH   1   2
BRANCH   1   5
HETATM    5  C5  UNL     1     -34.658   5.815   4.283  1.00 20.00     0.413 C 
HETATM    6  F7  UNL     1     -35.830   5.995   3.634  1.00 20.00    -0.168 F 
HETATM    7  F8  UNL     1     -33.985   4.837   3.637  1.00 20.00    -0.168 F 
HETATM    8  F9  UNL     1     -34.941   5.373   5.527  1.00 20.00    -0.168 F 
ENDBRANCH   1   5
BRANCH   1   9
HETATM    9  O6  UNL     1     -33.404   7.300   5.659  1.00 20.00    -0.386 OA
HETATM   10  H16 UNL     1     -32.495   7.630   5.599  1.00 20.00     0.210 HD
ENDBRANCH   1   9
TORSDOF 3
ENDMDL
MODEL 3
REMARK VINA RESULT:      -5.6      0.014      1.258
REMARK  3 active torsions:
REMARK  status: ('A' for Active; 'I' for Inactive)
REMARK    1  A    between atoms: C3_3  and  C4_4 
REMARK    2  A    between atoms: C4_4  and  C5_5 
REMARK    3  A    between atoms: C4_4  and  O6_6 
ROOT
HETATM    1  C4  UNL     1     -33.848   7.096   4.320  1.00 20.00     0.229 C 
ENDROOT
BRANCH   1   2
HETATM    2  C3  UNL     1     -32.680   7.053   3.395  1.00 20.00     0.023 A 
HETATM    3  C1  UNL     1     -32.641   7.941   2.183  1.00 20.00     0.008 A 
HETATM    4  C2  UNL     1     -31.718   8.207   3.339  1.00 20.00     0.008 A 
ENDBRANCH   1   2
BRANCH   1   5
HETATM    5  C5  UNL     1     -34.652   5.808   4.297  1.00 20.00     0.413 C 
HETATM    6  F7  UNL     1     -34.941   5.393   5.550  1.00 20.00    -0.168 F 
HETATM    7  F8  UNL     1     -35.824   5.982   3.649  1.00 20.00    -0.168 F 
HETATM    8  F9  UNL     1     -33.980   4.814   3.680  1.00 20.00    -0.168 F 
ENDBRANCH   1   5
BRANCH   1   9
HETATM    9  O6  UNL     1     -33.400   7.307   5.660  1.00 20.00    -0.386 OA
HETATM   10  H16 UNL     1     -33.026   6.465   5.959  1.00 20.00     0.210 HD
ENDBRANCH   1   9
TORSDOF 3
ENDMDL
MODEL 4
REMARK VINA RESULT:      -5.3      1.836      2.901
REMARK  3 active torsions:
REMARK  status: ('A' for Active; 'I' for Inactive)
REMARK    1  A    between atoms: C3_3  and  C4_4 
REMARK    2  A    between atoms: C4_4  and  C5_5 
REMARK    3  A    between atoms: C4_4  and  O6_6 
ROOT
HETATM    1  C4  UNL     1     -33.054   6.568   3.623  1.00 20.00     0.229 C 
ENDROOT
BRANCH   1   2
HETATM    2  C3  UNL     1     -34.025   7.069   4.637  1.00 20.00     0.023 A 
HETATM    3  C1  UNL     1     -34.354   6.239   5.845  1.00 20.00     0.008 A 
HETATM    4  C2  UNL     1     -33.545   7.496   5.996  1.00 20.00     0.008 A 
ENDBRANCH   1   2
BRANCH   1   5
HETATM    5  C5  UNL     1     -33.582   5.367   2.861  1.00 20.00     0.413 C 
HETATM    6  F7  UNL     1     -34.247   4.524   3.682  1.00 20.00    -0.168 F 
HETATM    7  F8  UNL     1     -34.442   5.748   1.892  1.00 20.00    -0.168 F 
HETATM    8  F9  UNL     1     -32.583   4.670   2.279  1.00 20.00    -0.168 F 
ENDBRANCH   1   5
BRANCH   1   9
HETATM    9  O6  UNL     1     -32.768   7.597   2.674  1.00 20.00    -0.386 OA
HETATM   10  H16 UNL     1     -33.585   8.106   2.568  1.00 20.00     0.210 HD
ENDBRANCH   1   9
TORSDOF 3
ENDMDL
MODEL 5
REMARK VINA RESULT:      -5.2      2.067      3.280
REMARK  3 active torsions:
REMARK  status: ('A' for Active; 'I' for Inactive)
REMARK    1  A    between atoms: C3_3  and  C4_4 
REMARK    2  A    between atoms: C4_4  and  C5_5 
REMARK    3  A    between atoms: C4_4  and  O6_6 
ROOT
HETATM    1  C4  UNL     1     -32.958   6.940   4.783  1.00 20.00     0.229 C 
ENDROOT
BRANCH   1   2
HETATM    2  C3  UNL     1     -34.372   6.501   4.951  1.00 20.00     0.023 A 
HETATM    3  C1  UNL     1     -34.900   5.332   4.167  1.00 20.00     0.008 A 
HETATM    4  C2  UNL     1     -34.684   5.206   5.649  1.00 20.00     0.008 A 
ENDBRANCH   1   2
BRANCH   1   5
HETATM    5  C5  UNL     1     -32.657   7.392   3.366  1.00 20.00     0.413 C 
HETATM    6  F7  UNL     1     -31.518   8.119   3.319  1.00 20.00    -0.168 F 
HETATM    7  F8  UNL     1     -32.491   6.332   2.545  1.00 20.00    -0.168 F 
HETATM    8  F9  UNL     1     -33.651   8.154   2.865  1.00 20.00    -0.168 F 
ENDBRANCH   1   5
BRANCH   1   9
HETATM    9  O6  UNL     1     -32.681   8.034   5.659  1.00 20.00    -0.386 OA
HETATM   10  H16 UNL     1     -31.877   8.456   5.322  1.00 20.00     0.210 HD
ENDBRANCH   1   9
TORSDOF 3
ENDMDL
MODEL 6
REMARK VINA RESULT:      -5.1      1.571      2.090
REMARK  3 active torsions:
REMARK  status: ('A' for Active; 'I' for Inactive)
REMARK    1  A    between atoms: C3_3  and  C4_4 
REMARK    2  A    between atoms: C4_4  and  C5_5 
REMARK    3  A    between atoms: C4_4  and  O6_6 
ROOT
HETATM    1  C4  UNL     1     -33.538   6.134   3.311  1.00 20.00     0.229 C 
ENDROOT
BRANCH   1   2
HETATM    2  C3  UNL     1     -33.143   7.569   3.250  1.00 20.00     0.023 A 
HETATM    3  C1  UNL     1     -31.770   7.996   3.687  1.00 20.00     0.008 A 
HETATM    4  C2  UNL     1     -32.141   8.035   2.231  1.00 20.00     0.008 A 
ENDBRANCH   1   2
BRANCH   1   5
HETATM    5  C5  UNL     1     -34.470   5.839   4.472  1.00 20.00     0.413 C 
HETATM    6  F7  UNL     1     -34.356   6.778   5.438  1.00 20.00    -0.168 F 
HETATM    7  F8  UNL     1     -35.759   5.830   4.068  1.00 20.00    -0.168 F 
HETATM    8  F9  UNL     1     -34.202   4.640   5.032  1.00 20.00    -0.168 F 
ENDBRANCH   1   5
BRANCH   1   9
HETATM    9  O6  UNL     1     -34.211   5.763   2.107  1.00 20.00    -0.386 OA
HETATM   10  H16 UNL     1     -35.027   6.285   2.077  1.00 20.00     0.210 HD
ENDBRANCH   1   9
TORSDOF 3
ENDMDL
MODEL 7
REMARK VINA RESULT:      -5.1      1.563      1.947
REMARK  3 active torsions:
REMARK  status: ('A' for Active; 'I' for Inactive)
REMARK    1  A    between atoms: C3_3  and  C4_4 
REMARK    2  A    between atoms: C4_4  and  C5_5 
REMARK    3  A    between atoms: C4_4  and  O6_6 
ROOT
HETATM    1  C4  UNL     1     -33.544   6.138   3.344  1.00 20.00     0.229 C 
ENDROOT
BRANCH   1   2
HETATM    2  C3  UNL     1     -33.162   7.577   3.288  1.00 20.00     0.023 A 
HETATM    3  C1  UNL     1     -31.787   8.013   3.707  1.00 20.00     0.008 A 
HETATM    4  C2  UNL     1     -32.180   8.060   2.258  1.00 20.00     0.008 A 
ENDBRANCH   1   2
BRANCH   1   5
HETATM    5  C5  UNL     1     -34.479   5.832   4.499  1.00 20.00     0.413 C 
HETATM    6  F7  UNL     1     -35.763   5.763   4.082  1.00 20.00    -0.168 F 
HETATM    7  F8  UNL     1     -34.175   4.643   5.065  1.00 20.00    -0.168 F 
HETATM    8  F9  UNL     1     -34.410   6.778   5.459  1.00 20.00    -0.168 F 
ENDBRANCH   1   5
BRANCH   1   9
HETATM    9  O6  UNL     1     -34.207   5.763   2.135  1.00 20.00    -0.386 OA
HETATM   10  H16 UNL     1     -33.935   6.406   1.463  1.00 20.00     0.210 HD
ENDBRANCH   1   9
TORSDOF 3
ENDMDL
MODEL 8
REMARK VINA RESULT:      -5.0      2.143      2.701
REMARK  3 active torsions:
REMARK  status: ('A' for Active; 'I' for Inactive)
REMARK    1  A    between atoms: C3_3  and  C4_4 
REMARK    2  A    between atoms: C4_4  and  C5_5 
REMARK    3  A    between atoms: C4_4  and  O6_6 
ROOT
HETATM    1  C4  UNL     1     -34.004   5.530   4.901  1.00 20.00     0.229 C 
ENDROOT
BRANCH   1   2
HETATM    2  C3  UNL     1     -34.028   5.640   3.415  1.00 20.00     0.023 A 
HETATM    3  C1  UNL     1     -32.926   6.359   2.690  1.00 20.00     0.008 A 
HETATM    4  C2  UNL     1     -33.045   4.865   2.583  1.00 20.00     0.008 A 
ENDBRANCH   1   2
BRANCH   1   5
HETATM    5  C5  UNL     1     -34.036   6.885   5.582  1.00 20.00     0.413 C 
HETATM    6  F7  UNL     1     -34.656   7.804   4.809  1.00 20.00    -0.168 F 
HETATM    7  F8  UNL     1     -34.708   6.823   6.752  1.00 20.00    -0.168 F 
HETATM    8  F9  UNL     1     -32.792   7.341   5.842  1.00 20.00    -0.168 F 
ENDBRANCH   1   5
BRANCH   1   9
HETATM    9  O6  UNL     1     -35.137   4.787   5.353  1.00 20.00    -0.386 OA
HETATM   10  H16 UNL     1     -34.904   4.438   6.226  1.00 20.00     0.210 HD
ENDBRANCH   1   9
TORSDOF 3
ENDMDL
MODEL 9
REMARK VINA RESULT:      -4.9      2.424      3.007
REMARK  3 active torsions:
REMARK  status: ('A' for Active; 'I' for Inactive)
REMARK    1  A    between atoms: C3_3  and  C4_4 
REMARK    2  A    between atoms: C4_4  and  C5_5 
REMARK    3  A    between atoms: C4_4  and  O6_6 
ROOT
HETATM    1  C4  UNL     1     -34.450   5.596   4.182  1.00 20.00     0.229 C 
ENDROOT
BRANCH   1   2
HETATM    2  C3  UNL     1     -33.651   6.130   5.321  1.00 20.00     0.023 A 
HETATM    3  C1  UNL     1     -33.363   7.601   5.421  1.00 20.00     0.008 A 
HETATM    4  C2  UNL     1     -34.314   6.955   6.388  1.00 20.00     0.008 A 
ENDBRANCH   1   2
BRANCH   1   5
HETATM    5  C5  UNL     1     -33.646   5.519   2.897  1.00 20.00     0.413 C 
HETATM    6  F7  UNL     1     -34.374   5.946   1.841  1.00 20.00    -0.168 F 
HETATM    7  F8  UNL     1     -32.545   6.298   2.968  1.00 20.00    -0.168 F 
HETATM    8  F9  UNL     1     -33.246   4.257   2.636  1.00 20.00    -0.168 F 
ENDBRANCH   1   5
BRANCH   1   9
HETATM    9  O6  UNL     1     -34.914   4.280   4.487  1.00 20.00    -0.386 OA
HETATM   10  H16 UNL     1     -34.388   3.973   5.240  1.00 20.00     0.210 HD
ENDBRANCH   1   9
TORSDOF 3
ENDMDL
