MODEL 1
REMARK VINA RESULT:      -5.8      0.000      0.000
REMARK  7 active torsions:
REMARK  status: ('A' for Active; 'I' for Inactive)
REMARK    1  A    between atoms: C1_1  and  C6_6 
REMARK    2  A    between atoms: C1_1  and  C11_11 
REMARK    3  A    between atoms: C6_6  and  C12_12 
REMARK    4  A    between atoms: C7_7  and  C9_9 
REMARK    5  A    between atoms: C8_8  and  C12_12 
REMARK    6  A    between atoms: C9_9  and  C10_10 
REMARK    7  A    between atoms: C10_10  and  C12_12 
ROOT
HETATM    1  C12 UNL     1     -33.096   7.602   3.240  1.00 20.00    -0.008 C 
ENDROOT
BRANCH   1   2
HETATM    2  C6  UNL     1     -31.717   8.040   2.707  1.00 20.00     0.083 C 
BRANCH   2   3
HETATM    3  C1  UNL     1     -31.765   8.647   1.308  1.00 20.00     0.130 C 
HETATM    4  O13 UNL     1     -30.916   8.392   0.454  1.00 20.00    -0.298 OA
BRANCH   3   5
HETATM    5  C11 UNL     1     -32.939   9.579   1.019  1.00 20.00     0.047 C 
HETATM    6  C4  UNL     1     -33.258   9.610  -0.472  1.00 20.00     0.017 C 
HETATM    7  C5  UNL     1     -32.619  10.975   1.540  1.00 20.00     0.017 C 
ENDBRANCH   3   5
ENDBRANCH   2   3
ENDBRANCH   1   2
BRANCH   1   8
HETATM    8  C8  UNL     1     -33.645   6.411   2.424  1.00 20.00     0.000 C 
HETATM    9  C3  UNL     1     -32.841   5.123   2.535  1.00 20.00     0.005 C 
ENDBRANCH   1   8
BRANCH   1  10
HETATM   10  C10 UNL     1     -33.018   7.323   4.760  1.00 20.00     0.005 C 
BRANCH  10  11
HETATM   11  C9  UNL     1     -34.368   6.953   5.383  1.00 20.00     0.000 C 
BRANCH  11  12
HETATM   12  C7  UNL     1     -34.369   5.574   6.046  1.00 20.00    -0.005 C 
HETATM   13  C2  UNL     1     -34.762   4.448   5.101  1.00 20.00     0.005 C 
ENDBRANCH  11  12
ENDBRANCH  10  11
ENDBRANCH   1  10
TORSDOF 7
ENDMDL
MODEL 2
REMARK VINA RESULT:      -5.6      0.780      1.896
REMARK  7 active torsions:
REMARK  status: ('A' for Active; 'I' for Inactive)
REMARK    1  A    between atoms: C1_1  and  C6_6 
REMARK    2  A    between atoms: C1_1  and  C11_11 
REMARK    3  A    between atoms: C6_6  and  C12_12 
REMARK    4  A    between atoms: C7_7  and  C9_9 
REMARK    5  A    between atoms: C8_8  and  C12_12 
REMARK    6  A    between atoms: C9_9  and  C10_10 
REMARK    7  A    between atoms: C10_10  and  C12_12 
ROOT
HETATM    1  C12 UNL     1     -32.428   7.357   3.627  1.00 20.00    -0.008 C 
ENDROOT
BRANCH   1   2
HETATM    2  C6  UNL     1     -31.554   8.482   3.038  1.00 20.00     0.083 C 
BRANCH   2   3
HETATM    3  C1  UNL     1     -31.770   8.708   1.545  1.00 20.00     0.130 C 
HETATM    4  O13 UNL     1     -31.029   8.215   0.694  1.00 20.00    -0.298 OA
BRANCH   3   5
HETATM    5  C11 UNL     1     -32.971   9.568   1.162  1.00 20.00     0.047 C 
HETATM    6  C4  UNL     1     -33.211   9.532  -0.345  1.00 20.00     0.017 C 
HETATM    7  C5  UNL     1     -32.748  10.996   1.646  1.00 20.00     0.017 C 
ENDBRANCH   3   5
ENDBRANCH   2   3
ENDBRANCH   1   2
BRANCH   1   8
HETATM    8  C8  UNL     1     -33.553   7.943   4.508  1.00 20.00     0.000 C 
HETATM    9  C3  UNL     1     -33.535   7.500   5.965  1.00 20.00     0.005 C 
ENDBRANCH   1   8
BRANCH   1  10
HETATM   10  C10 UNL     1     -32.947   6.434   2.499  1.00 20.00     0.005 C 
BRANCH  10  11
HETATM   11  C9  UNL     1     -34.214   5.660   2.877  1.00 20.00     0.000 C 
BRANCH  11  12
HETATM   12  C7  UNL     1     -33.929   4.407   3.708  1.00 20.00    -0.005 C 
HETATM   13  C2  UNL     1     -34.610   4.413   5.068  1.00 20.00     0.005 C 
ENDBRANCH  11  12
ENDBRANCH  10  11
ENDBRANCH   1  10
TORSDOF 7
ENDMDL
MODEL 3
REMARK VINA RESULT:      -5.6      1.957      5.241
REMARK  7 active torsions:
REMARK  status: ('A' for Active; 'I' for Inactive)
REMARK    1  A    between atoms: C1_1  and  C6_6 
REMARK    2  A    between atoms: C1_1  and  C11_11 
REMARK    3  A    between atoms: C6_6  and  C12_12 
REMARK    4  A    between atoms: C7_7  and  C9_9 
REMARK    5  A    between atoms: C8_8  and  C12_12 
REMARK    6  A    between atoms: C9_9  and  C10_10 
REMARK    7  A    between atoms: C10_10  and  C12_12 
ROOT
HETATM    1  C12 UNL     1     -32.443   7.206   3.198  1.00 20.00    -0.008 C 
ENDROOT
BRANCH   1   2
HETATM    2  C6  UNL     1     -33.711   7.685   3.932  1.00 20.00     0.083 C 
BRANCH   2   3
HETATM    3  C1  UNL     1     -33.932   7.007   5.281  1.00 20.00     0.130 C 
HETATM    4  O13 UNL     1     -33.359   7.383   6.304  1.00 20.00    -0.298 OA
BRANCH   3   5
HETATM    5  C11 UNL     1     -34.919   5.843   5.295  1.00 20.00     0.047 C 
HETATM    6  C4  UNL     1     -34.214   4.532   5.631  1.00 20.00     0.017 C 
HETATM    7  C5  UNL     1     -35.622   5.756   3.946  1.00 20.00     0.017 C 
ENDBRANCH   3   5
ENDBRANCH   2   3
ENDBRANCH   1   2
BRANCH   1   8
HETATM    8  C8  UNL     1     -32.808   6.250   2.041  1.00 20.00     0.000 C 
HETATM    9  C3  UNL     1     -32.807   4.770   2.398  1.00 20.00     0.005 C 
ENDBRANCH   1   8
BRANCH   1  10
HETATM   10  C10 UNL     1     -31.594   8.419   2.749  1.00 20.00     0.005 C 
BRANCH  10  11
HETATM   11  C9  UNL     1     -31.560   8.612   1.230  1.00 20.00     0.000 C 
BRANCH  11  12
HETATM   12  C7  UNL     1     -32.440   9.769   0.750  1.00 20.00    -0.005 C 
HETATM   13  C2  UNL     1     -33.228   9.448  -0.511  1.00 20.00     0.005 C 
ENDBRANCH  11  12
ENDBRANCH  10  11
ENDBRANCH   1  10
TORSDOF 7
ENDMDL
MODEL 4
REMARK VINA RESULT:      -5.4      1.982      5.608
REMARK  7 active torsions:
REMARK  status: ('A' for Active; 'I' for Inactive)
REMARK    1  A    between atoms: C1_1  and  C6_6 
REMARK    2  A    between atoms: C1_1  and  C11_11 
REMARK    3  A    between atoms: C6_6  and  C12_12 
REMARK    4  A    between atoms: C7_7  and  C9_9 
REMARK    5  A    between atoms: C8_8  and  C12_12 
REMARK    6  A    between atoms: C9_9  and  C10_10 
REMARK    7  A    between atoms: C10_10  and  C12_12 
ROOT
HETATM    1  C12 UNL     1     -33.193   7.503   3.042  1.00 20.00    -0.008 C 
ENDROOT
BRANCH   1   2
HETATM    2  C6  UNL     1     -33.651   6.045   2.838  1.00 20.00     0.083 C 
BRANCH   2   3
HETATM    3  C1  UNL     1     -34.910   5.683   3.618  1.00 20.00     0.130 C 
HETATM    4  O13 UNL     1     -35.968   6.298   3.477  1.00 20.00    -0.298 OA
BRANCH   3   5
HETATM    5  C11 UNL     1     -34.792   4.500   4.576  1.00 20.00     0.047 C 
HETATM    6  C4  UNL     1     -34.618   4.977   6.015  1.00 20.00     0.017 C 
HETATM    7  C5  UNL     1     -33.626   3.616   4.148  1.00 20.00     0.017 C 
ENDBRANCH   3   5
ENDBRANCH   2   3
ENDBRANCH   1   2
BRANCH   1   8
HETATM    8  C8  UNL     1     -32.450   7.659   4.388  1.00 20.00     0.000 C 
HETATM    9  C3  UNL     1     -33.343   7.902   5.598  1.00 20.00     0.005 C 
ENDBRANCH   1   8
BRANCH   1  10
HETATM   10  C10 UNL     1     -32.367   7.982   1.825  1.00 20.00     0.005 C 
BRANCH  10  11
HETATM   11  C9  UNL     1     -32.061   9.482   1.845  1.00 20.00     0.000 C 
BRANCH  11  12
HETATM   12  C7  UNL     1     -32.749  10.253   0.715  1.00 20.00    -0.005 C 
HETATM   13  C2  UNL     1     -33.144   9.376  -0.463  1.00 20.00     0.005 C 
ENDBRANCH  11  12
ENDBRANCH  10  11
ENDBRANCH   1  10
TORSDOF 7
ENDMDL
MODEL 5
REMARK VINA RESULT:      -4.8     10.446     11.360
REMARK  7 active torsions:
REMARK  status: ('A' for Active; 'I' for Inactive)
REMARK    1  A    between atoms: C1_1  and  C6_6 
REMARK    2  A    between atoms: C1_1  and  C11_11 
REMARK    3  A    between atoms: C6_6  and  C12_12 
REMARK    4  A    between atoms: C7_7  and  C9_9 
REMARK    5  A    between atoms: C8_8  and  C12_12 
REMARK    6  A    between atoms: C9_9  and  C10_10 
REMARK    7  A    between atoms: C10_10  and  C12_12 
ROOT
HETATM    1  C12 UNL     1     -34.861  15.135  -3.685  1.00 20.00    -0.008 C 
ENDROOT
BRANCH   1   2
HETATM    2  C6  UNL     1     -36.138  14.924  -4.523  1.00 20.00     0.083 C 
BRANCH   2   3
HETATM    3  C1  UNL     1     -36.044  13.758  -5.502  1.00 20.00     0.130 C 
HETATM    4  O13 UNL     1     -35.897  12.596  -5.123  1.00 20.00    -0.298 OA
BRANCH   3   5
HETATM    5  C11 UNL     1     -36.160  14.111  -6.982  1.00 20.00     0.047 C 
HETATM    6  C4  UNL     1     -34.922  13.658  -7.751  1.00 20.00     0.017 C 
HETATM    7  C5  UNL     1     -36.376  15.612  -7.131  1.00 20.00     0.017 C 
ENDBRANCH   3   5
ENDBRANCH   2   3
ENDBRANCH   1   2
BRANCH   1   8
HETATM    8  C8  UNL     1     -33.606  14.730  -4.489  1.00 20.00     0.000 C 
HETATM    9  C3  UNL     1     -32.991  15.838  -5.334  1.00 20.00     0.005 C 
ENDBRANCH   1   8
BRANCH   1  10
HETATM   10  C10 UNL     1     -34.806  16.584  -3.147  1.00 20.00     0.005 C 
BRANCH  10  11
HETATM   11  C9  UNL     1     -35.264  16.713  -1.691  1.00 20.00     0.000 C 
BRANCH  11  12
HETATM   12  C7  UNL     1     -34.301  17.529  -0.825  1.00 20.00    -0.005 C 
HETATM   13  C2  UNL     1     -32.989  17.857  -1.523  1.00 20.00     0.005 C 
ENDBRANCH  11  12
ENDBRANCH  10  11
ENDBRANCH   1  10
TORSDOF 7
ENDMDL
MODEL 6
REMARK VINA RESULT:      -4.7     10.446     11.513
REMARK  7 active torsions:
REMARK  status: ('A' for Active; 'I' for Inactive)
REMARK    1  A    between atoms: C1_1  and  C6_6 
REMARK    2  A    between atoms: C1_1  and  C11_11 
REMARK    3  A    between atoms: C6_6  and  C12_12 
REMARK    4  A    between atoms: C7_7  and  C9_9 
REMARK    5  A    between atoms: C8_8  and  C12_12 
REMARK    6  A    between atoms: C9_9  and  C10_10 
REMARK    7  A    between atoms: C10_10  and  C12_12 
ROOT
HETATM    1  C12 UNL     1     -34.041  17.273  -1.090  1.00 20.00    -0.008 C 
ENDROOT
BRANCH   1   2
HETATM    2  C6  UNL     1     -33.461  18.673  -0.802  1.00 20.00     0.083 C 
BRANCH   2   3
HETATM    3  C1  UNL     1     -32.140  18.644  -0.041  1.00 20.00     0.130 C 
HETATM    4  O13 UNL     1     -31.115  18.164  -0.525  1.00 20.00    -0.298 OA
BRANCH   3   5
HETATM    5  C11 UNL     1     -32.154  19.263   1.355  1.00 20.00     0.047 C 
HETATM    6  C4  UNL     1     -30.784  19.151   2.016  1.00 20.00     0.017 C 
HETATM    7  C5  UNL     1     -33.226  18.584   2.200  1.00 20.00     0.017 C 
ENDBRANCH   3   5
ENDBRANCH   2   3
ENDBRANCH   1   2
BRANCH   1   8
HETATM    8  C8  UNL     1     -35.529  17.203  -0.681  1.00 20.00     0.000 C 
HETATM    9  C3  UNL     1     -36.117  18.503  -0.147  1.00 20.00     0.005 C 
ENDBRANCH   1   8
BRANCH   1  10
HETATM   10  C10 UNL     1     -33.789  16.881  -2.565  1.00 20.00     0.005 C 
BRANCH  10  11
HETATM   11  C9  UNL     1     -34.905  16.022  -3.168  1.00 20.00     0.000 C 
BRANCH  11  12
HETATM   12  C7  UNL     1     -34.380  14.836  -3.981  1.00 20.00    -0.005 C 
HETATM   13  C2  UNL     1     -33.060  15.118  -4.682  1.00 20.00     0.005 C 
ENDBRANCH  11  12
ENDBRANCH  10  11
ENDBRANCH   1  10
TORSDOF 7
ENDMDL
MODEL 7
REMARK VINA RESULT:      -4.6     10.169     11.175
REMARK  7 active torsions:
REMARK  status: ('A' for Active; 'I' for Inactive)
REMARK    1  A    between atoms: C1_1  and  C6_6 
REMARK    2  A    between atoms: C1_1  and  C11_11 
REMARK    3  A    between atoms: C6_6  and  C12_12 
REMARK    4  A    between atoms: C7_7  and  C9_9 
REMARK    5  A    between atoms: C8_8  and  C12_12 
REMARK    6  A    between atoms: C9_9  and  C10_10 
REMARK    7  A    between atoms: C10_10  and  C12_12 
ROOT
HETATM    1  C12 UNL     1     -33.728  16.332  -3.385  1.00 20.00    -0.008 C 
ENDROOT
BRANCH   1   2
HETATM    2  C6  UNL     1     -34.938  15.392  -3.558  1.00 20.00     0.083 C 
BRANCH   2   3
HETATM    3  C1  UNL     1     -34.625  14.131  -4.356  1.00 20.00     0.130 C 
HETATM    4  O13 UNL     1     -33.512  13.604  -4.339  1.00 20.00    -0.298 OA
BRANCH   3   5
HETATM    5  C11 UNL     1     -35.778  13.544  -5.166  1.00 20.00     0.047 C 
HETATM    6  C4  UNL     1     -35.402  13.418  -6.640  1.00 20.00     0.017 C 
HETATM    7  C5  UNL     1     -37.017  14.415  -4.991  1.00 20.00     0.017 C 
ENDBRANCH   3   5
ENDBRANCH   2   3
ENDBRANCH   1   2
BRANCH   1   8
HETATM    8  C8  UNL     1     -33.609  17.298  -4.585  1.00 20.00     0.000 C 
HETATM    9  C3  UNL     1     -34.932  17.744  -5.192  1.00 20.00     0.005 C 
ENDBRANCH   1   8
BRANCH   1  10
HETATM   10  C10 UNL     1     -33.801  17.054  -2.019  1.00 20.00     0.005 C 
BRANCH  10  11
HETATM   11  C9  UNL     1     -35.165  16.929  -1.334  1.00 20.00     0.000 C 
BRANCH  11  12
HETATM   12  C7  UNL     1     -35.249  17.697  -0.012  1.00 20.00    -0.005 C 
HETATM   13  C2  UNL     1     -33.946  18.380   0.376  1.00 20.00     0.005 C 
ENDBRANCH  11  12
ENDBRANCH  10  11
ENDBRANCH   1  10
TORSDOF 7
ENDMDL
MODEL 8
REMARK VINA RESULT:      -4.6     10.214     12.198
REMARK  7 active torsions:
REMARK  status: ('A' for Active; 'I' for Inactive)
REMARK    1  A    between atoms: C1_1  and  C6_6 
REMARK    2  A    between atoms: C1_1  and  C11_11 
REMARK    3  A    between atoms: C6_6  and  C12_12 
REMARK    4  A    between atoms: C7_7  and  C9_9 
REMARK    5  A    between atoms: C8_8  and  C12_12 
REMARK    6  A    between atoms: C9_9  and  C10_10 
REMARK    7  A    between atoms: C10_10  and  C12_12 
ROOT
HETATM    1  C12 UNL     1     -34.732  15.903  -3.953  1.00 20.00    -0.008 C 
ENDROOT
BRANCH   1   2
HETATM    2  C6  UNL     1     -34.739  14.365  -4.066  1.00 20.00     0.083 C 
BRANCH   2   3
HETATM    3  C1  UNL     1     -35.815  13.824  -5.002  1.00 20.00     0.130 C 
HETATM    4  O13 UNL     1     -35.874  12.635  -5.315  1.00 20.00    -0.298 OA
BRANCH   3   5
HETATM    5  C11 UNL     1     -36.831  14.840  -5.518  1.00 20.00     0.047 C 
HETATM    6  C4  UNL     1     -38.167  14.692  -4.797  1.00 20.00     0.017 C 
HETATM    7  C5  UNL     1     -37.000  14.670  -7.023  1.00 20.00     0.017 C 
ENDBRANCH   3   5
ENDBRANCH   2   3
ENDBRANCH   1   2
BRANCH   1   8
HETATM    8  C8  UNL     1     -34.683  16.342  -2.473  1.00 20.00     0.000 C 
HETATM    9  C3  UNL     1     -33.497  17.218  -2.094  1.00 20.00     0.005 C 
ENDBRANCH   1   8
BRANCH   1  10
HETATM   10  C10 UNL     1     -33.589  16.498  -4.809  1.00 20.00     0.005 C 
BRANCH  10  11
HETATM   11  C9  UNL     1     -34.069  17.516  -5.847  1.00 20.00     0.000 C 
BRANCH  11  12
HETATM   12  C7  UNL     1     -33.877  17.043  -7.290  1.00 20.00    -0.005 C 
HETATM   13  C2  UNL     1     -33.545  15.563  -7.403  1.00 20.00     0.005 C 
ENDBRANCH  11  12
ENDBRANCH  10  11
ENDBRANCH   1  10
TORSDOF 7
ENDMDL
MODEL 9
REMARK VINA RESULT:      -4.5     10.087     11.510
REMARK  7 active torsions:
REMARK  status: ('A' for Active; 'I' for Inactive)
REMARK    1  A    between atoms: C1_1  and  C6_6 
REMARK    2  A    between atoms: C1_1  and  C11_11 
REMARK    3  A    between atoms: C6_6  and  C12_12 
REMARK    4  A    between atoms: C7_7  and  C9_9 
REMARK    5  A    between atoms: C8_8  and  C12_12 
REMARK    6  A    between atoms: C9_9  and  C10_10 
REMARK    7  A    between atoms: C10_10  and  C12_12 
ROOT
HETATM    1  C12 UNL     1     -33.547  15.197  -4.445  1.00 20.00    -0.008 C 
ENDROOT
BRANCH   1   2
HETATM    2  C6  UNL     1     -34.604  14.129  -4.098  1.00 20.00     0.083 C 
BRANCH   2   3
HETATM    3  C1  UNL     1     -35.551  13.807  -5.249  1.00 20.00     0.130 C 
HETATM    4  O13 UNL     1     -35.484  12.749  -5.875  1.00 20.00    -0.298 OA
BRANCH   3   5
HETATM    5  C11 UNL     1     -36.602  14.866  -5.572  1.00 20.00     0.047 C 
HETATM    6  C4  UNL     1     -37.836  14.699  -4.691  1.00 20.00     0.017 C 
HETATM    7  C5  UNL     1     -36.970  14.782  -7.049  1.00 20.00     0.017 C 
ENDBRANCH   3   5
ENDBRANCH   2   3
ENDBRANCH   1   2
BRANCH   1   8
HETATM    8  C8  UNL     1     -33.423  15.367  -5.975  1.00 20.00     0.000 C 
HETATM    9  C3  UNL     1     -33.588  16.792  -6.486  1.00 20.00     0.005 C 
ENDBRANCH   1   8
BRANCH   1  10
HETATM   10  C10 UNL     1     -33.857  16.518  -3.702  1.00 20.00     0.005 C 
BRANCH  10  11
HETATM   11  C9  UNL     1     -34.802  16.342  -2.510  1.00 20.00     0.000 C 
BRANCH  11  12
HETATM   12  C7  UNL     1     -34.432  17.220  -1.312  1.00 20.00    -0.005 C 
HETATM   13  C2  UNL     1     -33.083  17.908  -1.458  1.00 20.00     0.005 C 
ENDBRANCH  11  12
ENDBRANCH  10  11
ENDBRANCH   1  10
TORSDOF 7
ENDMDL
