MODEL 1
REMARK VINA RESULT:      -4.5      0.000      0.000
REMARK  0 active torsions:
REMARK  status: ('A' for Active; 'I' for Inactive)
ROOT
HETATM    1  C1  UNL     1     -34.178   6.482   5.202  1.00 20.00     0.137 C 
HETATM    2  C2  UNL     1     -33.667   5.445   3.010  1.00 20.00     0.108 C 
HETATM    3  C3  UNL     1     -34.612   5.527   4.187  1.00 20.00     0.326 C 
HETATM    4  N4  UNL     1     -33.835   7.239   6.011  1.00 20.00    -0.191 NA
HETATM    5  F5  UNL     1     -34.730   4.300   4.754  1.00 20.00    -0.190 F 
HETATM    6  F6  UNL     1     -35.847   5.876   3.748  1.00 20.00    -0.190 F 
ENDROOT
TORSDOF 0
ENDMDL
MODEL 2
REMARK VINA RESULT:      -4.4      1.071      1.511
REMARK  0 active torsions:
REMARK  status: ('A' for Active; 'I' for Inactive)
ROOT
HETATM    1  C1  UNL     1     -34.107   6.615   5.096  1.00 20.00     0.137 C 
HETATM    2  C2  UNL     1     -34.391   4.227   4.498  1.00 20.00     0.108 C 
HETATM    3  C3  UNL     1     -34.557   5.670   4.080  1.00 20.00     0.326 C 
HETATM    4  N4  UNL     1     -33.751   7.368   5.904  1.00 20.00    -0.191 NA
HETATM    5  F5  UNL     1     -35.863   5.908   3.799  1.00 20.00    -0.190 F 
HETATM    6  F6  UNL     1     -33.865   5.888   2.934  1.00 20.00    -0.190 F 
ENDROOT
TORSDOF 0
ENDMDL
MODEL 3
REMARK VINA RESULT:      -4.4      1.517      2.343
REMARK  0 active torsions:
REMARK  status: ('A' for Active; 'I' for Inactive)
ROOT
HETATM    1  C1  UNL     1     -33.646   6.134   3.437  1.00 20.00     0.137 C 
HETATM    2  C2  UNL     1     -34.503   5.796   5.738  1.00 20.00     0.108 C 
HETATM    3  C3  UNL     1     -34.635   5.459   4.270  1.00 20.00     0.326 C 
HETATM    4  N4  UNL     1     -32.860   6.671   2.772  1.00 20.00    -0.191 NA
HETATM    5  F5  UNL     1     -35.878   5.795   3.842  1.00 20.00    -0.190 F 
HETATM    6  F6  UNL     1     -34.515   4.118   4.105  1.00 20.00    -0.190 F 
ENDROOT
TORSDOF 0
ENDMDL
MODEL 4
REMARK VINA RESULT:      -4.4      1.762      1.947
REMARK  0 active torsions:
REMARK  status: ('A' for Active; 'I' for Inactive)
ROOT
HETATM    1  C1  UNL     1     -33.656   6.438   3.537  1.00 20.00     0.137 C 
HETATM    2  C2  UNL     1     -34.363   4.263   4.494  1.00 20.00     0.108 C 
HETATM    3  C3  UNL     1     -34.639   5.744   4.363  1.00 20.00     0.326 C 
HETATM    4  N4  UNL     1     -32.874   6.991   2.883  1.00 20.00    -0.191 NA
HETATM    5  F5  UNL     1     -34.660   6.308   5.596  1.00 20.00    -0.190 F 
HETATM    6  F6  UNL     1     -35.873   5.924   3.829  1.00 20.00    -0.190 F 
ENDROOT
TORSDOF 0
ENDMDL
MODEL 5
REMARK VINA RESULT:      -4.0      2.111      2.704
REMARK  0 active torsions:
REMARK  status: ('A' for Active; 'I' for Inactive)
ROOT
HETATM    1  C1  UNL     1     -32.790   6.927   3.131  1.00 20.00     0.137 C 
HETATM    2  C2  UNL     1     -34.561   5.575   4.218  1.00 20.00     0.108 C 
HETATM    3  C3  UNL     1     -33.691   5.786   3.000  1.00 20.00     0.326 C 
HETATM    4  N4  UNL     1     -32.074   7.834   3.233  1.00 20.00    -0.191 NA
HETATM    5  F5  UNL     1     -34.479   5.966   1.911  1.00 20.00    -0.190 F 
HETATM    6  F6  UNL     1     -32.959   4.667   2.772  1.00 20.00    -0.190 F 
ENDROOT
TORSDOF 0
ENDMDL
MODEL 6
REMARK VINA RESULT:      -3.9      1.966      2.145
REMARK  0 active torsions:
REMARK  status: ('A' for Active; 'I' for Inactive)
ROOT
HETATM    1  C1  UNL     1     -34.245   5.536   4.186  1.00 20.00     0.137 C 
HETATM    2  C2  UNL     1     -32.684   7.069   3.022  1.00 20.00     0.108 C 
HETATM    3  C3  UNL     1     -33.540   5.826   2.942  1.00 20.00     0.326 C 
HETATM    4  N4  UNL     1     -34.805   5.303   5.175  1.00 20.00    -0.191 NA
HETATM    5  F5  UNL     1     -32.760   4.764   2.617  1.00 20.00    -0.190 F 
HETATM    6  F6  UNL     1     -34.445   5.967   1.942  1.00 20.00    -0.190 F 
ENDROOT
TORSDOF 0
ENDMDL
MODEL 7
REMARK VINA RESULT:      -3.9      2.095      2.394
REMARK  0 active torsions:
REMARK  status: ('A' for Active; 'I' for Inactive)
ROOT
HETATM    1  C1  UNL     1     -34.315   4.615   4.275  1.00 20.00     0.137 C 
HETATM    2  C2  UNL     1     -33.611   6.794   3.325  1.00 20.00     0.108 C 
HETATM    3  C3  UNL     1     -34.605   6.042   4.181  1.00 20.00     0.326 C 
HETATM    4  N4  UNL     1     -34.086   3.480   4.350  1.00 20.00    -0.191 NA
HETATM    5  F5  UNL     1     -35.852   6.208   3.671  1.00 20.00    -0.190 F 
HETATM    6  F6  UNL     1     -34.618   6.576   5.427  1.00 20.00    -0.190 F 
ENDROOT
TORSDOF 0
ENDMDL
MODEL 8
REMARK VINA RESULT:      -3.9      2.047      2.399
REMARK  0 active torsions:
REMARK  status: ('A' for Active; 'I' for Inactive)
ROOT
HETATM    1  C1  UNL     1     -34.328   4.658   4.138  1.00 20.00     0.137 C 
HETATM    2  C2  UNL     1     -33.945   7.096   4.371  1.00 20.00     0.108 C 
HETATM    3  C3  UNL     1     -34.592   5.981   3.581  1.00 20.00     0.326 C 
HETATM    4  N4  UNL     1     -34.118   3.605   4.578  1.00 20.00    -0.191 NA
HETATM    5  F5  UNL     1     -34.144   6.021   2.301  1.00 20.00    -0.190 F 
HETATM    6  F6  UNL     1     -35.932   6.184   3.533  1.00 20.00    -0.190 F 
ENDROOT
TORSDOF 0
ENDMDL
MODEL 9
REMARK VINA RESULT:      -3.8      2.211      2.627
REMARK  0 active torsions:
REMARK  status: ('A' for Active; 'I' for Inactive)
ROOT
HETATM    1  C1  UNL     1     -34.271   5.169   4.422  1.00 20.00     0.137 C 
HETATM    2  C2  UNL     1     -33.771   7.209   5.738  1.00 20.00     0.108 C 
HETATM    3  C3  UNL     1     -33.927   6.586   4.370  1.00 20.00     0.326 C 
HETATM    4  N4  UNL     1     -34.544   4.042   4.463  1.00 20.00    -0.191 NA
HETATM    5  F5  UNL     1     -32.772   6.736   3.674  1.00 20.00    -0.190 F 
HETATM    6  F6  UNL     1     -34.887   7.251   3.681  1.00 20.00    -0.190 F 
ENDROOT
TORSDOF 0
ENDMDL
