MODEL 1
REMARK VINA RESULT:      -5.3      0.000      0.000
REMARK  4 active torsions:
REMARK  status: ('A' for Active; 'I' for Inactive)
REMARK    1  A    between atoms: C1_1  and  C9_9 
REMARK    2  A    between atoms: C6_6  and  C7_7 
REMARK    3  A    between atoms: C6_6  and  C8_8 
REMARK    4  A    between atoms: C7_7  and  C9_9 
ROOT
HETATM    1  C7  UNL     1     -33.098   6.052   3.379  1.00 20.00     0.016 C 
ENDROOT
BRANCH   1   2
HETATM    2  C6  UNL     1     -33.297   7.158   2.331  1.00 20.00     0.005 C 
BRANCH   2   3
HETATM    3  C8  UNL     1     -32.060   8.061   2.157  1.00 20.00    -0.023 C 
HETATM    4  C2  UNL     1     -31.431   8.349   3.522  1.00 20.00     0.009 C 
HETATM    5  C3  UNL     1     -32.391   9.379   1.454  1.00 20.00     0.009 C 
ENDBRANCH   2   3
ENDBRANCH   1   2
BRANCH   1   6
HETATM    6  C9  UNL     1     -34.249   5.921   4.406  1.00 20.00     0.006 C 
HETATM    7  C4  UNL     1     -35.584   6.211   3.701  1.00 20.00     0.022 C 
HETATM    8  C5  UNL     1     -34.083   6.888   5.586  1.00 20.00     0.022 C 
BRANCH   6   9
HETATM    9  C1  UNL     1     -34.317   4.477   4.895  1.00 20.00     0.239 C 
HETATM   10  O10 UNL     1     -34.222   3.490   4.171  1.00 20.00    -0.306 OA
ENDBRANCH   6   9
ENDBRANCH   1   6
TORSDOF 4
ENDMDL
MODEL 2
REMARK VINA RESULT:      -5.3      1.401      1.904
REMARK  4 active torsions:
REMARK  status: ('A' for Active; 'I' for Inactive)
REMARK    1  A    between atoms: C1_1  and  C9_9 
REMARK    2  A    between atoms: C6_6  and  C7_7 
REMARK    3  A    between atoms: C6_6  and  C8_8 
REMARK    4  A    between atoms: C7_7  and  C9_9 
ROOT
HETATM    1  C7  UNL     1     -33.071   6.064   3.429  1.00 20.00     0.016 C 
ENDROOT
BRANCH   1   2
HETATM    2  C6  UNL     1     -33.327   7.179   2.402  1.00 20.00     0.005 C 
BRANCH   2   3
HETATM    3  C8  UNL     1     -32.097   8.077   2.159  1.00 20.00    -0.023 C 
HETATM    4  C2  UNL     1     -31.409   8.386   3.491  1.00 20.00     0.009 C 
HETATM    5  C3  UNL     1     -32.457   9.383   1.450  1.00 20.00     0.009 C 
ENDBRANCH   2   3
ENDBRANCH   1   2
BRANCH   1   6
HETATM    6  C9  UNL     1     -34.301   5.678   4.284  1.00 20.00     0.006 C 
HETATM    7  C4  UNL     1     -34.310   4.155   4.489  1.00 20.00     0.022 C 
HETATM    8  C5  UNL     1     -35.620   6.104   3.625  1.00 20.00     0.022 C 
BRANCH   6   9
HETATM    9  C1  UNL     1     -34.162   6.305   5.668  1.00 20.00     0.239 C 
HETATM   10  O10 UNL     1     -33.822   7.466   5.878  1.00 20.00    -0.306 OA
ENDBRANCH   6   9
ENDBRANCH   1   6
TORSDOF 4
ENDMDL
MODEL 3
REMARK VINA RESULT:      -4.8      1.743      2.606
REMARK  4 active torsions:
REMARK  status: ('A' for Active; 'I' for Inactive)
REMARK    1  A    between atoms: C1_1  and  C9_9 
REMARK    2  A    between atoms: C6_6  and  C7_7 
REMARK    3  A    between atoms: C6_6  and  C8_8 
REMARK    4  A    between atoms: C7_7  and  C9_9 
ROOT
HETATM    1  C7  UNL     1     -33.620   7.861   2.369  1.00 20.00     0.016 C 
ENDROOT
BRANCH   1   2
HETATM    2  C6  UNL     1     -32.196   8.293   1.988  1.00 20.00     0.005 C 
BRANCH   2   3
HETATM    3  C8  UNL     1     -32.162   9.411   0.927  1.00 20.00    -0.023 C 
HETATM    4  C2  UNL     1     -32.733  10.703   1.516  1.00 20.00     0.009 C 
HETATM    5  C3  UNL     1     -32.933   9.039  -0.340  1.00 20.00     0.009 C 
ENDBRANCH   2   3
ENDBRANCH   1   2
BRANCH   1   6
HETATM    6  C9  UNL     1     -33.692   6.711   3.403  1.00 20.00     0.006 C 
HETATM    7  C4  UNL     1     -32.768   5.570   2.947  1.00 20.00     0.022 C 
HETATM    8  C5  UNL     1     -35.118   6.168   3.563  1.00 20.00     0.022 C 
BRANCH   6   9
HETATM    9  C1  UNL     1     -33.148   7.207   4.739  1.00 20.00     0.239 C 
HETATM   10  O10 UNL     1     -33.804   7.284   5.774  1.00 20.00    -0.306 OA
ENDBRANCH   6   9
ENDBRANCH   1   6
TORSDOF 4
ENDMDL
MODEL 4
REMARK VINA RESULT:      -4.8      2.614      4.800
REMARK  4 active torsions:
REMARK  status: ('A' for Active; 'I' for Inactive)
REMARK    1  A    between atoms: C1_1  and  C9_9 
REMARK    2  A    between atoms: C6_6  and  C7_7 
REMARK    3  A    between atoms: C6_6  and  C8_8 
REMARK    4  A    between atoms: C7_7  and  C9_9 
ROOT
HETATM    1  C7  UNL     1     -33.265   7.448   2.116  1.00 20.00     0.016 C 
ENDROOT
BRANCH   1   2
HETATM    2  C6  UNL     1     -33.092   6.435   3.259  1.00 20.00     0.005 C 
BRANCH   2   3
HETATM    3  C8  UNL     1     -34.250   6.462   4.277  1.00 20.00    -0.023 C 
HETATM    4  C2  UNL     1     -33.804   7.182   5.551  1.00 20.00     0.009 C 
HETATM    5  C3  UNL     1     -34.756   5.062   4.626  1.00 20.00     0.009 C 
ENDBRANCH   2   3
ENDBRANCH   1   2
BRANCH   1   6
HETATM    6  C9  UNL     1     -32.160   8.528   2.036  1.00 20.00     0.006 C 
HETATM    7  C4  UNL     1     -31.323   8.296   0.769  1.00 20.00     0.022 C 
HETATM    8  C5  UNL     1     -31.236   8.500   3.261  1.00 20.00     0.022 C 
BRANCH   6   9
HETATM    9  C1  UNL     1     -32.814   9.898   1.884  1.00 20.00     0.239 C 
HETATM   10  O10 UNL     1     -32.758  10.590   0.871  1.00 20.00    -0.306 OA
ENDBRANCH   6   9
ENDBRANCH   1   6
TORSDOF 4
ENDMDL
MODEL 5
REMARK VINA RESULT:      -4.7      1.382      2.078
REMARK  4 active torsions:
REMARK  status: ('A' for Active; 'I' for Inactive)
REMARK    1  A    between atoms: C1_1  and  C9_9 
REMARK    2  A    between atoms: C6_6  and  C7_7 
REMARK    3  A    between atoms: C6_6  and  C8_8 
REMARK    4  A    between atoms: C7_7  and  C9_9 
ROOT
HETATM    1  C7  UNL     1     -33.568   8.010   2.482  1.00 20.00     0.016 C 
ENDROOT
BRANCH   1   2
HETATM    2  C6  UNL     1     -32.177   8.294   1.895  1.00 20.00     0.005 C 
BRANCH   2   3
HETATM    3  C8  UNL     1     -32.172   9.444   0.868  1.00 20.00    -0.023 C 
HETATM    4  C2  UNL     1     -32.718  10.719   1.515  1.00 20.00     0.009 C 
HETATM    5  C3  UNL     1     -32.985   9.114  -0.385  1.00 20.00     0.009 C 
ENDBRANCH   2   3
ENDBRANCH   1   2
BRANCH   1   6
HETATM    6  C9  UNL     1     -33.621   6.827   3.478  1.00 20.00     0.006 C 
HETATM    7  C4  UNL     1     -35.026   6.206   3.443  1.00 20.00     0.022 C 
HETATM    8  C5  UNL     1     -33.302   7.267   4.914  1.00 20.00     0.022 C 
BRANCH   6   9
HETATM    9  C1  UNL     1     -32.651   5.744   3.016  1.00 20.00     0.239 C 
HETATM   10  O10 UNL     1     -32.986   4.639   2.597  1.00 20.00    -0.306 OA
ENDBRANCH   6   9
ENDBRANCH   1   6
TORSDOF 4
ENDMDL
MODEL 6
REMARK VINA RESULT:      -4.5      2.823      5.090
REMARK  4 active torsions:
REMARK  status: ('A' for Active; 'I' for Inactive)
REMARK    1  A    between atoms: C1_1  and  C9_9 
REMARK    2  A    between atoms: C6_6  and  C7_7 
REMARK    3  A    between atoms: C6_6  and  C8_8 
REMARK    4  A    between atoms: C7_7  and  C9_9 
ROOT
HETATM    1  C7  UNL     1     -33.264   8.218   1.950  1.00 20.00     0.016 C 
ENDROOT
BRANCH   1   2
HETATM    2  C6  UNL     1     -32.426   7.702   3.131  1.00 20.00     0.005 C 
BRANCH   2   3
HETATM    3  C8  UNL     1     -33.183   6.695   4.020  1.00 20.00    -0.023 C 
HETATM    4  C2  UNL     1     -34.370   6.112   3.249  1.00 20.00     0.009 C 
HETATM    5  C3  UNL     1     -33.673   7.320   5.326  1.00 20.00     0.009 C 
ENDBRANCH   2   3
ENDBRANCH   1   2
BRANCH   1   6
HETATM    6  C9  UNL     1     -32.510   9.167   0.988  1.00 20.00     0.006 C 
HETATM    7  C4  UNL     1     -31.038   8.733   0.908  1.00 20.00     0.022 C 
HETATM    8  C5  UNL     1     -32.577  10.629   1.450  1.00 20.00     0.022 C 
BRANCH   6   9
HETATM    9  C1  UNL     1     -33.088   9.016  -0.415  1.00 20.00     0.239 C 
HETATM   10  O10 UNL     1     -33.901   9.785  -0.922  1.00 20.00    -0.306 OA
ENDBRANCH   6   9
ENDBRANCH   1   6
TORSDOF 4
ENDMDL
MODEL 7
REMARK VINA RESULT:      -4.4      2.795      5.027
REMARK  4 active torsions:
REMARK  status: ('A' for Active; 'I' for Inactive)
REMARK    1  A    between atoms: C1_1  and  C9_9 
REMARK    2  A    between atoms: C6_6  and  C7_7 
REMARK    3  A    between atoms: C6_6  and  C8_8 
REMARK    4  A    between atoms: C7_7  and  C9_9 
ROOT
HETATM    1  C7  UNL     1     -33.205   7.877   1.739  1.00 20.00     0.016 C 
ENDROOT
BRANCH   1   2
HETATM    2  C6  UNL     1     -32.754   7.685   3.195  1.00 20.00     0.005 C 
BRANCH   2   3
HETATM    3  C8  UNL     1     -33.879   7.175   4.118  1.00 20.00    -0.023 C 
HETATM    4  C2  UNL     1     -33.470   7.353   5.582  1.00 20.00     0.009 C 
HETATM    5  C3  UNL     1     -34.233   5.711   3.856  1.00 20.00     0.009 C 
ENDBRANCH   2   3
ENDBRANCH   1   2
BRANCH   1   6
HETATM    6  C9  UNL     1     -32.489   9.023   0.986  1.00 20.00     0.006 C 
HETATM    7  C4  UNL     1     -30.981   8.725   0.937  1.00 20.00     0.022 C 
HETATM    8  C5  UNL     1     -32.709  10.384   1.661  1.00 20.00     0.022 C 
BRANCH   6   9
HETATM    9  C1  UNL     1     -32.976   9.051  -0.459  1.00 20.00     0.239 C 
HETATM   10  O10 UNL     1     -33.888   9.761  -0.875  1.00 20.00    -0.306 OA
ENDBRANCH   6   9
ENDBRANCH   1   6
TORSDOF 4
ENDMDL
MODEL 8
REMARK VINA RESULT:      -4.3      2.474      4.693
REMARK  4 active torsions:
REMARK  status: ('A' for Active; 'I' for Inactive)
REMARK    1  A    between atoms: C1_1  and  C9_9 
REMARK    2  A    between atoms: C6_6  and  C7_7 
REMARK    3  A    between atoms: C6_6  and  C8_8 
REMARK    4  A    between atoms: C7_7  and  C9_9 
ROOT
HETATM    1  C7  UNL     1     -33.331   7.358   2.312  1.00 20.00     0.016 C 
ENDROOT
BRANCH   1   2
HETATM    2  C6  UNL     1     -33.090   6.441   3.521  1.00 20.00     0.005 C 
BRANCH   2   3
HETATM    3  C8  UNL     1     -34.221   6.501   4.567  1.00 20.00    -0.023 C 
HETATM    4  C2  UNL     1     -33.745   7.268   5.802  1.00 20.00     0.009 C 
HETATM    5  C3  UNL     1     -34.712   5.112   4.979  1.00 20.00     0.009 C 
ENDBRANCH   2   3
ENDBRANCH   1   2
BRANCH   1   6
HETATM    6  C9  UNL     1     -32.330   8.530   2.179  1.00 20.00     0.006 C 
HETATM    7  C4  UNL     1     -31.322   8.461   3.338  1.00 20.00     0.022 C 
HETATM    8  C5  UNL     1     -33.031   9.895   2.206  1.00 20.00     0.022 C 
BRANCH   6   9
HETATM    9  C1  UNL     1     -31.529   8.358   0.892  1.00 20.00     0.239 C 
HETATM   10  O10 UNL     1     -31.693   9.025  -0.126  1.00 20.00    -0.306 OA
ENDBRANCH   6   9
ENDBRANCH   1   6
TORSDOF 4
ENDMDL
MODEL 9
REMARK VINA RESULT:      -4.2      2.915      5.186
REMARK  4 active torsions:
REMARK  status: ('A' for Active; 'I' for Inactive)
REMARK    1  A    between atoms: C1_1  and  C9_9 
REMARK    2  A    between atoms: C6_6  and  C7_7 
REMARK    3  A    between atoms: C6_6  and  C8_8 
REMARK    4  A    between atoms: C7_7  and  C9_9 
ROOT
HETATM    1  C7  UNL     1     -33.175   8.421   1.806  1.00 20.00     0.016 C 
ENDROOT
BRANCH   1   2
HETATM    2  C6  UNL     1     -32.300   7.855   2.935  1.00 20.00     0.005 C 
BRANCH   2   3
HETATM    3  C8  UNL     1     -32.974   6.704   3.709  1.00 20.00    -0.023 C 
HETATM    4  C2  UNL     1     -33.926   5.944   2.783  1.00 20.00     0.009 C 
HETATM    5  C3  UNL     1     -33.735   7.195   4.942  1.00 20.00     0.009 C 
ENDBRANCH   2   3
ENDBRANCH   1   2
BRANCH   1   6
HETATM    6  C9  UNL     1     -32.402   9.210   0.722  1.00 20.00     0.006 C 
HETATM    7  C4  UNL     1     -33.236   9.236  -0.568  1.00 20.00     0.022 C 
HETATM    8  C5  UNL     1     -31.032   8.587   0.421  1.00 20.00     0.022 C 
BRANCH   6   9
HETATM    9  C1  UNL     1     -32.249  10.659   1.174  1.00 20.00     0.239 C 
HETATM   10  O10 UNL     1     -33.040  11.249   1.905  1.00 20.00    -0.306 OA
ENDBRANCH   6   9
ENDBRANCH   1   6
TORSDOF 4
ENDMDL
