MODEL 1
REMARK VINA RESULT:      -4.2      0.000      0.000
REMARK  0 active torsions:
REMARK  status: ('A' for Active; 'I' for Inactive)
ROOT
HETATM    1  C1  UNL     1     -31.886   8.649   1.666  1.00 20.00     0.088 C 
HETATM    2  C2  UNL     1     -32.696   7.463   3.599  1.00 20.00    -0.060 C 
HETATM    3  C3  UNL     1     -32.195   8.574   3.048  1.00 20.00     0.097 C 
HETATM    4  C4  UNL     1     -33.041   7.330   5.054  1.00 20.00     0.046 C 
HETATM    5  C5  UNL     1     -33.065   6.241   2.813  1.00 20.00     0.108 C 
HETATM    6  C6  UNL     1     -34.392   6.636   5.108  1.00 20.00     0.078 C 
HETATM    7  N7  UNL     1     -31.632   8.715   0.535  1.00 20.00    -0.192 NA
HETATM    8  S8  UNL     1     -34.345   5.393   3.790  1.00 20.00    -0.165 SA
ENDROOT
TORSDOF 0
ENDMDL
MODEL 2
REMARK VINA RESULT:      -4.1      1.614      2.129
REMARK  0 active torsions:
REMARK  status: ('A' for Active; 'I' for Inactive)
ROOT
HETATM    1  C1  UNL     1     -32.142   8.010   2.598  1.00 20.00     0.088 C 
HETATM    2  C2  UNL     1     -33.790   6.514   3.518  1.00 20.00    -0.060 C 
HETATM    3  C3  UNL     1     -32.970   6.862   2.520  1.00 20.00     0.097 C 
HETATM    4  C4  UNL     1     -34.686   5.310   3.487  1.00 20.00     0.046 C 
HETATM    5  C5  UNL     1     -33.847   7.233   4.832  1.00 20.00     0.108 C 
HETATM    6  C6  UNL     1     -34.551   4.646   4.848  1.00 20.00     0.078 C 
HETATM    7  N7  UNL     1     -31.463   8.950   2.658  1.00 20.00    -0.192 NA
HETATM    8  S8  UNL     1     -34.449   6.010   6.038  1.00 20.00    -0.165 SA
ENDROOT
TORSDOF 0
ENDMDL
MODEL 3
REMARK VINA RESULT:      -3.8     10.938     11.523
REMARK  0 active torsions:
REMARK  status: ('A' for Active; 'I' for Inactive)
ROOT
HETATM    1  C1  UNL     1     -35.228  13.687  -4.718  1.00 20.00     0.088 C 
HETATM    2  C2  UNL     1     -34.761  15.674  -3.439  1.00 20.00    -0.060 C 
HETATM    3  C3  UNL     1     -34.334  14.565  -4.054  1.00 20.00     0.097 C 
HETATM    4  C4  UNL     1     -33.859  16.636  -2.722  1.00 20.00     0.046 C 
HETATM    5  C5  UNL     1     -36.184  16.142  -3.470  1.00 20.00     0.108 C 
HETATM    6  C6  UNL     1     -34.307  18.028  -3.139  1.00 20.00     0.078 C 
HETATM    7  N7  UNL     1     -35.955  12.966  -5.263  1.00 20.00    -0.192 NA
HETATM    8  S8  UNL     1     -36.117  17.944  -3.218  1.00 20.00    -0.165 SA
ENDROOT
TORSDOF 0
ENDMDL
MODEL 4
REMARK VINA RESULT:      -3.5     11.081     11.806
REMARK  0 active torsions:
REMARK  status: ('A' for Active; 'I' for Inactive)
ROOT
HETATM    1  C1  UNL     1     -33.352  17.762  -2.647  1.00 20.00     0.088 C 
HETATM    2  C2  UNL     1     -33.855  15.751  -3.873  1.00 20.00    -0.060 C 
HETATM    3  C3  UNL     1     -33.956  16.485  -2.758  1.00 20.00     0.097 C 
HETATM    4  C4  UNL     1     -34.474  14.395  -4.044  1.00 20.00     0.046 C 
HETATM    5  C5  UNL     1     -33.190  16.236  -5.125  1.00 20.00     0.108 C 
HETATM    6  C6  UNL     1     -35.111  14.390  -5.424  1.00 20.00     0.078 C 
HETATM    7  N7  UNL     1     -32.860  18.809  -2.551  1.00 20.00    -0.192 NA
HETATM    8  S8  UNL     1     -33.958  15.302  -6.486  1.00 20.00    -0.165 SA
ENDROOT
TORSDOF 0
ENDMDL
MODEL 5
REMARK VINA RESULT:      -3.4     11.306     11.903
REMARK  0 active torsions:
REMARK  status: ('A' for Active; 'I' for Inactive)
ROOT
HETATM    1  C1  UNL     1     -37.275  13.978  -5.069  1.00 20.00     0.088 C 
HETATM    2  C2  UNL     1     -34.993  14.634  -4.663  1.00 20.00    -0.060 C 
HETATM    3  C3  UNL     1     -35.882  13.714  -5.057  1.00 20.00     0.097 C 
HETATM    4  C4  UNL     1     -33.510  14.406  -4.631  1.00 20.00     0.046 C 
HETATM    5  C5  UNL     1     -35.362  16.039  -4.296  1.00 20.00     0.108 C 
HETATM    6  C6  UNL     1     -32.876  15.655  -5.223  1.00 20.00     0.078 C 
HETATM    7  N7  UNL     1     -38.416  14.190  -5.082  1.00 20.00    -0.192 NA
HETATM    8  S8  UNL     1     -33.871  17.037  -4.601  1.00 20.00    -0.165 SA
ENDROOT
TORSDOF 0
ENDMDL
MODEL 6
REMARK VINA RESULT:      -3.4     10.934     11.291
REMARK  0 active torsions:
REMARK  status: ('A' for Active; 'I' for Inactive)
ROOT
HETATM    1  C1  UNL     1     -34.824  17.116  -1.187  1.00 20.00     0.088 C 
HETATM    2  C2  UNL     1     -34.260  16.205  -3.344  1.00 20.00    -0.060 C 
HETATM    3  C3  UNL     1     -33.898  16.846  -2.226  1.00 20.00     0.097 C 
HETATM    4  C4  UNL     1     -33.321  15.894  -4.473  1.00 20.00     0.046 C 
HETATM    5  C5  UNL     1     -35.628  15.636  -3.566  1.00 20.00     0.108 C 
HETATM    6  C6  UNL     1     -33.609  14.458  -4.880  1.00 20.00     0.078 C 
HETATM    7  N7  UNL     1     -35.578  17.340  -0.333  1.00 20.00    -0.192 NA
HETATM    8  S8  UNL     1     -35.409  14.278  -4.759  1.00 20.00    -0.165 SA
ENDROOT
TORSDOF 0
ENDMDL
MODEL 7
REMARK VINA RESULT:      -3.4     11.353     11.602
REMARK  0 active torsions:
REMARK  status: ('A' for Active; 'I' for Inactive)
ROOT
HETATM    1  C1  UNL     1     -32.358  18.279  -0.402  1.00 20.00     0.088 C 
HETATM    2  C2  UNL     1     -34.327  17.346  -1.429  1.00 20.00    -0.060 C 
HETATM    3  C3  UNL     1     -33.760  18.082  -0.465  1.00 20.00     0.097 C 
HETATM    4  C4  UNL     1     -35.804  17.106  -1.543  1.00 20.00     0.046 C 
HETATM    5  C5  UNL     1     -33.562  16.748  -2.572  1.00 20.00     0.108 C 
HETATM    6  C6  UNL     1     -36.151  17.288  -3.011  1.00 20.00     0.078 C 
HETATM    7  N7  UNL     1     -31.210  18.443  -0.347  1.00 20.00    -0.192 NA
HETATM    8  S8  UNL     1     -34.765  16.561  -3.925  1.00 20.00    -0.165 SA
ENDROOT
TORSDOF 0
ENDMDL
MODEL 8
REMARK VINA RESULT:      -3.4     11.044     11.556
REMARK  0 active torsions:
REMARK  status: ('A' for Active; 'I' for Inactive)
ROOT
HETATM    1  C1  UNL     1     -36.287  13.811  -4.955  1.00 20.00     0.088 C 
HETATM    2  C2  UNL     1     -36.120  15.949  -3.859  1.00 20.00    -0.060 C 
HETATM    3  C3  UNL     1     -36.855  15.022  -4.484  1.00 20.00     0.097 C 
HETATM    4  C4  UNL     1     -36.670  17.246  -3.341  1.00 20.00     0.046 C 
HETATM    5  C5  UNL     1     -34.673  15.765  -3.513  1.00 20.00     0.108 C 
HETATM    6  C6  UNL     1     -36.076  17.435  -1.954  1.00 20.00     0.078 C 
HETATM    7  N7  UNL     1     -35.827  12.818  -5.342  1.00 20.00    -0.192 NA
HETATM    8  S8  UNL     1     -34.366  16.846  -2.081  1.00 20.00    -0.165 SA
ENDROOT
TORSDOF 0
ENDMDL
MODEL 9
REMARK VINA RESULT:      -3.3     11.171     11.487
REMARK  0 active torsions:
REMARK  status: ('A' for Active; 'I' for Inactive)
ROOT
HETATM    1  C1  UNL     1     -33.573  15.624  -4.196  1.00 20.00     0.088 C 
HETATM    2  C2  UNL     1     -34.374  16.978  -2.372  1.00 20.00    -0.060 C 
HETATM    3  C3  UNL     1     -34.459  15.869  -3.117  1.00 20.00     0.097 C 
HETATM    4  C4  UNL     1     -35.285  17.286  -1.220  1.00 20.00     0.046 C 
HETATM    5  C5  UNL     1     -33.296  18.006  -2.539  1.00 20.00     0.108 C 
HETATM    6  C6  UNL     1     -34.394  17.800  -0.101  1.00 20.00     0.078 C 
HETATM    7  N7  UNL     1     -32.850  15.418  -5.081  1.00 20.00    -0.192 NA
HETATM    8  S8  UNL     1     -33.139  18.822  -0.919  1.00 20.00    -0.165 SA
ENDROOT
TORSDOF 0
ENDMDL
