MODEL 1
REMARK VINA RESULT:      -6.8      0.000      0.000
REMARK  2 active torsions:
REMARK  status: ('A' for Active; 'I' for Inactive)
REMARK    1  A    between atoms: C3_3  and  C8_8 
REMARK    2  A    between atoms: C7_7  and  C8_8 
ROOT
HETATM    1  C1  UNL     1     -33.303   7.466   4.509  1.00 20.00     0.053 A 
HETATM    2  C2  UNL     1     -34.451   5.535   5.397  1.00 20.00     0.087 A 
HETATM    3  C3  UNL     1     -33.004   6.756   3.348  1.00 20.00    -0.007 A 
HETATM    4  C4  UNL     1     -34.027   6.857   5.534  1.00 20.00     0.120 A 
HETATM    5  C5  UNL     1     -34.152   4.824   4.236  1.00 20.00     0.158 A 
HETATM    6  C6  UNL     1     -33.428   5.434   3.210  1.00 20.00     0.161 A 
HETATM    7  F10 UNL     1     -34.314   7.540   6.650  1.00 20.00    -0.206 F 
HETATM    8  F11 UNL     1     -34.560   3.555   4.104  1.00 20.00    -0.203 F 
HETATM    9  F12 UNL     1     -33.146   4.742   2.097  1.00 20.00    -0.202 F 
ENDROOT
BRANCH   3  10
HETATM   10  C8  UNL     1     -32.229   7.410   2.254  1.00 20.00     0.111 C 
BRANCH  10  11
HETATM   11  C7  UNL     1     -32.545   8.878   2.069  1.00 20.00     0.235 C 
HETATM   12  O9  UNL     1     -32.242   9.536   1.079  1.00 20.00    -0.307 OA
ENDBRANCH  10  11
ENDBRANCH   3  10
TORSDOF 2
ENDMDL
MODEL 2
REMARK VINA RESULT:      -6.3      1.037      2.828
REMARK  2 active torsions:
REMARK  status: ('A' for Active; 'I' for Inactive)
REMARK    1  A    between atoms: C3_3  and  C8_8 
REMARK    2  A    between atoms: C7_7  and  C8_8 
ROOT
HETATM    1  C1  UNL     1     -32.774   6.128   2.738  1.00 20.00     0.053 A 
HETATM    2  C2  UNL     1     -34.210   4.661   4.013  1.00 20.00     0.087 A 
HETATM    3  C3  UNL     1     -32.936   7.124   3.701  1.00 20.00    -0.007 A 
HETATM    4  C4  UNL     1     -33.411   4.897   2.893  1.00 20.00     0.120 A 
HETATM    5  C5  UNL     1     -34.371   5.657   4.975  1.00 20.00     0.158 A 
HETATM    6  C6  UNL     1     -33.735   6.889   4.820  1.00 20.00     0.161 A 
HETATM    7  F10 UNL     1     -33.255   3.941   1.968  1.00 20.00    -0.206 F 
HETATM    8  F11 UNL     1     -35.138   5.431   6.050  1.00 20.00    -0.203 F 
HETATM    9  F12 UNL     1     -33.896   7.839   5.751  1.00 20.00    -0.202 F 
ENDROOT
BRANCH   3  10
HETATM   10  C8  UNL     1     -32.255   8.440   3.531  1.00 20.00     0.111 C 
BRANCH  10  11
HETATM   11  C7  UNL     1     -31.892   8.766   2.099  1.00 20.00     0.235 C 
HETATM   12  O9  UNL     1     -32.565   9.469   1.353  1.00 20.00    -0.307 OA
ENDBRANCH  10  11
ENDBRANCH   3  10
TORSDOF 2
ENDMDL
MODEL 3
REMARK VINA RESULT:      -6.0      1.035      2.786
REMARK  2 active torsions:
REMARK  status: ('A' for Active; 'I' for Inactive)
REMARK    1  A    between atoms: C3_3  and  C8_8 
REMARK    2  A    between atoms: C7_7  and  C8_8 
ROOT
HETATM    1  C1  UNL     1     -33.652   5.884   3.180  1.00 20.00     0.053 A 
HETATM    2  C2  UNL     1     -34.469   6.022   5.449  1.00 20.00     0.087 A 
HETATM    3  C3  UNL     1     -32.862   7.013   3.395  1.00 20.00    -0.007 A 
HETATM    4  C4  UNL     1     -34.456   5.388   4.206  1.00 20.00     0.120 A 
HETATM    5  C5  UNL     1     -33.679   7.151   5.664  1.00 20.00     0.158 A 
HETATM    6  C6  UNL     1     -32.876   7.647   4.637  1.00 20.00     0.161 A 
HETATM    7  F10 UNL     1     -35.215   4.304   3.999  1.00 20.00    -0.206 F 
HETATM    8  F11 UNL     1     -33.692   7.759   6.857  1.00 20.00    -0.203 F 
HETATM    9  F12 UNL     1     -32.119   8.732   4.854  1.00 20.00    -0.202 F 
ENDROOT
BRANCH   3  10
HETATM   10  C8  UNL     1     -32.004   7.541   2.294  1.00 20.00     0.111 C 
BRANCH  10  11
HETATM   11  C7  UNL     1     -32.534   8.805   1.653  1.00 20.00     0.235 C 
HETATM   12  O9  UNL     1     -32.013   9.371   0.698  1.00 20.00    -0.307 OA
ENDBRANCH  10  11
ENDBRANCH   3  10
TORSDOF 2
ENDMDL
MODEL 4
REMARK VINA RESULT:      -5.8      2.727      4.620
REMARK  2 active torsions:
REMARK  status: ('A' for Active; 'I' for Inactive)
REMARK    1  A    between atoms: C3_3  and  C8_8 
REMARK    2  A    between atoms: C7_7  and  C8_8 
ROOT
HETATM    1  C1  UNL     1     -33.317   6.869   2.617  1.00 20.00     0.053 A 
HETATM    2  C2  UNL     1     -31.700   8.437   3.492  1.00 20.00     0.087 A 
HETATM    3  C3  UNL     1     -33.879   6.739   3.886  1.00 20.00    -0.007 A 
HETATM    4  C4  UNL     1     -32.228   7.717   2.419  1.00 20.00     0.120 A 
HETATM    5  C5  UNL     1     -32.262   8.307   4.761  1.00 20.00     0.158 A 
HETATM    6  C6  UNL     1     -33.352   7.458   4.959  1.00 20.00     0.161 A 
HETATM    7  F10 UNL     1     -31.688   7.842   1.200  1.00 20.00    -0.206 F 
HETATM    8  F11 UNL     1     -31.757   8.997   5.791  1.00 20.00    -0.203 F 
HETATM    9  F12 UNL     1     -33.885   7.340   6.184  1.00 20.00    -0.202 F 
ENDROOT
BRANCH   3  10
HETATM   10  C8  UNL     1     -35.043   5.830   4.095  1.00 20.00     0.111 C 
BRANCH  10  11
HETATM   11  C7  UNL     1     -34.693   4.529   4.783  1.00 20.00     0.235 C 
HETATM   12  O9  UNL     1     -34.123   3.587   4.242  1.00 20.00    -0.307 OA
ENDBRANCH  10  11
ENDBRANCH   3  10
TORSDOF 2
ENDMDL
MODEL 5
REMARK VINA RESULT:      -5.3      2.608      3.925
REMARK  2 active torsions:
REMARK  status: ('A' for Active; 'I' for Inactive)
REMARK    1  A    between atoms: C3_3  and  C8_8 
REMARK    2  A    between atoms: C7_7  and  C8_8 
ROOT
HETATM    1  C1  UNL     1     -33.269   7.518   5.141  1.00 20.00     0.053 A 
HETATM    2  C2  UNL     1     -31.758   8.412   3.482  1.00 20.00     0.087 A 
HETATM    3  C3  UNL     1     -33.872   6.724   4.166  1.00 20.00    -0.007 A 
HETATM    4  C4  UNL     1     -32.213   8.362   4.801  1.00 20.00     0.120 A 
HETATM    5  C5  UNL     1     -32.360   7.619   2.507  1.00 20.00     0.158 A 
HETATM    6  C6  UNL     1     -33.418   6.775   2.848  1.00 20.00     0.161 A 
HETATM    7  F10 UNL     1     -31.634   9.124   5.738  1.00 20.00    -0.206 F 
HETATM    8  F11 UNL     1     -31.924   7.667   1.242  1.00 20.00    -0.203 F 
HETATM    9  F12 UNL     1     -33.990   6.016   1.902  1.00 20.00    -0.202 F 
ENDROOT
BRANCH   3  10
HETATM   10  C8  UNL     1     -35.003   5.824   4.533  1.00 20.00     0.111 C 
BRANCH  10  11
HETATM   11  C7  UNL     1     -34.572   4.442   4.973  1.00 20.00     0.235 C 
HETATM   12  O9  UNL     1     -34.169   3.564   4.217  1.00 20.00    -0.307 OA
ENDBRANCH  10  11
ENDBRANCH   3  10
TORSDOF 2
ENDMDL
MODEL 6
REMARK VINA RESULT:      -4.6     11.735     13.151
REMARK  2 active torsions:
REMARK  status: ('A' for Active; 'I' for Inactive)
REMARK    1  A    between atoms: C3_3  and  C8_8 
REMARK    2  A    between atoms: C7_7  and  C8_8 
ROOT
HETATM    1  C1  UNL     1     -34.431  15.598  -3.345  1.00 20.00     0.053 A 
HETATM    2  C2  UNL     1     -33.732  17.896  -3.092  1.00 20.00     0.087 A 
HETATM    3  C3  UNL     1     -34.134  15.656  -4.706  1.00 20.00    -0.007 A 
HETATM    4  C4  UNL     1     -34.231  16.717  -2.537  1.00 20.00     0.120 A 
HETATM    5  C5  UNL     1     -33.434  17.955  -4.452  1.00 20.00     0.158 A 
HETATM    6  C6  UNL     1     -33.635  16.835  -5.260  1.00 20.00     0.161 A 
HETATM    7  F10 UNL     1     -34.517  16.661  -1.230  1.00 20.00    -0.206 F 
HETATM    8  F11 UNL     1     -32.954  19.086  -4.985  1.00 20.00    -0.203 F 
HETATM    9  F12 UNL     1     -33.345  16.901  -6.567  1.00 20.00    -0.202 F 
ENDROOT
BRANCH   3  10
HETATM   10  C8  UNL     1     -34.350  14.458  -5.567  1.00 20.00     0.111 C 
BRANCH  10  11
HETATM   11  C7  UNL     1     -35.714  13.822  -5.406  1.00 20.00     0.235 C 
HETATM   12  O9  UNL     1     -35.906  12.627  -5.211  1.00 20.00    -0.307 OA
ENDBRANCH  10  11
ENDBRANCH   3  10
TORSDOF 2
ENDMDL
MODEL 7
REMARK VINA RESULT:      -4.4     11.689     12.384
REMARK  2 active torsions:
REMARK  status: ('A' for Active; 'I' for Inactive)
REMARK    1  A    between atoms: C3_3  and  C8_8 
REMARK    2  A    between atoms: C7_7  and  C8_8 
ROOT
HETATM    1  C1  UNL     1     -33.682  16.324  -3.102  1.00 20.00     0.053 A 
HETATM    2  C2  UNL     1     -34.820  17.640  -1.427  1.00 20.00     0.087 A 
HETATM    3  C3  UNL     1     -34.909  15.984  -3.670  1.00 20.00    -0.007 A 
HETATM    4  C4  UNL     1     -33.636  17.151  -1.981  1.00 20.00     0.120 A 
HETATM    5  C5  UNL     1     -36.047  17.301  -1.995  1.00 20.00     0.158 A 
HETATM    6  C6  UNL     1     -36.093  16.472  -3.117  1.00 20.00     0.161 A 
HETATM    7  F10 UNL     1     -32.457  17.477  -1.435  1.00 20.00    -0.206 F 
HETATM    8  F11 UNL     1     -37.183  17.770  -1.463  1.00 20.00    -0.203 F 
HETATM    9  F12 UNL     1     -37.278  16.152  -3.655  1.00 20.00    -0.202 F 
ENDROOT
BRANCH   3  10
HETATM   10  C8  UNL     1     -34.954  15.098  -4.869  1.00 20.00     0.111 C 
BRANCH  10  11
HETATM   11  C7  UNL     1     -35.197  13.639  -4.548  1.00 20.00     0.235 C 
HETATM   12  O9  UNL     1     -35.912  12.891  -5.206  1.00 20.00    -0.307 OA
ENDBRANCH  10  11
ENDBRANCH   3  10
TORSDOF 2
ENDMDL
MODEL 8
REMARK VINA RESULT:      -4.4     11.520     13.330
REMARK  2 active torsions:
REMARK  status: ('A' for Active; 'I' for Inactive)
REMARK    1  A    between atoms: C3_3  and  C8_8 
REMARK    2  A    between atoms: C7_7  and  C8_8 
ROOT
HETATM    1  C1  UNL     1     -34.537  14.725  -4.002  1.00 20.00     0.053 A 
HETATM    2  C2  UNL     1     -32.928  15.486  -5.635  1.00 20.00     0.087 A 
HETATM    3  C3  UNL     1     -35.477  15.622  -4.509  1.00 20.00    -0.007 A 
HETATM    4  C4  UNL     1     -33.263  14.656  -4.564  1.00 20.00     0.120 A 
HETATM    5  C5  UNL     1     -33.868  16.383  -6.142  1.00 20.00     0.158 A 
HETATM    6  C6  UNL     1     -35.142  16.452  -5.579  1.00 20.00     0.161 A 
HETATM    7  F10 UNL     1     -32.361  13.794  -4.077  1.00 20.00    -0.206 F 
HETATM    8  F11 UNL     1     -33.546  17.179  -7.170  1.00 20.00    -0.203 F 
HETATM    9  F12 UNL     1     -36.038  17.318  -6.074  1.00 20.00    -0.202 F 
ENDROOT
BRANCH   3  10
HETATM   10  C8  UNL     1     -36.838  15.695  -3.904  1.00 20.00     0.111 C 
BRANCH  10  11
HETATM   11  C7  UNL     1     -37.897  14.940  -4.677  1.00 20.00     0.235 C 
HETATM   12  O9  UNL     1     -37.800  13.769  -5.029  1.00 20.00    -0.307 OA
ENDBRANCH  10  11
ENDBRANCH   3  10
TORSDOF 2
ENDMDL
MODEL 9
REMARK VINA RESULT:      -4.4     11.869     12.499
REMARK  2 active torsions:
REMARK  status: ('A' for Active; 'I' for Inactive)
REMARK    1  A    between atoms: C3_3  and  C8_8 
REMARK    2  A    between atoms: C7_7  and  C8_8 
ROOT
HETATM    1  C1  UNL     1     -36.475  16.059  -4.531  1.00 20.00     0.053 A 
HETATM    2  C2  UNL     1     -35.898  17.037  -2.398  1.00 20.00     0.087 A 
HETATM    3  C3  UNL     1     -35.189  15.532  -4.638  1.00 20.00    -0.007 A 
HETATM    4  C4  UNL     1     -36.831  16.812  -3.412  1.00 20.00     0.120 A 
HETATM    5  C5  UNL     1     -34.612  16.510  -2.505  1.00 20.00     0.158 A 
HETATM    6  C6  UNL     1     -34.256  15.757  -3.625  1.00 20.00     0.161 A 
HETATM    7  F10 UNL     1     -38.066  17.319  -3.310  1.00 20.00    -0.206 F 
HETATM    8  F11 UNL     1     -33.717  16.725  -1.532  1.00 20.00    -0.203 F 
HETATM    9  F12 UNL     1     -33.017  15.254  -3.718  1.00 20.00    -0.202 F 
ENDROOT
BRANCH   3  10
HETATM   10  C8  UNL     1     -34.811  14.728  -5.837  1.00 20.00     0.111 C 
BRANCH  10  11
HETATM   11  C7  UNL     1     -35.679  13.509  -6.059  1.00 20.00     0.235 C 
HETATM   12  O9  UNL     1     -35.929  12.667  -5.204  1.00 20.00    -0.307 OA
ENDBRANCH  10  11
ENDBRANCH   3  10
TORSDOF 2
ENDMDL
