MODEL 1
REMARK VINA RESULT:      -4.3      0.000      0.000
REMARK  4 active torsions:
REMARK  status: ('A' for Active; 'I' for Inactive)
REMARK    1  A    between atoms: C4_4  and  C5_5 
REMARK    2  A    between atoms: C4_4  and  O8_8 
REMARK    3  A    between atoms: C5_5  and  S9_9 
REMARK    4  A    between atoms: C6_6  and  S9_9 
ROOT
HETATM    1  C1  UNL     1     -34.099   6.656   5.248  1.00 20.00     0.074 C 
HETATM    2  C2  UNL     1     -34.488   4.310   4.597  1.00 20.00     0.037 C 
HETATM    3  C6  UNL     1     -34.448   5.763   4.135  1.00 20.00     0.150 C 
HETATM    4  N7  UNL     1     -33.825   7.367   6.124  1.00 20.00    -0.196 NA
ENDROOT
BRANCH   3   5
HETATM    5  S9  UNL     1     -33.269   5.926   2.776  1.00 20.00    -0.148 SA
BRANCH   5   6
HETATM    6  C5  UNL     1     -33.189   7.743   2.719  1.00 20.00     0.101 C 
BRANCH   6   7
HETATM    7  C4  UNL     1     -31.767   8.230   2.484  1.00 20.00     0.177 C 
BRANCH   7   8
HETATM    8  O8  UNL     1     -31.628   8.702   1.151  1.00 20.00    -0.395 OA
HETATM    9  C3  UNL     1     -32.478   9.813   0.899  1.00 20.00     0.201 C 
ENDBRANCH   7   8
ENDBRANCH   6   7
ENDBRANCH   5   6
ENDBRANCH   3   5
TORSDOF 4
ENDMDL
MODEL 2
REMARK VINA RESULT:      -4.0      1.651      1.951
REMARK  4 active torsions:
REMARK  status: ('A' for Active; 'I' for Inactive)
REMARK    1  A    between atoms: C4_4  and  C5_5 
REMARK    2  A    between atoms: C4_4  and  O8_8 
REMARK    3  A    between atoms: C5_5  and  S9_9 
REMARK    4  A    between atoms: C6_6  and  S9_9 
ROOT
HETATM    1  C1  UNL     1     -33.764   7.089   4.909  1.00 20.00     0.074 C 
HETATM    2  C2  UNL     1     -33.350   5.852   2.816  1.00 20.00     0.037 C 
HETATM    3  C6  UNL     1     -33.399   7.218   3.491  1.00 20.00     0.150 C 
HETATM    4  N7  UNL     1     -34.053   6.994   6.029  1.00 20.00    -0.196 NA
ENDROOT
BRANCH   3   5
HETATM    5  S9  UNL     1     -31.799   8.036   3.303  1.00 20.00    -0.148 SA
BRANCH   5   6
HETATM    6  C5  UNL     1     -31.976   8.560   1.570  1.00 20.00     0.101 C 
BRANCH   6   7
HETATM    7  C4  UNL     1     -32.435  10.007   1.471  1.00 20.00     0.177 C 
BRANCH   7   8
HETATM    8  O8  UNL     1     -32.897  10.283   0.156  1.00 20.00    -0.395 OA
HETATM    9  C3  UNL     1     -33.042   9.094  -0.607  1.00 20.00     0.201 C 
ENDBRANCH   7   8
ENDBRANCH   6   7
ENDBRANCH   5   6
ENDBRANCH   3   5
TORSDOF 4
ENDMDL
MODEL 3
REMARK VINA RESULT:      -3.9      3.067      4.725
REMARK  4 active torsions:
REMARK  status: ('A' for Active; 'I' for Inactive)
REMARK    1  A    between atoms: C4_4  and  C5_5 
REMARK    2  A    between atoms: C4_4  and  O8_8 
REMARK    3  A    between atoms: C5_5  and  S9_9 
REMARK    4  A    between atoms: C6_6  and  S9_9 
ROOT
HETATM    1  C1  UNL     1     -32.491   8.655   1.469  1.00 20.00     0.074 C 
HETATM    2  C2  UNL     1     -31.479   8.166   3.665  1.00 20.00     0.037 C 
HETATM    3  C6  UNL     1     -32.703   8.004   2.770  1.00 20.00     0.150 C 
HETATM    4  N7  UNL     1     -32.330   9.169   0.441  1.00 20.00    -0.196 NA
ENDROOT
BRANCH   3   5
HETATM    5  S9  UNL     1     -33.065   6.246   2.564  1.00 20.00    -0.148 SA
BRANCH   5   6
HETATM    6  C5  UNL     1     -34.578   6.173   3.572  1.00 20.00     0.101 C 
BRANCH   6   7
HETATM    7  C4  UNL     1     -34.569   4.969   4.502  1.00 20.00     0.177 C 
BRANCH   7   8
HETATM    8  O8  UNL     1     -34.574   5.400   5.856  1.00 20.00    -0.395 OA
HETATM    9  C3  UNL     1     -34.130   6.743   5.979  1.00 20.00     0.201 C 
ENDBRANCH   7   8
ENDBRANCH   6   7
ENDBRANCH   5   6
ENDBRANCH   3   5
TORSDOF 4
ENDMDL
MODEL 4
REMARK VINA RESULT:      -3.8      1.608      1.763
REMARK  4 active torsions:
REMARK  status: ('A' for Active; 'I' for Inactive)
REMARK    1  A    between atoms: C4_4  and  C5_5 
REMARK    2  A    between atoms: C4_4  and  O8_8 
REMARK    3  A    between atoms: C5_5  and  S9_9 
REMARK    4  A    between atoms: C6_6  and  S9_9 
ROOT
HETATM    1  C1  UNL     1     -34.419   5.130   4.611  1.00 20.00     0.074 C 
HETATM    2  C2  UNL     1     -33.054   5.109   2.557  1.00 20.00     0.037 C 
HETATM    3  C6  UNL     1     -34.064   5.881   3.399  1.00 20.00     0.150 C 
HETATM    4  N7  UNL     1     -34.704   4.541   5.570  1.00 20.00    -0.196 NA
ENDROOT
BRANCH   3   5
HETATM    5  S9  UNL     1     -33.382   7.502   3.814  1.00 20.00    -0.148 SA
BRANCH   5   6
HETATM    6  C5  UNL     1     -32.221   7.661   2.422  1.00 20.00     0.101 C 
BRANCH   6   7
HETATM    7  C4  UNL     1     -32.231   9.069   1.849  1.00 20.00     0.177 C 
BRANCH   7   8
HETATM    8  O8  UNL     1     -31.893   9.036   0.469  1.00 20.00    -0.395 OA
HETATM    9  C3  UNL     1     -32.977   9.457  -0.346  1.00 20.00     0.201 C 
ENDBRANCH   7   8
ENDBRANCH   6   7
ENDBRANCH   5   6
ENDBRANCH   3   5
TORSDOF 4
ENDMDL
MODEL 5
REMARK VINA RESULT:      -3.5     11.289     11.814
REMARK  4 active torsions:
REMARK  status: ('A' for Active; 'I' for Inactive)
REMARK    1  A    between atoms: C4_4  and  C5_5 
REMARK    2  A    between atoms: C4_4  and  O8_8 
REMARK    3  A    between atoms: C5_5  and  S9_9 
REMARK    4  A    between atoms: C6_6  and  S9_9 
ROOT
HETATM    1  C1  UNL     1     -33.054  14.752  -4.299  1.00 20.00     0.074 C 
HETATM    2  C2  UNL     1     -33.867  16.573  -2.847  1.00 20.00     0.037 C 
HETATM    3  C6  UNL     1     -33.603  16.115  -4.278  1.00 20.00     0.150 C 
HETATM    4  N7  UNL     1     -32.619  13.677  -4.321  1.00 20.00    -0.196 NA
ENDROOT
BRANCH   3   5
HETATM    5  S9  UNL     1     -35.136  16.213  -5.229  1.00 20.00    -0.148 SA
BRANCH   5   6
HETATM    6  C5  UNL     1     -36.015  14.823  -4.451  1.00 20.00     0.101 C 
BRANCH   6   7
HETATM    7  C4  UNL     1     -36.568  13.863  -5.492  1.00 20.00     0.177 C 
BRANCH   7   8
HETATM    8  O8  UNL     1     -35.615  12.846  -5.773  1.00 20.00    -0.395 OA
HETATM    9  C3  UNL     1     -35.112  12.954  -7.097  1.00 20.00     0.201 C 
ENDBRANCH   7   8
ENDBRANCH   6   7
ENDBRANCH   5   6
ENDBRANCH   3   5
TORSDOF 4
ENDMDL
MODEL 6
REMARK VINA RESULT:      -3.4     11.084     11.639
REMARK  4 active torsions:
REMARK  status: ('A' for Active; 'I' for Inactive)
REMARK    1  A    between atoms: C4_4  and  C5_5 
REMARK    2  A    between atoms: C4_4  and  O8_8 
REMARK    3  A    between atoms: C5_5  and  S9_9 
REMARK    4  A    between atoms: C6_6  and  S9_9 
ROOT
HETATM    1  C1  UNL     1     -32.923  18.099  -1.514  1.00 20.00     0.074 C 
HETATM    2  C2  UNL     1     -35.060  16.868  -1.461  1.00 20.00     0.037 C 
HETATM    3  C6  UNL     1     -34.143  17.781  -2.269  1.00 20.00     0.150 C 
HETATM    4  N7  UNL     1     -31.958  18.355  -0.921  1.00 20.00    -0.196 NA
ENDROOT
BRANCH   3   5
HETATM    5  S9  UNL     1     -33.745  16.987  -3.843  1.00 20.00    -0.148 SA
BRANCH   5   6
HETATM    6  C5  UNL     1     -34.707  15.460  -3.615  1.00 20.00     0.101 C 
BRANCH   6   7
HETATM    7  C4  UNL     1     -34.039  14.276  -4.296  1.00 20.00     0.177 C 
BRANCH   7   8
HETATM    8  O8  UNL     1     -34.992  13.248  -4.532  1.00 20.00    -0.395 OA
HETATM    9  C3  UNL     1     -36.088  13.718  -5.304  1.00 20.00     0.201 C 
ENDBRANCH   7   8
ENDBRANCH   6   7
ENDBRANCH   5   6
ENDBRANCH   3   5
TORSDOF 4
ENDMDL
MODEL 7
REMARK VINA RESULT:      -3.4     11.324     11.793
REMARK  4 active torsions:
REMARK  status: ('A' for Active; 'I' for Inactive)
REMARK    1  A    between atoms: C4_4  and  C5_5 
REMARK    2  A    between atoms: C4_4  and  O8_8 
REMARK    3  A    between atoms: C5_5  and  S9_9 
REMARK    4  A    between atoms: C6_6  and  S9_9 
ROOT
HETATM    1  C1  UNL     1     -35.299  13.865  -5.001  1.00 20.00     0.074 C 
HETATM    2  C2  UNL     1     -33.071  14.743  -4.409  1.00 20.00     0.037 C 
HETATM    3  C6  UNL     1     -34.513  15.085  -4.770  1.00 20.00     0.150 C 
HETATM    4  N7  UNL     1     -35.924  12.905  -5.186  1.00 20.00    -0.196 NA
ENDROOT
BRANCH   3   5
HETATM    5  S9  UNL     1     -35.238  16.086  -3.452  1.00 20.00    -0.148 SA
BRANCH   5   6
HETATM    6  C5  UNL     1     -33.693  16.667  -2.687  1.00 20.00     0.101 C 
BRANCH   6   7
HETATM    7  C4  UNL     1     -33.596  18.185  -2.716  1.00 20.00     0.177 C 
BRANCH   7   8
HETATM    8  O8  UNL     1     -32.469  18.616  -1.966  1.00 20.00    -0.395 OA
HETATM    9  C3  UNL     1     -32.721  18.566  -0.569  1.00 20.00     0.201 C 
ENDBRANCH   7   8
ENDBRANCH   6   7
ENDBRANCH   5   6
ENDBRANCH   3   5
TORSDOF 4
ENDMDL
MODEL 8
REMARK VINA RESULT:      -3.3     11.613     12.320
REMARK  4 active torsions:
REMARK  status: ('A' for Active; 'I' for Inactive)
REMARK    1  A    between atoms: C4_4  and  C5_5 
REMARK    2  A    between atoms: C4_4  and  O8_8 
REMARK    3  A    between atoms: C5_5  and  S9_9 
REMARK    4  A    between atoms: C6_6  and  S9_9 
ROOT
HETATM    1  C1  UNL     1     -35.590  13.659  -6.056  1.00 20.00     0.074 C 
HETATM    2  C2  UNL     1     -34.079  14.237  -7.918  1.00 20.00     0.037 C 
HETATM    3  C6  UNL     1     -35.234  14.697  -7.035  1.00 20.00     0.150 C 
HETATM    4  N7  UNL     1     -35.876  12.843  -5.283  1.00 20.00    -0.196 NA
ENDROOT
BRANCH   3   5
HETATM    5  S9  UNL     1     -34.780  16.239  -6.210  1.00 20.00    -0.148 SA
BRANCH   5   6
HETATM    6  C5  UNL     1     -33.375  15.611  -5.239  1.00 20.00     0.101 C 
BRANCH   6   7
HETATM    7  C4  UNL     1     -33.568  15.868  -3.753  1.00 20.00     0.177 C 
BRANCH   7   8
HETATM    8  O8  UNL     1     -34.954  15.924  -3.443  1.00 20.00    -0.395 OA
HETATM    9  C3  UNL     1     -35.186  16.573  -2.202  1.00 20.00     0.201 C 
ENDBRANCH   7   8
ENDBRANCH   6   7
ENDBRANCH   5   6
ENDBRANCH   3   5
TORSDOF 4
ENDMDL
MODEL 9
REMARK VINA RESULT:      -3.3      3.244      5.254
REMARK  4 active torsions:
REMARK  status: ('A' for Active; 'I' for Inactive)
REMARK    1  A    between atoms: C4_4  and  C5_5 
REMARK    2  A    between atoms: C4_4  and  O8_8 
REMARK    3  A    between atoms: C5_5  and  S9_9 
REMARK    4  A    between atoms: C6_6  and  S9_9 
ROOT
HETATM    1  C1  UNL     1     -32.962   9.191  -0.030  1.00 20.00     0.074 C 
HETATM    2  C2  UNL     1     -32.475  10.926   1.653  1.00 20.00     0.037 C 
HETATM    3  C6  UNL     1     -32.914   9.486   1.408  1.00 20.00     0.150 C 
HETATM    4  N7  UNL     1     -33.004   8.953  -1.166  1.00 20.00    -0.196 NA
ENDROOT
BRANCH   3   5
HETATM    5  S9  UNL     1     -31.786   8.363   2.264  1.00 20.00    -0.148 SA
BRANCH   5   6
HETATM    6  C5  UNL     1     -32.995   7.575   3.372  1.00 20.00     0.101 C 
BRANCH   6   7
HETATM    7  C4  UNL     1     -33.427   6.215   2.846  1.00 20.00     0.177 C 
BRANCH   7   8
HETATM    8  O8  UNL     1     -34.754   5.929   3.265  1.00 20.00    -0.395 OA
HETATM    9  C3  UNL     1     -34.780   5.354   4.563  1.00 20.00     0.201 C 
ENDBRANCH   7   8
ENDBRANCH   6   7
ENDBRANCH   5   6
ENDBRANCH   3   5
TORSDOF 4
ENDMDL
