MODEL 1
REMARK VINA RESULT:      -3.9      0.000      0.000
REMARK  4 active torsions:
REMARK  status: ('A' for Active; 'I' for Inactive)
REMARK    1  A    between atoms: C4_4  and  N11_11 
REMARK    2  A    between atoms: C7_7  and  C9_9 
REMARK    3  A    between atoms: C8_8  and  N11_11 
REMARK    4  A    between atoms: C9_9  and  N11_11 
ROOT
HETATM    1  C1  UNL     1     -36.751  13.948  -5.238  1.00 20.00     0.095 C 
HETATM    2  C9  UNL     1     -35.296  13.972  -5.443  1.00 20.00     0.328 C 
HETATM    3  N10 UNL     1     -37.900  13.927  -5.072  1.00 20.00    -0.195 NA
ENDROOT
BRANCH   2   4
HETATM    4  C7  UNL     1     -34.901  13.577  -6.872  1.00 20.00     0.046 C 
HETATM    5  C5  UNL     1     -35.989  13.804  -7.918  1.00 20.00     0.008 C 
ENDBRANCH   2   4
BRANCH   2   6
HETATM    6  N11 UNL     1     -34.756  15.259  -5.087  1.00 20.00     0.110 N 
BRANCH   6   7
HETATM    7  C4  UNL     1     -34.423  15.319  -3.657  1.00 20.00     0.224 A 
HETATM    8  C2  UNL     1     -33.697  16.510  -3.094  1.00 20.00     0.038 A 
HETATM    9  C3  UNL     1     -35.138  16.279  -2.746  1.00 20.00     0.038 A 
ENDBRANCH   6   7
BRANCH   6  10
HETATM   10  C8  UNL     1     -33.562  15.574  -5.885  1.00 20.00     0.270 C 
HETATM   11  C6  UNL     1     -33.759  16.818  -6.681  1.00 20.00     0.037 C 
ENDBRANCH   6  10
ENDBRANCH   2   6
TORSDOF 4
ENDMDL
MODEL 2
REMARK VINA RESULT:      -3.8      1.736      3.135
REMARK  4 active torsions:
REMARK  status: ('A' for Active; 'I' for Inactive)
REMARK    1  A    between atoms: C4_4  and  N11_11 
REMARK    2  A    between atoms: C7_7  and  C9_9 
REMARK    3  A    between atoms: C8_8  and  N11_11 
REMARK    4  A    between atoms: C9_9  and  N11_11 
ROOT
HETATM    1  C1  UNL     1     -35.269  13.752  -4.677  1.00 20.00     0.095 C 
HETATM    2  C9  UNL     1     -34.425  14.740  -3.990  1.00 20.00     0.328 C 
HETATM    3  N10 UNL     1     -35.937  12.970  -5.215  1.00 20.00    -0.195 NA
ENDROOT
BRANCH   2   4
HETATM    4  C7  UNL     1     -33.091  14.970  -4.711  1.00 20.00     0.046 C 
HETATM    5  C5  UNL     1     -33.195  15.791  -5.994  1.00 20.00     0.008 C 
ENDBRANCH   2   4
BRANCH   2   6
HETATM    6  N11 UNL     1     -35.141  15.976  -3.805  1.00 20.00     0.110 N 
BRANCH   6   7
HETATM    7  C4  UNL     1     -36.498  15.895  -4.363  1.00 20.00     0.224 A 
HETATM    8  C2  UNL     1     -37.523  16.942  -4.027  1.00 20.00     0.038 A 
HETATM    9  C3  UNL     1     -36.952  16.871  -5.413  1.00 20.00     0.038 A 
ENDBRANCH   6   7
BRANCH   6  10
HETATM   10  C8  UNL     1     -35.213  16.341  -2.383  1.00 20.00     0.270 C 
HETATM   11  C6  UNL     1     -33.982  17.058  -1.947  1.00 20.00     0.037 C 
ENDBRANCH   6  10
ENDBRANCH   2   6
TORSDOF 4
ENDMDL
MODEL 3
REMARK VINA RESULT:      -3.8      2.073      2.709
REMARK  4 active torsions:
REMARK  status: ('A' for Active; 'I' for Inactive)
REMARK    1  A    between atoms: C4_4  and  N11_11 
REMARK    2  A    between atoms: C7_7  and  C9_9 
REMARK    3  A    between atoms: C8_8  and  N11_11 
REMARK    4  A    between atoms: C9_9  and  N11_11 
ROOT
HETATM    1  C1  UNL     1     -33.543  14.593  -4.482  1.00 20.00     0.095 C 
HETATM    2  C9  UNL     1     -34.670  15.496  -4.755  1.00 20.00     0.328 C 
HETATM    3  N10 UNL     1     -32.652  13.882  -4.270  1.00 20.00    -0.195 NA
ENDROOT
BRANCH   2   4
HETATM    4  C7  UNL     1     -36.029  14.806  -4.581  1.00 20.00     0.046 C 
HETATM    5  C5  UNL     1     -36.146  13.452  -5.274  1.00 20.00     0.008 C 
ENDBRANCH   2   4
BRANCH   2   6
HETATM    6  N11 UNL     1     -34.577  16.682  -3.941  1.00 20.00     0.110 N 
BRANCH   6   7
HETATM    7  C4  UNL     1     -34.397  16.342  -2.523  1.00 20.00     0.224 A 
HETATM    8  C2  UNL     1     -33.921  17.381  -1.546  1.00 20.00     0.038 A 
HETATM    9  C3  UNL     1     -35.336  16.884  -1.481  1.00 20.00     0.038 A 
ENDBRANCH   6   7
BRANCH   6  10
HETATM   10  C8  UNL     1     -33.475  17.548  -4.386  1.00 20.00     0.270 C 
HETATM   11  C6  UNL     1     -33.984  18.704  -5.177  1.00 20.00     0.037 C 
ENDBRANCH   6  10
ENDBRANCH   2   6
TORSDOF 4
ENDMDL
MODEL 4
REMARK VINA RESULT:      -3.8      1.400      2.046
REMARK  4 active torsions:
REMARK  status: ('A' for Active; 'I' for Inactive)
REMARK    1  A    between atoms: C4_4  and  N11_11 
REMARK    2  A    between atoms: C7_7  and  C9_9 
REMARK    3  A    between atoms: C8_8  and  N11_11 
REMARK    4  A    between atoms: C9_9  and  N11_11 
ROOT
HETATM    1  C1  UNL     1     -35.848  13.987  -5.262  1.00 20.00     0.095 C 
HETATM    2  C9  UNL     1     -36.197  15.412  -5.336  1.00 20.00     0.328 C 
HETATM    3  N10 UNL     1     -35.571  12.861  -5.207  1.00 20.00    -0.195 NA
ENDROOT
BRANCH   2   4
HETATM    4  C7  UNL     1     -37.552  15.718  -4.684  1.00 20.00     0.046 C 
HETATM    5  C5  UNL     1     -38.665  14.737  -5.042  1.00 20.00     0.008 C 
ENDBRANCH   2   4
BRANCH   2   6
HETATM    6  N11 UNL     1     -35.148  16.221  -4.769  1.00 20.00     0.110 N 
BRANCH   6   7
HETATM    7  C4  UNL     1     -34.850  15.814  -3.389  1.00 20.00     0.224 A 
HETATM    8  C2  UNL     1     -33.784  16.523  -2.599  1.00 20.00     0.038 A 
HETATM    9  C3  UNL     1     -35.229  16.698  -2.232  1.00 20.00     0.038 A 
ENDBRANCH   6   7
BRANCH   6  10
HETATM   10  C8  UNL     1     -33.924  16.151  -5.579  1.00 20.00     0.270 C 
HETATM   11  C6  UNL     1     -34.048  16.976  -6.814  1.00 20.00     0.037 C 
ENDBRANCH   6  10
ENDBRANCH   2   6
TORSDOF 4
ENDMDL
MODEL 5
REMARK VINA RESULT:      -3.7      1.557      1.893
REMARK  4 active torsions:
REMARK  status: ('A' for Active; 'I' for Inactive)
REMARK    1  A    between atoms: C4_4  and  N11_11 
REMARK    2  A    between atoms: C7_7  and  C9_9 
REMARK    3  A    between atoms: C8_8  and  N11_11 
REMARK    4  A    between atoms: C9_9  and  N11_11 
ROOT
HETATM    1  C1  UNL     1     -35.155  13.762  -5.327  1.00 20.00     0.095 C 
HETATM    2  C9  UNL     1     -34.187  14.867  -5.366  1.00 20.00     0.328 C 
HETATM    3  N10 UNL     1     -35.918  12.888  -5.293  1.00 20.00    -0.195 NA
ENDROOT
BRANCH   2   4
HETATM    4  C7  UNL     1     -33.783  15.241  -6.797  1.00 20.00     0.046 C 
HETATM    5  C5  UNL     1     -34.043  14.153  -7.836  1.00 20.00     0.008 C 
ENDBRANCH   2   4
BRANCH   2   6
HETATM    6  N11 UNL     1     -34.694  16.010  -4.649  1.00 20.00     0.110 N 
BRANCH   6   7
HETATM    7  C4  UNL     1     -33.668  16.582  -3.766  1.00 20.00     0.224 A 
HETATM    8  C2  UNL     1     -33.849  17.953  -3.177  1.00 20.00     0.038 A 
HETATM    9  C3  UNL     1     -33.929  16.743  -2.294  1.00 20.00     0.038 A 
ENDBRANCH   6   7
BRANCH   6  10
HETATM   10  C8  UNL     1     -35.183  17.043  -5.572  1.00 20.00     0.270 C 
HETATM   11  C6  UNL     1     -36.665  17.178  -5.494  1.00 20.00     0.037 C 
ENDBRANCH   6  10
ENDBRANCH   2   6
TORSDOF 4
ENDMDL
MODEL 6
REMARK VINA RESULT:      -3.7      1.694      3.722
REMARK  4 active torsions:
REMARK  status: ('A' for Active; 'I' for Inactive)
REMARK    1  A    between atoms: C4_4  and  N11_11 
REMARK    2  A    between atoms: C7_7  and  C9_9 
REMARK    3  A    between atoms: C8_8  and  N11_11 
REMARK    4  A    between atoms: C9_9  and  N11_11 
ROOT
HETATM    1  C1  UNL     1     -35.662  13.854  -4.871  1.00 20.00     0.095 C 
HETATM    2  C9  UNL     1     -35.420  15.195  -4.321  1.00 20.00     0.328 C 
HETATM    3  N10 UNL     1     -35.857  12.795  -5.304  1.00 20.00    -0.195 NA
ENDROOT
BRANCH   2   4
HETATM    4  C7  UNL     1     -34.024  15.329  -3.700  1.00 20.00     0.046 C 
HETATM    5  C5  UNL     1     -33.824  16.582  -2.851  1.00 20.00     0.008 C 
ENDBRANCH   2   4
BRANCH   2   6
HETATM    6  N11 UNL     1     -35.644  16.203  -5.327  1.00 20.00     0.110 N 
BRANCH   6   7
HETATM    7  C4  UNL     1     -34.929  15.883  -6.570  1.00 20.00     0.224 A 
HETATM    8  C2  UNL     1     -35.184  16.678  -7.821  1.00 20.00     0.038 A 
HETATM    9  C3  UNL     1     -33.872  16.810  -7.104  1.00 20.00     0.038 A 
ENDBRANCH   6   7
BRANCH   6  10
HETATM   10  C8  UNL     1     -37.078  16.363  -5.609  1.00 20.00     0.270 C 
HETATM   11  C6  UNL     1     -37.806  16.889  -4.420  1.00 20.00     0.037 C 
ENDBRANCH   6  10
ENDBRANCH   2   6
TORSDOF 4
ENDMDL
MODEL 7
REMARK VINA RESULT:      -3.7      2.441      5.107
REMARK  4 active torsions:
REMARK  status: ('A' for Active; 'I' for Inactive)
REMARK    1  A    between atoms: C4_4  and  N11_11 
REMARK    2  A    between atoms: C7_7  and  C9_9 
REMARK    3  A    between atoms: C8_8  and  N11_11 
REMARK    4  A    between atoms: C9_9  and  N11_11 
ROOT
HETATM    1  C1  UNL     1     -33.154  17.809  -1.740  1.00 20.00     0.095 C 
HETATM    2  C9  UNL     1     -34.155  16.771  -2.022  1.00 20.00     0.328 C 
HETATM    3  N10 UNL     1     -32.360  18.626  -1.516  1.00 20.00    -0.195 NA
ENDROOT
BRANCH   2   4
HETATM    4  C7  UNL     1     -35.519  17.088  -1.396  1.00 20.00     0.046 C 
HETATM    5  C5  UNL     1     -35.466  17.484   0.077  1.00 20.00     0.008 C 
ENDBRANCH   2   4
BRANCH   2   6
HETATM    6  N11 UNL     1     -34.268  16.549  -3.441  1.00 20.00     0.110 N 
BRANCH   6   7
HETATM    7  C4  UNL     1     -34.352  15.115  -3.750  1.00 20.00     0.224 A 
HETATM    8  C2  UNL     1     -34.545  14.652  -5.168  1.00 20.00     0.038 A 
HETATM    9  C3  UNL     1     -33.232  14.423  -4.478  1.00 20.00     0.038 A 
ENDBRANCH   6   7
BRANCH   6  10
HETATM   10  C8  UNL     1     -35.439  17.242  -3.996  1.00 20.00     0.270 C 
HETATM   11  C6  UNL     1     -35.028  18.342  -4.915  1.00 20.00     0.037 C 
ENDBRANCH   6  10
ENDBRANCH   2   6
TORSDOF 4
ENDMDL
MODEL 8
REMARK VINA RESULT:      -3.6      1.133      3.353
REMARK  4 active torsions:
REMARK  status: ('A' for Active; 'I' for Inactive)
REMARK    1  A    between atoms: C4_4  and  N11_11 
REMARK    2  A    between atoms: C7_7  and  C9_9 
REMARK    3  A    between atoms: C8_8  and  N11_11 
REMARK    4  A    between atoms: C9_9  and  N11_11 
ROOT
HETATM    1  C1  UNL     1     -37.060  14.672  -4.915  1.00 20.00     0.095 C 
HETATM    2  C9  UNL     1     -35.895  15.567  -4.893  1.00 20.00     0.328 C 
HETATM    3  N10 UNL     1     -37.983  13.969  -4.933  1.00 20.00    -0.195 NA
ENDROOT
BRANCH   2   4
HETATM    4  C7  UNL     1     -34.889  15.191  -3.798  1.00 20.00     0.046 C 
HETATM    5  C5  UNL     1     -34.673  16.266  -2.737  1.00 20.00     0.008 C 
ENDBRANCH   2   4
BRANCH   2   6
HETATM    6  N11 UNL     1     -35.266  15.611  -6.189  1.00 20.00     0.110 N 
BRANCH   6   7
HETATM    7  C4  UNL     1     -34.733  16.950  -6.476  1.00 20.00     0.224 A 
HETATM    8  C2  UNL     1     -33.899  17.190  -7.704  1.00 20.00     0.038 A 
HETATM    9  C3  UNL     1     -35.283  17.763  -7.616  1.00 20.00     0.038 A 
ENDBRANCH   6   7
BRANCH   6  10
HETATM   10  C8  UNL     1     -34.187  14.619  -6.291  1.00 20.00     0.270 C 
HETATM   11  C6  UNL     1     -34.516  13.566  -7.294  1.00 20.00     0.037 C 
ENDBRANCH   6  10
ENDBRANCH   2   6
TORSDOF 4
ENDMDL
MODEL 9
REMARK VINA RESULT:      -3.6      2.567      5.021
REMARK  4 active torsions:
REMARK  status: ('A' for Active; 'I' for Inactive)
REMARK    1  A    between atoms: C4_4  and  N11_11 
REMARK    2  A    between atoms: C7_7  and  C9_9 
REMARK    3  A    between atoms: C8_8  and  N11_11 
REMARK    4  A    between atoms: C9_9  and  N11_11 
ROOT
HETATM    1  C1  UNL     1     -33.381  18.029  -2.598  1.00 20.00     0.095 C 
HETATM    2  C9  UNL     1     -34.011  16.796  -2.106  1.00 20.00     0.328 C 
HETATM    3  N10 UNL     1     -32.879  19.000  -2.987  1.00 20.00    -0.195 NA
ENDROOT
BRANCH   2   4
HETATM    4  C7  UNL     1     -35.107  17.073  -1.070  1.00 20.00     0.046 C 
HETATM    5  C5  UNL     1     -34.671  17.956   0.096  1.00 20.00     0.008 C 
ENDBRANCH   2   4
BRANCH   2   6
HETATM    6  N11 UNL     1     -34.515  16.012  -3.205  1.00 20.00     0.110 N 
BRANCH   6   7
HETATM    7  C4  UNL     1     -35.748  16.594  -3.753  1.00 20.00     0.224 A 
HETATM    8  C2  UNL     1     -36.133  16.351  -5.186  1.00 20.00     0.038 A 
HETATM    9  C3  UNL     1     -36.927  15.719  -4.081  1.00 20.00     0.038 A 
ENDBRANCH   6   7
BRANCH   6  10
HETATM   10  C8  UNL     1     -33.513  15.884  -4.272  1.00 20.00     0.270 C 
HETATM   11  C6  UNL     1     -33.022  14.481  -4.385  1.00 20.00     0.037 C 
ENDBRANCH   6  10
ENDBRANCH   2   6
TORSDOF 4
ENDMDL
