MODEL 1
REMARK VINA RESULT:      -5.0      0.000      0.000
REMARK  2 active torsions:
REMARK  status: ('A' for Active; 'I' for Inactive)
REMARK    1  A    between atoms: C6_6  and  C9_9 
REMARK    2  A    between atoms: C10_10  and  N12_12 
ROOT
HETATM    1  C1  UNL     1     -35.581  13.926  -5.541  1.00 20.00     0.092 C 
HETATM    2  C8  UNL     1     -33.918  15.374  -6.661  1.00 20.00     0.056 C 
HETATM    3  C10 UNL     1     -35.228  15.305  -5.894  1.00 20.00     0.289 C 
HETATM    4  N11 UNL     1     -35.863  12.836  -5.263  1.00 20.00    -0.195 NA
ENDROOT
BRANCH   3   5
HETATM    5  N12 UNL     1     -35.080  16.112  -4.633  1.00 20.00    -0.055 N 
HETATM    6  C4  UNL     1     -33.833  15.732  -3.873  1.00 20.00     0.237 C 
HETATM    7  C2  UNL     1     -33.665  16.660  -2.678  1.00 20.00     0.032 C 
HETATM    8  C6  UNL     1     -34.900  16.645  -1.770  1.00 20.00    -0.012 C 
HETATM    9  C3  UNL     1     -36.163  16.965  -2.578  1.00 20.00     0.032 C 
HETATM   10  C5  UNL     1     -36.319  16.035  -3.774  1.00 20.00     0.237 C 
HETATM   11  H31 UNL     1     -34.972  17.093  -4.927  1.00 20.00     0.281 HD
BRANCH   8  12
HETATM   12  C9  UNL     1     -34.734  17.628  -0.613  1.00 20.00     0.000 C 
HETATM   13  C7  UNL     1     -33.369  18.235  -0.597  1.00 20.00     0.005 C 
ENDBRANCH   8  12
ENDBRANCH   3   5
TORSDOF 2
ENDMDL
MODEL 2
REMARK VINA RESULT:      -4.7      0.822      1.742
REMARK  2 active torsions:
REMARK  status: ('A' for Active; 'I' for Inactive)
REMARK    1  A    between atoms: C6_6  and  C9_9 
REMARK    2  A    between atoms: C10_10  and  N12_12 
ROOT
HETATM    1  C1  UNL     1     -35.476  13.949  -5.282  1.00 20.00     0.092 C 
HETATM    2  C8  UNL     1     -33.651  15.422  -6.068  1.00 20.00     0.056 C 
HETATM    3  C10 UNL     1     -34.969  15.325  -5.316  1.00 20.00     0.289 C 
HETATM    4  N11 UNL     1     -35.879  12.863  -5.256  1.00 20.00    -0.195 NA
ENDROOT
BRANCH   3   5
HETATM    5  N12 UNL     1     -34.744  15.800  -3.906  1.00 20.00    -0.055 N 
HETATM    6  C4  UNL     1     -35.997  16.396  -3.314  1.00 20.00     0.237 C 
HETATM    7  C2  UNL     1     -35.750  16.744  -1.852  1.00 20.00     0.032 C 
HETATM    8  C6  UNL     1     -34.551  17.686  -1.688  1.00 20.00    -0.012 C 
HETATM    9  C3  UNL     1     -33.307  17.091  -2.359  1.00 20.00     0.032 C 
HETATM   10  C5  UNL     1     -33.567  16.742  -3.818  1.00 20.00     0.237 C 
HETATM   11  H31 UNL     1     -34.510  14.965  -3.353  1.00 20.00     0.281 HD
BRANCH   8  12
HETATM   12  C9  UNL     1     -34.285  17.971  -0.211  1.00 20.00     0.000 C 
HETATM   13  C7  UNL     1     -35.474  17.653   0.635  1.00 20.00     0.005 C 
ENDBRANCH   8  12
ENDBRANCH   3   5
TORSDOF 2
ENDMDL
MODEL 3
REMARK VINA RESULT:      -4.4      1.577      2.668
REMARK  2 active torsions:
REMARK  status: ('A' for Active; 'I' for Inactive)
REMARK    1  A    between atoms: C6_6  and  C9_9 
REMARK    2  A    between atoms: C10_10  and  N12_12 
ROOT
HETATM    1  C1  UNL     1     -34.764  14.631  -4.111  1.00 20.00     0.092 C 
HETATM    2  C8  UNL     1     -35.409  16.924  -4.772  1.00 20.00     0.056 C 
HETATM    3  C10 UNL     1     -35.460  15.853  -3.696  1.00 20.00     0.289 C 
HETATM    4  N11 UNL     1     -34.215  13.663  -4.438  1.00 20.00    -0.195 NA
ENDROOT
BRANCH   3   5
HETATM    5  N12 UNL     1     -34.802  16.397  -2.457  1.00 20.00    -0.055 N 
HETATM    6  C4  UNL     1     -35.791  17.110  -1.569  1.00 20.00     0.237 C 
HETATM    7  C2  UNL     1     -35.102  17.530  -0.278  1.00 20.00     0.032 C 
HETATM    8  C6  UNL     1     -33.867  18.397  -0.549  1.00 20.00    -0.012 C 
HETATM    9  C3  UNL     1     -32.910  17.680  -1.509  1.00 20.00     0.032 C 
HETATM   10  C5  UNL     1     -33.610  17.260  -2.794  1.00 20.00     0.237 C 
HETATM   11  H31 UNL     1     -34.452  15.583  -1.933  1.00 20.00     0.281 HD
BRANCH   8  12
HETATM   12  C9  UNL     1     -33.158  18.753   0.757  1.00 20.00     0.000 C 
HETATM   13  C7  UNL     1     -34.021  18.479   1.945  1.00 20.00     0.005 C 
ENDBRANCH   8  12
ENDBRANCH   3   5
TORSDOF 2
ENDMDL
MODEL 4
REMARK VINA RESULT:      -4.4      1.034      1.088
REMARK  2 active torsions:
REMARK  status: ('A' for Active; 'I' for Inactive)
REMARK    1  A    between atoms: C6_6  and  C9_9 
REMARK    2  A    between atoms: C10_10  and  N12_12 
ROOT
HETATM    1  C1  UNL     1     -37.202  14.537  -5.314  1.00 20.00     0.092 C 
HETATM    2  C8  UNL     1     -34.877  14.301  -6.122  1.00 20.00     0.056 C 
HETATM    3  C10 UNL     1     -35.988  15.255  -5.715  1.00 20.00     0.289 C 
HETATM    4  N11 UNL     1     -38.163  13.971  -4.998  1.00 20.00    -0.195 NA
ENDROOT
BRANCH   3   5
HETATM    5  N12 UNL     1     -35.499  16.081  -4.556  1.00 20.00    -0.055 N 
HETATM    6  C4  UNL     1     -34.249  15.497  -3.946  1.00 20.00     0.237 C 
HETATM    7  C2  UNL     1     -33.728  16.433  -2.864  1.00 20.00     0.032 C 
HETATM    8  C6  UNL     1     -34.793  16.715  -1.797  1.00 20.00    -0.012 C 
HETATM    9  C3  UNL     1     -36.078  17.241  -2.448  1.00 20.00     0.032 C 
HETATM   10  C5  UNL     1     -36.587  16.300  -3.532  1.00 20.00     0.237 C 
HETATM   11  H31 UNL     1     -35.251  17.002  -4.941  1.00 20.00     0.281 HD
BRANCH   8  12
HETATM   12  C9  UNL     1     -34.269  17.704  -0.757  1.00 20.00     0.000 C 
HETATM   13  C7  UNL     1     -32.871  18.134  -1.060  1.00 20.00     0.005 C 
ENDBRANCH   8  12
ENDBRANCH   3   5
TORSDOF 2
ENDMDL
MODEL 5
REMARK VINA RESULT:      -4.4      1.253      1.485
REMARK  2 active torsions:
REMARK  status: ('A' for Active; 'I' for Inactive)
REMARK    1  A    between atoms: C6_6  and  C9_9 
REMARK    2  A    between atoms: C10_10  and  N12_12 
ROOT
HETATM    1  C1  UNL     1     -36.885  14.543  -5.393  1.00 20.00     0.092 C 
HETATM    2  C8  UNL     1     -34.565  14.302  -6.215  1.00 20.00     0.056 C 
HETATM    3  C10 UNL     1     -35.690  15.258  -5.854  1.00 20.00     0.289 C 
HETATM    4  N11 UNL     1     -37.831  13.979  -5.030  1.00 20.00    -0.195 NA
ENDROOT
BRANCH   3   5
HETATM    5  N12 UNL     1     -35.205  16.164  -4.756  1.00 20.00    -0.055 N 
HETATM    6  C4  UNL     1     -33.881  16.798  -5.103  1.00 20.00     0.237 C 
HETATM    7  C2  UNL     1     -33.498  17.797  -4.019  1.00 20.00     0.032 C 
HETATM    8  C6  UNL     1     -33.459  17.144  -2.633  1.00 20.00    -0.012 C 
HETATM    9  C3  UNL     1     -34.791  16.445  -2.332  1.00 20.00     0.032 C 
HETATM   10  C5  UNL     1     -35.167  15.453  -3.424  1.00 20.00     0.237 C 
HETATM   11  H31 UNL     1     -35.897  16.922  -4.678  1.00 20.00     0.281 HD
BRANCH   8  12
HETATM   12  C9  UNL     1     -33.134  18.177  -1.555  1.00 20.00     0.000 C 
HETATM   13  C7  UNL     1     -34.034  18.040  -0.371  1.00 20.00     0.005 C 
ENDBRANCH   8  12
ENDBRANCH   3   5
TORSDOF 2
ENDMDL
MODEL 6
REMARK VINA RESULT:      -4.4     10.796     11.800
REMARK  2 active torsions:
REMARK  status: ('A' for Active; 'I' for Inactive)
REMARK    1  A    between atoms: C6_6  and  C9_9 
REMARK    2  A    between atoms: C10_10  and  N12_12 
ROOT
HETATM    1  C1  UNL     1     -34.365   5.359   4.800  1.00 20.00     0.092 C 
HETATM    2  C8  UNL     1     -34.022   7.315   6.274  1.00 20.00     0.056 C 
HETATM    3  C10 UNL     1     -33.451   6.446   5.166  1.00 20.00     0.289 C 
HETATM    4  N11 UNL     1     -35.085   4.497   4.511  1.00 20.00    -0.195 NA
ENDROOT
BRANCH   3   5
HETATM    5  N12 UNL     1     -33.214   7.315   3.960  1.00 20.00    -0.055 N 
HETATM    6  C4  UNL     1     -33.238   6.512   2.683  1.00 20.00     0.237 C 
HETATM    7  C2  UNL     1     -33.119   7.452   1.491  1.00 20.00     0.032 C 
HETATM    8  C6  UNL     1     -31.862   8.325   1.580  1.00 20.00    -0.012 C 
HETATM    9  C3  UNL     1     -31.824   9.076   2.916  1.00 20.00     0.032 C 
HETATM   10  C5  UNL     1     -31.949   8.127   4.100  1.00 20.00     0.237 C 
HETATM   11  H31 UNL     1     -34.001   7.977   3.921  1.00 20.00     0.281 HD
BRANCH   8  12
HETATM   12  C9  UNL     1     -31.796   9.301   0.407  1.00 20.00     0.000 C 
HETATM   13  C7  UNL     1     -33.111   9.411  -0.293  1.00 20.00     0.005 C 
ENDBRANCH   8  12
ENDBRANCH   3   5
TORSDOF 2
ENDMDL
MODEL 7
REMARK VINA RESULT:      -4.4      1.407      2.045
REMARK  2 active torsions:
REMARK  status: ('A' for Active; 'I' for Inactive)
REMARK    1  A    between atoms: C6_6  and  C9_9 
REMARK    2  A    between atoms: C10_10  and  N12_12 
ROOT
HETATM    1  C1  UNL     1     -36.392  13.936  -4.966  1.00 20.00     0.092 C 
HETATM    2  C8  UNL     1     -37.012  16.207  -5.724  1.00 20.00     0.056 C 
HETATM    3  C10 UNL     1     -37.017  15.205  -4.580  1.00 20.00     0.289 C 
HETATM    4  N11 UNL     1     -35.901  12.930  -5.269  1.00 20.00    -0.195 NA
ENDROOT
BRANCH   3   5
HETATM    5  N12 UNL     1     -36.251  15.800  -3.430  1.00 20.00    -0.055 N 
HETATM    6  C4  UNL     1     -36.855  17.106  -2.976  1.00 20.00     0.237 C 
HETATM    7  C2  UNL     1     -36.122  17.600  -1.736  1.00 20.00     0.032 C 
HETATM    8  C6  UNL     1     -34.615  17.737  -1.984  1.00 20.00    -0.012 C 
HETATM    9  C3  UNL     1     -34.037  16.418  -2.512  1.00 20.00     0.032 C 
HETATM   10  C5  UNL     1     -34.781  15.930  -3.748  1.00 20.00     0.237 C 
HETATM   11  H31 UNL     1     -36.337  15.135  -2.649  1.00 20.00     0.281 HD
BRANCH   8  12
HETATM   12  C9  UNL     1     -33.893  18.173  -0.711  1.00 20.00     0.000 C 
HETATM   13  C7  UNL     1     -32.417  18.276  -0.921  1.00 20.00     0.005 C 
ENDBRANCH   8  12
ENDBRANCH   3   5
TORSDOF 2
ENDMDL
MODEL 8
REMARK VINA RESULT:      -4.3      1.960      5.167
REMARK  2 active torsions:
REMARK  status: ('A' for Active; 'I' for Inactive)
REMARK    1  A    between atoms: C6_6  and  C9_9 
REMARK    2  A    between atoms: C10_10  and  N12_12 
ROOT
HETATM    1  C1  UNL     1     -33.017  17.972  -1.574  1.00 20.00     0.092 C 
HETATM    2  C8  UNL     1     -35.246  17.020  -1.083  1.00 20.00     0.056 C 
HETATM    3  C10 UNL     1     -34.316  17.595  -2.139  1.00 20.00     0.289 C 
HETATM    4  N11 UNL     1     -31.990  18.273  -1.128  1.00 20.00    -0.195 NA
ENDROOT
BRANCH   3   5
HETATM    5  N12 UNL     1     -34.105  16.550  -3.201  1.00 20.00    -0.055 N 
HETATM    6  C4  UNL     1     -33.544  17.150  -4.467  1.00 20.00     0.237 C 
HETATM    7  C2  UNL     1     -33.233  16.039  -5.460  1.00 20.00     0.032 C 
HETATM    8  C6  UNL     1     -34.466  15.174  -5.749  1.00 20.00    -0.012 C 
HETATM    9  C3  UNL     1     -35.060  14.634  -4.442  1.00 20.00     0.032 C 
HETATM   10  C5  UNL     1     -35.362  15.753  -3.455  1.00 20.00     0.237 C 
HETATM   11  H31 UNL     1     -33.399  15.900  -2.832  1.00 20.00     0.281 HD
BRANCH   8  12
HETATM   12  C9  UNL     1     -34.116  14.030  -6.698  1.00 20.00     0.000 C 
HETATM   13  C7  UNL     1     -35.315  13.203  -7.031  1.00 20.00     0.005 C 
ENDBRANCH   8  12
ENDBRANCH   3   5
TORSDOF 2
ENDMDL
MODEL 9
REMARK VINA RESULT:      -4.3      3.410      6.422
REMARK  2 active torsions:
REMARK  status: ('A' for Active; 'I' for Inactive)
REMARK    1  A    between atoms: C6_6  and  C9_9 
REMARK    2  A    between atoms: C10_10  and  N12_12 
ROOT
HETATM    1  C1  UNL     1     -31.706  18.975   1.853  1.00 20.00     0.092 C 
HETATM    2  C8  UNL     1     -33.963  18.806   2.851  1.00 20.00     0.056 C 
HETATM    3  C10 UNL     1     -33.145  19.128   1.611  1.00 20.00     0.289 C 
HETATM    4  N11 UNL     1     -30.569  18.856   2.044  1.00 20.00    -0.195 NA
ENDROOT
BRANCH   3   5
HETATM    5  N12 UNL     1     -33.561  18.187   0.513  1.00 20.00    -0.055 N 
HETATM    6  C4  UNL     1     -32.835  18.481  -0.776  1.00 20.00     0.237 C 
HETATM    7  C2  UNL     1     -33.197  17.427  -1.814  1.00 20.00     0.032 C 
HETATM    8  C6  UNL     1     -34.713  17.342  -2.031  1.00 20.00    -0.012 C 
HETATM    9  C3  UNL     1     -35.433  17.113  -0.697  1.00 20.00     0.032 C 
HETATM   10  C5  UNL     1     -35.060  18.169   0.334  1.00 20.00     0.237 C 
HETATM   11  H31 UNL     1     -33.277  17.245   0.816  1.00 20.00     0.281 HD
BRANCH   8  12
HETATM   12  C9  UNL     1     -35.056  16.238  -3.029  1.00 20.00     0.000 C 
HETATM   13  C7  UNL     1     -33.828  15.656  -3.651  1.00 20.00     0.005 C 
ENDBRANCH   8  12
ENDBRANCH   3   5
TORSDOF 2
ENDMDL
