MODEL 1
REMARK VINA RESULT:      -5.3      0.000      0.000
REMARK  1 active torsions:
REMARK  status: ('A' for Active; 'I' for Inactive)
REMARK    1  A    between atoms: C3_3  and  C6_6 
ROOT
HETATM    1  C1  UNL     1     -31.939   8.232   2.632  1.00 20.00     0.088 C 
HETATM    2  C2  UNL     1     -32.253   8.120   4.014  1.00 20.00     0.096 C 
HETATM    3  C3  UNL     1     -33.269   7.368   4.480  1.00 20.00    -0.070 C 
HETATM    4  C7  UNL     1     -33.635   7.219   5.913  1.00 20.00     0.044 C 
HETATM    5  N8  UNL     1     -31.679   8.325   1.504  1.00 20.00    -0.192 NA
ENDROOT
BRANCH   3   6
HETATM    6  C6  UNL     1     -34.130   6.598   3.509  1.00 20.00     0.015 A 
HETATM    7  C4  UNL     1     -33.830   5.159   3.333  1.00 20.00     0.010 A 
HETATM    8  C5  UNL     1     -35.057   5.594   4.077  1.00 20.00     0.010 A 
ENDBRANCH   3   6
TORSDOF 1
ENDMDL
MODEL 2
REMARK VINA RESULT:      -5.2      1.133      2.344
REMARK  1 active torsions:
REMARK  status: ('A' for Active; 'I' for Inactive)
REMARK    1  A    between atoms: C3_3  and  C6_6 
ROOT
HETATM    1  C1  UNL     1     -32.709   7.432   2.458  1.00 20.00     0.088 C 
HETATM    2  C2  UNL     1     -33.041   6.070   2.699  1.00 20.00     0.096 C 
HETATM    3  C3  UNL     1     -33.828   5.673   3.717  1.00 20.00    -0.070 C 
HETATM    4  C7  UNL     1     -34.202   4.265   4.009  1.00 20.00     0.044 C 
HETATM    5  N8  UNL     1     -32.437   8.542   2.257  1.00 20.00    -0.192 NA
ENDROOT
BRANCH   3   6
HETATM    6  C6  UNL     1     -34.397   6.702   4.662  1.00 20.00     0.015 A 
HETATM    7  C4  UNL     1     -34.621   6.283   6.064  1.00 20.00     0.010 A 
HETATM    8  C5  UNL     1     -33.500   7.218   5.720  1.00 20.00     0.010 A 
ENDBRANCH   3   6
TORSDOF 1
ENDMDL
MODEL 3
REMARK VINA RESULT:      -4.8      1.689      2.443
REMARK  1 active torsions:
REMARK  status: ('A' for Active; 'I' for Inactive)
REMARK    1  A    between atoms: C3_3  and  C6_6 
ROOT
HETATM    1  C1  UNL     1     -32.721   9.177   0.278  1.00 20.00     0.088 C 
HETATM    2  C2  UNL     1     -31.903   9.129   1.441  1.00 20.00     0.096 C 
HETATM    3  C3  UNL     1     -32.139   8.296   2.472  1.00 20.00    -0.070 C 
HETATM    4  C7  UNL     1     -31.315   8.209   3.706  1.00 20.00     0.044 C 
HETATM    5  N8  UNL     1     -33.385   9.219  -0.673  1.00 20.00    -0.192 NA
ENDROOT
BRANCH   3   6
HETATM    6  C6  UNL     1     -33.320   7.359   2.417  1.00 20.00     0.015 A 
HETATM    7  C4  UNL     1     -33.094   5.960   2.842  1.00 20.00     0.010 A 
HETATM    8  C5  UNL     1     -33.880   6.899   3.707  1.00 20.00     0.010 A 
ENDBRANCH   3   6
TORSDOF 1
ENDMDL
MODEL 4
REMARK VINA RESULT:      -4.3      2.394      3.509
REMARK  1 active torsions:
REMARK  status: ('A' for Active; 'I' for Inactive)
REMARK    1  A    between atoms: C3_3  and  C6_6 
ROOT
HETATM    1  C1  UNL     1     -34.437   4.648   4.690  1.00 20.00     0.088 C 
HETATM    2  C2  UNL     1     -34.341   5.871   5.408  1.00 20.00     0.096 C 
HETATM    3  C3  UNL     1     -33.627   6.926   4.972  1.00 20.00    -0.070 C 
HETATM    4  C7  UNL     1     -33.497   8.224   5.686  1.00 20.00     0.044 C 
HETATM    5  N8  UNL     1     -34.519   3.648   4.106  1.00 20.00    -0.192 NA
ENDROOT
BRANCH   3   6
HETATM    6  C6  UNL     1     -32.884   6.832   3.662  1.00 20.00     0.015 A 
HETATM    7  C4  UNL     1     -33.207   7.839   2.627  1.00 20.00     0.010 A 
HETATM    8  C5  UNL     1     -31.902   7.898   3.364  1.00 20.00     0.010 A 
ENDBRANCH   3   6
TORSDOF 1
ENDMDL
MODEL 5
REMARK VINA RESULT:      -4.3      2.361      3.526
REMARK  1 active torsions:
REMARK  status: ('A' for Active; 'I' for Inactive)
REMARK    1  A    between atoms: C3_3  and  C6_6 
ROOT
HETATM    1  C1  UNL     1     -33.898   4.510   3.677  1.00 20.00     0.088 C 
HETATM    2  C2  UNL     1     -33.147   5.491   2.972  1.00 20.00     0.096 C 
HETATM    3  C3  UNL     1     -33.164   6.799   3.290  1.00 20.00    -0.070 C 
HETATM    4  C7  UNL     1     -32.398   7.860   2.584  1.00 20.00     0.044 C 
HETATM    5  N8  UNL     1     -34.509   3.707   4.250  1.00 20.00    -0.192 NA
ENDROOT
BRANCH   3   6
HETATM    6  C6  UNL     1     -34.011   7.274   4.444  1.00 20.00     0.015 A 
HETATM    7  C4  UNL     1     -33.810   6.608   5.750  1.00 20.00     0.010 A 
HETATM    8  C5  UNL     1     -33.325   8.010   5.529  1.00 20.00     0.010 A 
ENDBRANCH   3   6
TORSDOF 1
ENDMDL
MODEL 6
REMARK VINA RESULT:      -4.0      2.214      3.708
REMARK  1 active torsions:
REMARK  status: ('A' for Active; 'I' for Inactive)
REMARK    1  A    between atoms: C3_3  and  C6_6 
ROOT
HETATM    1  C1  UNL     1     -33.985   6.875   5.610  1.00 20.00     0.088 C 
HETATM    2  C2  UNL     1     -33.894   5.994   4.496  1.00 20.00     0.096 C 
HETATM    3  C3  UNL     1     -33.433   6.378   3.290  1.00 20.00    -0.070 C 
HETATM    4  C7  UNL     1     -33.319   5.496   2.099  1.00 20.00     0.044 C 
HETATM    5  N8  UNL     1     -34.061   7.590   6.521  1.00 20.00    -0.192 NA
ENDROOT
BRANCH   3   6
HETATM    6  C6  UNL     1     -32.987   7.805   3.084  1.00 20.00     0.015 A 
HETATM    7  C4  UNL     1     -31.554   8.103   3.301  1.00 20.00     0.010 A 
HETATM    8  C5  UNL     1     -32.124   8.080   1.914  1.00 20.00     0.010 A 
ENDBRANCH   3   6
TORSDOF 1
ENDMDL
MODEL 7
REMARK VINA RESULT:      -3.9      2.327      3.071
REMARK  1 active torsions:
REMARK  status: ('A' for Active; 'I' for Inactive)
REMARK    1  A    between atoms: C3_3  and  C6_6 
ROOT
HETATM    1  C1  UNL     1     -34.020   6.858   5.591  1.00 20.00     0.088 C 
HETATM    2  C2  UNL     1     -33.161   7.531   4.679  1.00 20.00     0.096 C 
HETATM    3  C3  UNL     1     -33.020   7.162   3.392  1.00 20.00    -0.070 C 
HETATM    4  C7  UNL     1     -32.136   7.832   2.403  1.00 20.00     0.044 C 
HETATM    5  N8  UNL     1     -34.721   6.313   6.339  1.00 20.00    -0.192 NA
ENDROOT
BRANCH   3   6
HETATM    6  C6  UNL     1     -33.799   5.981   2.867  1.00 20.00     0.015 A 
HETATM    7  C4  UNL     1     -33.030   4.900   2.213  1.00 20.00     0.010 A 
HETATM    8  C5  UNL     1     -33.630   4.692   3.572  1.00 20.00     0.010 A 
ENDBRANCH   3   6
TORSDOF 1
ENDMDL
MODEL 8
REMARK VINA RESULT:      -3.9      1.992      3.675
REMARK  1 active torsions:
REMARK  status: ('A' for Active; 'I' for Inactive)
REMARK    1  A    between atoms: C3_3  and  C6_6 
ROOT
HETATM    1  C1  UNL     1     -34.292   6.488   3.751  1.00 20.00     0.088 C 
HETATM    2  C2  UNL     1     -33.092   7.111   4.194  1.00 20.00     0.096 C 
HETATM    3  C3  UNL     1     -32.311   7.857   3.390  1.00 20.00    -0.070 C 
HETATM    4  C7  UNL     1     -31.051   8.527   3.807  1.00 20.00     0.044 C 
HETATM    5  N8  UNL     1     -35.272   5.979   3.393  1.00 20.00    -0.192 NA
ENDROOT
BRANCH   3   6
HETATM    6  C6  UNL     1     -32.703   8.058   1.947  1.00 20.00     0.015 A 
HETATM    7  C4  UNL     1     -32.741   9.449   1.444  1.00 20.00     0.010 A 
HETATM    8  C5  UNL     1     -31.648   8.516   1.017  1.00 20.00     0.010 A 
ENDBRANCH   3   6
TORSDOF 1
ENDMDL
MODEL 9
REMARK VINA RESULT:      -3.8     11.331     11.915
REMARK  1 active torsions:
REMARK  status: ('A' for Active; 'I' for Inactive)
REMARK    1  A    between atoms: C3_3  and  C6_6 
ROOT
HETATM    1  C1  UNL     1     -36.804  13.964  -5.039  1.00 20.00     0.088 C 
HETATM    2  C2  UNL     1     -35.389  13.830  -5.084  1.00 20.00     0.096 C 
HETATM    3  C3  UNL     1     -34.554  14.589  -4.350  1.00 20.00    -0.070 C 
HETATM    4  C7  UNL     1     -33.071  14.486  -4.363  1.00 20.00     0.044 C 
HETATM    5  N8  UNL     1     -37.959  14.071  -5.004  1.00 20.00    -0.192 NA
ENDROOT
BRANCH   3   6
HETATM    6  C6  UNL     1     -35.120  15.641  -3.428  1.00 20.00     0.015 A 
HETATM    7  C4  UNL     1     -34.154  16.495  -2.702  1.00 20.00     0.010 A 
HETATM    8  C5  UNL     1     -34.962  17.054  -3.836  1.00 20.00     0.010 A 
ENDBRANCH   3   6
TORSDOF 1
ENDMDL
