MODEL 1
REMARK VINA RESULT:      -5.4      0.000      0.000
REMARK  2 active torsions:
REMARK  status: ('A' for Active; 'I' for Inactive)
REMARK    1  A    between atoms: C3_3  and  C8_8 
REMARK    2  A    between atoms: C7_7  and  C8_8 
ROOT
HETATM    1  C1  UNL     1     -31.910   8.468   1.880  1.00 20.00     0.088 C 
HETATM    2  C2  UNL     1     -32.241   7.971   3.171  1.00 20.00     0.096 C 
HETATM    3  C3  UNL     1     -33.135   6.990   3.404  1.00 20.00    -0.070 C 
HETATM    4  C4  UNL     1     -33.849   6.358   2.234  1.00 20.00     0.044 C 
HETATM    5  N9  UNL     1     -31.633   8.879   0.831  1.00 20.00    -0.192 NA
ENDROOT
BRANCH   3   6
HETATM    6  C8  UNL     1     -33.483   6.465   4.797  1.00 20.00     0.010 C 
HETATM    7  C6  UNL     1     -33.598   7.612   5.809  1.00 20.00     0.015 C 
BRANCH   6   8
HETATM    8  C7  UNL     1     -34.769   5.614   4.841  1.00 20.00     0.004 C 
HETATM    9  C5  UNL     1     -34.503   4.114   4.810  1.00 20.00     0.006 C 
ENDBRANCH   6   8
ENDBRANCH   3   6
TORSDOF 2
ENDMDL
MODEL 2
REMARK VINA RESULT:      -5.3      0.868      2.054
REMARK  2 active torsions:
REMARK  status: ('A' for Active; 'I' for Inactive)
REMARK    1  A    between atoms: C3_3  and  C8_8 
REMARK    2  A    between atoms: C7_7  and  C8_8 
ROOT
HETATM    1  C1  UNL     1     -32.449   8.063   2.264  1.00 20.00     0.088 C 
HETATM    2  C2  UNL     1     -33.358   7.545   3.227  1.00 20.00     0.096 C 
HETATM    3  C3  UNL     1     -33.593   6.233   3.427  1.00 20.00    -0.070 C 
HETATM    4  C4  UNL     1     -32.854   5.222   2.585  1.00 20.00     0.044 C 
HETATM    5  N9  UNL     1     -31.709   8.494   1.482  1.00 20.00    -0.192 NA
ENDROOT
BRANCH   3   6
HETATM    6  C8  UNL     1     -34.574   5.689   4.466  1.00 20.00     0.010 C 
HETATM    7  C6  UNL     1     -34.605   4.155   4.448  1.00 20.00     0.015 C 
BRANCH   6   8
HETATM    8  C7  UNL     1     -34.300   6.178   5.902  1.00 20.00     0.004 C 
HETATM    9  C5  UNL     1     -33.603   7.532   5.957  1.00 20.00     0.006 C 
ENDBRANCH   6   8
ENDBRANCH   3   6
TORSDOF 2
ENDMDL
MODEL 3
REMARK VINA RESULT:      -5.2      0.882      1.428
REMARK  2 active torsions:
REMARK  status: ('A' for Active; 'I' for Inactive)
REMARK    1  A    between atoms: C3_3  and  C8_8 
REMARK    2  A    between atoms: C7_7  and  C8_8 
ROOT
HETATM    1  C1  UNL     1     -32.456   8.757   1.279  1.00 20.00     0.088 C 
HETATM    2  C2  UNL     1     -33.070   7.874   2.207  1.00 20.00     0.096 C 
HETATM    3  C3  UNL     1     -32.609   7.632   3.450  1.00 20.00    -0.070 C 
HETATM    4  C4  UNL     1     -31.356   8.333   3.914  1.00 20.00     0.044 C 
HETATM    5  N9  UNL     1     -31.961   9.477   0.515  1.00 20.00    -0.192 NA
ENDROOT
BRANCH   3   6
HETATM    6  C8  UNL     1     -33.279   6.678   4.441  1.00 20.00     0.010 C 
HETATM    7  C6  UNL     1     -33.687   7.410   5.725  1.00 20.00     0.015 C 
BRANCH   6   8
HETATM    8  C7  UNL     1     -34.503   5.937   3.864  1.00 20.00     0.004 C 
HETATM    9  C5  UNL     1     -34.777   4.602   4.546  1.00 20.00     0.006 C 
ENDBRANCH   6   8
ENDBRANCH   3   6
TORSDOF 2
ENDMDL
MODEL 4
REMARK VINA RESULT:      -5.1      2.466      4.409
REMARK  2 active torsions:
REMARK  status: ('A' for Active; 'I' for Inactive)
REMARK    1  A    between atoms: C3_3  and  C8_8 
REMARK    2  A    between atoms: C7_7  and  C8_8 
ROOT
HETATM    1  C1  UNL     1     -34.142   4.856   3.895  1.00 20.00     0.088 C 
HETATM    2  C2  UNL     1     -33.510   5.938   3.224  1.00 20.00     0.096 C 
HETATM    3  C3  UNL     1     -33.241   7.132   3.788  1.00 20.00    -0.070 C 
HETATM    4  C4  UNL     1     -33.625   7.363   5.229  1.00 20.00     0.044 C 
HETATM    5  N9  UNL     1     -34.657   3.967   4.434  1.00 20.00    -0.192 NA
ENDROOT
BRANCH   3   6
HETATM    6  C8  UNL     1     -32.561   8.290   3.056  1.00 20.00     0.010 C 
HETATM    7  C6  UNL     1     -31.117   8.479   3.538  1.00 20.00     0.015 C 
BRANCH   6   8
HETATM    8  C7  UNL     1     -32.573   8.151   1.520  1.00 20.00     0.004 C 
HETATM    9  C5  UNL     1     -32.490   9.486   0.791  1.00 20.00     0.006 C 
ENDBRANCH   6   8
ENDBRANCH   3   6
TORSDOF 2
ENDMDL
MODEL 5
REMARK VINA RESULT:      -5.1      2.541      4.444
REMARK  2 active torsions:
REMARK  status: ('A' for Active; 'I' for Inactive)
REMARK    1  A    between atoms: C3_3  and  C8_8 
REMARK    2  A    between atoms: C7_7  and  C8_8 
ROOT
HETATM    1  C1  UNL     1     -34.377   5.888   5.332  1.00 20.00     0.088 C 
HETATM    2  C2  UNL     1     -33.747   7.027   4.760  1.00 20.00     0.096 C 
HETATM    3  C3  UNL     1     -33.258   7.078   3.505  1.00 20.00    -0.070 C 
HETATM    4  C4  UNL     1     -33.373   5.857   2.625  1.00 20.00     0.044 C 
HETATM    5  N9  UNL     1     -34.893   4.964   5.807  1.00 20.00    -0.192 NA
ENDROOT
BRANCH   3   6
HETATM    6  C8  UNL     1     -32.581   8.309   2.900  1.00 20.00     0.010 C 
HETATM    7  C6  UNL     1     -31.157   8.481   3.445  1.00 20.00     0.015 C 
BRANCH   6   8
HETATM    8  C7  UNL     1     -32.542   8.307   1.358  1.00 20.00     0.004 C 
HETATM    9  C5  UNL     1     -32.549   9.704   0.752  1.00 20.00     0.006 C 
ENDBRANCH   6   8
ENDBRANCH   3   6
TORSDOF 2
ENDMDL
MODEL 6
REMARK VINA RESULT:      -4.7      2.410      4.790
REMARK  2 active torsions:
REMARK  status: ('A' for Active; 'I' for Inactive)
REMARK    1  A    between atoms: C3_3  and  C8_8 
REMARK    2  A    between atoms: C7_7  and  C8_8 
ROOT
HETATM    1  C1  UNL     1     -33.776   6.117   3.174  1.00 20.00     0.088 C 
HETATM    2  C2  UNL     1     -33.301   7.108   2.273  1.00 20.00     0.096 C 
HETATM    3  C3  UNL     1     -32.407   8.064   2.593  1.00 20.00    -0.070 C 
HETATM    4  C4  UNL     1     -31.855   8.109   3.997  1.00 20.00     0.044 C 
HETATM    5  N9  UNL     1     -34.169   5.304   3.902  1.00 20.00    -0.192 NA
ENDROOT
BRANCH   3   6
HETATM    6  C8  UNL     1     -31.904   9.127   1.614  1.00 20.00     0.010 C 
HETATM    7  C6  UNL     1     -31.102   8.491   0.471  1.00 20.00     0.015 C 
BRANCH   6   8
HETATM    8  C7  UNL     1     -33.020  10.012   1.025  1.00 20.00     0.004 C 
HETATM    9  C5  UNL     1     -33.348   9.686  -0.427  1.00 20.00     0.006 C 
ENDBRANCH   6   8
ENDBRANCH   3   6
TORSDOF 2
ENDMDL
MODEL 7
REMARK VINA RESULT:      -4.7      0.967      1.984
REMARK  2 active torsions:
REMARK  status: ('A' for Active; 'I' for Inactive)
REMARK    1  A    between atoms: C3_3  and  C8_8 
REMARK    2  A    between atoms: C7_7  and  C8_8 
ROOT
HETATM    1  C1  UNL     1     -32.172   8.009   2.657  1.00 20.00     0.088 C 
HETATM    2  C2  UNL     1     -33.257   7.188   3.068  1.00 20.00     0.096 C 
HETATM    3  C3  UNL     1     -33.677   7.060   4.342  1.00 20.00    -0.070 C 
HETATM    4  C4  UNL     1     -32.964   7.829   5.428  1.00 20.00     0.044 C 
HETATM    5  N9  UNL     1     -31.288   8.677   2.313  1.00 20.00    -0.192 NA
ENDROOT
BRANCH   3   6
HETATM    6  C8  UNL     1     -34.846   6.173   4.772  1.00 20.00     0.010 C 
HETATM    7  C6  UNL     1     -35.786   5.886   3.594  1.00 20.00     0.015 C 
BRANCH   6   8
HETATM    8  C7  UNL     1     -34.416   4.841   5.419  1.00 20.00     0.004 C 
HETATM    9  C5  UNL     1     -33.975   3.792   4.406  1.00 20.00     0.006 C 
ENDBRANCH   6   8
ENDBRANCH   3   6
TORSDOF 2
ENDMDL
MODEL 8
REMARK VINA RESULT:      -4.5     11.099     11.793
REMARK  2 active torsions:
REMARK  status: ('A' for Active; 'I' for Inactive)
REMARK    1  A    between atoms: C3_3  and  C8_8 
REMARK    2  A    between atoms: C7_7  and  C8_8 
ROOT
HETATM    1  C1  UNL     1     -35.648  13.744  -4.866  1.00 20.00     0.088 C 
HETATM    2  C2  UNL     1     -35.329  14.919  -4.132  1.00 20.00     0.096 C 
HETATM    3  C3  UNL     1     -34.076  15.308  -3.823  1.00 20.00    -0.070 C 
HETATM    4  C4  UNL     1     -32.914  14.456  -4.274  1.00 20.00     0.044 C 
HETATM    5  N9  UNL     1     -35.918  12.788  -5.465  1.00 20.00    -0.192 NA
ENDROOT
BRANCH   3   6
HETATM    6  C8  UNL     1     -33.745  16.574  -3.032  1.00 20.00     0.010 C 
HETATM    7  C6  UNL     1     -33.732  17.808  -3.942  1.00 20.00     0.015 C 
BRANCH   6   8
HETATM    8  C7  UNL     1     -34.686  16.829  -1.837  1.00 20.00     0.004 C 
HETATM    9  C5  UNL     1     -34.067  17.705  -0.756  1.00 20.00     0.006 C 
ENDBRANCH   6   8
ENDBRANCH   3   6
TORSDOF 2
ENDMDL
MODEL 9
REMARK VINA RESULT:      -4.4     11.044     11.863
REMARK  2 active torsions:
REMARK  status: ('A' for Active; 'I' for Inactive)
REMARK    1  A    between atoms: C3_3  and  C8_8 
REMARK    2  A    between atoms: C7_7  and  C8_8 
ROOT
HETATM    1  C1  UNL     1     -35.251  13.699  -4.709  1.00 20.00     0.088 C 
HETATM    2  C2  UNL     1     -34.388  14.598  -4.024  1.00 20.00     0.096 C 
HETATM    3  C3  UNL     1     -34.794  15.730  -3.415  1.00 20.00    -0.070 C 
HETATM    4  C4  UNL     1     -36.258  16.093  -3.447  1.00 20.00     0.044 C 
HETATM    5  N9  UNL     1     -35.947  12.960  -5.270  1.00 20.00    -0.192 NA
ENDROOT
BRANCH   3   6
HETATM    6  C8  UNL     1     -33.856  16.689  -2.681  1.00 20.00     0.010 C 
HETATM    7  C6  UNL     1     -33.505  17.899  -3.557  1.00 20.00     0.015 C 
BRANCH   6   8
HETATM    8  C7  UNL     1     -34.401  17.181  -1.325  1.00 20.00     0.004 C 
HETATM    9  C5  UNL     1     -33.463  18.146  -0.611  1.00 20.00     0.006 C 
ENDBRANCH   6   8
ENDBRANCH   3   6
TORSDOF 2
ENDMDL
