MODEL 1
REMARK VINA RESULT:      -5.2      0.000      0.000
REMARK  5 active torsions:
REMARK  status: ('A' for Active; 'I' for Inactive)
REMARK    1  A    between atoms: C3_3  and  C7_7 
REMARK    2  A    between atoms: C4_4  and  C5_5 
REMARK    3  A    between atoms: C4_4  and  C6_6 
REMARK    4  A    between atoms: C5_5  and  C7_7 
REMARK    5  A    between atoms: C6_6  and  O8_8 
ROOT
HETATM    1  C5  UNL     1     -32.918   6.759   3.209  1.00 20.00     0.022 C 
ENDROOT
BRANCH   1   2
HETATM    2  C4  UNL     1     -31.993   7.983   3.138  1.00 20.00     0.028 C 
BRANCH   2   3
HETATM    3  C6  UNL     1     -31.790   8.466   1.706  1.00 20.00     0.167 C 
BRANCH   3   4
HETATM    4  O8  UNL     1     -32.618   9.592   1.451  1.00 20.00    -0.396 OA
HETATM    5  C2  UNL     1     -32.918   9.716   0.067  1.00 20.00     0.201 C 
ENDBRANCH   3   4
ENDBRANCH   2   3
ENDBRANCH   1   2
BRANCH   1   6
HETATM    6  C7  UNL     1     -34.139   6.969   4.118  1.00 20.00     0.082 C 
HETATM    7 CL9  UNL     1     -33.618   7.261   5.809  1.00 20.00    -0.125 Cl
BRANCH   6   8
HETATM    8  C3  UNL     1     -35.079   5.756   4.053  1.00 20.00     0.016 C 
HETATM    9  C1  UNL     1     -34.469   4.481   4.622  1.00 20.00     0.006 C 
ENDBRANCH   6   8
ENDBRANCH   1   6
TORSDOF 5
ENDMDL
MODEL 2
REMARK VINA RESULT:      -4.6      1.642      1.642
REMARK  5 active torsions:
REMARK  status: ('A' for Active; 'I' for Inactive)
REMARK    1  A    between atoms: C3_3  and  C7_7 
REMARK    2  A    between atoms: C4_4  and  C5_5 
REMARK    3  A    between atoms: C4_4  and  C6_6 
REMARK    4  A    between atoms: C5_5  and  C7_7 
REMARK    5  A    between atoms: C6_6  and  O8_8 
ROOT
HETATM    1  C5  UNL     1     -33.414   7.507   3.114  1.00 20.00     0.022 C 
ENDROOT
BRANCH   1   2
HETATM    2  C4  UNL     1     -32.079   7.891   2.460  1.00 20.00     0.028 C 
BRANCH   2   3
HETATM    3  C6  UNL     1     -32.154   9.241   1.754  1.00 20.00     0.167 C 
BRANCH   3   4
HETATM    4  O8  UNL     1     -31.909   9.077   0.364  1.00 20.00    -0.396 OA
HETATM    5  C2  UNL     1     -33.059   9.394  -0.409  1.00 20.00     0.201 C 
ENDBRANCH   3   4
ENDBRANCH   2   3
ENDBRANCH   1   2
BRANCH   1   6
HETATM    6  C7  UNL     1     -33.403   6.106   3.747  1.00 20.00     0.082 C 
HETATM    7 CL9  UNL     1     -32.982   4.868   2.521  1.00 20.00    -0.125 Cl
BRANCH   6   8
HETATM    8  C3  UNL     1     -34.766   5.787   4.380  1.00 20.00     0.016 C 
HETATM    9  C1  UNL     1     -34.667   4.968   5.660  1.00 20.00     0.006 C 
ENDBRANCH   6   8
ENDBRANCH   1   6
TORSDOF 5
ENDMDL
MODEL 3
REMARK VINA RESULT:      -4.5      1.504      1.760
REMARK  5 active torsions:
REMARK  status: ('A' for Active; 'I' for Inactive)
REMARK    1  A    between atoms: C3_3  and  C7_7 
REMARK    2  A    between atoms: C4_4  and  C5_5 
REMARK    3  A    between atoms: C4_4  and  C6_6 
REMARK    4  A    between atoms: C5_5  and  C7_7 
REMARK    5  A    between atoms: C6_6  and  O8_8 
ROOT
HETATM    1  C5  UNL     1     -32.977   6.881   2.418  1.00 20.00     0.022 C 
ENDROOT
BRANCH   1   2
HETATM    2  C4  UNL     1     -32.003   8.058   2.573  1.00 20.00     0.028 C 
BRANCH   2   3
HETATM    3  C6  UNL     1     -31.727   8.753   1.244  1.00 20.00     0.167 C 
BRANCH   3   4
HETATM    4  O8  UNL     1     -32.826   9.582   0.891  1.00 20.00    -0.396 OA
HETATM    5  C2  UNL     1     -33.160   9.448  -0.484  1.00 20.00     0.201 C 
ENDBRANCH   3   4
ENDBRANCH   2   3
ENDBRANCH   1   2
BRANCH   1   6
HETATM    6  C7  UNL     1     -33.525   6.362   3.757  1.00 20.00     0.082 C 
HETATM    7 CL9  UNL     1     -35.255   5.918   3.595  1.00 20.00    -0.125 Cl
BRANCH   6   8
HETATM    8  C3  UNL     1     -33.347   7.415   4.860  1.00 20.00     0.016 C 
HETATM    9  C1  UNL     1     -34.005   7.033   6.180  1.00 20.00     0.006 C 
ENDBRANCH   6   8
ENDBRANCH   1   6
TORSDOF 5
ENDMDL
MODEL 4
REMARK VINA RESULT:      -4.5      2.352      4.683
REMARK  5 active torsions:
REMARK  status: ('A' for Active; 'I' for Inactive)
REMARK    1  A    between atoms: C3_3  and  C7_7 
REMARK    2  A    between atoms: C4_4  and  C5_5 
REMARK    3  A    between atoms: C4_4  and  C6_6 
REMARK    4  A    between atoms: C5_5  and  C7_7 
REMARK    5  A    between atoms: C6_6  and  O8_8 
ROOT
HETATM    1  C5  UNL     1     -33.359   7.382   2.069  1.00 20.00     0.022 C 
ENDROOT
BRANCH   1   2
HETATM    2  C4  UNL     1     -33.297   6.212   3.062  1.00 20.00     0.028 C 
BRANCH   2   3
HETATM    3  C6  UNL     1     -34.604   6.041   3.829  1.00 20.00     0.167 C 
BRANCH   3   4
HETATM    4  O8  UNL     1     -34.334   5.839   5.209  1.00 20.00    -0.396 OA
HETATM    5  C2  UNL     1     -33.916   7.043   5.840  1.00 20.00     0.201 C 
ENDBRANCH   3   4
ENDBRANCH   2   3
ENDBRANCH   1   2
BRANCH   1   6
HETATM    6  C7  UNL     1     -32.064   8.206   2.015  1.00 20.00     0.082 C 
HETATM    7 CL9  UNL     1     -31.361   8.377   3.656  1.00 20.00    -0.125 Cl
BRANCH   6   8
HETATM    8  C3  UNL     1     -32.327   9.591   1.403  1.00 20.00     0.016 C 
HETATM    9  C1  UNL     1     -32.939   9.535   0.009  1.00 20.00     0.006 C 
ENDBRANCH   6   8
ENDBRANCH   1   6
TORSDOF 5
ENDMDL
MODEL 5
REMARK VINA RESULT:      -4.4      1.752      2.048
REMARK  5 active torsions:
REMARK  status: ('A' for Active; 'I' for Inactive)
REMARK    1  A    between atoms: C3_3  and  C7_7 
REMARK    2  A    between atoms: C4_4  and  C5_5 
REMARK    3  A    between atoms: C4_4  and  C6_6 
REMARK    4  A    between atoms: C5_5  and  C7_7 
REMARK    5  A    between atoms: C6_6  and  O8_8 
ROOT
HETATM    1  C5  UNL     1     -33.879   6.287   3.062  1.00 20.00     0.022 C 
ENDROOT
BRANCH   1   2
HETATM    2  C4  UNL     1     -32.567   6.856   2.501  1.00 20.00     0.028 C 
BRANCH   2   3
HETATM    3  C6  UNL     1     -32.586   8.379   2.429  1.00 20.00     0.167 C 
BRANCH   3   4
HETATM    4  O8  UNL     1     -32.598   8.801   1.073  1.00 20.00    -0.396 OA
HETATM    5  C2  UNL     1     -32.654  10.218   0.968  1.00 20.00     0.201 C 
ENDBRANCH   3   4
ENDBRANCH   2   3
ENDBRANCH   1   2
BRANCH   1   6
HETATM    6  C7  UNL     1     -33.699   5.539   4.393  1.00 20.00     0.082 C 
HETATM    7 CL9  UNL     1     -34.344   3.870   4.264  1.00 20.00    -0.125 Cl
BRANCH   6   8
HETATM    8  C3  UNL     1     -34.397   6.291   5.536  1.00 20.00     0.016 C 
HETATM    9  C1  UNL     1     -33.620   7.504   6.031  1.00 20.00     0.006 C 
ENDBRANCH   6   8
ENDBRANCH   1   6
TORSDOF 5
ENDMDL
MODEL 6
REMARK VINA RESULT:      -4.2      2.351      4.745
REMARK  5 active torsions:
REMARK  status: ('A' for Active; 'I' for Inactive)
REMARK    1  A    between atoms: C3_3  and  C7_7 
REMARK    2  A    between atoms: C4_4  and  C5_5 
REMARK    3  A    between atoms: C4_4  and  C6_6 
REMARK    4  A    between atoms: C5_5  and  C7_7 
REMARK    5  A    between atoms: C6_6  and  O8_8 
ROOT
HETATM    1  C5  UNL     1     -33.405   7.046   3.082  1.00 20.00     0.022 C 
ENDROOT
BRANCH   1   2
HETATM    2  C4  UNL     1     -33.733   7.377   4.545  1.00 20.00     0.028 C 
BRANCH   2   3
HETATM    3  C6  UNL     1     -34.327   6.184   5.285  1.00 20.00     0.167 C 
BRANCH   3   4
HETATM    4  O8  UNL     1     -34.906   5.277   4.358  1.00 20.00    -0.396 OA
HETATM    5  C2  UNL     1     -34.280   4.002   4.415  1.00 20.00     0.201 C 
ENDBRANCH   3   4
ENDBRANCH   2   3
ENDBRANCH   1   2
BRANCH   1   6
HETATM    6  C7  UNL     1     -32.221   7.851   2.524  1.00 20.00     0.082 C 
HETATM    7 CL9  UNL     1     -31.154   8.400   3.856  1.00 20.00    -0.125 Cl
BRANCH   6   8
HETATM    8  C3  UNL     1     -32.719   9.055   1.711  1.00 20.00     0.016 C 
HETATM    9  C1  UNL     1     -32.007   9.226   0.375  1.00 20.00     0.006 C 
ENDBRANCH   6   8
ENDBRANCH   1   6
TORSDOF 5
ENDMDL
MODEL 7
REMARK VINA RESULT:      -4.2      2.681      4.633
REMARK  5 active torsions:
REMARK  status: ('A' for Active; 'I' for Inactive)
REMARK    1  A    between atoms: C3_3  and  C7_7 
REMARK    2  A    between atoms: C4_4  and  C5_5 
REMARK    3  A    between atoms: C4_4  and  C6_6 
REMARK    4  A    between atoms: C5_5  and  C7_7 
REMARK    5  A    between atoms: C6_6  and  O8_8 
ROOT
HETATM    1  C5  UNL     1     -34.813   5.990   3.452  1.00 20.00     0.022 C 
ENDROOT
BRANCH   1   2
HETATM    2  C4  UNL     1     -34.758   4.799   4.420  1.00 20.00     0.028 C 
BRANCH   2   3
HETATM    3  C6  UNL     1     -34.382   5.225   5.834  1.00 20.00     0.167 C 
BRANCH   3   4
HETATM    4  O8  UNL     1     -34.682   6.600   6.023  1.00 20.00    -0.396 OA
HETATM    5  C2  UNL     1     -33.499   7.380   6.144  1.00 20.00     0.201 C 
ENDBRANCH   3   4
ENDBRANCH   2   3
ENDBRANCH   1   2
BRANCH   1   6
HETATM    6  C7  UNL     1     -33.606   6.063   2.504  1.00 20.00     0.082 C 
HETATM    7 CL9  UNL     1     -32.793   4.468   2.401  1.00 20.00    -0.125 Cl
BRANCH   6   8
HETATM    8  C3  UNL     1     -32.613   7.138   2.972  1.00 20.00     0.016 C 
HETATM    9  C1  UNL     1     -32.476   8.305   2.003  1.00 20.00     0.006 C 
ENDBRANCH   6   8
ENDBRANCH   1   6
TORSDOF 5
ENDMDL
MODEL 8
REMARK VINA RESULT:      -4.0      2.519      4.913
REMARK  5 active torsions:
REMARK  status: ('A' for Active; 'I' for Inactive)
REMARK    1  A    between atoms: C3_3  and  C7_7 
REMARK    2  A    between atoms: C4_4  and  C5_5 
REMARK    3  A    between atoms: C4_4  and  C6_6 
REMARK    4  A    between atoms: C5_5  and  C7_7 
REMARK    5  A    between atoms: C6_6  and  O8_8 
ROOT
HETATM    1  C5  UNL     1     -31.843   8.457   2.674  1.00 20.00     0.022 C 
ENDROOT
BRANCH   1   2
HETATM    2  C4  UNL     1     -32.930   7.379   2.557  1.00 20.00     0.028 C 
BRANCH   2   3
HETATM    3  C6  UNL     1     -33.635   7.129   3.886  1.00 20.00     0.167 C 
BRANCH   3   4
HETATM    4  O8  UNL     1     -34.580   6.078   3.745  1.00 20.00    -0.396 OA
HETATM    5  C2  UNL     1     -34.698   5.318   4.940  1.00 20.00     0.201 C 
ENDBRANCH   3   4
ENDBRANCH   2   3
ENDBRANCH   1   2
BRANCH   1   6
HETATM    6  C7  UNL     1     -31.788   9.403   1.463  1.00 20.00     0.082 C 
HETATM    7 CL9  UNL     1     -32.869  10.811   1.721  1.00 20.00    -0.125 Cl
BRANCH   6   8
HETATM    8  C3  UNL     1     -32.180   8.660   0.177  1.00 20.00     0.016 C 
HETATM    9  C1  UNL     1     -33.229   9.389  -0.653  1.00 20.00     0.006 C 
ENDBRANCH   6   8
ENDBRANCH   1   6
TORSDOF 5
ENDMDL
MODEL 9
REMARK VINA RESULT:      -3.8     10.759     11.469
REMARK  5 active torsions:
REMARK  status: ('A' for Active; 'I' for Inactive)
REMARK    1  A    between atoms: C3_3  and  C7_7 
REMARK    2  A    between atoms: C4_4  and  C5_5 
REMARK    3  A    between atoms: C4_4  and  C6_6 
REMARK    4  A    between atoms: C5_5  and  C7_7 
REMARK    5  A    between atoms: C6_6  and  O8_8 
ROOT
HETATM    1  C5  UNL     1     -35.385  15.438  -4.010  1.00 20.00     0.022 C 
ENDROOT
BRANCH   1   2
HETATM    2  C4  UNL     1     -34.975  14.010  -4.397  1.00 20.00     0.028 C 
BRANCH   2   3
HETATM    3  C6  UNL     1     -35.985  13.357  -5.334  1.00 20.00     0.167 C 
BRANCH   3   4
HETATM    4  O8  UNL     1     -35.309  12.588  -6.318  1.00 20.00    -0.396 OA
HETATM    5  C2  UNL     1     -34.631  13.417  -7.253  1.00 20.00     0.201 C 
ENDBRANCH   3   4
ENDBRANCH   2   3
ENDBRANCH   1   2
BRANCH   1   6
HETATM    6  C7  UNL     1     -34.225  16.445  -4.077  1.00 20.00     0.082 C 
HETATM    7 CL9  UNL     1     -32.909  15.817  -5.120  1.00 20.00    -0.125 Cl
BRANCH   6   8
HETATM    8  C3  UNL     1     -33.689  16.748  -2.669  1.00 20.00     0.016 C 
HETATM    9  C1  UNL     1     -34.780  16.869  -1.613  1.00 20.00     0.006 C 
ENDBRANCH   6   8
ENDBRANCH   1   6
TORSDOF 5
ENDMDL
