MODEL 1
REMARK VINA RESULT:      -5.6      0.000      0.000
REMARK  3 active torsions:
REMARK  status: ('A' for Active; 'I' for Inactive)
REMARK    1  A    between atoms: C5_5  and  C9_9 
REMARK    2  A    between atoms: C6_6  and  C10_10 
REMARK    3  A    between atoms: C9_9  and  C11_11 
ROOT
HETATM    1  C1  UNL     1     -33.160   4.910   2.866  1.00 20.00     0.131 C 
HETATM    2  C2  UNL     1     -33.724   4.072   3.993  1.00 20.00     0.079 C 
HETATM    3  C3  UNL     1     -35.033   4.664   4.499  1.00 20.00     0.012 C 
HETATM    4  C4  UNL     1     -34.371   6.946   3.662  1.00 20.00     0.016 C 
HETATM    5  C5  UNL     1     -33.035   6.406   3.137  1.00 20.00     0.055 C 
HETATM    6  C6  UNL     1     -34.924   6.153   4.857  1.00 20.00    -0.014 C 
HETATM    7  O12 UNL     1     -32.744   4.383   1.835  1.00 20.00    -0.298 OA
ENDROOT
BRANCH   5   8
HETATM    8  C9  UNL     1     -32.604   7.169   1.887  1.00 20.00     0.012 C 
BRANCH   8   9
HETATM    9  C11 UNL     1     -32.062   8.549   2.241  1.00 20.00    -0.004 C 
HETATM   10  C8  UNL     1     -32.359   9.557   1.141  1.00 20.00     0.005 C 
ENDBRANCH   8   9
ENDBRANCH   5   8
BRANCH   6  11
HETATM   11  C10 UNL     1     -34.103   6.380   6.129  1.00 20.00     0.000 C 
HETATM   12  C7  UNL     1     -33.441   7.717   6.123  1.00 20.00     0.005 C 
ENDBRANCH   6  11
TORSDOF 3
ENDMDL
MODEL 2
REMARK VINA RESULT:      -4.7     11.526     13.419
REMARK  3 active torsions:
REMARK  status: ('A' for Active; 'I' for Inactive)
REMARK    1  A    between atoms: C5_5  and  C9_9 
REMARK    2  A    between atoms: C6_6  and  C10_10 
REMARK    3  A    between atoms: C9_9  and  C11_11 
ROOT
HETATM    1  C1  UNL     1     -35.376  13.821  -5.792  1.00 20.00     0.131 C 
HETATM    2  C2  UNL     1     -35.380  13.741  -7.303  1.00 20.00     0.079 C 
HETATM    3  C3  UNL     1     -34.041  14.196  -7.869  1.00 20.00     0.012 C 
HETATM    4  C4  UNL     1     -33.592  15.571  -5.806  1.00 20.00     0.016 C 
HETATM    5  C5  UNL     1     -34.932  15.150  -5.189  1.00 20.00     0.055 C 
HETATM    6  C6  UNL     1     -33.598  15.569  -7.343  1.00 20.00    -0.014 C 
HETATM    7  O12 UNL     1     -35.801  12.890  -5.110  1.00 20.00    -0.298 OA
ENDROOT
BRANCH   5   8
HETATM    8  C9  UNL     1     -34.819  15.068  -3.670  1.00 20.00     0.012 C 
BRANCH   8   9
HETATM    9  C11 UNL     1     -34.045  16.255  -3.107  1.00 20.00    -0.004 C 
HETATM   10  C8  UNL     1     -34.721  16.816  -1.866  1.00 20.00     0.005 C 
ENDBRANCH   8   9
ENDBRANCH   5   8
BRANCH   6  11
HETATM   11  C10 UNL     1     -34.448  16.705  -7.917  1.00 20.00     0.000 C 
HETATM   12  C7  UNL     1     -34.054  18.027  -7.349  1.00 20.00     0.005 C 
ENDBRANCH   6  11
TORSDOF 3
ENDMDL
MODEL 3
REMARK VINA RESULT:      -4.6     11.827     13.027
REMARK  3 active torsions:
REMARK  status: ('A' for Active; 'I' for Inactive)
REMARK    1  A    between atoms: C5_5  and  C9_9 
REMARK    2  A    between atoms: C6_6  and  C10_10 
REMARK    3  A    between atoms: C9_9  and  C11_11 
ROOT
HETATM    1  C1  UNL     1     -33.588  17.780  -4.066  1.00 20.00     0.131 C 
HETATM    2  C2  UNL     1     -34.131  17.206  -5.357  1.00 20.00     0.079 C 
HETATM    3  C3  UNL     1     -35.530  16.641  -5.149  1.00 20.00     0.012 C 
HETATM    4  C4  UNL     1     -35.074  16.311  -2.693  1.00 20.00     0.016 C 
HETATM    5  C5  UNL     1     -33.653  16.867  -2.845  1.00 20.00     0.055 C 
HETATM    6  C6  UNL     1     -35.615  15.656  -3.975  1.00 20.00    -0.014 C 
HETATM    7  O12 UNL     1     -33.046  18.883  -4.044  1.00 20.00    -0.298 OA
ENDROOT
BRANCH   5   8
HETATM    8  C9  UNL     1     -33.225  17.597  -1.575  1.00 20.00     0.012 C 
BRANCH   8   9
HETATM    9  C11 UNL     1     -34.372  17.684  -0.574  1.00 20.00    -0.004 C 
HETATM   10  C8  UNL     1     -33.963  18.463   0.666  1.00 20.00     0.005 C 
ENDBRANCH   8   9
ENDBRANCH   5   8
BRANCH   6  11
HETATM   11  C10 UNL     1     -34.914  14.331  -4.285  1.00 20.00     0.000 C 
HETATM   12  C7  UNL     1     -35.756  13.456  -5.152  1.00 20.00     0.005 C 
ENDBRANCH   6  11
TORSDOF 3
ENDMDL
MODEL 4
REMARK VINA RESULT:      -4.6     11.966     13.054
REMARK  3 active torsions:
REMARK  status: ('A' for Active; 'I' for Inactive)
REMARK    1  A    between atoms: C5_5  and  C9_9 
REMARK    2  A    between atoms: C6_6  and  C10_10 
REMARK    3  A    between atoms: C9_9  and  C11_11 
ROOT
HETATM    1  C1  UNL     1     -34.933  17.737  -0.095  1.00 20.00     0.131 C 
HETATM    2  C2  UNL     1     -35.669  17.216  -1.309  1.00 20.00     0.079 C 
HETATM    3  C3  UNL     1     -34.710  16.509  -2.258  1.00 20.00     0.012 C 
HETATM    4  C4  UNL     1     -32.770  17.832  -1.345  1.00 20.00     0.016 C 
HETATM    5  C5  UNL     1     -33.690  18.579  -0.372  1.00 20.00     0.055 C 
HETATM    6  C6  UNL     1     -33.484  17.359  -2.621  1.00 20.00    -0.014 C 
HETATM    7  O12 UNL     1     -35.378  17.562   1.037  1.00 20.00    -0.298 OA
ENDROOT
BRANCH   5   8
HETATM    8  C9  UNL     1     -32.945  18.920   0.915  1.00 20.00     0.012 C 
BRANCH   8   9
HETATM    9  C11 UNL     1     -31.439  18.752   0.744  1.00 20.00    -0.004 C 
HETATM   10  C8  UNL     1     -30.732  18.710   2.089  1.00 20.00     0.005 C 
ENDBRANCH   8   9
ENDBRANCH   5   8
BRANCH   6  11
HETATM   11  C10 UNL     1     -33.847  18.525  -3.544  1.00 20.00     0.000 C 
HETATM   12  C7  UNL     1     -33.812  18.119  -4.980  1.00 20.00     0.005 C 
ENDBRANCH   6  11
TORSDOF 3
ENDMDL
MODEL 5
REMARK VINA RESULT:      -4.6     11.481     12.595
REMARK  3 active torsions:
REMARK  status: ('A' for Active; 'I' for Inactive)
REMARK    1  A    between atoms: C5_5  and  C9_9 
REMARK    2  A    between atoms: C6_6  and  C10_10 
REMARK    3  A    between atoms: C9_9  and  C11_11 
ROOT
HETATM    1  C1  UNL     1     -34.850  17.146  -1.432  1.00 20.00     0.131 C 
HETATM    2  C2  UNL     1     -34.731  17.691  -0.026  1.00 20.00     0.079 C 
HETATM    3  C3  UNL     1     -34.066  19.061  -0.034  1.00 20.00     0.012 C 
HETATM    4  C4  UNL     1     -32.933  18.542  -2.224  1.00 20.00     0.016 C 
HETATM    5  C5  UNL     1     -33.572  17.148  -2.265  1.00 20.00     0.055 C 
HETATM    6  C6  UNL     1     -32.734  19.081  -0.798  1.00 20.00    -0.014 C 
HETATM    7  O12 UNL     1     -35.902  16.650  -1.829  1.00 20.00    -0.298 OA
ENDROOT
BRANCH   5   8
HETATM    8  C9  UNL     1     -33.841  16.724  -3.706  1.00 20.00     0.012 C 
BRANCH   8   9
HETATM    9  C11 UNL     1     -33.398  15.286  -3.952  1.00 20.00    -0.004 C 
HETATM   10  C8  UNL     1     -34.592  14.375  -4.192  1.00 20.00     0.005 C 
ENDBRANCH   8   9
ENDBRANCH   5   8
BRANCH   6  11
HETATM   11  C10 UNL     1     -31.630  18.333  -0.048  1.00 20.00     0.000 C 
HETATM   12  C7  UNL     1     -31.355  18.950   1.283  1.00 20.00     0.005 C 
ENDBRANCH   6  11
TORSDOF 3
ENDMDL
MODEL 6
REMARK VINA RESULT:      -4.6     11.332     12.452
REMARK  3 active torsions:
REMARK  status: ('A' for Active; 'I' for Inactive)
REMARK    1  A    between atoms: C5_5  and  C9_9 
REMARK    2  A    between atoms: C6_6  and  C10_10 
REMARK    3  A    between atoms: C9_9  and  C11_11 
ROOT
HETATM    1  C1  UNL     1     -34.673  14.237  -4.356  1.00 20.00     0.131 C 
HETATM    2  C2  UNL     1     -35.836  13.519  -5.006  1.00 20.00     0.079 C 
HETATM    3  C3  UNL     1     -36.496  14.405  -6.054  1.00 20.00     0.012 C 
HETATM    4  C4  UNL     1     -35.643  16.476  -4.900  1.00 20.00     0.016 C 
HETATM    5  C5  UNL     1     -34.962  15.633  -3.814  1.00 20.00     0.055 C 
HETATM    6  C6  UNL     1     -36.873  15.794  -5.520  1.00 20.00    -0.014 C 
HETATM    7  O12 UNL     1     -33.592  13.673  -4.199  1.00 20.00    -0.298 OA
ENDROOT
BRANCH   5   8
HETATM    8  C9  UNL     1     -33.690  16.320  -3.323  1.00 20.00     0.012 C 
BRANCH   8   9
HETATM    9  C11 UNL     1     -33.915  17.009  -1.982  1.00 20.00    -0.004 C 
HETATM   10  C8  UNL     1     -35.333  16.788  -1.480  1.00 20.00     0.005 C 
ENDBRANCH   8   9
ENDBRANCH   5   8
BRANCH   6  11
HETATM   11  C10 UNL     1     -38.052  15.734  -4.545  1.00 20.00     0.000 C 
HETATM   12  C7  UNL     1     -39.242  15.081  -5.164  1.00 20.00     0.005 C 
ENDBRANCH   6  11
TORSDOF 3
ENDMDL
MODEL 7
REMARK VINA RESULT:      -4.5     11.683     12.617
REMARK  3 active torsions:
REMARK  status: ('A' for Active; 'I' for Inactive)
REMARK    1  A    between atoms: C5_5  and  C9_9 
REMARK    2  A    between atoms: C6_6  and  C10_10 
REMARK    3  A    between atoms: C9_9  and  C11_11 
ROOT
HETATM    1  C1  UNL     1     -33.066  18.336  -0.647  1.00 20.00     0.131 C 
HETATM    2  C2  UNL     1     -33.478  19.108   0.587  1.00 20.00     0.079 C 
HETATM    3  C3  UNL     1     -34.513  18.330   1.388  1.00 20.00     0.012 C 
HETATM    4  C4  UNL     1     -35.221  17.070  -0.676  1.00 20.00     0.016 C 
HETATM    5  C5  UNL     1     -34.199  17.828  -1.533  1.00 20.00     0.055 C 
HETATM    6  C6  UNL     1     -35.709  17.869   0.543  1.00 20.00    -0.014 C 
HETATM    7  O12 UNL     1     -31.880  18.217  -0.950  1.00 20.00    -0.298 OA
ENDROOT
BRANCH   5   8
HETATM    8  C9  UNL     1     -33.677  16.937  -2.657  1.00 20.00     0.012 C 
BRANCH   8   9
HETATM    9  C11 UNL     1     -34.740  15.943  -3.114  1.00 20.00    -0.004 C 
HETATM   10  C8  UNL     1     -34.143  14.874  -4.016  1.00 20.00     0.005 C 
ENDBRANCH   8   9
ENDBRANCH   5   8
BRANCH   6  11
HETATM   11  C10 UNL     1     -36.613  19.038   0.141  1.00 20.00     0.000 C 
HETATM   12  C7  UNL     1     -37.764  18.581  -0.690  1.00 20.00     0.005 C 
ENDBRANCH   6  11
TORSDOF 3
ENDMDL
MODEL 8
REMARK VINA RESULT:      -4.5     11.804     12.750
REMARK  3 active torsions:
REMARK  status: ('A' for Active; 'I' for Inactive)
REMARK    1  A    between atoms: C5_5  and  C9_9 
REMARK    2  A    between atoms: C6_6  and  C10_10 
REMARK    3  A    between atoms: C9_9  and  C11_11 
ROOT
HETATM    1  C1  UNL     1     -37.227  15.031  -4.530  1.00 20.00     0.131 C 
HETATM    2  C2  UNL     1     -37.147  14.175  -5.775  1.00 20.00     0.079 C 
HETATM    3  C3  UNL     1     -35.894  13.309  -5.753  1.00 20.00     0.012 C 
HETATM    4  C4  UNL     1     -34.751  14.933  -4.203  1.00 20.00     0.016 C 
HETATM    5  C5  UNL     1     -35.983  15.847  -4.193  1.00 20.00     0.055 C 
HETATM    6  C6  UNL     1     -34.610  14.110  -5.494  1.00 20.00    -0.014 C 
HETATM    7  O12 UNL     1     -38.275  15.122  -3.893  1.00 20.00    -0.298 OA
ENDROOT
BRANCH   5   8
HETATM    8  C9  UNL     1     -36.119  16.547  -2.844  1.00 20.00     0.012 C 
BRANCH   8   9
HETATM    9  C11 UNL     1     -34.792  16.564  -2.092  1.00 20.00    -0.004 C 
HETATM   10  C8  UNL     1     -34.916  17.307  -0.771  1.00 20.00     0.005 C 
ENDBRANCH   8   9
ENDBRANCH   5   8
BRANCH   6  11
HETATM   11  C10 UNL     1     -34.225  14.980  -6.693  1.00 20.00     0.000 C 
HETATM   12  C7  UNL     1     -33.997  14.157  -7.916  1.00 20.00     0.005 C 
ENDBRANCH   6  11
TORSDOF 3
ENDMDL
MODEL 9
REMARK VINA RESULT:      -4.4     11.911     13.009
REMARK  3 active torsions:
REMARK  status: ('A' for Active; 'I' for Inactive)
REMARK    1  A    between atoms: C5_5  and  C9_9 
REMARK    2  A    between atoms: C6_6  and  C10_10 
REMARK    3  A    between atoms: C9_9  and  C11_11 
ROOT
HETATM    1  C1  UNL     1     -35.775  16.772  -5.290  1.00 20.00     0.131 C 
HETATM    2  C2  UNL     1     -34.892  17.912  -4.831  1.00 20.00     0.079 C 
HETATM    3  C3  UNL     1     -33.580  17.383  -4.267  1.00 20.00     0.012 C 
HETATM    4  C4  UNL     1     -34.658  15.169  -3.731  1.00 20.00     0.016 C 
HETATM    5  C5  UNL     1     -36.006  15.651  -4.281  1.00 20.00     0.055 C 
HETATM    6  C6  UNL     1     -33.776  16.306  -3.189  1.00 20.00    -0.014 C 
HETATM    7  O12 UNL     1     -36.339  16.812  -6.382  1.00 20.00    -0.298 OA
ENDROOT
BRANCH   5   8
HETATM    8  C9  UNL     1     -36.778  14.489  -4.900  1.00 20.00     0.012 C 
BRANCH   8   9
HETATM    9  C11 UNL     1     -35.844  13.346  -5.283  1.00 20.00    -0.004 C 
HETATM   10  C8  UNL     1     -35.532  13.365  -6.771  1.00 20.00     0.005 C 
ENDBRANCH   8   9
ENDBRANCH   5   8
BRANCH   6  11
HETATM   11  C10 UNL     1     -34.327  16.892  -1.887  1.00 20.00     0.000 C 
HETATM   12  C7  UNL     1     -33.350  17.822  -1.248  1.00 20.00     0.005 C 
ENDBRANCH   6  11
TORSDOF 3
ENDMDL
