MODEL 1
REMARK VINA RESULT:      -5.9      0.000      0.000
REMARK  4 active torsions:
REMARK  status: ('A' for Active; 'I' for Inactive)
REMARK    1  A    between atoms: C5_5  and  C6_6 
REMARK    2  A    between atoms: C6_6  and  C8_8 
REMARK    3  A    between atoms: C7_7  and  C8_8 
REMARK    4  A    between atoms: C8_8  and  O9_9 
ROOT
HETATM    1  C1  UNL     1     -32.544   9.743   0.578  1.00 20.00     0.012 C 
HETATM    2  C2  UNL     1     -32.207   9.107   1.539  1.00 20.00    -0.117 C 
HETATM    3  C5  UNL     1     -31.791   8.334   2.717  1.00 20.00     0.095 C 
ENDROOT
BRANCH   3   4
HETATM    4  C6  UNL     1     -32.651   7.087   2.929  1.00 20.00     0.044 C 
BRANCH   4   5
HETATM    5  C8  UNL     1     -33.674   7.169   4.076  1.00 20.00     0.122 C 
BRANCH   5   6
HETATM    6  C7  UNL     1     -34.500   5.885   4.321  1.00 20.00     0.006 C 
HETATM    7  C3  UNL     1     -33.911   4.707   3.535  1.00 20.00     0.012 C 
HETATM    8  C4  UNL     1     -34.591   5.504   5.802  1.00 20.00     0.012 C 
ENDBRANCH   5   6
BRANCH   5   9
HETATM    9  O9  UNL     1     -32.965   7.496   5.275  1.00 20.00    -0.395 OA
HETATM   10  H23 UNL     1     -32.732   6.653   5.690  1.00 20.00     0.210 HD
ENDBRANCH   5   9
ENDBRANCH   4   5
ENDBRANCH   3   4
TORSDOF 4
ENDMDL
MODEL 2
REMARK VINA RESULT:      -5.8      1.441      1.499
REMARK  4 active torsions:
REMARK  status: ('A' for Active; 'I' for Inactive)
REMARK    1  A    between atoms: C5_5  and  C6_6 
REMARK    2  A    between atoms: C6_6  and  C8_8 
REMARK    3  A    between atoms: C7_7  and  C8_8 
REMARK    4  A    between atoms: C8_8  and  O9_9 
ROOT
HETATM    1  C1  UNL     1     -32.695  10.215   0.845  1.00 20.00     0.012 C 
HETATM    2  C2  UNL     1     -32.340   9.220   1.416  1.00 20.00    -0.117 C 
HETATM    3  C5  UNL     1     -31.900   8.002   2.109  1.00 20.00     0.095 C 
ENDROOT
BRANCH   3   4
HETATM    4  C6  UNL     1     -32.681   7.751   3.399  1.00 20.00     0.044 C 
BRANCH   4   5
HETATM    5  C8  UNL     1     -33.394   6.390   3.495  1.00 20.00     0.122 C 
BRANCH   5   6
HETATM    6  C7  UNL     1     -34.370   6.234   4.683  1.00 20.00     0.006 C 
HETATM    7  C3  UNL     1     -34.547   4.754   5.044  1.00 20.00     0.012 C 
HETATM    8  C4  UNL     1     -33.924   7.005   5.930  1.00 20.00     0.012 C 
ENDBRANCH   5   6
BRANCH   5   9
HETATM    9  O9  UNL     1     -34.115   6.185   2.277  1.00 20.00    -0.395 OA
HETATM   10  H23 UNL     1     -33.703   5.423   1.843  1.00 20.00     0.210 HD
ENDBRANCH   5   9
ENDBRANCH   4   5
ENDBRANCH   3   4
TORSDOF 4
ENDMDL
MODEL 3
REMARK VINA RESULT:      -5.5      0.594      1.221
REMARK  4 active torsions:
REMARK  status: ('A' for Active; 'I' for Inactive)
REMARK    1  A    between atoms: C5_5  and  C6_6 
REMARK    2  A    between atoms: C6_6  and  C8_8 
REMARK    3  A    between atoms: C7_7  and  C8_8 
REMARK    4  A    between atoms: C8_8  and  O9_9 
ROOT
HETATM    1  C1  UNL     1     -32.544   9.785   0.423  1.00 20.00     0.012 C 
HETATM    2  C2  UNL     1     -32.169   9.226   1.417  1.00 20.00    -0.117 C 
HETATM    3  C5  UNL     1     -31.705   8.546   2.635  1.00 20.00     0.095 C 
ENDROOT
BRANCH   3   4
HETATM    4  C6  UNL     1     -32.482   7.260   2.916  1.00 20.00     0.044 C 
BRANCH   4   5
HETATM    5  C8  UNL     1     -33.452   7.314   4.111  1.00 20.00     0.122 C 
BRANCH   5   6
HETATM    6  C7  UNL     1     -34.187   5.992   4.428  1.00 20.00     0.006 C 
HETATM    7  C3  UNL     1     -34.461   5.875   5.933  1.00 20.00     0.012 C 
HETATM    8  C4  UNL     1     -35.508   5.842   3.666  1.00 20.00     0.012 C 
ENDBRANCH   5   6
BRANCH   5   9
HETATM    9  O9  UNL     1     -32.707   7.715   5.264  1.00 20.00    -0.395 OA
HETATM   10  H23 UNL     1     -31.776   7.728   4.994  1.00 20.00     0.210 HD
ENDBRANCH   5   9
ENDBRANCH   4   5
ENDBRANCH   3   4
TORSDOF 4
ENDMDL
MODEL 4
REMARK VINA RESULT:      -5.2      1.545      1.804
REMARK  4 active torsions:
REMARK  status: ('A' for Active; 'I' for Inactive)
REMARK    1  A    between atoms: C5_5  and  C6_6 
REMARK    2  A    between atoms: C6_6  and  C8_8 
REMARK    3  A    between atoms: C7_7  and  C8_8 
REMARK    4  A    between atoms: C8_8  and  O9_9 
ROOT
HETATM    1  C1  UNL     1     -32.877   9.603  -0.031  1.00 20.00     0.012 C 
HETATM    2  C2  UNL     1     -32.414   9.028   0.916  1.00 20.00    -0.117 C 
HETATM    3  C5  UNL     1     -31.841   8.325   2.072  1.00 20.00     0.095 C 
ENDROOT
BRANCH   3   4
HETATM    4  C6  UNL     1     -32.901   7.946   3.107  1.00 20.00     0.044 C 
BRANCH   4   5
HETATM    5  C8  UNL     1     -33.142   6.437   3.293  1.00 20.00     0.122 C 
BRANCH   5   6
HETATM    6  C7  UNL     1     -33.723   6.022   4.664  1.00 20.00     0.006 C 
HETATM    7  C3  UNL     1     -33.793   7.230   5.607  1.00 20.00     0.012 C 
HETATM    8  C4  UNL     1     -35.113   5.387   4.560  1.00 20.00     0.012 C 
ENDBRANCH   5   6
BRANCH   5   9
HETATM    9  O9  UNL     1     -34.037   6.005   2.264  1.00 20.00    -0.395 OA
HETATM   10  H23 UNL     1     -33.604   5.257   1.826  1.00 20.00     0.210 HD
ENDBRANCH   5   9
ENDBRANCH   4   5
ENDBRANCH   3   4
TORSDOF 4
ENDMDL
MODEL 5
REMARK VINA RESULT:      -5.1      1.342      4.829
REMARK  4 active torsions:
REMARK  status: ('A' for Active; 'I' for Inactive)
REMARK    1  A    between atoms: C5_5  and  C6_6 
REMARK    2  A    between atoms: C6_6  and  C8_8 
REMARK    3  A    between atoms: C7_7  and  C8_8 
REMARK    4  A    between atoms: C8_8  and  O9_9 
ROOT
HETATM    1  C1  UNL     1     -34.802   5.242   4.926  1.00 20.00     0.012 C 
HETATM    2  C2  UNL     1     -34.237   6.201   4.476  1.00 20.00    -0.117 C 
HETATM    3  C5  UNL     1     -33.546   7.377   3.929  1.00 20.00     0.095 C 
ENDROOT
BRANCH   3   4
HETATM    4  C6  UNL     1     -32.968   7.120   2.538  1.00 20.00     0.044 C 
BRANCH   4   5
HETATM    5  C8  UNL     1     -32.156   8.276   1.927  1.00 20.00     0.122 C 
BRANCH   5   6
HETATM    6  C7  UNL     1     -32.979   9.325   1.145  1.00 20.00     0.006 C 
HETATM    7  C3  UNL     1     -32.531  10.745   1.513  1.00 20.00     0.012 C 
HETATM    8  C4  UNL     1     -32.888   9.149  -0.374  1.00 20.00     0.012 C 
ENDBRANCH   5   6
BRANCH   5   9
HETATM    9  O9  UNL     1     -31.462   8.935   2.990  1.00 20.00    -0.395 OA
HETATM   10  H23 UNL     1     -31.559   9.885   2.829  1.00 20.00     0.210 HD
ENDBRANCH   5   9
ENDBRANCH   4   5
ENDBRANCH   3   4
TORSDOF 4
ENDMDL
MODEL 6
REMARK VINA RESULT:      -4.9      1.327      4.208
REMARK  4 active torsions:
REMARK  status: ('A' for Active; 'I' for Inactive)
REMARK    1  A    between atoms: C5_5  and  C6_6 
REMARK    2  A    between atoms: C6_6  and  C8_8 
REMARK    3  A    between atoms: C7_7  and  C8_8 
REMARK    4  A    between atoms: C8_8  and  O9_9 
ROOT
HETATM    1  C1  UNL     1     -34.749   4.487   5.016  1.00 20.00     0.012 C 
HETATM    2  C2  UNL     1     -34.444   5.512   5.561  1.00 20.00    -0.117 C 
HETATM    3  C5  UNL     1     -34.073   6.765   6.234  1.00 20.00     0.095 C 
ENDROOT
BRANCH   3   4
HETATM    4  C6  UNL     1     -33.655   7.855   5.247  1.00 20.00     0.044 C 
BRANCH   4   5
HETATM    5  C8  UNL     1     -32.574   7.453   4.227  1.00 20.00     0.122 C 
BRANCH   5   6
HETATM    6  C7  UNL     1     -33.040   7.393   2.755  1.00 20.00     0.006 C 
HETATM    7  C3  UNL     1     -32.135   8.256   1.867  1.00 20.00     0.012 C 
HETATM    8  C4  UNL     1     -33.079   5.967   2.196  1.00 20.00     0.012 C 
ENDBRANCH   5   6
BRANCH   5   9
HETATM    9  O9  UNL     1     -31.500   8.392   4.332  1.00 20.00    -0.395 OA
HETATM   10  H23 UNL     1     -31.898   9.270   4.230  1.00 20.00     0.210 HD
ENDBRANCH   5   9
ENDBRANCH   4   5
ENDBRANCH   3   4
TORSDOF 4
ENDMDL
MODEL 7
REMARK VINA RESULT:      -4.7      1.496      4.278
REMARK  4 active torsions:
REMARK  status: ('A' for Active; 'I' for Inactive)
REMARK    1  A    between atoms: C5_5  and  C6_6 
REMARK    2  A    between atoms: C6_6  and  C8_8 
REMARK    3  A    between atoms: C7_7  and  C8_8 
REMARK    4  A    between atoms: C8_8  and  O9_9 
ROOT
HETATM    1  C1  UNL     1     -33.808   7.301   6.281  1.00 20.00     0.012 C 
HETATM    2  C2  UNL     1     -34.183   6.551   5.422  1.00 20.00    -0.117 C 
HETATM    3  C5  UNL     1     -34.642   5.629   4.374  1.00 20.00     0.095 C 
ENDROOT
BRANCH   3   4
HETATM    4  C6  UNL     1     -34.713   6.295   3.000  1.00 20.00     0.044 C 
BRANCH   4   5
HETATM    5  C8  UNL     1     -33.358   6.597   2.334  1.00 20.00     0.122 C 
BRANCH   5   6
HETATM    6  C7  UNL     1     -32.827   8.035   2.533  1.00 20.00     0.006 C 
HETATM    7  C3  UNL     1     -31.562   8.027   3.401  1.00 20.00     0.012 C 
HETATM    8  C4  UNL     1     -32.524   8.751   1.213  1.00 20.00     0.012 C 
ENDBRANCH   5   6
BRANCH   5   9
HETATM    9  O9  UNL     1     -32.397   5.675   2.854  1.00 20.00    -0.395 OA
HETATM   10  H23 UNL     1     -31.894   6.159   3.526  1.00 20.00     0.210 HD
ENDBRANCH   5   9
ENDBRANCH   4   5
ENDBRANCH   3   4
TORSDOF 4
ENDMDL
MODEL 8
REMARK VINA RESULT:      -4.6      1.544      4.639
REMARK  4 active torsions:
REMARK  status: ('A' for Active; 'I' for Inactive)
REMARK    1  A    between atoms: C5_5  and  C6_6 
REMARK    2  A    between atoms: C6_6  and  C8_8 
REMARK    3  A    between atoms: C7_7  and  C8_8 
REMARK    4  A    between atoms: C8_8  and  O9_9 
ROOT
HETATM    1  C1  UNL     1     -34.627   4.988   5.231  1.00 20.00     0.012 C 
HETATM    2  C2  UNL     1     -34.190   6.106   5.217  1.00 20.00    -0.117 C 
HETATM    3  C5  UNL     1     -33.658   7.476   5.204  1.00 20.00     0.095 C 
ENDROOT
BRANCH   3   4
HETATM    4  C6  UNL     1     -32.553   7.663   4.164  1.00 20.00     0.044 C 
BRANCH   4   5
HETATM    5  C8  UNL     1     -33.026   8.022   2.744  1.00 20.00     0.122 C 
BRANCH   5   6
HETATM    6  C7  UNL     1     -32.160   9.063   1.999  1.00 20.00     0.006 C 
HETATM    7  C3  UNL     1     -31.427   8.411   0.820  1.00 20.00     0.012 C 
HETATM    8  C4  UNL     1     -32.968  10.260   1.487  1.00 20.00     0.012 C 
ENDBRANCH   5   6
BRANCH   5   9
HETATM    9  O9  UNL     1     -33.061   6.817   1.974  1.00 20.00    -0.395 OA
HETATM   10  H23 UNL     1     -33.051   7.089   1.044  1.00 20.00     0.210 HD
ENDBRANCH   5   9
ENDBRANCH   4   5
ENDBRANCH   3   4
TORSDOF 4
ENDMDL
MODEL 9
REMARK VINA RESULT:      -4.4      1.978      2.759
REMARK  4 active torsions:
REMARK  status: ('A' for Active; 'I' for Inactive)
REMARK    1  A    between atoms: C5_5  and  C6_6 
REMARK    2  A    between atoms: C6_6  and  C8_8 
REMARK    3  A    between atoms: C7_7  and  C8_8 
REMARK    4  A    between atoms: C8_8  and  O9_9 
ROOT
HETATM    1  C1  UNL     1     -31.941   8.017   3.402  1.00 20.00     0.012 C 
HETATM    2  C2  UNL     1     -32.596   7.795   4.384  1.00 20.00    -0.117 C 
HETATM    3  C5  UNL     1     -33.395   7.528   5.587  1.00 20.00     0.095 C 
ENDROOT
BRANCH   3   4
HETATM    4  C6  UNL     1     -34.359   6.356   5.399  1.00 20.00     0.044 C 
BRANCH   4   5
HETATM    5  C8  UNL     1     -34.641   5.951   3.941  1.00 20.00     0.122 C 
BRANCH   5   6
HETATM    6  C7  UNL     1     -34.128   4.552   3.529  1.00 20.00     0.006 C 
HETATM    7  C3  UNL     1     -32.941   4.675   2.567  1.00 20.00     0.012 C 
HETATM    8  C4  UNL     1     -33.716   3.689   4.726  1.00 20.00     0.012 C 
ENDBRANCH   5   6
BRANCH   5   9
HETATM    9  O9  UNL     1     -36.056   6.002   3.736  1.00 20.00    -0.395 OA
HETATM   10  H23 UNL     1     -36.188   6.363   2.847  1.00 20.00     0.210 HD
ENDBRANCH   5   9
ENDBRANCH   4   5
ENDBRANCH   3   4
TORSDOF 4
ENDMDL
