MODEL 1
REMARK VINA RESULT:      -5.3      0.000      0.000
REMARK  4 active torsions:
REMARK  status: ('A' for Active; 'I' for Inactive)
REMARK    1  A    between atoms: C4_4  and  C5_5 
REMARK    2  A    between atoms: C4_4  and  C6_6 
REMARK    3  A    between atoms: C5_5  and  O8_8 
REMARK    4  A    between atoms: C6_6  and  C7_7 
ROOT
HETATM    1  C1  UNL     1     -33.633   7.306   5.562  1.00 20.00     0.011 C 
HETATM    2  C6  UNL     1     -33.780   7.086   4.049  1.00 20.00     0.001 C 
ENDROOT
BRANCH   2   3
HETATM    3  C4  UNL     1     -32.478   7.535   3.349  1.00 20.00     0.032 C 
BRANCH   3   4
HETATM    4  C5  UNL     1     -32.693   8.191   1.990  1.00 20.00     0.167 C 
BRANCH   4   5
HETATM    5  O8  UNL     1     -32.068   9.469   1.998  1.00 20.00    -0.396 OA
HETATM    6  C3  UNL     1     -32.585  10.308   0.975  1.00 20.00     0.201 C 
ENDBRANCH   4   5
ENDBRANCH   3   4
ENDBRANCH   2   3
BRANCH   2   7
HETATM    7  C7  UNL     1     -34.220   5.648   3.673  1.00 20.00     0.082 C 
HETATM    8  C2  UNL     1     -33.191   4.906   2.822  1.00 20.00     0.027 C 
HETATM    9 CL9  UNL     1     -34.600   4.653   5.113  1.00 20.00    -0.125 Cl
ENDBRANCH   2   7
TORSDOF 4
ENDMDL
MODEL 2
REMARK VINA RESULT:      -5.2      1.387      2.013
REMARK  4 active torsions:
REMARK  status: ('A' for Active; 'I' for Inactive)
REMARK    1  A    between atoms: C4_4  and  C5_5 
REMARK    2  A    between atoms: C4_4  and  C6_6 
REMARK    3  A    between atoms: C5_5  and  O8_8 
REMARK    4  A    between atoms: C6_6  and  C7_7 
ROOT
HETATM    1  C1  UNL     1     -33.179   5.010   2.675  1.00 20.00     0.011 C 
HETATM    2  C6  UNL     1     -33.143   6.314   3.486  1.00 20.00     0.001 C 
ENDROOT
BRANCH   2   3
HETATM    3  C4  UNL     1     -33.173   7.511   2.509  1.00 20.00     0.032 C 
BRANCH   3   4
HETATM    4  C5  UNL     1     -31.881   8.318   2.471  1.00 20.00     0.167 C 
BRANCH   4   5
HETATM    5  O8  UNL     1     -31.677   8.788   1.144  1.00 20.00    -0.396 OA
HETATM    6  C3  UNL     1     -32.496   9.913   0.859  1.00 20.00     0.201 C 
ENDBRANCH   4   5
ENDBRANCH   3   4
ENDBRANCH   2   3
BRANCH   2   7
HETATM    7  C7  UNL     1     -34.231   6.388   4.587  1.00 20.00     0.082 C 
HETATM    8  C2  UNL     1     -34.669   5.014   5.094  1.00 20.00     0.027 C 
HETATM    9 CL9  UNL     1     -33.719   7.380   5.987  1.00 20.00    -0.125 Cl
ENDBRANCH   2   7
TORSDOF 4
ENDMDL
MODEL 3
REMARK VINA RESULT:      -4.6      2.669      4.229
REMARK  4 active torsions:
REMARK  status: ('A' for Active; 'I' for Inactive)
REMARK    1  A    between atoms: C4_4  and  C5_5 
REMARK    2  A    between atoms: C4_4  and  C6_6 
REMARK    3  A    between atoms: C5_5  and  O8_8 
REMARK    4  A    between atoms: C6_6  and  C7_7 
ROOT
HETATM    1  C1  UNL     1     -32.934   5.136   2.624  1.00 20.00     0.011 C 
HETATM    2  C6  UNL     1     -33.356   6.611   2.546  1.00 20.00     0.001 C 
ENDROOT
BRANCH   2   3
HETATM    3  C4  UNL     1     -34.231   6.946   3.774  1.00 20.00     0.032 C 
BRANCH   3   4
HETATM    4  C5  UNL     1     -34.802   5.725   4.486  1.00 20.00     0.167 C 
BRANCH   4   5
HETATM    5  O8  UNL     1     -34.485   5.815   5.869  1.00 20.00    -0.396 OA
HETATM    6  C3  UNL     1     -33.914   7.075   6.192  1.00 20.00     0.201 C 
ENDBRANCH   4   5
ENDBRANCH   3   4
ENDBRANCH   2   3
BRANCH   2   7
HETATM    7  C7  UNL     1     -32.166   7.584   2.351  1.00 20.00     0.082 C 
HETATM    8  C2  UNL     1     -32.491   8.758   1.429  1.00 20.00     0.027 C 
HETATM    9 CL9  UNL     1     -31.550   8.229   3.905  1.00 20.00    -0.125 Cl
ENDBRANCH   2   7
TORSDOF 4
ENDMDL
MODEL 4
REMARK VINA RESULT:      -4.4      1.118      2.111
REMARK  4 active torsions:
REMARK  status: ('A' for Active; 'I' for Inactive)
REMARK    1  A    between atoms: C4_4  and  C5_5 
REMARK    2  A    between atoms: C4_4  and  C6_6 
REMARK    3  A    between atoms: C5_5  and  O8_8 
REMARK    4  A    between atoms: C6_6  and  C7_7 
ROOT
HETATM    1  C1  UNL     1     -33.000   4.962   2.367  1.00 20.00     0.011 C 
HETATM    2  C6  UNL     1     -32.940   6.136   3.355  1.00 20.00     0.001 C 
ENDROOT
BRANCH   2   3
HETATM    3  C4  UNL     1     -33.014   7.460   2.563  1.00 20.00     0.032 C 
BRANCH   3   4
HETATM    4  C5  UNL     1     -31.809   8.373   2.759  1.00 20.00     0.167 C 
BRANCH   4   5
HETATM    5  O8  UNL     1     -31.946   9.499   1.902  1.00 20.00    -0.396 OA
HETATM    6  C3  UNL     1     -32.578   9.148   0.679  1.00 20.00     0.201 C 
ENDBRANCH   4   5
ENDBRANCH   3   4
ENDBRANCH   2   3
BRANCH   2   7
HETATM    7  C7  UNL     1     -33.986   6.038   4.495  1.00 20.00     0.082 C 
HETATM    8  C2  UNL     1     -33.881   7.176   5.509  1.00 20.00     0.027 C 
HETATM    9 CL9  UNL     1     -35.665   5.974   3.875  1.00 20.00    -0.125 Cl
ENDBRANCH   2   7
TORSDOF 4
ENDMDL
MODEL 5
REMARK VINA RESULT:      -4.3      3.129      4.766
REMARK  4 active torsions:
REMARK  status: ('A' for Active; 'I' for Inactive)
REMARK    1  A    between atoms: C4_4  and  C5_5 
REMARK    2  A    between atoms: C4_4  and  C6_6 
REMARK    3  A    between atoms: C5_5  and  O8_8 
REMARK    4  A    between atoms: C6_6  and  C7_7 
ROOT
HETATM    1  C1  UNL     1     -31.462   8.494   3.200  1.00 20.00     0.011 C 
HETATM    2  C6  UNL     1     -32.302   8.041   1.997  1.00 20.00     0.001 C 
ENDROOT
BRANCH   2   3
HETATM    3  C4  UNL     1     -33.266   6.923   2.453  1.00 20.00     0.032 C 
BRANCH   3   4
HETATM    4  C5  UNL     1     -33.725   7.047   3.902  1.00 20.00     0.167 C 
BRANCH   4   5
HETATM    5  O8  UNL     1     -34.762   6.102   4.133  1.00 20.00    -0.396 OA
HETATM    6  C3  UNL     1     -34.597   5.444   5.381  1.00 20.00     0.201 C 
ENDBRANCH   4   5
ENDBRANCH   3   4
ENDBRANCH   2   3
BRANCH   2   7
HETATM    7  C7  UNL     1     -33.011   9.209   1.265  1.00 20.00     0.082 C 
HETATM    8  C2  UNL     1     -32.425  10.578   1.604  1.00 20.00     0.027 C 
HETATM    9 CL9  UNL     1     -33.001   9.005  -0.514  1.00 20.00    -0.125 Cl
ENDBRANCH   2   7
TORSDOF 4
ENDMDL
MODEL 6
REMARK VINA RESULT:      -4.2      1.341      1.672
REMARK  4 active torsions:
REMARK  status: ('A' for Active; 'I' for Inactive)
REMARK    1  A    between atoms: C4_4  and  C5_5 
REMARK    2  A    between atoms: C4_4  and  C6_6 
REMARK    3  A    between atoms: C5_5  and  O8_8 
REMARK    4  A    between atoms: C6_6  and  C7_7 
ROOT
HETATM    1  C1  UNL     1     -31.737   8.010   3.945  1.00 20.00     0.011 C 
HETATM    2  C6  UNL     1     -33.059   7.906   3.169  1.00 20.00     0.001 C 
ENDROOT
BRANCH   2   3
HETATM    3  C4  UNL     1     -32.750   7.887   1.656  1.00 20.00     0.032 C 
BRANCH   3   4
HETATM    4  C5  UNL     1     -31.617   8.817   1.237  1.00 20.00     0.167 C 
BRANCH   4   5
HETATM    5  O8  UNL     1     -32.166   9.896   0.492  1.00 20.00    -0.396 OA
HETATM    6  C3  UNL     1     -33.167   9.449  -0.411  1.00 20.00     0.201 C 
ENDBRANCH   4   5
ENDBRANCH   3   4
ENDBRANCH   2   3
BRANCH   2   7
HETATM    7  C7  UNL     1     -33.956   6.731   3.632  1.00 20.00     0.082 C 
HETATM    8  C2  UNL     1     -33.521   5.381   3.066  1.00 20.00     0.027 C 
HETATM    9 CL9  UNL     1     -34.046   6.603   5.417  1.00 20.00    -0.125 Cl
ENDBRANCH   2   7
TORSDOF 4
ENDMDL
MODEL 7
REMARK VINA RESULT:      -3.9      2.464      3.855
REMARK  4 active torsions:
REMARK  status: ('A' for Active; 'I' for Inactive)
REMARK    1  A    between atoms: C4_4  and  C5_5 
REMARK    2  A    between atoms: C4_4  and  C6_6 
REMARK    3  A    between atoms: C5_5  and  O8_8 
REMARK    4  A    between atoms: C6_6  and  C7_7 
ROOT
HETATM    1  C1  UNL     1     -31.869   8.232   2.775  1.00 20.00     0.011 C 
HETATM    2  C6  UNL     1     -32.668   7.136   3.494  1.00 20.00     0.001 C 
ENDROOT
BRANCH   2   3
HETATM    3  C4  UNL     1     -33.563   7.793   4.569  1.00 20.00     0.032 C 
BRANCH   3   4
HETATM    4  C5  UNL     1     -33.501   7.115   5.933  1.00 20.00     0.167 C 
BRANCH   4   5
HETATM    5  O8  UNL     1     -34.700   6.377   6.129  1.00 20.00    -0.396 OA
HETATM    6  C3  UNL     1     -34.499   4.988   5.909  1.00 20.00     0.201 C 
ENDBRANCH   4   5
ENDBRANCH   3   4
ENDBRANCH   2   3
BRANCH   2   7
HETATM    7  C7  UNL     1     -33.444   6.204   2.529  1.00 20.00     0.082 C 
HETATM    8  C2  UNL     1     -32.970   4.752   2.582  1.00 20.00     0.027 C 
HETATM    9 CL9  UNL     1     -35.211   6.242   2.818  1.00 20.00    -0.125 Cl
ENDBRANCH   2   7
TORSDOF 4
ENDMDL
MODEL 8
REMARK VINA RESULT:      -3.8     10.776     11.775
REMARK  4 active torsions:
REMARK  status: ('A' for Active; 'I' for Inactive)
REMARK    1  A    between atoms: C4_4  and  C5_5 
REMARK    2  A    between atoms: C4_4  and  C6_6 
REMARK    3  A    between atoms: C5_5  and  O8_8 
REMARK    4  A    between atoms: C6_6  and  C7_7 
ROOT
HETATM    1  C1  UNL     1     -33.247  16.160  -5.279  1.00 20.00     0.011 C 
HETATM    2  C6  UNL     1     -34.308  15.846  -4.214  1.00 20.00     0.001 C 
ENDROOT
BRANCH   2   3
HETATM    3  C4  UNL     1     -34.532  14.318  -4.167  1.00 20.00     0.032 C 
BRANCH   3   4
HETATM    4  C5  UNL     1     -35.801  13.851  -4.870  1.00 20.00     0.167 C 
BRANCH   4   5
HETATM    5  O8  UNL     1     -35.479  12.748  -5.708  1.00 20.00    -0.396 OA
HETATM    6  C3  UNL     1     -35.159  13.171  -7.026  1.00 20.00     0.201 C 
ENDBRANCH   4   5
ENDBRANCH   3   4
ENDBRANCH   2   3
BRANCH   2   7
HETATM    7  C7  UNL     1     -33.996  16.468  -2.829  1.00 20.00     0.082 C 
HETATM    8  C2  UNL     1     -33.356  17.852  -2.921  1.00 20.00     0.027 C 
HETATM    9 CL9  UNL     1     -35.448  16.574  -1.786  1.00 20.00    -0.125 Cl
ENDBRANCH   2   7
TORSDOF 4
ENDMDL
MODEL 9
REMARK VINA RESULT:      -3.7     10.976     11.679
REMARK  4 active torsions:
REMARK  status: ('A' for Active; 'I' for Inactive)
REMARK    1  A    between atoms: C4_4  and  C5_5 
REMARK    2  A    between atoms: C4_4  and  C6_6 
REMARK    3  A    between atoms: C5_5  and  O8_8 
REMARK    4  A    between atoms: C6_6  and  C7_7 
ROOT
HETATM    1  C1  UNL     1     -35.263  16.246  -2.887  1.00 20.00     0.011 C 
HETATM    2  C6  UNL     1     -34.794  15.170  -3.878  1.00 20.00     0.001 C 
ENDROOT
BRANCH   2   3
HETATM    3  C4  UNL     1     -35.803  15.094  -5.046  1.00 20.00     0.032 C 
BRANCH   3   4
HETATM    4  C5  UNL     1     -36.473  13.733  -5.204  1.00 20.00     0.167 C 
BRANCH   4   5
HETATM    5  O8  UNL     1     -35.516  12.812  -5.712  1.00 20.00    -0.396 OA
HETATM    6  C3  UNL     1     -35.157  13.120  -7.052  1.00 20.00     0.201 C 
ENDBRANCH   4   5
ENDBRANCH   3   4
ENDBRANCH   2   3
BRANCH   2   7
HETATM    7  C7  UNL     1     -33.326  15.354  -4.341  1.00 20.00     0.082 C 
HETATM    8  C2  UNL     1     -32.496  14.076  -4.231  1.00 20.00     0.027 C 
HETATM    9 CL9  UNL     1     -33.211  15.971  -6.018  1.00 20.00    -0.125 Cl
ENDBRANCH   2   7
TORSDOF 4
ENDMDL
