MODEL 1
REMARK VINA RESULT:      -6.0      0.000      0.000
REMARK  3 active torsions:
REMARK  status: ('A' for Active; 'I' for Inactive)
REMARK    1  A    between atoms: C2_2  and  C9_9 
REMARK    2  A    between atoms: C6_6  and  C9_9 
REMARK    3  A    between atoms: C7_7  and  O10_10 
ROOT
HETATM    1  C3  UNL     1     -34.385   4.244   4.465  1.00 20.00     0.003 C 
HETATM    2  C4  UNL     1     -34.012   5.085   3.244  1.00 20.00     0.007 C 
HETATM    3  C5  UNL     1     -34.476   5.213   5.644  1.00 20.00     0.032 C 
HETATM    4  C6  UNL     1     -33.465   6.387   3.823  1.00 20.00     0.018 C 
HETATM    5  C7  UNL     1     -34.366   6.607   5.036  1.00 20.00     0.122 C 
ENDROOT
BRANCH   4   6
HETATM    6  C9  UNL     1     -33.496   7.541   2.834  1.00 20.00     0.040 C 
BRANCH   6   7
HETATM    7  C2  UNL     1     -32.139   8.168   2.624  1.00 20.00    -0.093 C 
HETATM    8  C1  UNL     1     -31.252   8.273   3.626  1.00 20.00     0.014 C 
HETATM    9  C8  UNL     1     -31.837   8.701   1.252  1.00 20.00     0.042 C 
ENDBRANCH   6   7
ENDBRANCH   4   6
BRANCH   5  10
HETATM   10  O10 UNL     1     -33.788   7.525   5.944  1.00 20.00    -0.395 OA
HETATM   11  H26 UNL     1     -34.040   7.239   6.838  1.00 20.00     0.210 HD
ENDBRANCH   5  10
TORSDOF 3
ENDMDL
MODEL 2
REMARK VINA RESULT:      -5.4      1.667      2.359
REMARK  3 active torsions:
REMARK  status: ('A' for Active; 'I' for Inactive)
REMARK    1  A    between atoms: C2_2  and  C9_9 
REMARK    2  A    between atoms: C6_6  and  C9_9 
REMARK    3  A    between atoms: C7_7  and  O10_10 
ROOT
HETATM    1  C3  UNL     1     -34.298   6.510   5.585  1.00 20.00     0.003 C 
HETATM    2  C4  UNL     1     -33.199   7.498   5.190  1.00 20.00     0.007 C 
HETATM    3  C5  UNL     1     -34.597   5.678   4.338  1.00 20.00     0.032 C 
HETATM    4  C6  UNL     1     -33.226   7.517   3.664  1.00 20.00     0.018 C 
HETATM    5  C7  UNL     1     -33.522   6.058   3.326  1.00 20.00     0.122 C 
ENDROOT
BRANCH   4   6
HETATM    6  C9  UNL     1     -31.933   8.027   3.049  1.00 20.00     0.040 C 
BRANCH   6   7
HETATM    7  C2  UNL     1     -32.162   8.877   1.823  1.00 20.00    -0.093 C 
HETATM    8  C1  UNL     1     -33.026   9.904   1.833  1.00 20.00     0.014 C 
HETATM    9  C8  UNL     1     -31.408   8.502   0.580  1.00 20.00     0.042 C 
ENDBRANCH   6   7
ENDBRANCH   4   6
BRANCH   5  10
HETATM   10  O10 UNL     1     -33.990   5.924   1.997  1.00 20.00    -0.395 OA
HETATM   11  H26 UNL     1     -34.949   6.081   2.015  1.00 20.00     0.210 HD
ENDBRANCH   5  10
TORSDOF 3
ENDMDL
MODEL 3
REMARK VINA RESULT:      -5.1      1.097      1.836
REMARK  3 active torsions:
REMARK  status: ('A' for Active; 'I' for Inactive)
REMARK    1  A    between atoms: C2_2  and  C9_9 
REMARK    2  A    between atoms: C6_6  and  C9_9 
REMARK    3  A    between atoms: C7_7  and  O10_10 
ROOT
HETATM    1  C3  UNL     1     -34.351   5.832   3.071  1.00 20.00     0.003 C 
HETATM    2  C4  UNL     1     -33.334   6.729   2.363  1.00 20.00     0.007 C 
HETATM    3  C5  UNL     1     -34.350   6.256   4.540  1.00 20.00     0.032 C 
HETATM    4  C6  UNL     1     -32.475   7.302   3.487  1.00 20.00     0.018 C 
HETATM    5  C7  UNL     1     -33.498   7.519   4.600  1.00 20.00     0.122 C 
ENDROOT
BRANCH   4   6
HETATM    6  C9  UNL     1     -31.739   8.572   3.090  1.00 20.00     0.040 C 
BRANCH   6   7
HETATM    7  C2  UNL     1     -32.047   9.009   1.678  1.00 20.00    -0.093 C 
HETATM    8  C1  UNL     1     -31.390   8.497   0.626  1.00 20.00     0.014 C 
HETATM    9  C8  UNL     1     -33.097  10.069   1.505  1.00 20.00     0.042 C 
ENDBRANCH   6   7
ENDBRANCH   4   6
BRANCH   5  10
HETATM   10  O10 UNL     1     -32.865   7.659   5.857  1.00 20.00    -0.395 OA
HETATM   11  H26 UNL     1     -32.001   8.076   5.697  1.00 20.00     0.210 HD
ENDBRANCH   5  10
TORSDOF 3
ENDMDL
MODEL 4
REMARK VINA RESULT:      -5.1      1.576      2.034
REMARK  3 active torsions:
REMARK  status: ('A' for Active; 'I' for Inactive)
REMARK    1  A    between atoms: C2_2  and  C9_9 
REMARK    2  A    between atoms: C6_6  and  C9_9 
REMARK    3  A    between atoms: C7_7  and  O10_10 
ROOT
HETATM    1  C3  UNL     1     -34.420   6.628   6.145  1.00 20.00     0.003 C 
HETATM    2  C4  UNL     1     -33.728   7.242   4.927  1.00 20.00     0.007 C 
HETATM    3  C5  UNL     1     -34.606   5.143   5.832  1.00 20.00     0.032 C 
HETATM    4  C6  UNL     1     -33.949   6.230   3.806  1.00 20.00     0.018 C 
HETATM    5  C7  UNL     1     -33.830   4.898   4.543  1.00 20.00     0.122 C 
ENDROOT
BRANCH   4   6
HETATM    6  C9  UNL     1     -32.956   6.377   2.664  1.00 20.00     0.040 C 
BRANCH   6   7
HETATM    7  C2  UNL     1     -32.324   7.746   2.610  1.00 20.00    -0.093 C 
HETATM    8  C1  UNL     1     -31.393   8.124   3.501  1.00 20.00     0.014 C 
HETATM    9  C8  UNL     1     -32.805   8.680   1.537  1.00 20.00     0.042 C 
ENDBRANCH   6   7
ENDBRANCH   4   6
BRANCH   5  10
HETATM   10  O10 UNL     1     -34.397   3.843   3.788  1.00 20.00    -0.395 OA
HETATM   11  H26 UNL     1     -35.362   3.957   3.818  1.00 20.00     0.210 HD
ENDBRANCH   5  10
TORSDOF 3
ENDMDL
MODEL 5
REMARK VINA RESULT:      -4.7      0.936      3.773
REMARK  3 active torsions:
REMARK  status: ('A' for Active; 'I' for Inactive)
REMARK    1  A    between atoms: C2_2  and  C9_9 
REMARK    2  A    between atoms: C6_6  and  C9_9 
REMARK    3  A    between atoms: C7_7  and  O10_10 
ROOT
HETATM    1  C3  UNL     1     -31.820   8.442   2.338  1.00 20.00     0.003 C 
HETATM    2  C4  UNL     1     -33.072   7.609   2.057  1.00 20.00     0.007 C 
HETATM    3  C5  UNL     1     -31.601   8.392   3.850  1.00 20.00     0.032 C 
HETATM    4  C6  UNL     1     -33.773   7.496   3.407  1.00 20.00     0.018 C 
HETATM    5  C7  UNL     1     -32.598   7.365   4.374  1.00 20.00     0.122 C 
ENDROOT
BRANCH   4   6
HETATM    6  C9  UNL     1     -34.746   6.330   3.481  1.00 20.00     0.040 C 
BRANCH   6   7
HETATM    7  C2  UNL     1     -34.057   5.005   3.694  1.00 20.00    -0.093 C 
HETATM    8  C1  UNL     1     -33.232   4.487   2.771  1.00 20.00     0.014 C 
HETATM    9  C8  UNL     1     -34.359   4.274   4.971  1.00 20.00     0.042 C 
ENDBRANCH   6   7
ENDBRANCH   4   6
BRANCH   5  10
HETATM   10  O10 UNL     1     -32.993   7.654   5.702  1.00 20.00    -0.395 OA
HETATM   11  H26 UNL     1     -32.270   7.364   6.284  1.00 20.00     0.210 HD
ENDBRANCH   5  10
TORSDOF 3
ENDMDL
MODEL 6
REMARK VINA RESULT:      -4.7      1.166      4.187
REMARK  3 active torsions:
REMARK  status: ('A' for Active; 'I' for Inactive)
REMARK    1  A    between atoms: C2_2  and  C9_9 
REMARK    2  A    between atoms: C6_6  and  C9_9 
REMARK    3  A    between atoms: C7_7  and  O10_10 
ROOT
HETATM    1  C3  UNL     1     -32.157   9.113   1.362  1.00 20.00     0.003 C 
HETATM    2  C4  UNL     1     -32.677   7.679   1.252  1.00 20.00     0.007 C 
HETATM    3  C5  UNL     1     -31.772   9.320   2.827  1.00 20.00     0.032 C 
HETATM    4  C6  UNL     1     -33.000   7.273   2.688  1.00 20.00     0.018 C 
HETATM    5  C7  UNL     1     -31.876   7.944   3.475  1.00 20.00     0.122 C 
ENDROOT
BRANCH   4   6
HETATM    6  C9  UNL     1     -33.056   5.767   2.885  1.00 20.00     0.040 C 
BRANCH   6   7
HETATM    7  C2  UNL     1     -34.243   5.328   3.709  1.00 20.00    -0.093 C 
HETATM    8  C1  UNL     1     -35.328   6.106   3.844  1.00 20.00     0.014 C 
HETATM    9  C8  UNL     1     -34.142   3.998   4.399  1.00 20.00     0.042 C 
ENDBRANCH   6   7
ENDBRANCH   4   6
BRANCH   5  10
HETATM   10  O10 UNL     1     -32.201   8.041   4.849  1.00 20.00    -0.395 OA
HETATM   11  H26 UNL     1     -32.447   8.965   5.020  1.00 20.00     0.210 HD
ENDBRANCH   5  10
TORSDOF 3
ENDMDL
MODEL 7
REMARK VINA RESULT:      -4.3     11.825     12.628
REMARK  3 active torsions:
REMARK  status: ('A' for Active; 'I' for Inactive)
REMARK    1  A    between atoms: C2_2  and  C9_9 
REMARK    2  A    between atoms: C6_6  and  C9_9 
REMARK    3  A    between atoms: C7_7  and  O10_10 
ROOT
HETATM    1  C3  UNL     1     -34.329  14.547  -7.626  1.00 20.00     0.003 C 
HETATM    2  C4  UNL     1     -34.589  15.611  -6.558  1.00 20.00     0.007 C 
HETATM    3  C5  UNL     1     -34.993  13.264  -7.126  1.00 20.00     0.032 C 
HETATM    4  C6  UNL     1     -34.977  14.821  -5.311  1.00 20.00     0.018 C 
HETATM    5  C7  UNL     1     -35.796  13.673  -5.896  1.00 20.00     0.122 C 
ENDROOT
BRANCH   4   6
HETATM    6  C9  UNL     1     -35.744  15.650  -4.293  1.00 20.00     0.040 C 
BRANCH   6   7
HETATM    7  C2  UNL     1     -34.867  16.165  -3.178  1.00 20.00    -0.093 C 
HETATM    8  C1  UNL     1     -33.529  16.100  -3.251  1.00 20.00     0.014 C 
HETATM    9  C8  UNL     1     -35.558  16.723  -1.967  1.00 20.00     0.042 C 
ENDBRANCH   6   7
ENDBRANCH   4   6
BRANCH   5  10
HETATM   10  O10 UNL     1     -35.913  12.606  -4.974  1.00 20.00    -0.395 OA
HETATM   11  H26 UNL     1     -35.453  12.878  -4.162  1.00 20.00     0.210 HD
ENDBRANCH   5  10
TORSDOF 3
ENDMDL
MODEL 8
REMARK VINA RESULT:      -4.2     11.483     12.326
REMARK  3 active torsions:
REMARK  status: ('A' for Active; 'I' for Inactive)
REMARK    1  A    between atoms: C2_2  and  C9_9 
REMARK    2  A    between atoms: C6_6  and  C9_9 
REMARK    3  A    between atoms: C7_7  and  O10_10 
ROOT
HETATM    1  C3  UNL     1     -35.728  13.702  -5.100  1.00 20.00     0.003 C 
HETATM    2  C4  UNL     1     -34.585  14.112  -4.170  1.00 20.00     0.007 C 
HETATM    3  C5  UNL     1     -36.422  14.996  -5.526  1.00 20.00     0.032 C 
HETATM    4  C6  UNL     1     -34.931  15.534  -3.736  1.00 20.00     0.018 C 
HETATM    5  C7  UNL     1     -35.537  16.124  -5.007  1.00 20.00     0.122 C 
ENDROOT
BRANCH   4   6
HETATM    6  C9  UNL     1     -33.729  16.312  -3.224  1.00 20.00     0.040 C 
BRANCH   6   7
HETATM    7  C2  UNL     1     -34.010  17.039  -1.931  1.00 20.00    -0.093 C 
HETATM    8  C1  UNL     1     -35.182  16.905  -1.292  1.00 20.00     0.014 C 
HETATM    9  C8  UNL     1     -32.932  17.945  -1.408  1.00 20.00     0.042 C 
ENDBRANCH   6   7
ENDBRANCH   4   6
BRANCH   5  10
HETATM   10  O10 UNL     1     -36.291  17.287  -4.724  1.00 20.00    -0.395 OA
HETATM   11  H26 UNL     1     -35.747  17.845  -4.142  1.00 20.00     0.210 HD
ENDBRANCH   5  10
TORSDOF 3
ENDMDL
MODEL 9
REMARK VINA RESULT:      -4.2     11.713     12.856
REMARK  3 active torsions:
REMARK  status: ('A' for Active; 'I' for Inactive)
REMARK    1  A    between atoms: C2_2  and  C9_9 
REMARK    2  A    between atoms: C6_6  and  C9_9 
REMARK    3  A    between atoms: C7_7  and  O10_10 
ROOT
HETATM    1  C3  UNL     1     -33.934  16.900  -6.551  1.00 20.00     0.003 C 
HETATM    2  C4  UNL     1     -34.605  17.165  -5.202  1.00 20.00     0.007 C 
HETATM    3  C5  UNL     1     -33.304  15.510  -6.452  1.00 20.00     0.032 C 
HETATM    4  C6  UNL     1     -33.968  16.158  -4.248  1.00 20.00     0.018 C 
HETATM    5  C7  UNL     1     -33.807  14.927  -5.136  1.00 20.00     0.122 C 
ENDROOT
BRANCH   4   6
HETATM    6  C9  UNL     1     -34.806  15.899  -3.006  1.00 20.00     0.040 C 
BRANCH   6   7
HETATM    7  C2  UNL     1     -34.491  16.852  -1.878  1.00 20.00    -0.093 C 
HETATM    8  C1  UNL     1     -35.393  17.132  -0.925  1.00 20.00     0.014 C 
HETATM    9  C8  UNL     1     -33.136  17.499  -1.888  1.00 20.00     0.042 C 
ENDBRANCH   6   7
ENDBRANCH   4   6
BRANCH   5  10
HETATM   10  O10 UNL     1     -32.877  14.015  -4.583  1.00 20.00    -0.395 OA
HETATM   11  H26 UNL     1     -33.387  13.268  -4.227  1.00 20.00     0.210 HD
ENDBRANCH   5  10
TORSDOF 3
ENDMDL
