MODEL 1
REMARK VINA RESULT:      -6.0      0.000      0.000
REMARK  3 active torsions:
REMARK  status: ('A' for Active; 'I' for Inactive)
REMARK    1  A    between atoms: C5_5  and  C9_9 
REMARK    2  A    between atoms: C6_6  and  C10_10 
REMARK    3  A    between atoms: C9_9  and  C11_11 
ROOT
HETATM    1  C1  UNL     1     -32.209   8.177   4.111  1.00 20.00     0.131 C 
HETATM    2  C2  UNL     1     -32.949   7.988   5.418  1.00 20.00     0.079 C 
HETATM    3  C3  UNL     1     -33.624   6.624   5.458  1.00 20.00     0.012 C 
HETATM    4  C4  UNL     1     -33.686   6.539   2.940  1.00 20.00     0.016 C 
HETATM    5  C5  UNL     1     -33.016   7.913   2.845  1.00 20.00     0.055 C 
HETATM    6  C6  UNL     1     -34.512   6.392   4.228  1.00 20.00    -0.014 C 
HETATM    7  O12 UNL     1     -31.057   8.605   4.092  1.00 20.00    -0.298 OA
ENDROOT
BRANCH   5   8
HETATM    8  C9  UNL     1     -32.148   8.004   1.594  1.00 20.00     0.012 C 
BRANCH   8   9
HETATM    9  C11 UNL     1     -32.219   9.394   0.970  1.00 20.00    -0.004 C 
HETATM   10  C8  UNL     1     -33.035   9.385  -0.312  1.00 20.00     0.005 C 
ENDBRANCH   8   9
ENDBRANCH   5   8
BRANCH   6  11
HETATM   11  C10 UNL     1     -35.169   5.015   4.292  1.00 20.00     0.000 C 
HETATM   12  C7  UNL     1     -34.154   3.924   4.380  1.00 20.00     0.005 C 
ENDBRANCH   6  11
TORSDOF 3
ENDMDL
MODEL 2
REMARK VINA RESULT:      -5.7      1.265      4.663
REMARK  3 active torsions:
REMARK  status: ('A' for Active; 'I' for Inactive)
REMARK    1  A    between atoms: C5_5  and  C9_9 
REMARK    2  A    between atoms: C6_6  and  C10_10 
REMARK    3  A    between atoms: C9_9  and  C11_11 
ROOT
HETATM    1  C1  UNL     1     -32.822   7.557   4.456  1.00 20.00     0.131 C 
HETATM    2  C2  UNL     1     -31.545   8.322   4.178  1.00 20.00     0.079 C 
HETATM    3  C3  UNL     1     -31.653   9.085   2.865  1.00 20.00     0.012 C 
HETATM    4  C4  UNL     1     -33.398   7.470   2.028  1.00 20.00     0.016 C 
HETATM    5  C5  UNL     1     -33.321   6.662   3.327  1.00 20.00     0.055 C 
HETATM    6  C6  UNL     1     -32.066   8.167   1.707  1.00 20.00    -0.014 C 
HETATM    7  O12 UNL     1     -33.356   7.599   5.563  1.00 20.00    -0.298 OA
ENDROOT
BRANCH   5   8
HETATM    8  C9  UNL     1     -34.675   6.041   3.657  1.00 20.00     0.012 C 
BRANCH   8   9
HETATM    9  C11 UNL     1     -34.514   4.645   4.251  1.00 20.00    -0.004 C 
HETATM   10  C8  UNL     1     -34.618   4.673   5.767  1.00 20.00     0.005 C 
ENDBRANCH   8   9
ENDBRANCH   5   8
BRANCH   6  11
HETATM   11  C10 UNL     1     -32.174   8.960   0.406  1.00 20.00     0.000 C 
HETATM   12  C7  UNL     1     -32.619  10.364   0.652  1.00 20.00     0.005 C 
ENDBRANCH   6  11
TORSDOF 3
ENDMDL
MODEL 3
REMARK VINA RESULT:      -4.9     11.097     12.009
REMARK  3 active torsions:
REMARK  status: ('A' for Active; 'I' for Inactive)
REMARK    1  A    between atoms: C5_5  and  C9_9 
REMARK    2  A    between atoms: C6_6  and  C10_10 
REMARK    3  A    between atoms: C9_9  and  C11_11 
ROOT
HETATM    1  C1  UNL     1     -33.462  16.895  -4.825  1.00 20.00     0.131 C 
HETATM    2  C2  UNL     1     -33.406  16.161  -6.149  1.00 20.00     0.079 C 
HETATM    3  C3  UNL     1     -34.613  15.246  -6.303  1.00 20.00     0.012 C 
HETATM    4  C4  UNL     1     -34.882  15.114  -3.801  1.00 20.00     0.016 C 
HETATM    5  C5  UNL     1     -33.668  16.025  -3.590  1.00 20.00     0.055 C 
HETATM    6  C6  UNL     1     -34.770  14.304  -5.102  1.00 20.00    -0.014 C 
HETATM    7  O12 UNL     1     -33.259  18.106  -4.764  1.00 20.00    -0.298 OA
ENDROOT
BRANCH   5   8
HETATM    8  C9  UNL     1     -33.839  16.868  -2.330  1.00 20.00     0.012 C 
BRANCH   8   9
HETATM    9  C11 UNL     1     -35.251  16.741  -1.766  1.00 20.00    -0.004 C 
HETATM   10  C8  UNL     1     -35.361  17.394  -0.398  1.00 20.00     0.005 C 
ENDBRANCH   8   9
ENDBRANCH   5   8
BRANCH   6  11
HETATM   11  C10 UNL     1     -35.991  13.404  -5.282  1.00 20.00     0.000 C 
HETATM   12  C7  UNL     1     -37.262  14.187  -5.247  1.00 20.00     0.005 C 
ENDBRANCH   6  11
TORSDOF 3
ENDMDL
MODEL 4
REMARK VINA RESULT:      -4.7     10.748     11.746
REMARK  3 active torsions:
REMARK  status: ('A' for Active; 'I' for Inactive)
REMARK    1  A    between atoms: C5_5  and  C9_9 
REMARK    2  A    between atoms: C6_6  and  C10_10 
REMARK    3  A    between atoms: C9_9  and  C11_11 
ROOT
HETATM    1  C1  UNL     1     -35.316  17.100  -1.764  1.00 20.00     0.131 C 
HETATM    2  C2  UNL     1     -35.519  17.354  -0.285  1.00 20.00     0.079 C 
HETATM    3  C3  UNL     1     -34.579  18.448   0.203  1.00 20.00     0.012 C 
HETATM    4  C4  UNL     1     -32.973  17.960  -1.678  1.00 20.00     0.016 C 
HETATM    5  C5  UNL     1     -33.880  16.843  -2.206  1.00 20.00     0.055 C 
HETATM    6  C6  UNL     1     -33.118  18.146  -0.160  1.00 20.00    -0.014 C 
HETATM    7  O12 UNL     1     -36.276  17.019  -2.529  1.00 20.00    -0.298 OA
ENDROOT
BRANCH   5   8
HETATM    8  C9  UNL     1     -33.769  16.729  -3.722  1.00 20.00     0.012 C 
BRANCH   8   9
HETATM    9  C11 UNL     1     -33.283  15.345  -4.140  1.00 20.00    -0.004 C 
HETATM   10  C8  UNL     1     -34.424  14.341  -4.165  1.00 20.00     0.005 C 
ENDBRANCH   8   9
ENDBRANCH   5   8
BRANCH   6  11
HETATM   11  C10 UNL     1     -32.200  19.263   0.335  1.00 20.00     0.000 C 
HETATM   12  C7  UNL     1     -31.110  18.733   1.207  1.00 20.00     0.005 C 
ENDBRANCH   6  11
TORSDOF 3
ENDMDL
MODEL 5
REMARK VINA RESULT:      -4.6     11.006     11.751
REMARK  3 active torsions:
REMARK  status: ('A' for Active; 'I' for Inactive)
REMARK    1  A    between atoms: C5_5  and  C9_9 
REMARK    2  A    between atoms: C6_6  and  C10_10 
REMARK    3  A    between atoms: C9_9  and  C11_11 
ROOT
HETATM    1  C1  UNL     1     -35.166  18.125   0.586  1.00 20.00     0.131 C 
HETATM    2  C2  UNL     1     -36.140  17.696  -0.491  1.00 20.00     0.079 C 
HETATM    3  C3  UNL     1     -35.446  16.813  -1.519  1.00 20.00     0.012 C 
HETATM    4  C4  UNL     1     -33.214  17.834  -0.945  1.00 20.00     0.016 C 
HETATM    5  C5  UNL     1     -33.864  18.751   0.096  1.00 20.00     0.055 C 
HETATM    6  C6  UNL     1     -34.185  17.481  -2.083  1.00 20.00    -0.014 C 
HETATM    7  O12 UNL     1     -35.464  18.049   1.776  1.00 20.00    -0.298 OA
ENDROOT
BRANCH   5   8
HETATM    8  C9  UNL     1     -32.903  19.027   1.247  1.00 20.00     0.012 C 
BRANCH   8   9
HETATM    9  C11 UNL     1     -31.458  18.753   0.841  1.00 20.00    -0.004 C 
HETATM   10  C8  UNL     1     -30.550  18.661   2.057  1.00 20.00     0.005 C 
ENDBRANCH   8   9
ENDBRANCH   5   8
BRANCH   6  11
HETATM   11  C10 UNL     1     -33.506  16.570  -3.105  1.00 20.00     0.000 C 
HETATM   12  C7  UNL     1     -34.424  15.490  -3.575  1.00 20.00     0.005 C 
ENDBRANCH   6  11
TORSDOF 3
ENDMDL
MODEL 6
REMARK VINA RESULT:      -4.6     10.828     11.942
REMARK  3 active torsions:
REMARK  status: ('A' for Active; 'I' for Inactive)
REMARK    1  A    between atoms: C5_5  and  C9_9 
REMARK    2  A    between atoms: C6_6  and  C10_10 
REMARK    3  A    between atoms: C9_9  and  C11_11 
ROOT
HETATM    1  C1  UNL     1     -35.496  13.928  -5.014  1.00 20.00     0.131 C 
HETATM    2  C2  UNL     1     -34.006  14.188  -5.064  1.00 20.00     0.079 C 
HETATM    3  C3  UNL     1     -33.550  14.932  -3.817  1.00 20.00     0.012 C 
HETATM    4  C4  UNL     1     -35.868  15.864  -3.480  1.00 20.00     0.016 C 
HETATM    5  C5  UNL     1     -36.375  15.142  -4.733  1.00 20.00     0.055 C 
HETATM    6  C6  UNL     1     -34.373  16.206  -3.582  1.00 20.00    -0.014 C 
HETATM    7  O12 UNL     1     -35.955  12.818  -5.277  1.00 20.00    -0.298 OA
ENDROOT
BRANCH   5   8
HETATM    8  C9  UNL     1     -37.841  14.752  -4.574  1.00 20.00     0.012 C 
BRANCH   8   9
HETATM    9  C11 UNL     1     -38.663  15.181  -5.786  1.00 20.00    -0.004 C 
HETATM   10  C8  UNL     1     -37.945  16.251  -6.591  1.00 20.00     0.005 C 
ENDBRANCH   8   9
ENDBRANCH   5   8
BRANCH   6  11
HETATM   11  C10 UNL     1     -33.899  16.927  -2.321  1.00 20.00     0.000 C 
HETATM   12  C7  UNL     1     -34.983  17.015  -1.297  1.00 20.00     0.005 C 
ENDBRANCH   6  11
TORSDOF 3
ENDMDL
MODEL 7
REMARK VINA RESULT:      -4.5     11.091     11.909
REMARK  3 active torsions:
REMARK  status: ('A' for Active; 'I' for Inactive)
REMARK    1  A    between atoms: C5_5  and  C9_9 
REMARK    2  A    between atoms: C6_6  and  C10_10 
REMARK    3  A    between atoms: C9_9  and  C11_11 
ROOT
HETATM    1  C1  UNL     1     -33.885  15.055  -5.230  1.00 20.00     0.131 C 
HETATM    2  C2  UNL     1     -34.452  14.052  -6.212  1.00 20.00     0.079 C 
HETATM    3  C3  UNL     1     -35.950  14.258  -6.381  1.00 20.00     0.012 C 
HETATM    4  C4  UNL     1     -36.098  15.334  -4.107  1.00 20.00     0.016 C 
HETATM    5  C5  UNL     1     -34.594  15.143  -3.883  1.00 20.00     0.055 C 
HETATM    6  C6  UNL     1     -36.681  14.254  -5.031  1.00 20.00    -0.014 C 
HETATM    7  O12 UNL     1     -32.860  15.684  -5.488  1.00 20.00    -0.298 OA
ENDROOT
BRANCH   5   8
HETATM    8  C9  UNL     1     -34.030  16.267  -3.021  1.00 20.00     0.012 C 
BRANCH   8   9
HETATM    9  C11 UNL     1     -35.007  16.666  -1.920  1.00 20.00    -0.004 C 
HETATM   10  C8  UNL     1     -34.330  17.523  -0.863  1.00 20.00     0.005 C 
ENDBRANCH   8   9
ENDBRANCH   5   8
BRANCH   6  11
HETATM   11  C10 UNL     1     -38.180  14.469  -5.231  1.00 20.00     0.000 C 
HETATM   12  C7  UNL     1     -38.669  15.664  -4.481  1.00 20.00     0.005 C 
ENDBRANCH   6  11
TORSDOF 3
ENDMDL
MODEL 8
REMARK VINA RESULT:      -4.4     10.679     11.758
REMARK  3 active torsions:
REMARK  status: ('A' for Active; 'I' for Inactive)
REMARK    1  A    between atoms: C5_5  and  C9_9 
REMARK    2  A    between atoms: C6_6  and  C10_10 
REMARK    3  A    between atoms: C9_9  and  C11_11 
ROOT
HETATM    1  C1  UNL     1     -35.657  17.740  -0.980  1.00 20.00     0.131 C 
HETATM    2  C2  UNL     1     -36.427  17.299  -2.207  1.00 20.00     0.079 C 
HETATM    3  C3  UNL     1     -35.656  16.226  -2.963  1.00 20.00     0.012 C 
HETATM    4  C4  UNL     1     -33.481  17.047  -1.990  1.00 20.00     0.016 C 
HETATM    5  C5  UNL     1     -34.208  18.151  -1.214  1.00 20.00     0.055 C 
HETATM    6  C6  UNL     1     -34.223  16.672  -3.282  1.00 20.00    -0.014 C 
HETATM    7  O12 UNL     1     -36.213  17.843   0.113  1.00 20.00    -0.298 OA
ENDROOT
BRANCH   5   8
HETATM    8  C9  UNL     1     -33.488  18.451   0.097  1.00 20.00     0.012 C 
BRANCH   8   9
HETATM    9  C11 UNL     1     -31.987  18.614  -0.119  1.00 20.00    -0.004 C 
HETATM   10  C8  UNL     1     -31.258  18.827   1.198  1.00 20.00     0.005 C 
ENDBRANCH   8   9
ENDBRANCH   5   8
BRANCH   6  11
HETATM   11  C10 UNL     1     -33.473  15.574  -4.034  1.00 20.00     0.000 C 
HETATM   12  C7  UNL     1     -34.282  14.322  -4.129  1.00 20.00     0.005 C 
ENDBRANCH   6  11
TORSDOF 3
ENDMDL
MODEL 9
REMARK VINA RESULT:      -4.4     10.824     12.173
REMARK  3 active torsions:
REMARK  status: ('A' for Active; 'I' for Inactive)
REMARK    1  A    between atoms: C5_5  and  C9_9 
REMARK    2  A    between atoms: C6_6  and  C10_10 
REMARK    3  A    between atoms: C9_9  and  C11_11 
ROOT
HETATM    1  C1  UNL     1     -33.647  16.482  -4.968  1.00 20.00     0.131 C 
HETATM    2  C2  UNL     1     -33.557  17.981  -4.778  1.00 20.00     0.079 C 
HETATM    3  C3  UNL     1     -33.311  18.320  -3.314  1.00 20.00     0.012 C 
HETATM    4  C4  UNL     1     -34.345  16.136  -2.596  1.00 20.00     0.016 C 
HETATM    5  C5  UNL     1     -34.623  15.751  -4.053  1.00 20.00     0.055 C 
HETATM    6  C6  UNL     1     -34.349  17.660  -2.396  1.00 20.00    -0.014 C 
HETATM    7  O12 UNL     1     -33.032  15.921  -5.873  1.00 20.00    -0.298 OA
ENDROOT
BRANCH   5   8
HETATM    8  C9  UNL     1     -34.542  14.239  -4.235  1.00 20.00     0.012 C 
BRANCH   8   9
HETATM    9  C11 UNL     1     -35.738  13.711  -5.022  1.00 20.00    -0.004 C 
HETATM   10  C8  UNL     1     -36.961  14.593  -4.828  1.00 20.00     0.005 C 
ENDBRANCH   8   9
ENDBRANCH   5   8
BRANCH   6  11
HETATM   11  C10 UNL     1     -34.073  18.011  -0.935  1.00 20.00     0.000 C 
HETATM   12  C7  UNL     1     -32.651  18.414  -0.724  1.00 20.00     0.005 C 
ENDBRANCH   6  11
TORSDOF 3
ENDMDL
