MODEL 1
REMARK VINA RESULT:      -6.4      0.000      0.000
REMARK  3 active torsions:
REMARK  status: ('A' for Active; 'I' for Inactive)
REMARK    1  A    between atoms: C2_2  and  C9_9 
REMARK    2  A    between atoms: C6_6  and  C9_9 
REMARK    3  A    between atoms: C7_7  and  O10_10 
ROOT
HETATM    1  C3  UNL     1     -34.630   5.346   3.780  1.00 20.00     0.003 C 
HETATM    2  C4  UNL     1     -33.683   6.115   2.858  1.00 20.00     0.007 C 
HETATM    3  C5  UNL     1     -34.528   6.010   5.153  1.00 20.00     0.032 C 
HETATM    4  C6  UNL     1     -32.753   6.872   3.801  1.00 20.00     0.018 C 
HETATM    5  C7  UNL     1     -33.695   7.270   4.935  1.00 20.00     0.122 C 
ENDROOT
BRANCH   4   6
HETATM    6  C9  UNL     1     -32.071   8.061   3.143  1.00 20.00     0.034 C 
BRANCH   6   7
HETATM    7  C2  UNL     1     -32.550   8.257   1.735  1.00 20.00    -0.031 C 
HETATM    8  C1  UNL     1     -32.507   9.432   1.090  1.00 20.00    -0.035 C 
HETATM    9  C8  UNL     1     -32.988   9.630  -0.309  1.00 20.00     0.036 C 
ENDBRANCH   6   7
ENDBRANCH   4   6
BRANCH   5  10
HETATM   10  O10 UNL     1     -32.974   7.623   6.100  1.00 20.00    -0.395 OA
HETATM   11  H26 UNL     1     -32.133   8.015   5.809  1.00 20.00     0.210 HD
ENDBRANCH   5  10
TORSDOF 3
ENDMDL
MODEL 2
REMARK VINA RESULT:      -6.3      1.528      1.976
REMARK  3 active torsions:
REMARK  status: ('A' for Active; 'I' for Inactive)
REMARK    1  A    between atoms: C2_2  and  C9_9 
REMARK    2  A    between atoms: C6_6  and  C9_9 
REMARK    3  A    between atoms: C7_7  and  O10_10 
ROOT
HETATM    1  C3  UNL     1     -34.487   6.298   5.902  1.00 20.00     0.003 C 
HETATM    2  C4  UNL     1     -33.398   7.298   5.512  1.00 20.00     0.007 C 
HETATM    3  C5  UNL     1     -34.770   5.462   4.654  1.00 20.00     0.032 C 
HETATM    4  C6  UNL     1     -33.417   7.317   3.987  1.00 20.00     0.018 C 
HETATM    5  C7  UNL     1     -33.693   5.854   3.647  1.00 20.00     0.122 C 
ENDROOT
BRANCH   4   6
HETATM    6  C9  UNL     1     -32.126   7.840   3.378  1.00 20.00     0.034 C 
BRANCH   6   7
HETATM    7  C2  UNL     1     -32.322   8.254   1.950  1.00 20.00    -0.031 C 
HETATM    8  C1  UNL     1     -32.513   9.523   1.560  1.00 20.00    -0.035 C 
HETATM    9  C8  UNL     1     -32.713   9.935   0.140  1.00 20.00     0.036 C 
ENDBRANCH   6   7
ENDBRANCH   4   6
BRANCH   5  10
HETATM   10  O10 UNL     1     -34.152   5.715   2.316  1.00 20.00    -0.395 OA
HETATM   11  H26 UNL     1     -33.461   6.076   1.736  1.00 20.00     0.210 HD
ENDBRANCH   5  10
TORSDOF 3
ENDMDL
MODEL 3
REMARK VINA RESULT:      -5.7      1.045      1.227
REMARK  3 active torsions:
REMARK  status: ('A' for Active; 'I' for Inactive)
REMARK    1  A    between atoms: C2_2  and  C9_9 
REMARK    2  A    between atoms: C6_6  and  C9_9 
REMARK    3  A    between atoms: C7_7  and  O10_10 
ROOT
HETATM    1  C3  UNL     1     -34.357   4.198   4.354  1.00 20.00     0.003 C 
HETATM    2  C4  UNL     1     -34.001   5.262   3.315  1.00 20.00     0.007 C 
HETATM    3  C5  UNL     1     -34.526   4.933   5.683  1.00 20.00     0.032 C 
HETATM    4  C6  UNL     1     -33.537   6.463   4.134  1.00 20.00     0.018 C 
HETATM    5  C7  UNL     1     -34.477   6.418   5.337  1.00 20.00     0.122 C 
ENDROOT
BRANCH   4   6
HETATM    6  C9  UNL     1     -33.607   7.774   3.367  1.00 20.00     0.034 C 
BRANCH   6   7
HETATM    7  C2  UNL     1     -32.513   7.870   2.345  1.00 20.00    -0.031 C 
HETATM    8  C1  UNL     1     -32.429   8.849   1.432  1.00 20.00    -0.035 C 
HETATM    9  C8  UNL     1     -31.343   8.943   0.412  1.00 20.00     0.036 C 
ENDBRANCH   6   7
ENDBRANCH   4   6
BRANCH   5  10
HETATM   10  O10 UNL     1     -33.969   7.185   6.412  1.00 20.00    -0.395 OA
HETATM   11  H26 UNL     1     -34.666   7.226   7.089  1.00 20.00     0.210 HD
ENDBRANCH   5  10
TORSDOF 3
ENDMDL
MODEL 4
REMARK VINA RESULT:      -5.7      1.574      2.124
REMARK  3 active torsions:
REMARK  status: ('A' for Active; 'I' for Inactive)
REMARK    1  A    between atoms: C2_2  and  C9_9 
REMARK    2  A    between atoms: C6_6  and  C9_9 
REMARK    3  A    between atoms: C7_7  and  O10_10 
ROOT
HETATM    1  C3  UNL     1     -33.652   7.358   6.251  1.00 20.00     0.003 C 
HETATM    2  C4  UNL     1     -32.970   7.723   4.932  1.00 20.00     0.007 C 
HETATM    3  C5  UNL     1     -34.595   6.195   5.942  1.00 20.00     0.032 C 
HETATM    4  C6  UNL     1     -33.848   7.094   3.855  1.00 20.00     0.018 C 
HETATM    5  C7  UNL     1     -34.275   5.782   4.509  1.00 20.00     0.122 C 
ENDROOT
BRANCH   4   6
HETATM    6  C9  UNL     1     -33.126   6.898   2.532  1.00 20.00     0.034 C 
BRANCH   6   7
HETATM    7  C2  UNL     1     -32.441   8.157   2.091  1.00 20.00    -0.031 C 
HETATM    8  C1  UNL     1     -32.934   8.987   1.159  1.00 20.00    -0.035 C 
HETATM    9  C8  UNL     1     -32.251  10.238   0.715  1.00 20.00     0.036 C 
ENDBRANCH   6   7
ENDBRANCH   4   6
BRANCH   5  10
HETATM   10  O10 UNL     1     -35.406   5.231   3.863  1.00 20.00    -0.395 OA
HETATM   11  H26 UNL     1     -35.363   4.267   3.980  1.00 20.00     0.210 HD
ENDBRANCH   5  10
TORSDOF 3
ENDMDL
MODEL 5
REMARK VINA RESULT:      -4.8     10.987     11.752
REMARK  3 active torsions:
REMARK  status: ('A' for Active; 'I' for Inactive)
REMARK    1  A    between atoms: C2_2  and  C9_9 
REMARK    2  A    between atoms: C6_6  and  C9_9 
REMARK    3  A    between atoms: C7_7  and  O10_10 
ROOT
HETATM    1  C3  UNL     1     -33.993  14.545  -7.426  1.00 20.00     0.003 C 
HETATM    2  C4  UNL     1     -33.947  15.428  -6.179  1.00 20.00     0.007 C 
HETATM    3  C5  UNL     1     -34.948  13.396  -7.105  1.00 20.00     0.032 C 
HETATM    4  C6  UNL     1     -34.492  14.546  -5.059  1.00 20.00     0.018 C 
HETATM    5  C7  UNL     1     -35.591  13.760  -5.771  1.00 20.00     0.122 C 
ENDROOT
BRANCH   4   6
HETATM    6  C9  UNL     1     -34.998  15.339  -3.865  1.00 20.00     0.034 C 
BRANCH   6   7
HETATM    7  C2  UNL     1     -33.934  16.240  -3.315  1.00 20.00    -0.031 C 
HETATM    8  C1  UNL     1     -34.039  16.893  -2.148  1.00 20.00    -0.035 C 
HETATM    9  C8  UNL     1     -32.983  17.795  -1.601  1.00 20.00     0.036 C 
ENDBRANCH   6   7
ENDBRANCH   4   6
BRANCH   5  10
HETATM   10  O10 UNL     1     -35.952  12.606  -5.037  1.00 20.00    -0.395 OA
HETATM   11  H26 UNL     1     -36.590  12.110  -5.577  1.00 20.00     0.210 HD
ENDBRANCH   5  10
TORSDOF 3
ENDMDL
MODEL 6
REMARK VINA RESULT:      -4.5     10.384     11.169
REMARK  3 active torsions:
REMARK  status: ('A' for Active; 'I' for Inactive)
REMARK    1  A    between atoms: C2_2  and  C9_9 
REMARK    2  A    between atoms: C6_6  and  C9_9 
REMARK    3  A    between atoms: C7_7  and  O10_10 
ROOT
HETATM    1  C3  UNL     1     -36.761  14.522  -4.910  1.00 20.00     0.003 C 
HETATM    2  C4  UNL     1     -36.274  15.672  -4.027  1.00 20.00     0.007 C 
HETATM    3  C5  UNL     1     -35.555  13.609  -5.132  1.00 20.00     0.032 C 
HETATM    4  C6  UNL     1     -34.753  15.635  -4.148  1.00 20.00     0.018 C 
HETATM    5  C7  UNL     1     -34.467  14.137  -4.202  1.00 20.00     0.122 C 
ENDROOT
BRANCH   4   6
HETATM    6  C9  UNL     1     -34.044  16.341  -3.003  1.00 20.00     0.034 C 
BRANCH   6   7
HETATM    7  C2  UNL     1     -34.985  16.630  -1.872  1.00 20.00    -0.031 C 
HETATM    8  C1  UNL     1     -34.656  17.361  -0.796  1.00 20.00    -0.035 C 
HETATM    9  C8  UNL     1     -35.590  17.645   0.333  1.00 20.00     0.036 C 
ENDBRANCH   6   7
ENDBRANCH   4   6
BRANCH   5  10
HETATM   10  O10 UNL     1     -33.175  13.880  -4.718  1.00 20.00    -0.395 OA
HETATM   11  H26 UNL     1     -33.011  14.534  -5.418  1.00 20.00     0.210 HD
ENDBRANCH   5  10
TORSDOF 3
ENDMDL
MODEL 7
REMARK VINA RESULT:      -4.5     10.713     11.835
REMARK  3 active torsions:
REMARK  status: ('A' for Active; 'I' for Inactive)
REMARK    1  A    between atoms: C2_2  and  C9_9 
REMARK    2  A    between atoms: C6_6  and  C9_9 
REMARK    3  A    between atoms: C7_7  and  O10_10 
ROOT
HETATM    1  C3  UNL     1     -35.576  15.281  -7.556  1.00 20.00     0.003 C 
HETATM    2  C4  UNL     1     -34.396  15.565  -6.626  1.00 20.00     0.007 C 
HETATM    3  C5  UNL     1     -36.385  14.164  -6.898  1.00 20.00     0.032 C 
HETATM    4  C6  UNL     1     -34.307  14.334  -5.729  1.00 20.00     0.018 C 
HETATM    5  C7  UNL     1     -35.776  13.982  -5.512  1.00 20.00     0.122 C 
ENDROOT
BRANCH   4   6
HETATM    6  C9  UNL     1     -33.553  14.591  -4.433  1.00 20.00     0.034 C 
BRANCH   6   7
HETATM    7  C2  UNL     1     -34.366  15.416  -3.481  1.00 20.00    -0.031 C 
HETATM    8  C1  UNL     1     -33.860  16.412  -2.739  1.00 20.00    -0.035 C 
HETATM    9  C8  UNL     1     -34.667  17.232  -1.787  1.00 20.00     0.036 C 
ENDBRANCH   6   7
ENDBRANCH   4   6
BRANCH   5  10
HETATM   10  O10 UNL     1     -35.922  12.653  -5.051  1.00 20.00    -0.395 OA
HETATM   11  H26 UNL     1     -35.037  12.251  -5.051  1.00 20.00     0.210 HD
ENDBRANCH   5  10
TORSDOF 3
ENDMDL
MODEL 8
REMARK VINA RESULT:      -4.4     10.687     11.211
REMARK  3 active torsions:
REMARK  status: ('A' for Active; 'I' for Inactive)
REMARK    1  A    between atoms: C2_2  and  C9_9 
REMARK    2  A    between atoms: C6_6  and  C9_9 
REMARK    3  A    between atoms: C7_7  and  O10_10 
ROOT
HETATM    1  C3  UNL     1     -35.318  17.716   0.193  1.00 20.00     0.003 C 
HETATM    2  C4  UNL     1     -35.339  16.998  -1.157  1.00 20.00     0.007 C 
HETATM    3  C5  UNL     1     -33.993  18.474   0.257  1.00 20.00     0.032 C 
HETATM    4  C6  UNL     1     -33.883  16.989  -1.614  1.00 20.00     0.018 C 
HETATM    5  C7  UNL     1     -33.385  18.351  -1.136  1.00 20.00     0.122 C 
ENDROOT
BRANCH   4   6
HETATM    6  C9  UNL     1     -33.726  16.784  -3.112  1.00 20.00     0.034 C 
BRANCH   6   7
HETATM    7  C2  UNL     1     -34.763  15.842  -3.647  1.00 20.00    -0.031 C 
HETATM    8  C1  UNL     1     -34.474  14.674  -4.240  1.00 20.00    -0.035 C 
HETATM    9  C8  UNL     1     -35.504  13.737  -4.777  1.00 20.00     0.036 C 
ENDBRANCH   6   7
ENDBRANCH   4   6
BRANCH   5  10
HETATM   10  O10 UNL     1     -31.971  18.392  -1.091  1.00 20.00    -0.395 OA
HETATM   11  H26 UNL     1     -31.722  18.733  -0.215  1.00 20.00     0.210 HD
ENDBRANCH   5  10
TORSDOF 3
ENDMDL
MODEL 9
REMARK VINA RESULT:      -4.3     10.498     11.391
REMARK  3 active torsions:
REMARK  status: ('A' for Active; 'I' for Inactive)
REMARK    1  A    between atoms: C2_2  and  C9_9 
REMARK    2  A    between atoms: C6_6  and  C9_9 
REMARK    3  A    between atoms: C7_7  and  O10_10 
ROOT
HETATM    1  C3  UNL     1     -34.437  18.424   1.223  1.00 20.00     0.003 C 
HETATM    2  C4  UNL     1     -34.809  18.120  -0.229  1.00 20.00     0.007 C 
HETATM    3  C5  UNL     1     -32.929  18.670   1.238  1.00 20.00     0.032 C 
HETATM    4  C6  UNL     1     -33.488  17.757  -0.900  1.00 20.00     0.018 C 
HETATM    5  C7  UNL     1     -32.508  18.715  -0.227  1.00 20.00     0.122 C 
ENDROOT
BRANCH   4   6
HETATM    6  C9  UNL     1     -33.525  17.900  -2.413  1.00 20.00     0.034 C 
BRANCH   6   7
HETATM    7  C2  UNL     1     -33.513  16.561  -3.090  1.00 20.00    -0.031 C 
HETATM    8  C1  UNL     1     -34.615  15.832  -3.319  1.00 20.00    -0.035 C 
HETATM    9  C8  UNL     1     -34.604  14.498  -3.988  1.00 20.00     0.036 C 
ENDBRANCH   6   7
ENDBRANCH   4   6
BRANCH   5  10
HETATM   10  O10 UNL     1     -31.171  18.283  -0.396  1.00 20.00    -0.395 OA
HETATM   11  H26 UNL     1     -31.111  17.874  -1.277  1.00 20.00     0.210 HD
ENDBRANCH   5  10
TORSDOF 3
ENDMDL
