MODEL 1
REMARK VINA RESULT:      -5.5      0.000      0.000
REMARK  2 active torsions:
REMARK  status: ('A' for Active; 'I' for Inactive)
REMARK    1  A    between atoms: C4_4  and  C10_10 
REMARK    2  A    between atoms: C8_8  and  C10_10 
ROOT
HETATM    1  C5  UNL     1     -34.581   5.978   5.605  1.00 20.00     0.002 C 
HETATM    2  C6  UNL     1     -33.385   6.902   5.365  1.00 20.00     0.006 C 
HETATM    3  C7  UNL     1     -35.213   5.715   4.235  1.00 20.00     0.016 C 
HETATM    4  C8  UNL     1     -33.489   7.326   3.898  1.00 20.00     0.004 C 
HETATM    5  C9  UNL     1     -34.162   6.137   3.214  1.00 20.00     0.062 C 
HETATM    6 BR12 UNL     1     -32.952   4.642   2.876  1.00 20.00    -0.091 Br
ENDROOT
BRANCH   4   7
HETATM    7  C10 UNL     1     -32.175   7.810   3.308  1.00 20.00     0.045 C 
BRANCH   7   8
HETATM    8  C4  UNL     1     -32.390   8.655   2.079  1.00 20.00    -0.051 A 
HETATM    9  C1  UNL     1     -32.454  10.078   2.095  1.00 20.00     0.014 A 
HETATM   10  C2  UNL     1     -32.660  10.601   0.836  1.00 20.00     0.050 A 
HETATM   11  S11 UNL     1     -32.774   9.378  -0.357  1.00 20.00    -0.113 SA
HETATM   12  C3  UNL     1     -32.549   8.144   0.809  1.00 20.00     0.056 A 
ENDBRANCH   7   8
ENDBRANCH   4   7
TORSDOF 2
ENDMDL
MODEL 2
REMARK VINA RESULT:      -4.8     10.566     11.281
REMARK  2 active torsions:
REMARK  status: ('A' for Active; 'I' for Inactive)
REMARK    1  A    between atoms: C4_4  and  C10_10 
REMARK    2  A    between atoms: C8_8  and  C10_10 
ROOT
HETATM    1  C5  UNL     1     -35.631  13.640  -4.952  1.00 20.00     0.002 C 
HETATM    2  C6  UNL     1     -34.418  14.147  -4.168  1.00 20.00     0.006 C 
HETATM    3  C7  UNL     1     -36.630  14.800  -5.011  1.00 20.00     0.016 C 
HETATM    4  C8  UNL     1     -34.839  15.507  -3.606  1.00 20.00     0.004 C 
HETATM    5  C9  UNL     1     -35.832  16.044  -4.636  1.00 20.00     0.062 C 
HETATM    6 BR12 UNL     1     -34.983  16.774  -6.235  1.00 20.00    -0.091 Br
ENDROOT
BRANCH   4   7
HETATM    7  C10 UNL     1     -33.669  16.406  -3.241  1.00 20.00     0.045 C 
BRANCH   7   8
HETATM    8  C4  UNL     1     -33.897  17.120  -1.934  1.00 20.00    -0.051 A 
HETATM    9  C1  UNL     1     -35.092  17.009  -1.167  1.00 20.00     0.014 A 
HETATM   10  C2  UNL     1     -35.040  17.765  -0.016  1.00 20.00     0.050 A 
HETATM   11  S11 UNL     1     -33.554  18.603   0.136  1.00 20.00    -0.113 SA
HETATM   12  C3  UNL     1     -32.977  17.956  -1.340  1.00 20.00     0.056 A 
ENDBRANCH   7   8
ENDBRANCH   4   7
TORSDOF 2
ENDMDL
MODEL 3
REMARK VINA RESULT:      -4.7     10.487     11.308
REMARK  2 active torsions:
REMARK  status: ('A' for Active; 'I' for Inactive)
REMARK    1  A    between atoms: C4_4  and  C10_10 
REMARK    2  A    between atoms: C8_8  and  C10_10 
ROOT
HETATM    1  C5  UNL     1     -35.634  13.645  -5.180  1.00 20.00     0.002 C 
HETATM    2  C6  UNL     1     -34.578  14.066  -4.155  1.00 20.00     0.006 C 
HETATM    3  C7  UNL     1     -36.417  14.909  -5.546  1.00 20.00     0.016 C 
HETATM    4  C8  UNL     1     -34.921  15.512  -3.791  1.00 20.00     0.004 C 
HETATM    5  C9  UNL     1     -35.561  16.074  -5.060  1.00 20.00     0.062 C 
HETATM    6 BR12 UNL     1     -34.267  16.547  -6.444  1.00 20.00    -0.091 Br
ENDROOT
BRANCH   4   7
HETATM    7  C10 UNL     1     -33.753  16.288  -3.204  1.00 20.00     0.045 C 
BRANCH   7   8
HETATM    8  C4  UNL     1     -34.129  16.983  -1.921  1.00 20.00    -0.051 A 
HETATM    9  C1  UNL     1     -33.239  17.806  -1.173  1.00 20.00     0.014 A 
HETATM   10  C2  UNL     1     -33.835  18.318  -0.041  1.00 20.00     0.050 A 
HETATM   11  S11 UNL     1     -35.462  17.806   0.116  1.00 20.00    -0.113 SA
HETATM   12  C3  UNL     1     -35.372  16.897  -1.332  1.00 20.00     0.056 A 
ENDBRANCH   7   8
ENDBRANCH   4   7
TORSDOF 2
ENDMDL
MODEL 4
REMARK VINA RESULT:      -4.7      2.842      5.093
REMARK  2 active torsions:
REMARK  status: ('A' for Active; 'I' for Inactive)
REMARK    1  A    between atoms: C4_4  and  C10_10 
REMARK    2  A    between atoms: C8_8  and  C10_10 
ROOT
HETATM    1  C5  UNL     1     -31.896   9.070  -0.481  1.00 20.00     0.002 C 
HETATM    2  C6  UNL     1     -31.395   8.337   0.766  1.00 20.00     0.006 C 
HETATM    3  C7  UNL     1     -33.243   9.697  -0.108  1.00 20.00     0.016 C 
HETATM    4  C8  UNL     1     -32.564   8.373   1.753  1.00 20.00     0.004 C 
HETATM    5  C9  UNL     1     -33.297   9.670   1.415  1.00 20.00     0.062 C 
HETATM    6 BR12 UNL     1     -32.425  11.268   2.122  1.00 20.00    -0.091 Br
ENDROOT
BRANCH   4   7
HETATM    7  C10 UNL     1     -32.146   8.172   3.201  1.00 20.00     0.045 C 
BRANCH   7   8
HETATM    8  C4  UNL     1     -33.086   7.249   3.933  1.00 20.00    -0.051 A 
HETATM    9  C1  UNL     1     -33.400   7.370   5.317  1.00 20.00     0.014 A 
HETATM   10  C2  UNL     1     -34.283   6.398   5.734  1.00 20.00     0.050 A 
HETATM   11  S11 UNL     1     -34.731   5.347   4.459  1.00 20.00    -0.113 SA
HETATM   12  C3  UNL     1     -33.741   6.190   3.344  1.00 20.00     0.056 A 
ENDBRANCH   7   8
ENDBRANCH   4   7
TORSDOF 2
ENDMDL
MODEL 5
REMARK VINA RESULT:      -4.7     10.667     11.622
REMARK  2 active torsions:
REMARK  status: ('A' for Active; 'I' for Inactive)
REMARK    1  A    between atoms: C4_4  and  C10_10 
REMARK    2  A    between atoms: C8_8  and  C10_10 
ROOT
HETATM    1  C5  UNL     1     -33.624  16.828  -5.957  1.00 20.00     0.002 C 
HETATM    2  C6  UNL     1     -34.295  17.377  -4.696  1.00 20.00     0.006 C 
HETATM    3  C7  UNL     1     -32.949  15.512  -5.557  1.00 20.00     0.016 C 
HETATM    4  C8  UNL     1     -33.805  16.482  -3.554  1.00 20.00     0.004 C 
HETATM    5  C9  UNL     1     -33.571  15.126  -4.219  1.00 20.00     0.062 C 
HETATM    6 BR12 UNL     1     -35.212  14.117  -4.537  1.00 20.00    -0.091 Br
ENDROOT
BRANCH   4   7
HETATM    7  C10 UNL     1     -34.706  16.505  -2.330  1.00 20.00     0.045 C 
BRANCH   7   8
HETATM    8  C4  UNL     1     -34.153  17.391  -1.244  1.00 20.00    -0.051 A 
HETATM    9  C1  UNL     1     -32.847  17.960  -1.272  1.00 20.00     0.014 A 
HETATM   10  C2  UNL     1     -32.593  18.727  -0.156  1.00 20.00     0.050 A 
HETATM   11  S11 UNL     1     -33.926  18.759   0.919  1.00 20.00    -0.113 SA
HETATM   12  C3  UNL     1     -34.847  17.744  -0.108  1.00 20.00     0.056 A 
ENDBRANCH   7   8
ENDBRANCH   4   7
TORSDOF 2
ENDMDL
MODEL 6
REMARK VINA RESULT:      -4.6     10.747     11.436
REMARK  2 active torsions:
REMARK  status: ('A' for Active; 'I' for Inactive)
REMARK    1  A    between atoms: C4_4  and  C10_10 
REMARK    2  A    between atoms: C8_8  and  C10_10 
ROOT
HETATM    1  C5  UNL     1     -35.539  17.345  -1.011  1.00 20.00     0.002 C 
HETATM    2  C6  UNL     1     -35.508  16.670  -2.384  1.00 20.00     0.006 C 
HETATM    3  C7  UNL     1     -34.085  17.660  -0.645  1.00 20.00     0.016 C 
HETATM    4  C8  UNL     1     -34.027  16.413  -2.676  1.00 20.00     0.004 C 
HETATM    5  C9  UNL     1     -33.303  17.545  -1.949  1.00 20.00     0.062 C 
HETATM    6 BR12 UNL     1     -33.372  19.252  -2.896  1.00 20.00    -0.091 Br
ENDROOT
BRANCH   4   7
HETATM    7  C10 UNL     1     -33.719  16.230  -4.153  1.00 20.00     0.045 C 
BRANCH   7   8
HETATM    8  C4  UNL     1     -34.735  15.351  -4.833  1.00 20.00    -0.051 A 
HETATM    9  C1  UNL     1     -34.971  13.991  -4.481  1.00 20.00     0.014 A 
HETATM   10  C2  UNL     1     -35.951  13.416  -5.261  1.00 20.00     0.050 A 
HETATM   11  S11 UNL     1     -36.583  14.516  -6.411  1.00 20.00    -0.113 SA
HETATM   12  C3  UNL     1     -35.544  15.764  -5.869  1.00 20.00     0.056 A 
ENDBRANCH   7   8
ENDBRANCH   4   7
TORSDOF 2
ENDMDL
MODEL 7
REMARK VINA RESULT:      -4.4     10.869     11.541
REMARK  2 active torsions:
REMARK  status: ('A' for Active; 'I' for Inactive)
REMARK    1  A    between atoms: C4_4  and  C10_10 
REMARK    2  A    between atoms: C8_8  and  C10_10 
ROOT
HETATM    1  C5  UNL     1     -33.960  18.093  -0.136  1.00 20.00     0.002 C 
HETATM    2  C6  UNL     1     -35.165  17.322  -0.681  1.00 20.00     0.006 C 
HETATM    3  C7  UNL     1     -32.896  18.078  -1.238  1.00 20.00     0.016 C 
HETATM    4  C8  UNL     1     -34.684  16.693  -1.991  1.00 20.00     0.004 C 
HETATM    5  C9  UNL     1     -33.633  17.673  -2.510  1.00 20.00     0.062 C 
HETATM    6 BR12 UNL     1     -34.394  19.263  -3.351  1.00 20.00    -0.091 Br
ENDROOT
BRANCH   4   7
HETATM    7  C10 UNL     1     -35.812  16.322  -2.940  1.00 20.00     0.045 C 
BRANCH   7   8
HETATM    8  C4  UNL     1     -35.293  15.720  -4.220  1.00 20.00    -0.051 A 
HETATM    9  C1  UNL     1     -34.469  14.559  -4.274  1.00 20.00     0.014 A 
HETATM   10  C2  UNL     1     -34.134  14.222  -5.567  1.00 20.00     0.050 A 
HETATM   11  S11 UNL     1     -34.812  15.303  -6.709  1.00 20.00    -0.113 SA
HETATM   12  C3  UNL     1     -35.556  16.226  -5.473  1.00 20.00     0.056 A 
ENDBRANCH   7   8
ENDBRANCH   4   7
TORSDOF 2
ENDMDL
MODEL 8
REMARK VINA RESULT:      -4.1     10.626     11.946
REMARK  2 active torsions:
REMARK  status: ('A' for Active; 'I' for Inactive)
REMARK    1  A    between atoms: C4_4  and  C10_10 
REMARK    2  A    between atoms: C8_8  and  C10_10 
ROOT
HETATM    1  C5  UNL     1     -34.470  17.198  -6.698  1.00 20.00     0.002 C 
HETATM    2  C6  UNL     1     -34.813  17.199  -5.207  1.00 20.00     0.006 C 
HETATM    3  C7  UNL     1     -33.608  15.957  -6.949  1.00 20.00     0.016 C 
HETATM    4  C8  UNL     1     -33.961  16.084  -4.595  1.00 20.00     0.004 C 
HETATM    5  C9  UNL     1     -33.809  15.069  -5.726  1.00 20.00     0.062 C 
HETATM    6 BR12 UNL     1     -35.389  13.952  -5.991  1.00 20.00    -0.091 Br
ENDROOT
BRANCH   4   7
HETATM    7  C10 UNL     1     -34.493  15.567  -3.268  1.00 20.00     0.045 C 
BRANCH   7   8
HETATM    8  C4  UNL     1     -34.450  16.625  -2.196  1.00 20.00    -0.051 A 
HETATM    9  C1  UNL     1     -33.280  17.363  -1.856  1.00 20.00     0.014 A 
HETATM   10  C2  UNL     1     -33.515  18.267  -0.842  1.00 20.00     0.050 A 
HETATM   11  S11 UNL     1     -35.141  18.223  -0.306  1.00 20.00    -0.113 SA
HETATM   12  C3  UNL     1     -35.535  16.993  -1.431  1.00 20.00     0.056 A 
ENDBRANCH   7   8
ENDBRANCH   4   7
TORSDOF 2
ENDMDL
MODEL 9
REMARK VINA RESULT:      -4.0     10.605     11.880
REMARK  2 active torsions:
REMARK  status: ('A' for Active; 'I' for Inactive)
REMARK    1  A    between atoms: C4_4  and  C10_10 
REMARK    2  A    between atoms: C8_8  and  C10_10 
ROOT
HETATM    1  C5  UNL     1     -36.627  16.996  -6.154  1.00 20.00     0.002 C 
HETATM    2  C6  UNL     1     -36.252  16.970  -4.670  1.00 20.00     0.006 C 
HETATM    3  C7  UNL     1     -35.621  16.094  -6.876  1.00 20.00     0.016 C 
HETATM    4  C8  UNL     1     -34.912  16.234  -4.604  1.00 20.00     0.004 C 
HETATM    5  C9  UNL     1     -34.963  15.261  -5.781  1.00 20.00     0.062 C 
HETATM    6 BR12 UNL     1     -36.048  13.674  -5.437  1.00 20.00    -0.091 Br
ENDROOT
BRANCH   4   7
HETATM    7  C10 UNL     1     -34.603  15.648  -3.236  1.00 20.00     0.045 C 
BRANCH   7   8
HETATM    8  C4  UNL     1     -34.356  16.723  -2.209  1.00 20.00    -0.051 A 
HETATM    9  C1  UNL     1     -35.240  17.006  -1.128  1.00 20.00     0.014 A 
HETATM   10  C2  UNL     1     -34.777  18.037  -0.338  1.00 20.00     0.050 A 
HETATM   11  S11 UNL     1     -33.284  18.657  -0.901  1.00 20.00    -0.113 SA
HETATM   12  C3  UNL     1     -33.252  17.547  -2.205  1.00 20.00     0.056 A 
ENDBRANCH   7   8
ENDBRANCH   4   7
TORSDOF 2
ENDMDL
