MODEL 1
REMARK VINA RESULT:      -6.0      0.000      0.000
REMARK  3 active torsions:
REMARK  status: ('A' for Active; 'I' for Inactive)
REMARK    1  A    between atoms: C5_5  and  C9_9 
REMARK    2  A    between atoms: C6_6  and  C10_10 
REMARK    3  A    between atoms: C10_10  and  C11_11 
ROOT
HETATM    1  C1  UNL     1     -33.646   7.096   5.230  1.00 20.00     0.131 C 
HETATM    2  C2  UNL     1     -32.780   8.335   5.212  1.00 20.00     0.079 C 
HETATM    3  C3  UNL     1     -31.840   8.313   4.015  1.00 20.00     0.012 C 
HETATM    4  C4  UNL     1     -33.408   6.789   2.763  1.00 20.00     0.016 C 
HETATM    5  C5  UNL     1     -34.393   6.784   3.938  1.00 20.00     0.055 C 
HETATM    6  C6  UNL     1     -32.601   8.095   2.699  1.00 20.00    -0.013 C 
HETATM    7  O12 UNL     1     -33.798   6.444   6.263  1.00 20.00    -0.298 OA
ENDROOT
BRANCH   6   8
HETATM    8  C10 UNL     1     -31.634   8.072   1.517  1.00 20.00     0.004 C 
BRANCH   8   9
HETATM    9  C11 UNL     1     -31.990   9.143   0.491  1.00 20.00    -0.004 C 
HETATM   10  C8  UNL     1     -32.740  10.296   1.137  1.00 20.00     0.005 C 
ENDBRANCH   8   9
ENDBRANCH   6   8
BRANCH   5  11
HETATM   11  C9  UNL     1     -35.129   5.451   4.019  1.00 20.00     0.007 C 
HETATM   12  C7  UNL     1     -34.183   4.294   4.004  1.00 20.00     0.006 C 
ENDBRANCH   5  11
TORSDOF 3
ENDMDL
MODEL 2
REMARK VINA RESULT:      -5.6      1.042      1.321
REMARK  3 active torsions:
REMARK  status: ('A' for Active; 'I' for Inactive)
REMARK    1  A    between atoms: C5_5  and  C9_9 
REMARK    2  A    between atoms: C6_6  and  C10_10 
REMARK    3  A    between atoms: C10_10  and  C11_11 
ROOT
HETATM    1  C1  UNL     1     -34.098   5.908   5.249  1.00 20.00     0.131 C 
HETATM    2  C2  UNL     1     -33.967   7.340   5.719  1.00 20.00     0.079 C 
HETATM    3  C3  UNL     1     -32.796   8.024   5.028  1.00 20.00     0.012 C 
HETATM    4  C4  UNL     1     -32.952   6.421   3.091  1.00 20.00     0.016 C 
HETATM    5  C5  UNL     1     -34.140   5.702   3.740  1.00 20.00     0.055 C 
HETATM    6  C6  UNL     1     -32.885   7.901   3.501  1.00 20.00    -0.013 C 
HETATM    7  O12 UNL     1     -34.253   4.990   6.054  1.00 20.00    -0.298 OA
ENDROOT
BRANCH   6   8
HETATM    8  C10 UNL     1     -31.696   8.590   2.836  1.00 20.00     0.004 C 
BRANCH   8   9
HETATM    9  C11 UNL     1     -31.951   8.820   1.349  1.00 20.00    -0.004 C 
HETATM   10  C8  UNL     1     -32.620  10.163   1.108  1.00 20.00     0.005 C 
ENDBRANCH   8   9
ENDBRANCH   6   8
BRANCH   5  11
HETATM   11  C9  UNL     1     -34.140   4.221   3.372  1.00 20.00     0.007 C 
HETATM   12  C7  UNL     1     -33.034   3.886   2.425  1.00 20.00     0.006 C 
ENDBRANCH   5  11
TORSDOF 3
ENDMDL
MODEL 3
REMARK VINA RESULT:      -5.0      1.343      2.480
REMARK  3 active torsions:
REMARK  status: ('A' for Active; 'I' for Inactive)
REMARK    1  A    between atoms: C5_5  and  C9_9 
REMARK    2  A    between atoms: C6_6  and  C10_10 
REMARK    3  A    between atoms: C10_10  and  C11_11 
ROOT
HETATM    1  C1  UNL     1     -34.561   5.858   3.636  1.00 20.00     0.131 C 
HETATM    2  C2  UNL     1     -34.028   5.689   2.231  1.00 20.00     0.079 C 
HETATM    3  C3  UNL     1     -33.307   6.951   1.778  1.00 20.00     0.012 C 
HETATM    4  C4  UNL     1     -32.848   7.594   4.170  1.00 20.00     0.016 C 
HETATM    5  C5  UNL     1     -33.557   6.333   4.679  1.00 20.00     0.055 C 
HETATM    6  C6  UNL     1     -32.227   7.380   2.781  1.00 20.00    -0.013 C 
HETATM    7  O12 UNL     1     -35.715   5.537   3.918  1.00 20.00    -0.298 OA
ENDROOT
BRANCH   6   8
HETATM    8  C10 UNL     1     -31.525   8.649   2.304  1.00 20.00     0.004 C 
BRANCH   8   9
HETATM    9  C11 UNL     1     -32.057   9.099   0.947  1.00 20.00    -0.004 C 
HETATM   10  C8  UNL     1     -32.668  10.489   1.029  1.00 20.00     0.005 C 
ENDBRANCH   8   9
ENDBRANCH   6   8
BRANCH   5  11
HETATM   11  C9  UNL     1     -34.222   6.597   6.026  1.00 20.00     0.007 C 
HETATM   12  C7  UNL     1     -33.793   7.903   6.611  1.00 20.00     0.006 C 
ENDBRANCH   5  11
TORSDOF 3
ENDMDL
MODEL 4
REMARK VINA RESULT:      -4.9     11.279     12.018
REMARK  3 active torsions:
REMARK  status: ('A' for Active; 'I' for Inactive)
REMARK    1  A    between atoms: C5_5  and  C9_9 
REMARK    2  A    between atoms: C6_6  and  C10_10 
REMARK    3  A    between atoms: C10_10  and  C11_11 
ROOT
HETATM    1  C1  UNL     1     -34.532  15.058  -6.321  1.00 20.00     0.131 C 
HETATM    2  C2  UNL     1     -33.279  15.887  -6.148  1.00 20.00     0.079 C 
HETATM    3  C3  UNL     1     -33.376  16.748  -4.896  1.00 20.00     0.012 C 
HETATM    4  C4  UNL     1     -35.030  15.145  -3.875  1.00 20.00     0.016 C 
HETATM    5  C5  UNL     1     -34.963  14.238  -5.110  1.00 20.00     0.055 C 
HETATM    6  C6  UNL     1     -33.716  15.911  -3.655  1.00 20.00    -0.013 C 
HETATM    7  O12 UNL     1     -35.103  14.991  -7.409  1.00 20.00    -0.298 OA
ENDROOT
BRANCH   6   8
HETATM    8  C10 UNL     1     -33.812  16.800  -2.418  1.00 20.00     0.004 C 
BRANCH   8   9
HETATM    9  C11 UNL     1     -35.204  16.733  -1.796  1.00 20.00    -0.004 C 
HETATM   10  C8  UNL     1     -35.239  17.436  -0.448  1.00 20.00     0.005 C 
ENDBRANCH   8   9
ENDBRANCH   6   8
BRANCH   5  11
HETATM   11  C9  UNL     1     -36.303  13.547  -5.343  1.00 20.00     0.007 C 
HETATM   12  C7  UNL     1     -37.452  14.423  -4.965  1.00 20.00     0.006 C 
ENDBRANCH   5  11
TORSDOF 3
ENDMDL
MODEL 5
REMARK VINA RESULT:      -4.8     11.099     11.804
REMARK  3 active torsions:
REMARK  status: ('A' for Active; 'I' for Inactive)
REMARK    1  A    between atoms: C5_5  and  C9_9 
REMARK    2  A    between atoms: C6_6  and  C10_10 
REMARK    3  A    between atoms: C10_10  and  C11_11 
ROOT
HETATM    1  C1  UNL     1     -34.044  14.666  -5.747  1.00 20.00     0.131 C 
HETATM    2  C2  UNL     1     -32.900  15.541  -5.286  1.00 20.00     0.079 C 
HETATM    3  C3  UNL     1     -33.415  16.684  -4.422  1.00 20.00     0.012 C 
HETATM    4  C4  UNL     1     -35.459  15.346  -3.805  1.00 20.00     0.016 C 
HETATM    5  C5  UNL     1     -34.981  14.163  -4.655  1.00 20.00     0.055 C 
HETATM    6  C6  UNL     1     -34.282  16.173  -3.263  1.00 20.00    -0.013 C 
HETATM    7  O12 UNL     1     -34.142  14.318  -6.923  1.00 20.00    -0.298 OA
ENDROOT
BRANCH   6   8
HETATM    8  C10 UNL     1     -34.789  17.339  -2.417  1.00 20.00     0.004 C 
BRANCH   8   9
HETATM    9  C11 UNL     1     -34.081  17.391  -1.066  1.00 20.00    -0.004 C 
HETATM   10  C8  UNL     1     -32.797  18.201  -1.149  1.00 20.00     0.005 C 
ENDBRANCH   8   9
ENDBRANCH   6   8
BRANCH   5  11
HETATM   11  C9  UNL     1     -36.170  13.404  -5.236  1.00 20.00     0.007 C 
HETATM   12  C7  UNL     1     -37.404  14.246  -5.268  1.00 20.00     0.006 C 
ENDBRANCH   5  11
TORSDOF 3
ENDMDL
MODEL 6
REMARK VINA RESULT:      -4.7     11.251     11.783
REMARK  3 active torsions:
REMARK  status: ('A' for Active; 'I' for Inactive)
REMARK    1  A    between atoms: C5_5  and  C9_9 
REMARK    2  A    between atoms: C6_6  and  C10_10 
REMARK    3  A    between atoms: C10_10  and  C11_11 
ROOT
HETATM    1  C1  UNL     1     -37.106  14.802  -4.754  1.00 20.00     0.131 C 
HETATM    2  C2  UNL     1     -37.282  16.056  -3.927  1.00 20.00     0.079 C 
HETATM    3  C3  UNL     1     -36.068  16.283  -3.036  1.00 20.00     0.012 C 
HETATM    4  C4  UNL     1     -34.617  14.951  -4.606  1.00 20.00     0.016 C 
HETATM    5  C5  UNL     1     -35.805  14.699  -5.543  1.00 20.00     0.055 C 
HETATM    6  C6  UNL     1     -34.762  16.276  -3.842  1.00 20.00    -0.013 C 
HETATM    7  O12 UNL     1     -38.009  13.971  -4.844  1.00 20.00    -0.298 OA
ENDROOT
BRANCH   6   8
HETATM    8  C10 UNL     1     -33.563  16.499  -2.923  1.00 20.00     0.004 C 
BRANCH   8   9
HETATM    9  C11 UNL     1     -33.985  17.160  -1.614  1.00 20.00    -0.004 C 
HETATM   10  C8  UNL     1     -32.922  18.126  -1.118  1.00 20.00     0.005 C 
ENDBRANCH   8   9
ENDBRANCH   6   8
BRANCH   5  11
HETATM   11  C9  UNL     1     -35.669  13.347  -6.234  1.00 20.00     0.007 C 
HETATM   12  C7  UNL     1     -34.617  13.369  -7.294  1.00 20.00     0.006 C 
ENDBRANCH   5  11
TORSDOF 3
ENDMDL
MODEL 7
REMARK VINA RESULT:      -4.7      1.941      4.586
REMARK  3 active torsions:
REMARK  status: ('A' for Active; 'I' for Inactive)
REMARK    1  A    between atoms: C5_5  and  C9_9 
REMARK    2  A    between atoms: C6_6  and  C10_10 
REMARK    3  A    between atoms: C10_10  and  C11_11 
ROOT
HETATM    1  C1  UNL     1     -31.839   9.273   2.797  1.00 20.00     0.131 C 
HETATM    2  C2  UNL     1     -31.827   8.495   4.094  1.00 20.00     0.079 C 
HETATM    3  C3  UNL     1     -32.935   7.451   4.102  1.00 20.00     0.012 C 
HETATM    4  C4  UNL     1     -32.953   7.397   1.583  1.00 20.00     0.016 C 
HETATM    5  C5  UNL     1     -31.832   8.441   1.520  1.00 20.00     0.055 C 
HETATM    6  C6  UNL     1     -32.874   6.549   2.862  1.00 20.00    -0.013 C 
HETATM    7  O12 UNL     1     -31.765  10.501   2.795  1.00 20.00    -0.298 OA
ENDROOT
BRANCH   6   8
HETATM    8  C10 UNL     1     -33.999   5.516   2.893  1.00 20.00     0.004 C 
BRANCH   8   9
HETATM    9  C11 UNL     1     -34.881   5.697   4.124  1.00 20.00    -0.004 C 
HETATM   10  C8  UNL     1     -34.635   4.597   5.144  1.00 20.00     0.005 C 
ENDBRANCH   8   9
ENDBRANCH   6   8
BRANCH   5  11
HETATM   11  C9  UNL     1     -31.978   9.313   0.277  1.00 20.00     0.007 C 
HETATM   12  C7  UNL     1     -33.362   9.254  -0.282  1.00 20.00     0.006 C 
ENDBRANCH   5  11
TORSDOF 3
ENDMDL
MODEL 8
REMARK VINA RESULT:      -4.6     10.585     11.423
REMARK  3 active torsions:
REMARK  status: ('A' for Active; 'I' for Inactive)
REMARK    1  A    between atoms: C5_5  and  C9_9 
REMARK    2  A    between atoms: C6_6  and  C10_10 
REMARK    3  A    between atoms: C10_10  and  C11_11 
ROOT
HETATM    1  C1  UNL     1     -33.353  18.558   0.429  1.00 20.00     0.131 C 
HETATM    2  C2  UNL     1     -32.698  18.593  -0.934  1.00 20.00     0.079 C 
HETATM    3  C3  UNL     1     -33.195  17.440  -1.796  1.00 20.00     0.012 C 
HETATM    4  C4  UNL     1     -35.324  17.305  -0.455  1.00 20.00     0.016 C 
HETATM    5  C5  UNL     1     -34.874  18.469   0.437  1.00 20.00     0.055 C 
HETATM    6  C6  UNL     1     -34.728  17.404  -1.868  1.00 20.00    -0.013 C 
HETATM    7  O12 UNL     1     -32.686  18.688   1.455  1.00 20.00    -0.298 OA
ENDROOT
BRANCH   6   8
HETATM    8  C10 UNL     1     -35.197  16.236  -2.732  1.00 20.00     0.004 C 
BRANCH   8   9
HETATM    9  C11 UNL     1     -34.072  15.722  -3.626  1.00 20.00    -0.004 C 
HETATM   10  C8  UNL     1     -34.361  14.313  -4.118  1.00 20.00     0.005 C 
ENDBRANCH   8   9
ENDBRANCH   6   8
BRANCH   5  11
HETATM   11  C9  UNL     1     -35.423  18.307   1.850  1.00 20.00     0.007 C 
HETATM   12  C7  UNL     1     -36.914  18.405   1.881  1.00 20.00     0.006 C 
ENDBRANCH   5  11
TORSDOF 3
ENDMDL
MODEL 9
REMARK VINA RESULT:      -4.5     11.158     12.325
REMARK  3 active torsions:
REMARK  status: ('A' for Active; 'I' for Inactive)
REMARK    1  A    between atoms: C5_5  and  C9_9 
REMARK    2  A    between atoms: C6_6  and  C10_10 
REMARK    3  A    between atoms: C10_10  and  C11_11 
ROOT
HETATM    1  C1  UNL     1     -33.688  17.033  -5.307  1.00 20.00     0.131 C 
HETATM    2  C2  UNL     1     -33.434  18.391  -4.693  1.00 20.00     0.079 C 
HETATM    3  C3  UNL     1     -34.078  18.485  -3.316  1.00 20.00     0.012 C 
HETATM    4  C4  UNL     1     -33.990  15.980  -3.062  1.00 20.00     0.016 C 
HETATM    5  C5  UNL     1     -33.332  15.831  -4.439  1.00 20.00     0.055 C 
HETATM    6  C6  UNL     1     -33.646  17.327  -2.407  1.00 20.00    -0.013 C 
HETATM    7  O12 UNL     1     -34.073  16.926  -6.471  1.00 20.00    -0.298 OA
ENDROOT
BRANCH   6   8
HETATM    8  C10 UNL     1     -34.311  17.443  -1.037  1.00 20.00     0.004 C 
BRANCH   8   9
HETATM    9  C11 UNL     1     -33.565  18.428  -0.142  1.00 20.00    -0.004 C 
HETATM   10  C8  UNL     1     -32.068  18.386  -0.406  1.00 20.00     0.005 C 
ENDBRANCH   8   9
ENDBRANCH   6   8
BRANCH   5  11
HETATM   11  C9  UNL     1     -33.748  14.518  -5.095  1.00 20.00     0.007 C 
HETATM   12  C7  UNL     1     -35.054  14.023  -4.565  1.00 20.00     0.006 C 
ENDBRANCH   5  11
TORSDOF 3
ENDMDL
