MODEL 1
REMARK VINA RESULT:      -6.0      0.000      0.000
REMARK  4 active torsions:
REMARK  status: ('A' for Active; 'I' for Inactive)
REMARK    1  A    between atoms: C5_5  and  C9_9 
REMARK    2  A    between atoms: C6_6  and  C10_10 
REMARK    3  A    between atoms: C9_9  and  C12_12 
REMARK    4  A    between atoms: C11_11  and  C12_12 
ROOT
HETATM    1  C1  UNL     1     -33.141   4.896   2.836  1.00 20.00     0.131 C 
HETATM    2  C2  UNL     1     -33.648   4.040   3.976  1.00 20.00     0.079 C 
HETATM    3  C3  UNL     1     -34.977   4.569   4.496  1.00 20.00     0.012 C 
HETATM    4  C4  UNL     1     -34.444   6.875   3.632  1.00 20.00     0.016 C 
HETATM    5  C5  UNL     1     -33.090   6.398   3.094  1.00 20.00     0.056 C 
HETATM    6  C6  UNL     1     -34.940   6.065   4.840  1.00 20.00    -0.014 C 
HETATM    7  O13 UNL     1     -32.711   4.383   1.804  1.00 20.00    -0.298 OA
ENDROOT
BRANCH   5   8
HETATM    8  C9  UNL     1     -32.713   7.172   1.832  1.00 20.00     0.012 C 
BRANCH   8   9
HETATM    9  C12 UNL     1     -31.938   8.441   2.172  1.00 20.00     0.000 C 
BRANCH   9  10
HETATM   10  C11 UNL     1     -32.530   9.657   1.458  1.00 20.00    -0.005 C 
HETATM   11  C8  UNL     1     -32.769   9.375  -0.017  1.00 20.00     0.005 C 
ENDBRANCH   9  10
ENDBRANCH   8   9
ENDBRANCH   5   8
BRANCH   6  12
HETATM   12  C10 UNL     1     -34.116   6.344   6.098  1.00 20.00     0.000 C 
HETATM   13  C7  UNL     1     -33.471   7.689   6.045  1.00 20.00     0.005 C 
ENDBRANCH   6  12
TORSDOF 4
ENDMDL
MODEL 2
REMARK VINA RESULT:      -4.8     11.168     12.213
REMARK  4 active torsions:
REMARK  status: ('A' for Active; 'I' for Inactive)
REMARK    1  A    between atoms: C5_5  and  C9_9 
REMARK    2  A    between atoms: C6_6  and  C10_10 
REMARK    3  A    between atoms: C9_9  and  C12_12 
REMARK    4  A    between atoms: C11_11  and  C12_12 
ROOT
HETATM    1  C1  UNL     1     -34.990  14.126  -4.543  1.00 20.00     0.131 C 
HETATM    2  C2  UNL     1     -35.847  13.330  -5.503  1.00 20.00     0.079 C 
HETATM    3  C3  UNL     1     -36.583  14.257  -6.461  1.00 20.00     0.012 C 
HETATM    4  C4  UNL     1     -36.424  16.155  -4.812  1.00 20.00     0.016 C 
HETATM    5  C5  UNL     1     -35.685  15.265  -3.805  1.00 20.00     0.056 C 
HETATM    6  C6  UNL     1     -37.359  15.373  -5.747  1.00 20.00    -0.014 C 
HETATM    7  O13 UNL     1     -33.827  13.797  -4.314  1.00 20.00    -0.298 OA
ENDROOT
BRANCH   5   8
HETATM    8  C9  UNL     1     -34.696  16.091  -2.986  1.00 20.00     0.012 C 
BRANCH   8   9
HETATM    9  C12 UNL     1     -35.378  16.744  -1.788  1.00 20.00     0.000 C 
BRANCH   9  10
HETATM   10  C11 UNL     1     -34.363  17.465  -0.902  1.00 20.00    -0.005 C 
HETATM   11  C8  UNL     1     -33.082  17.776  -1.661  1.00 20.00     0.005 C 
ENDBRANCH   9  10
ENDBRANCH   8   9
ENDBRANCH   5   8
BRANCH   6  12
HETATM   12  C10 UNL     1     -38.590  14.836  -5.014  1.00 20.00     0.000 C 
HETATM   13  C7  UNL     1     -39.350  15.931  -4.343  1.00 20.00     0.005 C 
ENDBRANCH   6  12
TORSDOF 4
ENDMDL
MODEL 3
REMARK VINA RESULT:      -4.8     11.304     12.306
REMARK  4 active torsions:
REMARK  status: ('A' for Active; 'I' for Inactive)
REMARK    1  A    between atoms: C5_5  and  C9_9 
REMARK    2  A    between atoms: C6_6  and  C10_10 
REMARK    3  A    between atoms: C9_9  and  C12_12 
REMARK    4  A    between atoms: C11_11  and  C12_12 
ROOT
HETATM    1  C1  UNL     1     -33.036  18.381  -0.585  1.00 20.00     0.131 C 
HETATM    2  C2  UNL     1     -33.454  19.122   0.666  1.00 20.00     0.079 C 
HETATM    3  C3  UNL     1     -34.488  18.321   1.445  1.00 20.00     0.012 C 
HETATM    4  C4  UNL     1     -35.184  17.105  -0.648  1.00 20.00     0.016 C 
HETATM    5  C5  UNL     1     -34.164  17.887  -1.484  1.00 20.00     0.056 C 
HETATM    6  C6  UNL     1     -35.679  17.873   0.587  1.00 20.00    -0.014 C 
HETATM    7  O13 UNL     1     -31.848  18.275  -0.889  1.00 20.00    -0.298 OA
ENDROOT
BRANCH   5   8
HETATM    8  C9  UNL     1     -33.635  17.024  -2.628  1.00 20.00     0.012 C 
BRANCH   8   9
HETATM    9  C12 UNL     1     -34.670  15.994  -3.069  1.00 20.00     0.000 C 
BRANCH   9  10
HETATM   10  C11 UNL     1     -34.051  14.956  -4.004  1.00 20.00    -0.005 C 
HETATM   11  C8  UNL     1     -35.102  14.004  -4.554  1.00 20.00     0.005 C 
ENDBRANCH   9  10
ENDBRANCH   8   9
ENDBRANCH   5   8
BRANCH   6  12
HETATM   12  C10 UNL     1     -36.587  19.045   0.211  1.00 20.00     0.000 C 
HETATM   13  C7  UNL     1     -37.730  18.603  -0.642  1.00 20.00     0.005 C 
ENDBRANCH   6  12
TORSDOF 4
ENDMDL
MODEL 4
REMARK VINA RESULT:      -4.8     11.497     12.777
REMARK  4 active torsions:
REMARK  status: ('A' for Active; 'I' for Inactive)
REMARK    1  A    between atoms: C5_5  and  C9_9 
REMARK    2  A    between atoms: C6_6  and  C10_10 
REMARK    3  A    between atoms: C9_9  and  C12_12 
REMARK    4  A    between atoms: C11_11  and  C12_12 
ROOT
HETATM    1  C1  UNL     1     -33.659  17.586  -4.331  1.00 20.00     0.131 C 
HETATM    2  C2  UNL     1     -34.271  16.979  -5.574  1.00 20.00     0.079 C 
HETATM    3  C3  UNL     1     -35.672  16.458  -5.283  1.00 20.00     0.012 C 
HETATM    4  C4  UNL     1     -35.118  16.213  -2.838  1.00 20.00     0.016 C 
HETATM    5  C5  UNL     1     -33.692  16.725  -3.073  1.00 20.00     0.056 C 
HETATM    6  C6  UNL     1     -35.730  15.524  -4.067  1.00 20.00    -0.014 C 
HETATM    7  O13 UNL     1     -33.087  18.675  -4.377  1.00 20.00    -0.298 OA
ENDROOT
BRANCH   5   8
HETATM    8  C9  UNL     1     -33.191  17.493  -1.852  1.00 20.00     0.012 C 
BRANCH   8   9
HETATM    9  C12 UNL     1     -34.268  17.586  -0.776  1.00 20.00     0.000 C 
BRANCH   9  10
HETATM   10  C11 UNL     1     -33.829  18.504   0.365  1.00 20.00    -0.005 C 
HETATM   11  C8  UNL     1     -32.330  18.762   0.328  1.00 20.00     0.005 C 
ENDBRANCH   9  10
ENDBRANCH   8   9
ENDBRANCH   5   8
BRANCH   6  12
HETATM   12  C10 UNL     1     -35.077  14.170  -4.353  1.00 20.00     0.000 C 
HETATM   13  C7  UNL     1     -35.872  13.372  -5.333  1.00 20.00     0.005 C 
ENDBRANCH   6  12
TORSDOF 4
ENDMDL
MODEL 5
REMARK VINA RESULT:      -4.7     11.661     12.776
REMARK  4 active torsions:
REMARK  status: ('A' for Active; 'I' for Inactive)
REMARK    1  A    between atoms: C5_5  and  C9_9 
REMARK    2  A    between atoms: C6_6  and  C10_10 
REMARK    3  A    between atoms: C9_9  and  C12_12 
REMARK    4  A    between atoms: C11_11  and  C12_12 
ROOT
HETATM    1  C1  UNL     1     -35.783  16.787  -5.307  1.00 20.00     0.131 C 
HETATM    2  C2  UNL     1     -34.901  17.927  -4.847  1.00 20.00     0.079 C 
HETATM    3  C3  UNL     1     -33.585  17.399  -4.294  1.00 20.00     0.012 C 
HETATM    4  C4  UNL     1     -34.650  15.177  -3.766  1.00 20.00     0.016 C 
HETATM    5  C5  UNL     1     -36.003  15.659  -4.305  1.00 20.00     0.056 C 
HETATM    6  C6  UNL     1     -33.770  16.314  -3.223  1.00 20.00    -0.014 C 
HETATM    7  O13 UNL     1     -36.357  16.832  -6.395  1.00 20.00    -0.298 OA
ENDROOT
BRANCH   5   8
HETATM    8  C9  UNL     1     -36.775  14.497  -4.926  1.00 20.00     0.012 C 
BRANCH   8   9
HETATM    9  C12 UNL     1     -35.837  13.372  -5.350  1.00 20.00     0.000 C 
BRANCH   9  10
HETATM   10  C11 UNL     1     -35.647  13.354  -6.867  1.00 20.00    -0.005 C 
HETATM   11  C8  UNL     1     -34.295  13.926  -7.266  1.00 20.00     0.005 C 
ENDBRANCH   9  10
ENDBRANCH   8   9
ENDBRANCH   5   8
BRANCH   6  12
HETATM   12  C10 UNL     1     -34.313  16.888  -1.913  1.00 20.00     0.000 C 
HETATM   13  C7  UNL     1     -33.335  17.817  -1.273  1.00 20.00     0.005 C 
ENDBRANCH   6  12
TORSDOF 4
ENDMDL
MODEL 6
REMARK VINA RESULT:      -4.7     11.538     12.505
REMARK  4 active torsions:
REMARK  status: ('A' for Active; 'I' for Inactive)
REMARK    1  A    between atoms: C5_5  and  C9_9 
REMARK    2  A    between atoms: C6_6  and  C10_10 
REMARK    3  A    between atoms: C9_9  and  C12_12 
REMARK    4  A    between atoms: C11_11  and  C12_12 
ROOT
HETATM    1  C1  UNL     1     -37.111  15.074  -4.533  1.00 20.00     0.131 C 
HETATM    2  C2  UNL     1     -37.026  14.223  -5.781  1.00 20.00     0.079 C 
HETATM    3  C3  UNL     1     -35.785  13.341  -5.747  1.00 20.00     0.012 C 
HETATM    4  C4  UNL     1     -34.642  14.942  -4.173  1.00 20.00     0.016 C 
HETATM    5  C5  UNL     1     -35.862  15.871  -4.175  1.00 20.00     0.056 C 
HETATM    6  C6  UNL     1     -34.495  14.124  -5.465  1.00 20.00    -0.014 C 
HETATM    7  O13 UNL     1     -38.168  15.177  -3.911  1.00 20.00    -0.298 OA
ENDROOT
BRANCH   5   8
HETATM    8  C9  UNL     1     -36.007  16.566  -2.823  1.00 20.00     0.012 C 
BRANCH   8   9
HETATM    9  C12 UNL     1     -34.700  16.528  -2.037  1.00 20.00     0.000 C 
BRANCH   9  10
HETATM   10  C11 UNL     1     -34.614  17.695  -1.054  1.00 20.00    -0.005 C 
HETATM   11  C8  UNL     1     -33.179  18.165  -0.872  1.00 20.00     0.005 C 
ENDBRANCH   9  10
ENDBRANCH   8   9
ENDBRANCH   5   8
BRANCH   6  12
HETATM   12  C10 UNL     1     -34.081  14.994  -6.653  1.00 20.00     0.000 C 
HETATM   13  C7  UNL     1     -34.004  14.200  -7.915  1.00 20.00     0.005 C 
ENDBRANCH   6  12
TORSDOF 4
ENDMDL
MODEL 7
REMARK VINA RESULT:      -4.5     11.502     12.578
REMARK  4 active torsions:
REMARK  status: ('A' for Active; 'I' for Inactive)
REMARK    1  A    between atoms: C5_5  and  C9_9 
REMARK    2  A    between atoms: C6_6  and  C10_10 
REMARK    3  A    between atoms: C9_9  and  C12_12 
REMARK    4  A    between atoms: C11_11  and  C12_12 
ROOT
HETATM    1  C1  UNL     1     -33.848  18.065  -3.760  1.00 20.00     0.131 C 
HETATM    2  C2  UNL     1     -33.154  18.845  -2.665  1.00 20.00     0.079 C 
HETATM    3  C3  UNL     1     -32.983  17.986  -1.420  1.00 20.00     0.012 C 
HETATM    4  C4  UNL     1     -34.924  16.534  -2.104  1.00 20.00     0.016 C 
HETATM    5  C5  UNL     1     -35.147  17.368  -3.371  1.00 20.00     0.056 C 
HETATM    6  C6  UNL     1     -34.289  17.330  -0.953  1.00 20.00    -0.014 C 
HETATM    7  O13 UNL     1     -33.422  18.083  -4.915  1.00 20.00    -0.298 OA
ENDROOT
BRANCH   5   8
HETATM    8  C9  UNL     1     -35.675  16.490  -4.504  1.00 20.00     0.012 C 
BRANCH   8   9
HETATM    9  C12 UNL     1     -35.427  15.012  -4.220  1.00 20.00     0.000 C 
BRANCH   9  10
HETATM   10  C11 UNL     1     -34.328  14.455  -5.125  1.00 20.00    -0.005 C 
HETATM   11  C8  UNL     1     -32.970  14.492  -4.439  1.00 20.00     0.005 C 
ENDBRANCH   9  10
ENDBRANCH   8   9
ENDBRANCH   5   8
BRANCH   6  12
HETATM   12  C10 UNL     1     -35.260  18.348  -0.353  1.00 20.00     0.000 C 
HETATM   13  C7  UNL     1     -35.974  17.793   0.835  1.00 20.00     0.005 C 
ENDBRANCH   6  12
TORSDOF 4
ENDMDL
MODEL 8
REMARK VINA RESULT:      -4.4     11.906     13.135
REMARK  4 active torsions:
REMARK  status: ('A' for Active; 'I' for Inactive)
REMARK    1  A    between atoms: C5_5  and  C9_9 
REMARK    2  A    between atoms: C6_6  and  C10_10 
REMARK    3  A    between atoms: C9_9  and  C12_12 
REMARK    4  A    between atoms: C11_11  and  C12_12 
ROOT
HETATM    1  C1  UNL     1     -33.463  18.652  -4.038  1.00 20.00     0.131 C 
HETATM    2  C2  UNL     1     -33.334  19.073  -2.591  1.00 20.00     0.079 C 
HETATM    3  C3  UNL     1     -33.079  17.865  -1.700  1.00 20.00     0.012 C 
HETATM    4  C4  UNL     1     -34.155  16.339  -3.391  1.00 20.00     0.016 C 
HETATM    5  C5  UNL     1     -34.444  17.520  -4.326  1.00 20.00     0.056 C 
HETATM    6  C6  UNL     1     -34.096  16.734  -1.908  1.00 20.00    -0.014 C 
HETATM    7  O13 UNL     1     -32.873  19.263  -4.929  1.00 20.00    -0.298 OA
ENDROOT
BRANCH   5   8
HETATM    8  C9  UNL     1     -34.378  17.076  -5.785  1.00 20.00     0.012 C 
BRANCH   8   9
HETATM    9  C12 UNL     1     -33.496  15.843  -5.950  1.00 20.00     0.000 C 
BRANCH   9  10
HETATM   10  C11 UNL     1     -33.732  15.173  -7.303  1.00 20.00    -0.005 C 
HETATM   11  C8  UNL     1     -34.372  13.802  -7.142  1.00 20.00     0.005 C 
ENDBRANCH   9  10
ENDBRANCH   8   9
ENDBRANCH   5   8
BRANCH   6  12
HETATM   12  C10 UNL     1     -35.475  17.095  -1.353  1.00 20.00     0.000 C 
HETATM   13  C7  UNL     1     -35.403  17.484   0.087  1.00 20.00     0.005 C 
ENDBRANCH   6  12
TORSDOF 4
ENDMDL
MODEL 9
REMARK VINA RESULT:      -4.4      1.019      1.267
REMARK  4 active torsions:
REMARK  status: ('A' for Active; 'I' for Inactive)
REMARK    1  A    between atoms: C5_5  and  C9_9 
REMARK    2  A    between atoms: C6_6  and  C10_10 
REMARK    3  A    between atoms: C9_9  and  C12_12 
REMARK    4  A    between atoms: C11_11  and  C12_12 
ROOT
HETATM    1  C1  UNL     1     -32.998   5.775   2.595  1.00 20.00     0.131 C 
HETATM    2  C2  UNL     1     -34.016   4.901   3.293  1.00 20.00     0.079 C 
HETATM    3  C3  UNL     1     -35.187   5.735   3.795  1.00 20.00     0.012 C 
HETATM    4  C4  UNL     1     -33.742   7.798   3.860  1.00 20.00     0.016 C 
HETATM    5  C5  UNL     1     -32.527   7.006   3.363  1.00 20.00     0.056 C 
HETATM    6  C6  UNL     1     -34.753   6.942   4.639  1.00 20.00    -0.014 C 
HETATM    7  O13 UNL     1     -32.519   5.444   1.511  1.00 20.00    -0.298 OA
ENDROOT
BRANCH   5   8
HETATM    8  C9  UNL     1     -31.624   7.891   2.507  1.00 20.00     0.012 C 
BRANCH   8   9
HETATM    9  C12 UNL     1     -32.395   9.073   1.928  1.00 20.00     0.000 C 
BRANCH   9  10
HETATM   10  C11 UNL     1     -31.962   9.363   0.491  1.00 20.00    -0.005 C 
HETATM   11  C8  UNL     1     -33.150   9.364  -0.459  1.00 20.00     0.005 C 
ENDBRANCH   9  10
ENDBRANCH   8   9
ENDBRANCH   5   8
BRANCH   6  12
HETATM   12  C10 UNL     1     -34.216   6.520   6.008  1.00 20.00     0.000 C 
HETATM   13  C7  UNL     1     -34.550   5.097   6.314  1.00 20.00     0.005 C 
ENDBRANCH   6  12
TORSDOF 4
ENDMDL
