MODEL 1
REMARK VINA RESULT:      -4.8      0.000      0.000
REMARK  0 active torsions:
REMARK  status: ('A' for Active; 'I' for Inactive)
ROOT
HETATM    1  C1  UNL     1     -36.585  15.415  -4.583  1.00 20.00    -0.082 C 
HETATM    2  C2  UNL     1     -37.885  15.172  -4.365  1.00 20.00     0.015 C 
HETATM    3  C3  UNL     1     -35.969  16.764  -4.291  1.00 20.00     0.038 C 
HETATM    4  C4  UNL     1     -34.504  14.187  -4.093  1.00 20.00     0.018 C 
HETATM    5  C5  UNL     1     -33.177  15.777  -5.457  1.00 20.00     0.173 C 
HETATM    6  C6  UNL     1     -35.642  14.339  -5.105  1.00 20.00     0.043 C 
HETATM    7  C7  UNL     1     -33.723  15.502  -4.045  1.00 20.00     0.014 C 
HETATM    8  C8  UNL     1     -34.628  16.659  -3.530  1.00 20.00    -0.009 C 
HETATM    9  C9  UNL     1     -35.085  14.713  -6.499  1.00 20.00     0.125 C 
HETATM   10  C10 UNL     1     -34.882  16.528  -2.022  1.00 20.00     0.011 C 
HETATM   11  C11 UNL     1     -34.400  13.540  -7.203  1.00 20.00     0.040 C 
HETATM   12  O12 UNL     1     -34.199  15.839  -6.450  1.00 20.00    -0.385 OA
ENDROOT
TORSDOF 0
ENDMDL
MODEL 2
REMARK VINA RESULT:      -4.6      1.553      3.038
REMARK  0 active torsions:
REMARK  status: ('A' for Active; 'I' for Inactive)
ROOT
HETATM    1  C1  UNL     1     -33.542  17.976  -3.893  1.00 20.00    -0.082 C 
HETATM    2  C2  UNL     1     -33.146  19.256  -3.960  1.00 20.00     0.015 C 
HETATM    3  C3  UNL     1     -33.456  17.184  -2.608  1.00 20.00     0.038 C 
HETATM    4  C4  UNL     1     -35.524  16.750  -4.697  1.00 20.00     0.018 C 
HETATM    5  C5  UNL     1     -34.487  14.576  -4.112  1.00 20.00     0.173 C 
HETATM    6  C6  UNL     1     -34.136  17.254  -5.095  1.00 20.00     0.043 C 
HETATM    7  C7  UNL     1     -35.360  15.722  -3.575  1.00 20.00     0.014 C 
HETATM    8  C8  UNL     1     -34.744  16.386  -2.309  1.00 20.00    -0.009 C 
HETATM    9  C9  UNL     1     -33.235  16.077  -5.540  1.00 20.00     0.125 C 
HETATM   10  C10 UNL     1     -35.771  17.282  -1.603  1.00 20.00     0.011 C 
HETATM   11  C11 UNL     1     -33.609  15.527  -6.917  1.00 20.00     0.040 C 
HETATM   12  O12 UNL     1     -33.212  15.014  -4.578  1.00 20.00    -0.385 OA
ENDROOT
TORSDOF 0
ENDMDL
MODEL 3
REMARK VINA RESULT:      -4.6      1.483      2.310
REMARK  0 active torsions:
REMARK  status: ('A' for Active; 'I' for Inactive)
ROOT
HETATM    1  C1  UNL     1     -34.578  17.886  -4.796  1.00 20.00    -0.082 C 
HETATM    2  C2  UNL     1     -35.150  19.065  -5.083  1.00 20.00     0.015 C 
HETATM    3  C3  UNL     1     -33.649  17.721  -3.615  1.00 20.00     0.038 C 
HETATM    4  C4  UNL     1     -35.403  15.566  -4.668  1.00 20.00     0.018 C 
HETATM    5  C5  UNL     1     -33.091  14.698  -4.437  1.00 20.00     0.173 C 
HETATM    6  C6  UNL     1     -34.858  16.635  -5.617  1.00 20.00     0.043 C 
HETATM    7  C7  UNL     1     -34.309  15.219  -3.655  1.00 20.00     0.014 C 
HETATM    8  C8  UNL     1     -33.958  16.458  -2.780  1.00 20.00    -0.009 C 
HETATM    9  C9  UNL     1     -33.575  16.134  -6.324  1.00 20.00     0.125 C 
HETATM   10  C10 UNL     1     -35.075  16.751  -1.769  1.00 20.00     0.011 C 
HETATM   11  C11 UNL     1     -33.859  15.088  -7.404  1.00 20.00     0.040 C 
HETATM   12  O12 UNL     1     -32.603  15.630  -5.399  1.00 20.00    -0.385 OA
ENDROOT
TORSDOF 0
ENDMDL
MODEL 4
REMARK VINA RESULT:      -4.5      1.839      3.729
REMARK  0 active torsions:
REMARK  status: ('A' for Active; 'I' for Inactive)
ROOT
HETATM    1  C1  UNL     1     -33.658  17.470  -1.919  1.00 20.00    -0.082 C 
HETATM    2  C2  UNL     1     -32.695  18.082  -1.214  1.00 20.00     0.015 C 
HETATM    3  C3  UNL     1     -34.911  16.941  -1.258  1.00 20.00     0.038 C 
HETATM    4  C4  UNL     1     -34.803  17.961  -4.046  1.00 20.00     0.018 C 
HETATM    5  C5  UNL     1     -35.904  15.740  -4.032  1.00 20.00     0.173 C 
HETATM    6  C6  UNL     1     -33.567  17.303  -3.429  1.00 20.00     0.043 C 
HETATM    7  C7  UNL     1     -36.043  17.201  -3.571  1.00 20.00     0.014 C 
HETATM    8  C8  UNL     1     -36.198  17.316  -2.026  1.00 20.00    -0.009 C 
HETATM    9  C9  UNL     1     -33.493  15.807  -3.821  1.00 20.00     0.125 C 
HETATM   10  C10 UNL     1     -36.666  18.722  -1.625  1.00 20.00     0.011 C 
HETATM   11  C11 UNL     1     -33.080  15.592  -5.278  1.00 20.00     0.040 C 
HETATM   12  O12 UNL     1     -34.717  15.111  -3.552  1.00 20.00    -0.385 OA
ENDROOT
TORSDOF 0
ENDMDL
MODEL 5
REMARK VINA RESULT:      -4.5      1.343      3.399
REMARK  0 active torsions:
REMARK  status: ('A' for Active; 'I' for Inactive)
ROOT
HETATM    1  C1  UNL     1     -36.722  14.619  -4.946  1.00 20.00    -0.082 C 
HETATM    2  C2  UNL     1     -38.056  14.644  -4.814  1.00 20.00     0.015 C 
HETATM    3  C3  UNL     1     -35.998  13.397  -5.467  1.00 20.00     0.038 C 
HETATM    4  C4  UNL     1     -35.059  16.187  -5.868  1.00 20.00     0.018 C 
HETATM    5  C5  UNL     1     -33.191  14.817  -4.983  1.00 20.00     0.173 C 
HETATM    6  C6  UNL     1     -35.857  15.828  -4.614  1.00 20.00     0.043 C 
HETATM    7  C7  UNL     1     -34.120  15.023  -6.193  1.00 20.00     0.014 C 
HETATM    8  C8  UNL     1     -34.934  13.740  -6.533  1.00 20.00    -0.009 C 
HETATM    9  C9  UNL     1     -34.907  15.526  -3.430  1.00 20.00     0.125 C 
HETATM   10  C10 UNL     1     -35.587  13.855  -7.917  1.00 20.00     0.011 C 
HETATM   11  C11 UNL     1     -34.256  16.784  -2.852  1.00 20.00     0.040 C 
HETATM   12  O12 UNL     1     -33.899  14.566  -3.771  1.00 20.00    -0.385 OA
ENDROOT
TORSDOF 0
ENDMDL
MODEL 6
REMARK VINA RESULT:      -4.4      1.259      3.916
REMARK  0 active torsions:
REMARK  status: ('A' for Active; 'I' for Inactive)
ROOT
HETATM    1  C1  UNL     1     -33.183  14.771  -4.607  1.00 20.00    -0.082 C 
HETATM    2  C2  UNL     1     -32.168  14.013  -4.168  1.00 20.00     0.015 C 
HETATM    3  C3  UNL     1     -33.141  15.450  -5.958  1.00 20.00     0.038 C 
HETATM    4  C4  UNL     1     -35.633  14.500  -4.649  1.00 20.00     0.018 C 
HETATM    5  C5  UNL     1     -35.938  16.851  -5.375  1.00 20.00     0.173 C 
HETATM    6  C6  UNL     1     -34.454  14.965  -3.792  1.00 20.00     0.043 C 
HETATM    7  C7  UNL     1     -35.727  15.412  -5.875  1.00 20.00     0.014 C 
HETATM    8  C8  UNL     1     -34.451  15.278  -6.757  1.00 20.00    -0.009 C 
HETATM    9  C9  UNL     1     -34.631  16.445  -3.378  1.00 20.00     0.125 C 
HETATM   10  C10 UNL     1     -34.442  13.941  -7.510  1.00 20.00     0.011 C 
HETATM   11  C11 UNL     1     -35.700  16.640  -2.302  1.00 20.00     0.040 C 
HETATM   12  O12 UNL     1     -34.904  17.297  -4.499  1.00 20.00    -0.385 OA
ENDROOT
TORSDOF 0
ENDMDL
MODEL 7
REMARK VINA RESULT:      -4.4      1.578      3.543
REMARK  0 active torsions:
REMARK  status: ('A' for Active; 'I' for Inactive)
ROOT
HETATM    1  C1  UNL     1     -35.215  14.476  -5.064  1.00 20.00    -0.082 C 
HETATM    2  C2  UNL     1     -35.961  13.376  -5.243  1.00 20.00     0.015 C 
HETATM    3  C3  UNL     1     -33.844  14.616  -5.685  1.00 20.00     0.038 C 
HETATM    4  C4  UNL     1     -35.676  16.896  -5.164  1.00 20.00     0.018 C 
HETATM    5  C5  UNL     1     -33.438  17.419  -4.233  1.00 20.00     0.173 C 
HETATM    6  C6  UNL     1     -35.717  15.666  -4.256  1.00 20.00     0.043 C 
HETATM    7  C7  UNL     1     -34.218  17.173  -5.537  1.00 20.00     0.014 C 
HETATM    8  C8  UNL     1     -33.628  15.990  -6.359  1.00 20.00    -0.009 C 
HETATM    9  C9  UNL     1     -34.848  15.890  -2.995  1.00 20.00     0.125 C 
HETATM   10  C10 UNL     1     -34.194  15.976  -7.786  1.00 20.00     0.011 C 
HETATM   11  C11 UNL     1     -35.488  16.851  -1.993  1.00 20.00     0.040 C 
HETATM   12  O12 UNL     1     -33.522  16.329  -3.317  1.00 20.00    -0.385 OA
ENDROOT
TORSDOF 0
ENDMDL
MODEL 8
REMARK VINA RESULT:      -4.3      1.091      2.767
REMARK  0 active torsions:
REMARK  status: ('A' for Active; 'I' for Inactive)
ROOT
HETATM    1  C1  UNL     1     -34.832  16.167  -3.367  1.00 20.00    -0.082 C 
HETATM    2  C2  UNL     1     -34.919  16.519  -2.076  1.00 20.00     0.015 C 
HETATM    3  C3  UNL     1     -33.561  16.370  -4.161  1.00 20.00     0.038 C 
HETATM    4  C4  UNL     1     -35.496  14.168  -4.649  1.00 20.00     0.018 C 
HETATM    5  C5  UNL     1     -35.002  15.310  -6.793  1.00 20.00     0.173 C 
HETATM    6  C6  UNL     1     -35.991  15.508  -4.102  1.00 20.00     0.043 C 
HETATM    7  C7  UNL     1     -34.395  14.444  -5.676  1.00 20.00     0.014 C 
HETATM    8  C8  UNL     1     -33.173  15.131  -4.999  1.00 20.00    -0.009 C 
HETATM    9  C9  UNL     1     -36.507  16.409  -5.250  1.00 20.00     0.125 C 
HETATM   10  C10 UNL     1     -32.389  14.132  -4.137  1.00 20.00     0.011 C 
HETATM   11  C11 UNL     1     -37.857  15.953  -5.805  1.00 20.00     0.040 C 
HETATM   12  O12 UNL     1     -35.557  16.534  -6.315  1.00 20.00    -0.385 OA
ENDROOT
TORSDOF 0
ENDMDL
MODEL 9
REMARK VINA RESULT:      -4.3      1.528      2.588
REMARK  0 active torsions:
REMARK  status: ('A' for Active; 'I' for Inactive)
ROOT
HETATM    1  C1  UNL     1     -35.073  16.822  -2.729  1.00 20.00    -0.082 C 
HETATM    2  C2  UNL     1     -35.166  16.841  -1.391  1.00 20.00     0.015 C 
HETATM    3  C3  UNL     1     -35.340  18.055  -3.561  1.00 20.00     0.038 C 
HETATM    4  C4  UNL     1     -33.422  15.916  -4.321  1.00 20.00     0.018 C 
HETATM    5  C5  UNL     1     -34.931  16.377  -6.234  1.00 20.00     0.173 C 
HETATM    6  C6  UNL     1     -34.658  15.569  -3.488  1.00 20.00     0.043 C 
HETATM    7  C7  UNL     1     -33.819  16.973  -5.354  1.00 20.00     0.014 C 
HETATM    8  C8  UNL     1     -34.269  18.287  -4.650  1.00 20.00    -0.009 C 
HETATM    9  C9  UNL     1     -35.804  15.063  -4.398  1.00 20.00     0.125 C 
HETATM   10  C10 UNL     1     -33.065  19.034  -4.060  1.00 20.00     0.011 C 
HETATM   11  C11 UNL     1     -35.564  13.649  -4.929  1.00 20.00     0.040 C 
HETATM   12  O12 UNL     1     -36.071  15.956  -5.487  1.00 20.00    -0.385 OA
ENDROOT
TORSDOF 0
ENDMDL
