MODEL 1
REMARK VINA RESULT:      -6.2      0.000      0.000
REMARK  1 active torsions:
REMARK  status: ('A' for Active; 'I' for Inactive)
REMARK    1  A    between atoms: C8_8  and  O10_10 
ROOT
HETATM    1  C1  UNL     1     -33.163   6.052   2.942  1.00 20.00    -0.023 C 
HETATM    2  C2  UNL     1     -34.446   5.737   3.191  1.00 20.00     0.001 C 
HETATM    3  C3  UNL     1     -34.148   7.142   5.765  1.00 20.00     0.003 C 
HETATM    4  C4  UNL     1     -34.154   5.591   5.693  1.00 20.00     0.036 C 
HETATM    5  C5  UNL     1     -32.834   7.812   5.304  1.00 20.00     0.005 C 
HETATM    6  C6  UNL     1     -31.538   8.082   3.083  1.00 20.00     0.014 A 
HETATM    7  C7  UNL     1     -32.810   7.434   2.627  1.00 20.00     0.012 A 
HETATM    8  C8  UNL     1     -34.799   4.969   4.429  1.00 20.00     0.140 C 
HETATM    9  C9  UNL     1     -32.800   8.324   3.874  1.00 20.00    -0.006 A 
ENDROOT
BRANCH   8  10
HETATM   10  O10 UNL     1     -34.446   3.598   4.303  1.00 20.00    -0.392 OA
HETATM   11  H24 UNL     1     -34.519   3.375   3.361  1.00 20.00     0.210 HD
ENDBRANCH   8  10
TORSDOF 1
ENDMDL
MODEL 2
REMARK VINA RESULT:      -5.7      2.018      4.027
REMARK  1 active torsions:
REMARK  status: ('A' for Active; 'I' for Inactive)
REMARK    1  A    between atoms: C8_8  and  O10_10 
ROOT
HETATM    1  C1  UNL     1     -33.434   7.006   5.336  1.00 20.00    -0.023 C 
HETATM    2  C2  UNL     1     -33.538   7.928   4.363  1.00 20.00     0.001 C 
HETATM    3  C3  UNL     1     -33.736   5.693   2.453  1.00 20.00     0.003 C 
HETATM    4  C4  UNL     1     -32.424   6.511   2.598  1.00 20.00     0.036 C 
HETATM    5  C5  UNL     1     -34.002   4.679   3.590  1.00 20.00     0.005 C 
HETATM    6  C6  UNL     1     -34.549   4.786   6.114  1.00 20.00     0.014 A 
HETATM    7  C7  UNL     1     -34.611   6.230   5.720  1.00 20.00     0.012 A 
HETATM    8  C8  UNL     1     -32.566   7.922   3.223  1.00 20.00     0.140 C 
HETATM    9  C9  UNL     1     -34.935   5.135   4.698  1.00 20.00    -0.006 A 
ENDROOT
BRANCH   8  10
HETATM   10  O10 UNL     1     -31.299   8.429   3.622  1.00 20.00    -0.392 OA
HETATM   11  H24 UNL     1     -31.030   7.924   4.406  1.00 20.00     0.210 HD
ENDBRANCH   8  10
TORSDOF 1
ENDMDL
MODEL 3
REMARK VINA RESULT:      -4.8      1.873      3.502
REMARK  1 active torsions:
REMARK  status: ('A' for Active; 'I' for Inactive)
REMARK    1  A    between atoms: C8_8  and  O10_10 
ROOT
HETATM    1  C1  UNL     1     -33.810   5.709   2.968  1.00 20.00    -0.023 C 
HETATM    2  C2  UNL     1     -32.569   6.208   2.826  1.00 20.00     0.001 C 
HETATM    3  C3  UNL     1     -32.985   7.604   5.388  1.00 20.00     0.003 C 
HETATM    4  C4  UNL     1     -33.061   8.366   4.037  1.00 20.00     0.036 C 
HETATM    5  C5  UNL     1     -34.221   6.736   5.718  1.00 20.00     0.005 C 
HETATM    6  C6  UNL     1     -35.324   4.598   4.771  1.00 20.00     0.014 A 
HETATM    7  C7  UNL     1     -34.059   4.677   3.972  1.00 20.00     0.012 A 
HETATM    8  C8  UNL     1     -32.356   7.692   2.833  1.00 20.00     0.140 C 
HETATM    9  C9  UNL     1     -34.115   5.257   5.390  1.00 20.00    -0.006 A 
ENDROOT
BRANCH   8  10
HETATM   10  O10 UNL     1     -32.775   8.278   1.608  1.00 20.00    -0.392 OA
HETATM   11  H24 UNL     1     -32.137   8.981   1.401  1.00 20.00     0.210 HD
ENDBRANCH   8  10
TORSDOF 1
ENDMDL
MODEL 4
REMARK VINA RESULT:      -4.6     11.645     12.415
REMARK  1 active torsions:
REMARK  status: ('A' for Active; 'I' for Inactive)
REMARK    1  A    between atoms: C8_8  and  O10_10 
ROOT
HETATM    1  C1  UNL     1     -34.223  14.842  -3.811  1.00 20.00    -0.023 C 
HETATM    2  C2  UNL     1     -34.584  14.599  -5.084  1.00 20.00     0.001 C 
HETATM    3  C3  UNL     1     -36.976  16.243  -4.576  1.00 20.00     0.003 C 
HETATM    4  C4  UNL     1     -37.063  14.694  -4.632  1.00 20.00     0.036 C 
HETATM    5  C5  UNL     1     -36.368  16.816  -3.276  1.00 20.00     0.005 C 
HETATM    6  C6  UNL     1     -34.054  16.816  -2.122  1.00 20.00     0.014 A 
HETATM    7  C7  UNL     1     -33.747  16.172  -3.440  1.00 20.00     0.012 A 
HETATM    8  C8  UNL     1     -35.913  13.972  -5.376  1.00 20.00     0.140 C 
HETATM    9  C9  UNL     1     -34.894  17.181  -3.322  1.00 20.00    -0.006 A 
ENDROOT
BRANCH   8  10
HETATM   10  O10 UNL     1     -35.905  12.583  -5.072  1.00 20.00    -0.392 OA
HETATM   11  H24 UNL     1     -36.730  12.214  -5.428  1.00 20.00     0.210 HD
ENDBRANCH   8  10
TORSDOF 1
ENDMDL
MODEL 5
REMARK VINA RESULT:      -4.6      1.366      2.433
REMARK  1 active torsions:
REMARK  status: ('A' for Active; 'I' for Inactive)
REMARK    1  A    between atoms: C8_8  and  O10_10 
ROOT
HETATM    1  C1  UNL     1     -32.887   6.713   3.620  1.00 20.00    -0.023 C 
HETATM    2  C2  UNL     1     -33.674   6.139   2.693  1.00 20.00     0.001 C 
HETATM    3  C3  UNL     1     -34.939   4.638   4.891  1.00 20.00     0.003 C 
HETATM    4  C4  UNL     1     -33.923   3.958   3.935  1.00 20.00     0.036 C 
HETATM    5  C5  UNL     1     -34.313   5.569   5.954  1.00 20.00     0.005 C 
HETATM    6  C6  UNL     1     -33.049   7.825   5.969  1.00 20.00     0.014 A 
HETATM    7  C7  UNL     1     -33.455   7.703   4.532  1.00 20.00     0.012 A 
HETATM    8  C8  UNL     1     -33.709   4.647   2.564  1.00 20.00     0.140 C 
HETATM    9  C9  UNL     1     -34.302   7.054   5.632  1.00 20.00    -0.006 A 
ENDROOT
BRANCH   8  10
HETATM   10  O10 UNL     1     -32.536   4.156   1.929  1.00 20.00    -0.392 OA
HETATM   11  H24 UNL     1     -32.775   3.962   1.008  1.00 20.00     0.210 HD
ENDBRANCH   8  10
TORSDOF 1
ENDMDL
MODEL 6
REMARK VINA RESULT:      -4.4     11.707     13.063
REMARK  1 active torsions:
REMARK  status: ('A' for Active; 'I' for Inactive)
REMARK    1  A    between atoms: C8_8  and  O10_10 
ROOT
HETATM    1  C1  UNL     1     -35.031  15.300  -4.234  1.00 20.00    -0.023 C 
HETATM    2  C2  UNL     1     -35.164  13.967  -4.353  1.00 20.00     0.001 C 
HETATM    3  C3  UNL     1     -34.325  14.272  -7.162  1.00 20.00     0.003 C 
HETATM    4  C4  UNL     1     -35.813  14.028  -6.790  1.00 20.00     0.036 C 
HETATM    5  C5  UNL     1     -33.816  15.709  -6.906  1.00 20.00     0.005 C 
HETATM    6  C6  UNL     1     -33.369  17.207  -4.847  1.00 20.00     0.014 A 
HETATM    7  C7  UNL     1     -33.695  15.890  -4.210  1.00 20.00     0.012 A 
HETATM    8  C8  UNL     1     -36.074  13.398  -5.399  1.00 20.00     0.140 C 
HETATM    9  C9  UNL     1     -33.064  15.939  -5.606  1.00 20.00    -0.006 A 
ENDROOT
BRANCH   8  10
HETATM   10  O10 UNL     1     -37.439  13.540  -5.027  1.00 20.00    -0.392 OA
HETATM   11  H24 UNL     1     -37.710  12.697  -4.628  1.00 20.00     0.210 HD
ENDBRANCH   8  10
TORSDOF 1
ENDMDL
MODEL 7
REMARK VINA RESULT:      -4.3      1.321      2.492
REMARK  1 active torsions:
REMARK  status: ('A' for Active; 'I' for Inactive)
REMARK    1  A    between atoms: C8_8  and  O10_10 
ROOT
HETATM    1  C1  UNL     1     -33.618   7.450   4.739  1.00 20.00    -0.023 C 
HETATM    2  C2  UNL     1     -33.371   6.482   5.640  1.00 20.00     0.001 C 
HETATM    3  C3  UNL     1     -33.485   4.563   3.406  1.00 20.00     0.003 C 
HETATM    4  C4  UNL     1     -34.663   4.701   4.407  1.00 20.00     0.036 C 
HETATM    5  C5  UNL     1     -33.381   5.697   2.360  1.00 20.00     0.005 C 
HETATM    6  C6  UNL     1     -32.847   8.227   2.377  1.00 20.00     0.014 A 
HETATM    7  C7  UNL     1     -32.570   7.840   3.798  1.00 20.00     0.012 A 
HETATM    8  C8  UNL     1     -34.323   5.333   5.780  1.00 20.00     0.140 C 
HETATM    9  C9  UNL     1     -32.401   6.816   2.670  1.00 20.00    -0.006 A 
ENDROOT
BRANCH   8  10
HETATM   10  O10 UNL     1     -35.505   5.724   6.465  1.00 20.00    -0.392 OA
HETATM   11  H24 UNL     1     -35.772   4.970   7.015  1.00 20.00     0.210 HD
ENDBRANCH   8  10
TORSDOF 1
ENDMDL
MODEL 8
REMARK VINA RESULT:      -4.3     11.920     12.638
REMARK  1 active torsions:
REMARK  status: ('A' for Active; 'I' for Inactive)
REMARK    1  A    between atoms: C8_8  and  O10_10 
ROOT
HETATM    1  C1  UNL     1     -35.374  17.174  -0.338  1.00 20.00    -0.023 C 
HETATM    2  C2  UNL     1     -35.600  18.314   0.337  1.00 20.00     0.001 C 
HETATM    3  C3  UNL     1     -32.859  19.124  -0.383  1.00 20.00     0.003 C 
HETATM    4  C4  UNL     1     -33.201  18.629   1.048  1.00 20.00     0.036 C 
HETATM    5  C5  UNL     1     -32.758  18.012  -1.452  1.00 20.00     0.005 C 
HETATM    6  C6  UNL     1     -34.374  16.351  -2.597  1.00 20.00     0.014 A 
HETATM    7  C7  UNL     1     -35.315  17.202  -1.798  1.00 20.00     0.012 A 
HETATM    8  C8  UNL     1     -34.692  18.709   1.461  1.00 20.00     0.140 C 
HETATM    9  C9  UNL     1     -33.991  17.782  -2.308  1.00 20.00    -0.006 A 
ENDROOT
BRANCH   8  10
HETATM   10  O10 UNL     1     -34.939  17.927   2.622  1.00 20.00    -0.392 OA
HETATM   11  H24 UNL     1     -34.174  17.340   2.733  1.00 20.00     0.210 HD
ENDBRANCH   8  10
TORSDOF 1
ENDMDL
MODEL 9
REMARK VINA RESULT:      -4.2     12.191     13.373
REMARK  1 active torsions:
REMARK  status: ('A' for Active; 'I' for Inactive)
REMARK    1  A    between atoms: C8_8  and  O10_10 
ROOT
HETATM    1  C1  UNL     1     -35.475  15.155  -6.823  1.00 20.00    -0.023 C 
HETATM    2  C2  UNL     1     -36.278  14.906  -5.773  1.00 20.00     0.001 C 
HETATM    3  C3  UNL     1     -34.063  15.797  -4.044  1.00 20.00     0.003 C 
HETATM    4  C4  UNL     1     -34.402  14.290  -4.203  1.00 20.00     0.036 C 
HETATM    5  C5  UNL     1     -33.317  16.429  -5.240  1.00 20.00     0.005 C 
HETATM    6  C6  UNL     1     -33.850  16.986  -7.708  1.00 20.00     0.014 A 
HETATM    7  C7  UNL     1     -35.184  16.538  -7.193  1.00 20.00     0.012 A 
HETATM    8  C8  UNL     1     -35.831  13.960  -4.700  1.00 20.00     0.140 C 
HETATM    9  C9  UNL     1     -34.168  17.185  -6.246  1.00 20.00    -0.006 A 
ENDROOT
BRANCH   8  10
HETATM   10  O10 UNL     1     -35.917  12.610  -5.135  1.00 20.00    -0.392 OA
HETATM   11  H24 UNL     1     -35.269  12.504  -5.851  1.00 20.00     0.210 HD
ENDBRANCH   8  10
TORSDOF 1
ENDMDL
