MODEL 1
REMARK VINA RESULT:      -4.7      0.000      0.000
REMARK  0 active torsions:
REMARK  status: ('A' for Active; 'I' for Inactive)
ROOT
HETATM    1  C1  UNL     1     -33.349  14.717  -4.668  1.00 20.00    -0.082 C 
HETATM    2  C2  UNL     1     -32.259  14.096  -4.194  1.00 20.00     0.015 C 
HETATM    3  C3  UNL     1     -33.301  15.557  -5.925  1.00 20.00     0.038 C 
HETATM    4  C4  UNL     1     -35.687  14.026  -5.035  1.00 20.00     0.018 C 
HETATM    5  C5  UNL     1     -36.353  16.363  -5.544  1.00 20.00     0.173 C 
HETATM    6  C6  UNL     1     -34.708  14.580  -3.998  1.00 20.00     0.043 C 
HETATM    7  C7  UNL     1     -35.829  15.054  -6.163  1.00 20.00     0.014 C 
HETATM    8  C8  UNL     1     -34.469  15.255  -6.892  1.00 20.00    -0.009 C 
HETATM    9  C9  UNL     1     -35.274  15.915  -3.454  1.00 20.00     0.125 C 
HETATM   10  C10 UNL     1     -34.132  14.041  -7.770  1.00 20.00     0.011 C 
HETATM   11  C11 UNL     1     -34.360  16.575  -2.427  1.00 20.00     0.040 C 
HETATM   12  O12 UNL     1     -35.508  16.860  -4.506  1.00 20.00    -0.385 OA
ENDROOT
TORSDOF 0
ENDMDL
MODEL 2
REMARK VINA RESULT:      -4.7      1.350      3.885
REMARK  0 active torsions:
REMARK  status: ('A' for Active; 'I' for Inactive)
ROOT
HETATM    1  C1  UNL     1     -36.441  14.915  -4.977  1.00 20.00    -0.082 C 
HETATM    2  C2  UNL     1     -37.725  14.529  -4.920  1.00 20.00     0.015 C 
HETATM    3  C3  UNL     1     -36.036  16.357  -4.774  1.00 20.00     0.038 C 
HETATM    4  C4  UNL     1     -34.347  14.033  -4.021  1.00 20.00     0.018 C 
HETATM    5  C5  UNL     1     -33.001  15.625  -5.369  1.00 20.00     0.173 C 
HETATM    6  C6  UNL     1     -35.312  13.920  -5.203  1.00 20.00     0.043 C 
HETATM    7  C7  UNL     1     -33.735  15.438  -4.029  1.00 20.00     0.014 C 
HETATM    8  C8  UNL     1     -34.838  16.514  -3.811  1.00 20.00    -0.009 C 
HETATM    9  C9  UNL     1     -34.517  14.164  -6.509  1.00 20.00     0.125 C 
HETATM   10  C10 UNL     1     -35.324  16.516  -2.354  1.00 20.00     0.011 C 
HETATM   11  C11 UNL     1     -35.391  14.104  -7.758  1.00 20.00     0.040 C 
HETATM   12  O12 UNL     1     -33.854  15.434  -6.497  1.00 20.00    -0.385 OA
ENDROOT
TORSDOF 0
ENDMDL
MODEL 3
REMARK VINA RESULT:      -4.6      1.051      3.398
REMARK  0 active torsions:
REMARK  status: ('A' for Active; 'I' for Inactive)
ROOT
HETATM    1  C1  UNL     1     -33.411  14.806  -4.554  1.00 20.00    -0.082 C 
HETATM    2  C2  UNL     1     -32.416  13.967  -4.225  1.00 20.00     0.015 C 
HETATM    3  C3  UNL     1     -34.734  14.795  -3.821  1.00 20.00     0.038 C 
HETATM    4  C4  UNL     1     -33.522  17.223  -5.032  1.00 20.00     0.018 C 
HETATM    5  C5  UNL     1     -35.879  17.018  -5.784  1.00 20.00     0.173 C 
HETATM    6  C6  UNL     1     -33.253  15.849  -5.651  1.00 20.00     0.043 C 
HETATM    7  C7  UNL     1     -34.979  17.263  -4.559  1.00 20.00     0.014 C 
HETATM    8  C8  UNL     1     -35.218  16.211  -3.438  1.00 20.00    -0.009 C 
HETATM    9  C9  UNL     1     -34.222  15.652  -6.843  1.00 20.00     0.125 C 
HETATM   10  C10 UNL     1     -34.569  16.656  -2.119  1.00 20.00     0.011 C 
HETATM   11  C11 UNL     1     -34.062  14.295  -7.522  1.00 20.00     0.040 C 
HETATM   12  O12 UNL     1     -35.591  15.784  -6.442  1.00 20.00    -0.385 OA
ENDROOT
TORSDOF 0
ENDMDL
MODEL 4
REMARK VINA RESULT:      -4.5      1.362      2.737
REMARK  0 active torsions:
REMARK  status: ('A' for Active; 'I' for Inactive)
ROOT
HETATM    1  C1  UNL     1     -36.432  14.986  -4.806  1.00 20.00    -0.082 C 
HETATM    2  C2  UNL     1     -37.753  14.915  -4.579  1.00 20.00     0.015 C 
HETATM    3  C3  UNL     1     -35.595  13.745  -5.019  1.00 20.00     0.038 C 
HETATM    4  C4  UNL     1     -35.023  16.375  -6.278  1.00 20.00     0.018 C 
HETATM    5  C5  UNL     1     -32.959  15.513  -5.202  1.00 20.00     0.173 C 
HETATM    6  C6  UNL     1     -35.705  16.319  -4.909  1.00 20.00     0.043 C 
HETATM    7  C7  UNL     1     -33.968  15.265  -6.338  1.00 20.00     0.014 C 
HETATM    8  C8  UNL     1     -34.641  13.866  -6.229  1.00 20.00    -0.009 C 
HETATM    9  C9  UNL     1     -34.627  16.528  -3.817  1.00 20.00     0.125 C 
HETATM   10  C10 UNL     1     -35.379  13.509  -7.527  1.00 20.00     0.011 C 
HETATM   11  C11 UNL     1     -35.193  16.462  -2.402  1.00 20.00     0.040 C 
HETATM   12  O12 UNL     1     -33.576  15.559  -3.916  1.00 20.00    -0.385 OA
ENDROOT
TORSDOF 0
ENDMDL
MODEL 5
REMARK VINA RESULT:      -4.5      1.651      3.684
REMARK  0 active torsions:
REMARK  status: ('A' for Active; 'I' for Inactive)
ROOT
HETATM    1  C1  UNL     1     -35.860  16.352  -5.331  1.00 20.00    -0.082 C 
HETATM    2  C2  UNL     1     -37.029  16.911  -5.679  1.00 20.00     0.015 C 
HETATM    3  C3  UNL     1     -34.563  16.740  -6.006  1.00 20.00     0.038 C 
HETATM    4  C4  UNL     1     -34.770  15.869  -3.173  1.00 20.00     0.018 C 
HETATM    5  C5  UNL     1     -32.988  14.563  -4.306  1.00 20.00     0.173 C 
HETATM    6  C6  UNL     1     -35.759  15.330  -4.208  1.00 20.00     0.043 C 
HETATM    7  C7  UNL     1     -33.390  15.972  -3.831  1.00 20.00     0.014 C 
HETATM    8  C8  UNL     1     -33.418  16.998  -5.000  1.00 20.00    -0.009 C 
HETATM    9  C9  UNL     1     -35.270  13.937  -4.674  1.00 20.00     0.125 C 
HETATM   10  C10 UNL     1     -33.493  18.436  -4.468  1.00 20.00     0.011 C 
HETATM   11  C11 UNL     1     -36.170  13.314  -5.736  1.00 20.00     0.040 C 
HETATM   12  O12 UNL     1     -33.939  13.992  -5.204  1.00 20.00    -0.385 OA
ENDROOT
TORSDOF 0
ENDMDL
MODEL 6
REMARK VINA RESULT:      -4.4      1.590      3.730
REMARK  0 active torsions:
REMARK  status: ('A' for Active; 'I' for Inactive)
ROOT
HETATM    1  C1  UNL     1     -34.164  16.694  -6.184  1.00 20.00    -0.082 C 
HETATM    2  C2  UNL     1     -34.032  17.733  -7.023  1.00 20.00     0.015 C 
HETATM    3  C3  UNL     1     -33.170  16.440  -5.073  1.00 20.00     0.038 C 
HETATM    4  C4  UNL     1     -36.055  15.749  -4.915  1.00 20.00     0.018 C 
HETATM    5  C5  UNL     1     -34.700  13.772  -4.266  1.00 20.00     0.173 C 
HETATM    6  C6  UNL     1     -35.343  15.735  -6.269  1.00 20.00     0.043 C 
HETATM    7  C7  UNL     1     -35.090  15.204  -3.856  1.00 20.00     0.014 C 
HETATM    8  C8  UNL     1     -33.850  16.133  -3.719  1.00 20.00    -0.009 C 
HETATM    9  C9  UNL     1     -34.939  14.276  -6.595  1.00 20.00     0.125 C 
HETATM   10  C10 UNL     1     -34.217  17.439  -3.001  1.00 20.00     0.011 C 
HETATM   11  C11 UNL     1     -34.190  14.147  -7.918  1.00 20.00     0.040 C 
HETATM   12  O12 UNL     1     -34.115  13.711  -5.567  1.00 20.00    -0.385 OA
ENDROOT
TORSDOF 0
ENDMDL
MODEL 7
REMARK VINA RESULT:      -4.3      1.097      2.592
REMARK  0 active torsions:
REMARK  status: ('A' for Active; 'I' for Inactive)
ROOT
HETATM    1  C1  UNL     1     -34.821  16.218  -3.320  1.00 20.00    -0.082 C 
HETATM    2  C2  UNL     1     -34.881  16.546  -2.020  1.00 20.00     0.015 C 
HETATM    3  C3  UNL     1     -33.557  16.407  -4.129  1.00 20.00     0.038 C 
HETATM    4  C4  UNL     1     -35.544  14.253  -4.623  1.00 20.00     0.018 C 
HETATM    5  C5  UNL     1     -35.052  15.423  -6.757  1.00 20.00     0.173 C 
HETATM    6  C6  UNL     1     -36.003  15.595  -4.047  1.00 20.00     0.043 C 
HETATM    7  C7  UNL     1     -34.450  14.523  -5.662  1.00 20.00     0.014 C 
HETATM    8  C8  UNL     1     -33.206  15.172  -4.989  1.00 20.00    -0.009 C 
HETATM    9  C9  UNL     1     -36.551  16.463  -5.206  1.00 20.00     0.125 C 
HETATM   10  C10 UNL     1     -32.435  14.142  -4.151  1.00 20.00     0.011 C 
HETATM   11  C11 UNL     1     -37.014  17.843  -4.750  1.00 20.00     0.040 C 
HETATM   12  O12 UNL     1     -35.575  16.646  -6.240  1.00 20.00    -0.385 OA
ENDROOT
TORSDOF 0
ENDMDL
MODEL 8
REMARK VINA RESULT:      -4.3      1.548      3.538
REMARK  0 active torsions:
REMARK  status: ('A' for Active; 'I' for Inactive)
ROOT
HETATM    1  C1  UNL     1     -34.274  15.320  -5.268  1.00 20.00    -0.082 C 
HETATM    2  C2  UNL     1     -32.989  15.592  -5.548  1.00 20.00     0.015 C 
HETATM    3  C3  UNL     1     -34.708  14.870  -3.892  1.00 20.00     0.038 C 
HETATM    4  C4  UNL     1     -36.405  16.470  -5.733  1.00 20.00     0.018 C 
HETATM    5  C5  UNL     1     -37.698  14.515  -4.915  1.00 20.00     0.173 C 
HETATM    6  C6  UNL     1     -35.375  15.492  -6.304  1.00 20.00     0.043 C 
HETATM    7  C7  UNL     1     -37.034  15.837  -4.487  1.00 20.00     0.014 C 
HETATM    8  C8  UNL     1     -35.959  15.621  -3.383  1.00 20.00    -0.009 C 
HETATM    9  C9  UNL     1     -36.102  14.174  -6.668  1.00 20.00     0.125 C 
HETATM   10  C10 UNL     1     -35.553  16.957  -2.743  1.00 20.00     0.011 C 
HETATM   11  C11 UNL     1     -35.161  13.109  -7.222  1.00 20.00     0.040 C 
HETATM   12  O12 UNL     1     -36.782  13.614  -5.537  1.00 20.00    -0.385 OA
ENDROOT
TORSDOF 0
ENDMDL
MODEL 9
REMARK VINA RESULT:      -4.3      1.446      2.909
REMARK  0 active torsions:
REMARK  status: ('A' for Active; 'I' for Inactive)
ROOT
HETATM    1  C1  UNL     1     -34.437  16.150  -6.381  1.00 20.00    -0.082 C 
HETATM    2  C2  UNL     1     -34.193  16.219  -7.698  1.00 20.00     0.015 C 
HETATM    3  C3  UNL     1     -35.822  15.868  -5.844  1.00 20.00     0.038 C 
HETATM    4  C4  UNL     1     -33.312  15.039  -4.489  1.00 20.00     0.018 C 
HETATM    5  C5  UNL     1     -34.775  16.213  -2.862  1.00 20.00     0.173 C 
HETATM    6  C6  UNL     1     -33.330  16.305  -5.349  1.00 20.00     0.043 C 
HETATM    7  C7  UNL     1     -34.641  14.950  -3.732  1.00 20.00     0.014 C 
HETATM    8  C8  UNL     1     -35.827  14.798  -4.729  1.00 20.00    -0.009 C 
HETATM    9  C9  UNL     1     -33.513  17.527  -4.416  1.00 20.00     0.125 C 
HETATM   10  C10 UNL     1     -35.852  13.391  -5.343  1.00 20.00     0.011 C 
HETATM   11  C11 UNL     1     -33.575  18.850  -5.173  1.00 20.00     0.040 C 
HETATM   12  O12 UNL     1     -34.702  17.418  -3.624  1.00 20.00    -0.385 OA
ENDROOT
TORSDOF 0
ENDMDL
