MODEL 1
REMARK VINA RESULT:      -5.4      0.000      0.000
REMARK  0 active torsions:
REMARK  status: ('A' for Active; 'I' for Inactive)
ROOT
HETATM    1  C1  UNL     1     -32.963   7.815   5.210  1.00 20.00    -0.029 C 
HETATM    2  C2  UNL     1     -34.006   6.971   5.151  1.00 20.00    -0.014 C 
HETATM    3  C3  UNL     1     -33.311   5.750   3.020  1.00 20.00     0.143 C 
HETATM    4  C4  UNL     1     -31.833   7.996   4.237  1.00 20.00     0.032 C 
HETATM    5  C5  UNL     1     -33.485   8.319   2.231  1.00 20.00     0.018 A 
HETATM    6  C6  UNL     1     -32.976   6.905   2.145  1.00 20.00     0.061 A 
HETATM    7  C7  UNL     1     -32.122   7.984   2.764  1.00 20.00     0.001 A 
HETATM    8  C8  UNL     1     -34.348   5.895   4.142  1.00 20.00     0.031 C 
HETATM    9  C9  UNL     1     -34.403   4.561   4.924  1.00 20.00     0.027 C 
HETATM   10  C10 UNL     1     -35.739   6.123   3.529  1.00 20.00     0.027 C 
HETATM   11  O11 UNL     1     -32.714   4.695   2.812  1.00 20.00    -0.296 OA
ENDROOT
TORSDOF 0
ENDMDL
MODEL 2
REMARK VINA RESULT:      -5.1      1.473      3.608
REMARK  0 active torsions:
REMARK  status: ('A' for Active; 'I' for Inactive)
ROOT
HETATM    1  C1  UNL     1     -32.949   4.845   2.819  1.00 20.00    -0.029 C 
HETATM    2  C2  UNL     1     -32.628   6.111   2.505  1.00 20.00    -0.014 C 
HETATM    3  C3  UNL     1     -33.492   7.202   4.645  1.00 20.00     0.143 C 
HETATM    4  C4  UNL     1     -33.678   4.323   4.024  1.00 20.00     0.032 C 
HETATM    5  C5  UNL     1     -35.675   5.976   3.652  1.00 20.00     0.018 A 
HETATM    6  C6  UNL     1     -34.830   6.562   4.752  1.00 20.00     0.061 A 
HETATM    7  C7  UNL     1     -34.873   5.068   4.541  1.00 20.00     0.001 A 
HETATM    8  C8  UNL     1     -32.827   7.400   3.276  1.00 20.00     0.031 C 
HETATM    9  C9  UNL     1     -31.419   7.997   3.504  1.00 20.00     0.027 C 
HETATM   10  C10 UNL     1     -33.632   8.423   2.458  1.00 20.00     0.027 C 
HETATM   11  O11 UNL     1     -32.947   7.545   5.693  1.00 20.00    -0.296 OA
ENDROOT
TORSDOF 0
ENDMDL
MODEL 3
REMARK VINA RESULT:      -4.7     11.166     12.717
REMARK  0 active torsions:
REMARK  status: ('A' for Active; 'I' for Inactive)
ROOT
HETATM    1  C1  UNL     1     -36.092  16.764  -5.238  1.00 20.00    -0.029 C 
HETATM    2  C2  UNL     1     -35.783  16.131  -6.382  1.00 20.00    -0.014 C 
HETATM    3  C3  UNL     1     -35.269  13.849  -5.358  1.00 20.00     0.143 C 
HETATM    4  C4  UNL     1     -36.032  16.254  -3.826  1.00 20.00     0.032 C 
HETATM    5  C5  UNL     1     -33.542  15.492  -4.104  1.00 20.00     0.018 A 
HETATM    6  C6  UNL     1     -34.388  14.252  -4.230  1.00 20.00     0.061 A 
HETATM    7  C7  UNL     1     -34.864  15.416  -3.395  1.00 20.00     0.001 A 
HETATM    8  C8  UNL     1     -35.348  14.702  -6.632  1.00 20.00     0.031 C 
HETATM    9  C9  UNL     1     -36.410  14.077  -7.566  1.00 20.00     0.027 C 
HETATM   10  C10 UNL     1     -34.000  14.648  -7.370  1.00 20.00     0.027 C 
HETATM   11  O11 UNL     1     -35.933  12.824  -5.214  1.00 20.00    -0.296 OA
ENDROOT
TORSDOF 0
ENDMDL
MODEL 4
REMARK VINA RESULT:      -4.7     11.489     12.367
REMARK  0 active torsions:
REMARK  status: ('A' for Active; 'I' for Inactive)
ROOT
HETATM    1  C1  UNL     1     -35.338  16.338  -3.679  1.00 20.00    -0.029 C 
HETATM    2  C2  UNL     1     -36.364  16.163  -4.528  1.00 20.00    -0.014 C 
HETATM    3  C3  UNL     1     -35.607  13.922  -5.488  1.00 20.00     0.143 C 
HETATM    4  C4  UNL     1     -34.113  15.491  -3.484  1.00 20.00     0.032 C 
HETATM    5  C5  UNL     1     -33.540  15.558  -6.038  1.00 20.00     0.018 A 
HETATM    6  C6  UNL     1     -34.179  14.220  -5.776  1.00 20.00     0.061 A 
HETATM    7  C7  UNL     1     -33.411  14.923  -4.683  1.00 20.00     0.001 A 
HETATM    8  C8  UNL     1     -36.658  15.041  -5.502  1.00 20.00     0.031 C 
HETATM    9  C9  UNL     1     -38.015  14.434  -5.075  1.00 20.00     0.027 C 
HETATM   10  C10 UNL     1     -36.824  15.571  -6.935  1.00 20.00     0.027 C 
HETATM   11  O11 UNL     1     -35.896  12.755  -5.227  1.00 20.00    -0.296 OA
ENDROOT
TORSDOF 0
ENDMDL
MODEL 5
REMARK VINA RESULT:      -4.6      1.535      3.232
REMARK  0 active torsions:
REMARK  status: ('A' for Active; 'I' for Inactive)
ROOT
HETATM    1  C1  UNL     1     -32.731   7.618   4.608  1.00 20.00    -0.029 C 
HETATM    2  C2  UNL     1     -32.709   6.942   3.447  1.00 20.00    -0.014 C 
HETATM    3  C3  UNL     1     -34.989   5.819   3.686  1.00 20.00     0.143 C 
HETATM    4  C4  UNL     1     -33.761   7.593   5.701  1.00 20.00     0.032 C 
HETATM    5  C5  UNL     1     -33.656   4.982   5.872  1.00 20.00     0.018 A 
HETATM    6  C6  UNL     1     -34.895   5.312   5.081  1.00 20.00     0.061 A 
HETATM    7  C7  UNL     1     -34.368   6.283   6.110  1.00 20.00     0.001 A 
HETATM    8  C8  UNL     1     -33.726   6.002   2.834  1.00 20.00     0.031 C 
HETATM    9  C9  UNL     1     -34.143   6.628   1.482  1.00 20.00     0.027 C 
HETATM   10  C10 UNL     1     -33.108   4.628   2.531  1.00 20.00     0.027 C 
HETATM   11  O11 UNL     1     -36.110   6.096   3.263  1.00 20.00    -0.296 OA
ENDROOT
TORSDOF 0
ENDMDL
MODEL 6
REMARK VINA RESULT:      -4.6     11.509     12.838
REMARK  0 active torsions:
REMARK  status: ('A' for Active; 'I' for Inactive)
ROOT
HETATM    1  C1  UNL     1     -33.825  15.412  -7.333  1.00 20.00    -0.029 C 
HETATM    2  C2  UNL     1     -34.064  16.107  -6.208  1.00 20.00    -0.014 C 
HETATM    3  C3  UNL     1     -34.994  14.171  -4.827  1.00 20.00     0.143 C 
HETATM    4  C4  UNL     1     -34.131  13.975  -7.643  1.00 20.00     0.032 C 
HETATM    5  C5  UNL     1     -36.641  14.258  -6.956  1.00 20.00     0.018 A 
HETATM    6  C6  UNL     1     -35.953  13.583  -5.799  1.00 20.00     0.061 A 
HETATM    7  C7  UNL     1     -35.442  13.390  -7.206  1.00 20.00     0.001 A 
HETATM    8  C8  UNL     1     -34.644  15.665  -4.880  1.00 20.00     0.031 C 
HETATM    9  C9  UNL     1     -33.560  15.945  -3.813  1.00 20.00     0.027 C 
HETATM   10  C10 UNL     1     -35.882  16.496  -4.505  1.00 20.00     0.027 C 
HETATM   11  O11 UNL     1     -34.492  13.410  -4.002  1.00 20.00    -0.296 OA
ENDROOT
TORSDOF 0
ENDMDL
MODEL 7
REMARK VINA RESULT:      -4.6     11.396     12.103
REMARK  0 active torsions:
REMARK  status: ('A' for Active; 'I' for Inactive)
ROOT
HETATM    1  C1  UNL     1     -36.372  16.533  -3.061  1.00 20.00    -0.029 C 
HETATM    2  C2  UNL     1     -36.544  15.945  -4.256  1.00 20.00    -0.014 C 
HETATM    3  C3  UNL     1     -34.315  14.704  -4.328  1.00 20.00     0.143 C 
HETATM    4  C4  UNL     1     -35.174  16.506  -2.155  1.00 20.00     0.032 C 
HETATM    5  C5  UNL     1     -33.578  17.282  -4.080  1.00 20.00     0.018 A 
HETATM    6  C6  UNL     1     -33.385  15.796  -3.935  1.00 20.00     0.061 A 
HETATM    7  C7  UNL     1     -33.800  16.629  -2.746  1.00 20.00     0.001 A 
HETATM    8  C8  UNL     1     -35.637  15.021  -5.041  1.00 20.00     0.031 C 
HETATM    9  C9  UNL     1     -36.414  13.697  -5.227  1.00 20.00     0.027 C 
HETATM   10  C10 UNL     1     -35.343  15.581  -6.442  1.00 20.00     0.027 C 
HETATM   11  O11 UNL     1     -33.983  13.554  -4.044  1.00 20.00    -0.296 OA
ENDROOT
TORSDOF 0
ENDMDL
MODEL 8
REMARK VINA RESULT:      -4.4     11.588     12.954
REMARK  0 active torsions:
REMARK  status: ('A' for Active; 'I' for Inactive)
ROOT
HETATM    1  C1  UNL     1     -36.290  13.617  -5.419  1.00 20.00    -0.029 C 
HETATM    2  C2  UNL     1     -35.320  13.915  -4.539  1.00 20.00    -0.014 C 
HETATM    3  C3  UNL     1     -34.394  15.957  -5.760  1.00 20.00     0.143 C 
HETATM    4  C4  UNL     1     -36.607  14.265  -6.737  1.00 20.00     0.032 C 
HETATM    5  C5  UNL     1     -34.143  13.985  -7.577  1.00 20.00     0.018 A 
HETATM    6  C6  UNL     1     -34.288  15.419  -7.142  1.00 20.00     0.061 A 
HETATM    7  C7  UNL     1     -35.485  14.654  -7.654  1.00 20.00     0.001 A 
HETATM    8  C8  UNL     1     -34.287  15.023  -4.547  1.00 20.00     0.031 C 
HETATM    9  C9  UNL     1     -34.530  15.860  -3.270  1.00 20.00     0.027 C 
HETATM   10  C10 UNL     1     -32.859  14.458  -4.459  1.00 20.00     0.027 C 
HETATM   11  O11 UNL     1     -34.586  17.166  -5.640  1.00 20.00    -0.296 OA
ENDROOT
TORSDOF 0
ENDMDL
MODEL 9
REMARK VINA RESULT:      -4.2     11.294     12.912
REMARK  0 active torsions:
REMARK  status: ('A' for Active; 'I' for Inactive)
ROOT
HETATM    1  C1  UNL     1     -35.088  16.211  -6.972  1.00 20.00    -0.029 C 
HETATM    2  C2  UNL     1     -34.529  16.083  -5.757  1.00 20.00    -0.014 C 
HETATM    3  C3  UNL     1     -35.821  14.007  -5.025  1.00 20.00     0.143 C 
HETATM    4  C4  UNL     1     -36.195  15.410  -7.596  1.00 20.00     0.032 C 
HETATM    5  C5  UNL     1     -37.767  15.797  -5.538  1.00 20.00     0.018 A 
HETATM    6  C6  UNL     1     -37.205  14.408  -5.394  1.00 20.00     0.061 A 
HETATM    7  C7  UNL     1     -37.380  15.019  -6.763  1.00 20.00     0.001 A 
HETATM    8  C8  UNL     1     -34.772  15.066  -4.662  1.00 20.00     0.031 C 
HETATM    9  C9  UNL     1     -33.424  14.347  -4.423  1.00 20.00     0.027 C 
HETATM   10  C10 UNL     1     -35.167  15.748  -3.342  1.00 20.00     0.027 C 
HETATM   11  O11 UNL     1     -35.561  12.805  -5.042  1.00 20.00    -0.296 OA
ENDROOT
TORSDOF 0
ENDMDL
