MODEL 1
REMARK VINA RESULT:      -6.2      0.000      0.000
REMARK  1 active torsions:
REMARK  status: ('A' for Active; 'I' for Inactive)
REMARK    1  A    between atoms: C6_6  and  O8_8 
ROOT
HETATM    1  C1  UNL     1     -33.698   7.126   5.753  1.00 20.00    -0.023 C 
HETATM    2  C2  UNL     1     -34.550   6.090   5.863  1.00 20.00     0.001 C 
HETATM    3  C3  UNL     1     -32.391   7.597   3.410  1.00 20.00     0.009 C 
HETATM    4  C4  UNL     1     -33.220   6.693   2.407  1.00 20.00     0.009 C 
HETATM    5  C5  UNL     1     -33.596   7.410   4.321  1.00 20.00     0.015 C 
HETATM    6  C6  UNL     1     -34.899   5.518   4.495  1.00 20.00     0.145 C 
HETATM    7  C7  UNL     1     -33.672   5.955   3.702  1.00 20.00     0.026 C 
ENDROOT
BRANCH   6   8
HETATM    8  O8  UNL     1     -34.955   4.103   4.557  1.00 20.00    -0.391 OA
HETATM    9  H18 UNL     1     -35.694   3.822   3.992  1.00 20.00     0.210 HD
ENDBRANCH   6   8
TORSDOF 1
ENDMDL
MODEL 2
REMARK VINA RESULT:      -5.7      2.002      3.438
REMARK  1 active torsions:
REMARK  status: ('A' for Active; 'I' for Inactive)
REMARK    1  A    between atoms: C6_6  and  O8_8 
ROOT
HETATM    1  C1  UNL     1     -33.820   5.502   3.119  1.00 20.00    -0.023 C 
HETATM    2  C2  UNL     1     -33.035   6.402   2.499  1.00 20.00     0.001 C 
HETATM    3  C3  UNL     1     -34.434   5.790   5.757  1.00 20.00     0.009 C 
HETATM    4  C4  UNL     1     -34.005   7.294   6.012  1.00 20.00     0.009 C 
HETATM    5  C5  UNL     1     -34.369   6.188   4.289  1.00 20.00     0.015 C 
HETATM    6  C6  UNL     1     -32.875   7.663   3.338  1.00 20.00     0.145 C 
HETATM    7  C7  UNL     1     -33.147   7.095   4.727  1.00 20.00     0.026 C 
ENDROOT
BRANCH   6   8
HETATM    8  O8  UNL     1     -31.541   8.135   3.261  1.00 20.00    -0.391 OA
HETATM    9  H18 UNL     1     -31.334   8.545   4.118  1.00 20.00     0.210 HD
ENDBRANCH   6   8
TORSDOF 1
ENDMDL
MODEL 3
REMARK VINA RESULT:      -5.5      1.897      3.318
REMARK  1 active torsions:
REMARK  status: ('A' for Active; 'I' for Inactive)
REMARK    1  A    between atoms: C6_6  and  O8_8 
ROOT
HETATM    1  C1  UNL     1     -33.301   6.063   2.799  1.00 20.00    -0.023 C 
HETATM    2  C2  UNL     1     -32.930   7.252   3.308  1.00 20.00     0.001 C 
HETATM    3  C3  UNL     1     -34.416   4.163   4.403  1.00 20.00     0.009 C 
HETATM    4  C4  UNL     1     -34.782   5.018   5.685  1.00 20.00     0.009 C 
HETATM    5  C5  UNL     1     -34.295   5.523   3.729  1.00 20.00     0.015 C 
HETATM    6  C6  UNL     1     -33.517   7.464   4.698  1.00 20.00     0.145 C 
HETATM    7  C7  UNL     1     -33.726   6.015   5.123  1.00 20.00     0.026 C 
ENDROOT
BRANCH   6   8
HETATM    8  O8  UNL     1     -32.562   8.083   5.543  1.00 20.00    -0.391 OA
HETATM    9  H18 UNL     1     -31.897   7.409   5.762  1.00 20.00     0.210 HD
ENDBRANCH   6   8
TORSDOF 1
ENDMDL
MODEL 4
REMARK VINA RESULT:      -5.5      1.436      2.227
REMARK  1 active torsions:
REMARK  status: ('A' for Active; 'I' for Inactive)
REMARK    1  A    between atoms: C6_6  and  O8_8 
ROOT
HETATM    1  C1  UNL     1     -34.548   4.839   5.551  1.00 20.00    -0.023 C 
HETATM    2  C2  UNL     1     -34.361   4.216   4.373  1.00 20.00     0.001 C 
HETATM    3  C3  UNL     1     -33.643   7.382   5.927  1.00 20.00     0.009 C 
HETATM    4  C4  UNL     1     -33.351   7.829   4.436  1.00 20.00     0.009 C 
HETATM    5  C5  UNL     1     -34.449   6.272   5.266  1.00 20.00     0.015 C 
HETATM    6  C6  UNL     1     -33.937   5.201   3.290  1.00 20.00     0.145 C 
HETATM    7  C7  UNL     1     -33.323   6.298   4.154  1.00 20.00     0.026 C 
ENDROOT
BRANCH   6   8
HETATM    8  O8  UNL     1     -32.942   4.621   2.465  1.00 20.00    -0.391 OA
HETATM    9  H18 UNL     1     -33.170   3.682   2.361  1.00 20.00     0.210 HD
ENDBRANCH   6   8
TORSDOF 1
ENDMDL
MODEL 5
REMARK VINA RESULT:      -5.3      1.584      2.279
REMARK  1 active torsions:
REMARK  status: ('A' for Active; 'I' for Inactive)
REMARK    1  A    between atoms: C6_6  and  O8_8 
ROOT
HETATM    1  C1  UNL     1     -34.776   4.799   4.479  1.00 20.00    -0.023 C 
HETATM    2  C2  UNL     1     -34.621   5.411   5.667  1.00 20.00     0.001 C 
HETATM    3  C3  UNL     1     -33.876   5.976   2.192  1.00 20.00     0.009 C 
HETATM    4  C4  UNL     1     -32.932   7.105   2.777  1.00 20.00     0.009 C 
HETATM    5  C5  UNL     1     -33.771   5.387   3.592  1.00 20.00     0.015 C 
HETATM    6  C6  UNL     1     -33.636   6.568   5.566  1.00 20.00     0.145 C 
HETATM    7  C7  UNL     1     -33.757   6.892   4.081  1.00 20.00     0.026 C 
ENDROOT
BRANCH   6   8
HETATM    8  O8  UNL     1     -34.090   7.665   6.340  1.00 20.00    -0.391 OA
HETATM    9  H18 UNL     1     -34.884   8.014   5.901  1.00 20.00     0.210 HD
ENDBRANCH   6   8
TORSDOF 1
ENDMDL
MODEL 6
REMARK VINA RESULT:      -5.1      1.813      2.846
REMARK  1 active torsions:
REMARK  status: ('A' for Active; 'I' for Inactive)
REMARK    1  A    between atoms: C6_6  and  O8_8 
ROOT
HETATM    1  C1  UNL     1     -33.749   7.303   5.864  1.00 20.00    -0.023 C 
HETATM    2  C2  UNL     1     -33.107   7.935   4.865  1.00 20.00     0.001 C 
HETATM    3  C3  UNL     1     -34.939   4.890   5.435  1.00 20.00     0.009 C 
HETATM    4  C4  UNL     1     -34.292   4.469   4.051  1.00 20.00     0.009 C 
HETATM    5  C5  UNL     1     -33.793   5.891   5.483  1.00 20.00     0.015 C 
HETATM    6  C6  UNL     1     -32.868   6.999   3.686  1.00 20.00     0.145 C 
HETATM    7  C7  UNL     1     -33.989   5.991   3.915  1.00 20.00     0.026 C 
ENDROOT
BRANCH   6   8
HETATM    8  O8  UNL     1     -33.078   7.688   2.466  1.00 20.00    -0.391 OA
HETATM    9  H18 UNL     1     -32.457   7.315   1.818  1.00 20.00     0.210 HD
ENDBRANCH   6   8
TORSDOF 1
ENDMDL
MODEL 7
REMARK VINA RESULT:      -4.8      2.188      2.928
REMARK  1 active torsions:
REMARK  status: ('A' for Active; 'I' for Inactive)
REMARK    1  A    between atoms: C6_6  and  O8_8 
ROOT
HETATM    1  C1  UNL     1     -33.731   7.394   5.610  1.00 20.00    -0.023 C 
HETATM    2  C2  UNL     1     -32.692   8.092   5.118  1.00 20.00     0.001 C 
HETATM    3  C3  UNL     1     -35.151   5.711   4.005  1.00 20.00     0.009 C 
HETATM    4  C4  UNL     1     -34.182   5.584   2.758  1.00 20.00     0.009 C 
HETATM    5  C5  UNL     1     -33.914   6.257   4.706  1.00 20.00     0.015 C 
HETATM    6  C6  UNL     1     -32.265   7.557   3.756  1.00 20.00     0.145 C 
HETATM    7  C7  UNL     1     -33.569   6.907   3.305  1.00 20.00     0.026 C 
ENDROOT
BRANCH   6   8
HETATM    8  O8  UNL     1     -31.934   8.630   2.892  1.00 20.00    -0.391 OA
HETATM    9  H18 UNL     1     -31.054   8.947   3.156  1.00 20.00     0.210 HD
ENDBRANCH   6   8
TORSDOF 1
ENDMDL
MODEL 8
REMARK VINA RESULT:      -4.7      0.853      2.261
REMARK  1 active torsions:
REMARK  status: ('A' for Active; 'I' for Inactive)
REMARK    1  A    between atoms: C6_6  and  O8_8 
ROOT
HETATM    1  C1  UNL     1     -33.335   6.373   2.822  1.00 20.00    -0.023 C 
HETATM    2  C2  UNL     1     -33.844   5.135   2.956  1.00 20.00     0.001 C 
HETATM    3  C3  UNL     1     -33.476   8.155   4.879  1.00 20.00     0.009 C 
HETATM    4  C4  UNL     1     -33.850   7.202   6.088  1.00 20.00     0.009 C 
HETATM    5  C5  UNL     1     -33.094   6.856   4.183  1.00 20.00     0.015 C 
HETATM    6  C6  UNL     1     -34.144   4.818   4.416  1.00 20.00     0.145 C 
HETATM    7  C7  UNL     1     -34.320   6.230   4.965  1.00 20.00     0.026 C 
ENDROOT
BRANCH   6   8
HETATM    8  O8  UNL     1     -35.363   4.104   4.520  1.00 20.00    -0.391 OA
HETATM    9  H18 UNL     1     -36.054   4.749   4.746  1.00 20.00     0.210 HD
ENDBRANCH   6   8
TORSDOF 1
ENDMDL
MODEL 9
REMARK VINA RESULT:      -4.7      1.320      2.726
REMARK  1 active torsions:
REMARK  status: ('A' for Active; 'I' for Inactive)
REMARK    1  A    between atoms: C6_6  and  O8_8 
ROOT
HETATM    1  C1  UNL     1     -32.516   7.973   3.775  1.00 20.00    -0.023 C 
HETATM    2  C2  UNL     1     -32.686   7.253   2.651  1.00 20.00     0.001 C 
HETATM    3  C3  UNL     1     -33.931   7.374   6.025  1.00 20.00     0.009 C 
HETATM    4  C4  UNL     1     -34.483   5.933   5.668  1.00 20.00     0.009 C 
HETATM    5  C5  UNL     1     -32.972   7.116   4.871  1.00 20.00     0.015 C 
HETATM    6  C6  UNL     1     -33.443   5.961   2.933  1.00 20.00     0.145 C 
HETATM    7  C7  UNL     1     -34.191   6.363   4.200  1.00 20.00     0.026 C 
ENDROOT
BRANCH   6   8
HETATM    8  O8  UNL     1     -34.364   5.696   1.890  1.00 20.00    -0.391 OA
HETATM    9  H18 UNL     1     -34.068   6.201   1.114  1.00 20.00     0.210 HD
ENDBRANCH   6   8
TORSDOF 1
ENDMDL
