MODEL 1
REMARK VINA RESULT:      -5.6      0.000      0.000
REMARK  0 active torsions:
REMARK  status: ('A' for Active; 'I' for Inactive)
ROOT
HETATM    1  C1  UNL     1     -35.689  16.799  -2.148  1.00 20.00    -0.030 C 
HETATM    2  C2  UNL     1     -34.355  16.827  -2.066  1.00 20.00    -0.030 C 
HETATM    3  C3  UNL     1     -35.530  13.839  -4.978  1.00 20.00     0.128 C 
HETATM    4  C4  UNL     1     -36.428  16.306  -3.351  1.00 20.00     0.037 C 
HETATM    5  C5  UNL     1     -33.447  16.390  -3.171  1.00 20.00     0.037 C 
HETATM    6  C6  UNL     1     -36.183  15.081  -5.539  1.00 20.00     0.088 C 
HETATM    7  C7  UNL     1     -34.381  14.159  -4.049  1.00 20.00     0.088 C 
HETATM    8  C8  UNL     1     -35.570  16.188  -4.652  1.00 20.00    -0.026 C 
HETATM    9  C9  UNL     1     -34.126  15.656  -4.352  1.00 20.00    -0.026 C 
HETATM   10  C10 UNL     1     -35.583  17.539  -5.384  1.00 20.00     0.016 C 
HETATM   11  C11 UNL     1     -33.163  15.744  -5.563  1.00 20.00     0.016 C 
HETATM   12  O12 UNL     1     -35.895  12.700  -5.243  1.00 20.00    -0.298 OA
ENDROOT
TORSDOF 0
ENDMDL
MODEL 2
REMARK VINA RESULT:      -4.9      1.315      1.798
REMARK  0 active torsions:
REMARK  status: ('A' for Active; 'I' for Inactive)
ROOT
HETATM    1  C1  UNL     1     -34.269  17.482  -0.983  1.00 20.00    -0.030 C 
HETATM    2  C2  UNL     1     -33.274  18.088  -1.639  1.00 20.00    -0.030 C 
HETATM    3  C3  UNL     1     -34.749  14.791  -4.036  1.00 20.00     0.128 C 
HETATM    4  C4  UNL     1     -35.332  16.679  -1.662  1.00 20.00     0.037 C 
HETATM    5  C5  UNL     1     -33.118  18.050  -3.126  1.00 20.00     0.037 C 
HETATM    6  C6  UNL     1     -36.005  15.610  -3.842  1.00 20.00     0.088 C 
HETATM    7  C7  UNL     1     -33.492  15.607  -3.842  1.00 20.00     0.088 C 
HETATM    8  C8  UNL     1     -35.445  16.901  -3.205  1.00 20.00    -0.026 C 
HETATM    9  C9  UNL     1     -34.037  17.056  -3.877  1.00 20.00    -0.026 C 
HETATM   10  C10 UNL     1     -36.383  18.088  -3.472  1.00 20.00     0.016 C 
HETATM   11  C11 UNL     1     -34.096  17.512  -5.356  1.00 20.00     0.016 C 
HETATM   12  O12 UNL     1     -34.751  13.598  -4.316  1.00 20.00    -0.298 OA
ENDROOT
TORSDOF 0
ENDMDL
MODEL 3
REMARK VINA RESULT:      -4.8      0.700      3.110
REMARK  0 active torsions:
REMARK  status: ('A' for Active; 'I' for Inactive)
ROOT
HETATM    1  C1  UNL     1     -33.643  17.025  -6.594  1.00 20.00    -0.030 C 
HETATM    2  C2  UNL     1     -34.752  17.766  -6.506  1.00 20.00    -0.030 C 
HETATM    3  C3  UNL     1     -35.595  13.779  -5.028  1.00 20.00     0.128 C 
HETATM    4  C4  UNL     1     -33.391  15.821  -5.744  1.00 20.00     0.037 C 
HETATM    5  C5  UNL     1     -35.858  17.491  -5.537  1.00 20.00     0.037 C 
HETATM    6  C6  UNL     1     -34.449  14.198  -4.134  1.00 20.00     0.088 C 
HETATM    7  C7  UNL     1     -36.312  14.961  -5.639  1.00 20.00     0.088 C 
HETATM    8  C8  UNL     1     -34.307  15.696  -4.484  1.00 20.00    -0.026 C 
HETATM    9  C9  UNL     1     -35.780  16.140  -4.788  1.00 20.00    -0.026 C 
HETATM   10  C10 UNL     1     -33.665  16.466  -3.320  1.00 20.00     0.016 C 
HETATM   11  C11 UNL     1     -36.669  16.262  -3.525  1.00 20.00     0.016 C 
HETATM   12  O12 UNL     1     -35.904  12.612  -5.236  1.00 20.00    -0.298 OA
ENDROOT
TORSDOF 0
ENDMDL
MODEL 4
REMARK VINA RESULT:      -4.7      1.411      2.462
REMARK  0 active torsions:
REMARK  status: ('A' for Active; 'I' for Inactive)
ROOT
HETATM    1  C1  UNL     1     -33.545  15.999  -3.804  1.00 20.00    -0.030 C 
HETATM    2  C2  UNL     1     -33.495  16.930  -4.762  1.00 20.00    -0.030 C 
HETATM    3  C3  UNL     1     -35.251  13.316  -6.390  1.00 20.00     0.128 C 
HETATM    4  C4  UNL     1     -34.510  14.857  -3.818  1.00 20.00     0.037 C 
HETATM    5  C5  UNL     1     -34.409  16.949  -5.946  1.00 20.00     0.037 C 
HETATM    6  C6  UNL     1     -36.180  13.609  -5.233  1.00 20.00     0.088 C 
HETATM    7  C7  UNL     1     -34.495  14.542  -6.849  1.00 20.00     0.088 C 
HETATM    8  C8  UNL     1     -35.713  15.017  -4.803  1.00 20.00    -0.026 C 
HETATM    9  C9  UNL     1     -35.275  15.684  -6.153  1.00 20.00    -0.026 C 
HETATM   10  C10 UNL     1     -36.846  15.770  -4.090  1.00 20.00     0.016 C 
HETATM   11  C11 UNL     1     -36.461  16.082  -7.067  1.00 20.00     0.016 C 
HETATM   12  O12 UNL     1     -35.124  12.208  -6.896  1.00 20.00    -0.298 OA
ENDROOT
TORSDOF 0
ENDMDL
MODEL 5
REMARK VINA RESULT:      -4.6      1.455      2.048
REMARK  0 active torsions:
REMARK  status: ('A' for Active; 'I' for Inactive)
ROOT
HETATM    1  C1  UNL     1     -34.089  16.342  -3.532  1.00 20.00    -0.030 C 
HETATM    2  C2  UNL     1     -33.224  15.383  -3.878  1.00 20.00    -0.030 C 
HETATM    3  C3  UNL     1     -37.175  14.297  -5.291  1.00 20.00     0.128 C 
HETATM    4  C4  UNL     1     -35.378  16.583  -4.252  1.00 20.00     0.037 C 
HETATM    5  C5  UNL     1     -33.432  14.457  -5.033  1.00 20.00     0.037 C 
HETATM    6  C6  UNL     1     -36.974  15.640  -5.957  1.00 20.00     0.088 C 
HETATM    7  C7  UNL     1     -35.869  13.646  -4.897  1.00 20.00     0.088 C 
HETATM    8  C8  UNL     1     -35.484  15.918  -5.662  1.00 20.00    -0.026 C 
HETATM    9  C9  UNL     1     -34.836  14.490  -5.682  1.00 20.00    -0.026 C 
HETATM   10  C10 UNL     1     -34.892  16.872  -6.711  1.00 20.00     0.016 C 
HETATM   11  C11 UNL     1     -34.701  13.885  -7.103  1.00 20.00     0.016 C 
HETATM   12  O12 UNL     1     -38.275  13.795  -5.090  1.00 20.00    -0.298 OA
ENDROOT
TORSDOF 0
ENDMDL
MODEL 6
REMARK VINA RESULT:      -4.6      1.306      1.699
REMARK  0 active torsions:
REMARK  status: ('A' for Active; 'I' for Inactive)
ROOT
HETATM    1  C1  UNL     1     -36.751  16.865  -4.348  1.00 20.00    -0.030 C 
HETATM    2  C2  UNL     1     -36.078  16.639  -3.216  1.00 20.00    -0.030 C 
HETATM    3  C3  UNL     1     -35.083  13.552  -6.091  1.00 20.00     0.128 C 
HETATM    4  C4  UNL     1     -36.306  16.358  -5.683  1.00 20.00     0.037 C 
HETATM    5  C5  UNL     1     -34.795  15.874  -3.153  1.00 20.00     0.037 C 
HETATM    6  C6  UNL     1     -34.701  14.804  -6.847  1.00 20.00     0.088 C 
HETATM    7  C7  UNL     1     -35.122  13.769  -4.596  1.00 20.00     0.088 C 
HETATM    8  C8  UNL     1     -34.818  15.884  -5.749  1.00 20.00    -0.026 C 
HETATM    9  C9  UNL     1     -34.390  15.125  -4.445  1.00 20.00    -0.026 C 
HETATM   10  C10 UNL     1     -33.923  17.089  -6.076  1.00 20.00     0.016 C 
HETATM   11  C11 UNL     1     -32.869  14.843  -4.357  1.00 20.00     0.016 C 
HETATM   12  O12 UNL     1     -35.335  12.482  -6.631  1.00 20.00    -0.298 OA
ENDROOT
TORSDOF 0
ENDMDL
MODEL 7
REMARK VINA RESULT:      -4.6      1.786      3.704
REMARK  0 active torsions:
REMARK  status: ('A' for Active; 'I' for Inactive)
ROOT
HETATM    1  C1  UNL     1     -35.565  13.571  -4.964  1.00 20.00    -0.030 C 
HETATM    2  C2  UNL     1     -36.477  14.285  -5.630  1.00 20.00    -0.030 C 
HETATM    3  C3  UNL     1     -35.052  16.606  -2.258  1.00 20.00     0.128 C 
HETATM    4  C4  UNL     1     -34.511  14.186  -4.099  1.00 20.00     0.037 C 
HETATM    5  C5  UNL     1     -36.539  15.779  -5.606  1.00 20.00     0.037 C 
HETATM    6  C6  UNL     1     -33.764  16.325  -2.998  1.00 20.00     0.088 C 
HETATM    7  C7  UNL     1     -36.268  16.488  -3.148  1.00 20.00     0.088 C 
HETATM    8  C8  UNL     1     -34.285  15.717  -4.319  1.00 20.00    -0.026 C 
HETATM    9  C9  UNL     1     -35.636  16.477  -4.561  1.00 20.00    -0.026 C 
HETATM   10  C10 UNL     1     -33.262  15.915  -5.448  1.00 20.00     0.016 C 
HETATM   11  C11 UNL     1     -35.453  17.946  -5.018  1.00 20.00     0.016 C 
HETATM   12  O12 UNL     1     -35.104  16.894  -1.068  1.00 20.00    -0.298 OA
ENDROOT
TORSDOF 0
ENDMDL
MODEL 8
REMARK VINA RESULT:      -4.5      1.606      3.367
REMARK  0 active torsions:
REMARK  status: ('A' for Active; 'I' for Inactive)
ROOT
HETATM    1  C1  UNL     1     -36.359  14.691  -7.037  1.00 20.00    -0.030 C 
HETATM    2  C2  UNL     1     -37.227  14.651  -6.021  1.00 20.00    -0.030 C 
HETATM    3  C3  UNL     1     -33.197  14.384  -4.447  1.00 20.00     0.128 C 
HETATM    4  C4  UNL     1     -34.938  15.133  -6.885  1.00 20.00     0.037 C 
HETATM    5  C5  UNL     1     -36.887  15.060  -4.624  1.00 20.00     0.037 C 
HETATM    6  C6  UNL     1     -33.137  15.686  -5.213  1.00 20.00     0.088 C 
HETATM    7  C7  UNL     1     -34.610  13.995  -4.078  1.00 20.00     0.088 C 
HETATM    8  C8  UNL     1     -34.624  15.912  -5.567  1.00 20.00    -0.026 C 
HETATM    9  C9  UNL     1     -35.387  15.308  -4.338  1.00 20.00    -0.026 C 
HETATM   10  C10 UNL     1     -34.907  17.406  -5.789  1.00 20.00     0.016 C 
HETATM   11  C11 UNL     1     -35.300  16.179  -3.059  1.00 20.00     0.016 C 
HETATM   12  O12 UNL     1     -32.210  13.717  -4.162  1.00 20.00    -0.298 OA
ENDROOT
TORSDOF 0
ENDMDL
MODEL 9
REMARK VINA RESULT:      -4.5      1.453      2.558
REMARK  0 active torsions:
REMARK  status: ('A' for Active; 'I' for Inactive)
ROOT
HETATM    1  C1  UNL     1     -33.312  15.341  -4.049  1.00 20.00    -0.030 C 
HETATM    2  C2  UNL     1     -32.994  15.560  -5.329  1.00 20.00    -0.030 C 
HETATM    3  C3  UNL     1     -37.213  14.601  -5.067  1.00 20.00     0.128 C 
HETATM    4  C4  UNL     1     -34.699  15.494  -3.511  1.00 20.00     0.037 C 
HETATM    5  C5  UNL     1     -33.978  16.002  -6.364  1.00 20.00     0.037 C 
HETATM    6  C6  UNL     1     -37.117  15.798  -4.149  1.00 20.00     0.088 C 
HETATM    7  C7  UNL     1     -36.073  14.540  -6.058  1.00 20.00     0.088 C 
HETATM    8  C8  UNL     1     -35.681  16.294  -4.426  1.00 20.00    -0.026 C 
HETATM    9  C9  UNL     1     -35.467  15.960  -5.943  1.00 20.00    -0.026 C 
HETATM   10  C10 UNL     1     -35.554  17.792  -4.108  1.00 20.00     0.016 C 
HETATM   11  C11 UNL     1     -36.244  16.893  -6.905  1.00 20.00     0.016 C 
HETATM   12  O12 UNL     1     -38.112  13.771  -5.011  1.00 20.00    -0.298 OA
ENDROOT
TORSDOF 0
ENDMDL
