MODEL 1
REMARK VINA RESULT:      -5.7      0.000      0.000
REMARK  1 active torsions:
REMARK  status: ('A' for Active; 'I' for Inactive)
REMARK    1  A    between atoms: C6_6  and  O10_10 
ROOT
HETATM    1  C1  UNL     1     -33.449   7.904   5.244  1.00 20.00     0.003 C 
HETATM    2  C2  UNL     1     -32.230   7.739   4.342  1.00 20.00     0.032 C 
HETATM    3  C3  UNL     1     -34.066   6.545   5.570  1.00 20.00     0.010 C 
HETATM    4  C4  UNL     1     -35.038   6.187   3.184  1.00 20.00     0.017 A 
HETATM    5  C5  UNL     1     -33.542   5.991   3.067  1.00 20.00     0.023 A 
HETATM    6  C6  UNL     1     -32.616   7.170   2.975  1.00 20.00     0.125 C 
HETATM    7  C7  UNL     1     -34.262   5.652   4.362  1.00 20.00    -0.038 A 
HETATM    8  C8  UNL     1     -34.447   4.195   4.701  1.00 20.00     0.015 C 
ENDROOT
BRANCH   6   9
HETATM    9  O10 UNL     1     -33.217   8.185   2.174  1.00 20.00    -0.390 OA
HETATM   10  C9  UNL     1     -32.241   9.052   1.615  1.00 20.00     0.202 C 
ENDBRANCH   6   9
TORSDOF 1
ENDMDL
MODEL 2
REMARK VINA RESULT:      -4.3      1.492      3.562
REMARK  1 active torsions:
REMARK  status: ('A' for Active; 'I' for Inactive)
REMARK    1  A    between atoms: C6_6  and  O10_10 
ROOT
HETATM    1  C1  UNL     1     -33.051   7.328   5.362  1.00 20.00     0.003 C 
HETATM    2  C2  UNL     1     -34.513   7.037   5.038  1.00 20.00     0.032 C 
HETATM    3  C3  UNL     1     -32.393   8.110   4.226  1.00 20.00     0.010 C 
HETATM    4  C4  UNL     1     -32.330   6.086   2.596  1.00 20.00     0.017 A 
HETATM    5  C5  UNL     1     -33.776   6.524   2.672  1.00 20.00     0.023 A 
HETATM    6  C6  UNL     1     -34.645   6.113   3.826  1.00 20.00     0.125 C 
HETATM    7  C7  UNL     1     -32.656   7.536   2.849  1.00 20.00    -0.038 A 
HETATM    8  C8  UNL     1     -32.400   8.504   1.722  1.00 20.00     0.015 C 
ENDROOT
BRANCH   6   9
HETATM    9  O10 UNL     1     -34.338   4.770   4.197  1.00 20.00    -0.390 OA
HETATM   10  C9  UNL     1     -34.668   4.519   5.555  1.00 20.00     0.202 C 
ENDBRANCH   6   9
TORSDOF 1
ENDMDL
MODEL 3
REMARK VINA RESULT:      -3.9     11.472     12.649
REMARK  1 active torsions:
REMARK  status: ('A' for Active; 'I' for Inactive)
REMARK    1  A    between atoms: C6_6  and  O10_10 
ROOT
HETATM    1  C1  UNL     1     -33.896  17.034  -5.995  1.00 20.00     0.003 C 
HETATM    2  C2  UNL     1     -33.154  15.704  -6.087  1.00 20.00     0.032 C 
HETATM    3  C3  UNL     1     -33.793  17.611  -4.584  1.00 20.00     0.010 C 
HETATM    4  C4  UNL     1     -35.408  15.864  -3.533  1.00 20.00     0.017 A 
HETATM    5  C5  UNL     1     -34.117  15.130  -3.819  1.00 20.00     0.023 A 
HETATM    6  C6  UNL     1     -33.801  14.637  -5.202  1.00 20.00     0.125 C 
HETATM    7  C7  UNL     1     -34.099  16.613  -3.486  1.00 20.00    -0.038 A 
HETATM    8  C8  UNL     1     -33.591  17.021  -2.127  1.00 20.00     0.015 C 
ENDROOT
BRANCH   6   9
HETATM    9  O10 UNL     1     -34.993  14.149  -5.816  1.00 20.00    -0.390 OA
HETATM   10  C9  UNL     1     -34.714  13.500  -7.048  1.00 20.00     0.202 C 
ENDBRANCH   6   9
TORSDOF 1
ENDMDL
MODEL 4
REMARK VINA RESULT:      -3.9     11.373     12.207
REMARK  1 active torsions:
REMARK  status: ('A' for Active; 'I' for Inactive)
REMARK    1  A    between atoms: C6_6  and  O10_10 
ROOT
HETATM    1  C1  UNL     1     -33.456  15.455  -4.297  1.00 20.00     0.003 C 
HETATM    2  C2  UNL     1     -34.444  14.295  -4.380  1.00 20.00     0.032 C 
HETATM    3  C3  UNL     1     -33.665  16.248  -3.007  1.00 20.00     0.010 C 
HETATM    4  C4  UNL     1     -35.900  17.322  -3.788  1.00 20.00     0.017 A 
HETATM    5  C5  UNL     1     -36.209  15.872  -3.486  1.00 20.00     0.023 A 
HETATM    6  C6  UNL     1     -35.887  14.793  -4.480  1.00 20.00     0.125 C 
HETATM    7  C7  UNL     1     -35.111  16.597  -2.726  1.00 20.00    -0.038 A 
HETATM    8  C8  UNL     1     -35.383  16.976  -1.292  1.00 20.00     0.015 C 
ENDROOT
BRANCH   6   9
HETATM    9  O10 UNL     1     -36.152  15.267  -5.799  1.00 20.00    -0.390 OA
HETATM   10  C9  UNL     1     -36.135  14.208  -6.744  1.00 20.00     0.202 C 
ENDBRANCH   6   9
TORSDOF 1
ENDMDL
MODEL 5
REMARK VINA RESULT:      -3.8     11.391     12.168
REMARK  1 active torsions:
REMARK  status: ('A' for Active; 'I' for Inactive)
REMARK    1  A    between atoms: C6_6  and  O10_10 
ROOT
HETATM    1  C1  UNL     1     -36.129  17.193  -2.543  1.00 20.00     0.003 C 
HETATM    2  C2  UNL     1     -35.028  17.044  -1.497  1.00 20.00     0.032 C 
HETATM    3  C3  UNL     1     -36.183  15.962  -3.447  1.00 20.00     0.010 C 
HETATM    4  C4  UNL     1     -33.980  16.537  -4.703  1.00 20.00     0.017 A 
HETATM    5  C5  UNL     1     -33.572  16.070  -3.323  1.00 20.00     0.023 A 
HETATM    6  C6  UNL     1     -33.643  16.998  -2.144  1.00 20.00     0.125 C 
HETATM    7  C7  UNL     1     -34.832  15.527  -3.976  1.00 20.00    -0.038 A 
HETATM    8  C8  UNL     1     -34.803  14.109  -4.488  1.00 20.00     0.015 C 
ENDROOT
BRANCH   6   9
HETATM    9  O10 UNL     1     -33.246  18.308  -2.546  1.00 20.00    -0.390 OA
HETATM   10  C9  UNL     1     -33.041  19.155  -1.425  1.00 20.00     0.202 C 
ENDBRANCH   6   9
TORSDOF 1
ENDMDL
MODEL 6
REMARK VINA RESULT:      -3.8     11.039     12.331
REMARK  1 active torsions:
REMARK  status: ('A' for Active; 'I' for Inactive)
REMARK    1  A    between atoms: C6_6  and  O10_10 
ROOT
HETATM    1  C1  UNL     1     -36.411  14.863  -4.618  1.00 20.00     0.003 C 
HETATM    2  C2  UNL     1     -35.933  15.292  -6.002  1.00 20.00     0.032 C 
HETATM    3  C3  UNL     1     -35.682  15.649  -3.529  1.00 20.00     0.010 C 
HETATM    4  C4  UNL     1     -33.419  14.415  -3.870  1.00 20.00     0.017 A 
HETATM    5  C5  UNL     1     -33.585  15.334  -5.060  1.00 20.00     0.023 A 
HETATM    6  C6  UNL     1     -34.459  14.945  -6.218  1.00 20.00     0.125 C 
HETATM    7  C7  UNL     1     -34.180  15.707  -3.712  1.00 20.00    -0.038 A 
HETATM    8  C8  UNL     1     -33.510  16.807  -2.929  1.00 20.00     0.015 C 
ENDROOT
BRANCH   6   9
HETATM    9  O10 UNL     1     -34.316  13.549  -6.472  1.00 20.00    -0.390 OA
HETATM   10  C9  UNL     1     -35.147  13.129  -7.544  1.00 20.00     0.202 C 
ENDBRANCH   6   9
TORSDOF 1
ENDMDL
MODEL 7
REMARK VINA RESULT:      -3.7     11.587     12.271
REMARK  1 active torsions:
REMARK  status: ('A' for Active; 'I' for Inactive)
REMARK    1  A    between atoms: C6_6  and  O10_10 
ROOT
HETATM    1  C1  UNL     1     -33.158  18.225  -1.819  1.00 20.00     0.003 C 
HETATM    2  C2  UNL     1     -33.795  16.852  -2.019  1.00 20.00     0.032 C 
HETATM    3  C3  UNL     1     -33.087  18.574  -0.333  1.00 20.00     0.010 C 
HETATM    4  C4  UNL     1     -35.645  18.978  -0.099  1.00 20.00     0.017 A 
HETATM    5  C5  UNL     1     -35.462  17.482  -0.223  1.00 20.00     0.023 A 
HETATM    6  C6  UNL     1     -35.256  16.841  -1.566  1.00 20.00     0.125 C 
HETATM    7  C7  UNL     1     -34.381  18.337   0.417  1.00 20.00    -0.038 A 
HETATM    8  C8  UNL     1     -34.215  18.254   1.913  1.00 20.00     0.015 C 
ENDROOT
BRANCH   6   9
HETATM    9  O10 UNL     1     -36.075  17.492  -2.534  1.00 20.00    -0.390 OA
HETATM   10  C9  UNL     1     -36.516  16.586  -3.534  1.00 20.00     0.202 C 
ENDBRANCH   6   9
TORSDOF 1
ENDMDL
MODEL 8
REMARK VINA RESULT:      -3.7     11.261     12.500
REMARK  1 active torsions:
REMARK  status: ('A' for Active; 'I' for Inactive)
REMARK    1  A    between atoms: C6_6  and  O10_10 
ROOT
HETATM    1  C1  UNL     1     -33.221  14.589  -4.308  1.00 20.00     0.003 C 
HETATM    2  C2  UNL     1     -33.047  15.681  -5.361  1.00 20.00     0.032 C 
HETATM    3  C3  UNL     1     -34.663  14.085  -4.288  1.00 20.00     0.010 C 
HETATM    4  C4  UNL     1     -35.615  16.240  -3.188  1.00 20.00     0.017 A 
HETATM    5  C5  UNL     1     -35.281  16.606  -4.617  1.00 20.00     0.023 A 
HETATM    6  C6  UNL     1     -33.870  16.924  -5.021  1.00 20.00     0.125 C 
HETATM    7  C7  UNL     1     -35.701  15.188  -4.265  1.00 20.00    -0.038 A 
HETATM    8  C8  UNL     1     -37.079  14.741  -4.679  1.00 20.00     0.015 C 
ENDROOT
BRANCH   6   9
HETATM    9  O10 UNL     1     -33.234  17.664  -3.981  1.00 20.00    -0.390 OA
HETATM   10  C9  UNL     1     -33.208  19.053  -4.272  1.00 20.00     0.202 C 
ENDBRANCH   6   9
TORSDOF 1
ENDMDL
MODEL 9
REMARK VINA RESULT:      -3.7     11.744     12.875
REMARK  1 active torsions:
REMARK  status: ('A' for Active; 'I' for Inactive)
REMARK    1  A    between atoms: C6_6  and  O10_10 
ROOT
HETATM    1  C1  UNL     1     -34.999  15.163  -3.844  1.00 20.00     0.003 C 
HETATM    2  C2  UNL     1     -33.557  15.660  -3.899  1.00 20.00     0.032 C 
HETATM    3  C3  UNL     1     -35.251  14.122  -4.934  1.00 20.00     0.010 C 
HETATM    4  C4  UNL     1     -35.209  15.850  -6.877  1.00 20.00     0.017 A 
HETATM    5  C5  UNL     1     -33.776  15.690  -6.419  1.00 20.00     0.023 A 
HETATM    6  C6  UNL     1     -33.272  16.410  -5.201  1.00 20.00     0.125 C 
HETATM    7  C7  UNL     1     -34.752  14.532  -6.304  1.00 20.00    -0.038 A 
HETATM    8  C8  UNL     1     -34.595  13.382  -7.267  1.00 20.00     0.015 C 
ENDROOT
BRANCH   6   9
HETATM    9  O10 UNL     1     -33.843  17.716  -5.150  1.00 20.00    -0.390 OA
HETATM   10  C9  UNL     1     -33.351  18.455  -4.042  1.00 20.00     0.202 C 
ENDBRANCH   6   9
TORSDOF 1
ENDMDL
