MODEL 1
REMARK VINA RESULT:      -5.2      0.000      0.000
REMARK  1 active torsions:
REMARK  status: ('A' for Active; 'I' for Inactive)
REMARK    1  A    between atoms: C6_6  and  O10_10 
ROOT
HETATM    1  C1  UNL     1     -32.752   8.111   4.858  1.00 20.00     0.003 C 
HETATM    2  C2  UNL     1     -31.692   7.982   3.765  1.00 20.00     0.032 C 
HETATM    3  C3  UNL     1     -33.499   6.795   5.057  1.00 20.00     0.010 C 
HETATM    4  C4  UNL     1     -33.100   5.273   3.012  1.00 20.00     0.017 A 
HETATM    5  C5  UNL     1     -33.384   6.634   2.444  1.00 20.00     0.023 A 
HETATM    6  C6  UNL     1     -32.333   7.703   2.405  1.00 20.00     0.125 C 
HETATM    7  C7  UNL     1     -34.024   6.218   3.758  1.00 20.00    -0.038 A 
HETATM    8  C8  UNL     1     -35.497   5.911   3.751  1.00 20.00     0.015 C 
ENDROOT
BRANCH   6   9
HETATM    9  O10 UNL     1     -32.927   8.919   1.944  1.00 20.00    -0.390 OA
HETATM   10  C9  UNL     1     -32.242   9.428   0.812  1.00 20.00     0.202 C 
ENDBRANCH   6   9
TORSDOF 1
ENDMDL
MODEL 2
REMARK VINA RESULT:      -4.9      1.429      2.558
REMARK  1 active torsions:
REMARK  status: ('A' for Active; 'I' for Inactive)
REMARK    1  A    between atoms: C6_6  and  O10_10 
ROOT
HETATM    1  C1  UNL     1     -32.742   4.714   2.831  1.00 20.00     0.003 C 
HETATM    2  C2  UNL     1     -33.123   5.982   2.068  1.00 20.00     0.032 C 
HETATM    3  C3  UNL     1     -33.915   4.201   3.663  1.00 20.00     0.010 C 
HETATM    4  C4  UNL     1     -35.665   6.082   3.917  1.00 20.00     0.017 A 
HETATM    5  C5  UNL     1     -34.337   6.739   4.160  1.00 20.00     0.023 A 
HETATM    6  C6  UNL     1     -33.436   7.131   3.027  1.00 20.00     0.125 C 
HETATM    7  C7  UNL     1     -34.532   5.279   4.532  1.00 20.00    -0.038 A 
HETATM    8  C8  UNL     1     -34.627   4.937   5.994  1.00 20.00     0.015 C 
ENDROOT
BRANCH   6   9
HETATM    9  O10 UNL     1     -32.197   7.602   3.563  1.00 20.00    -0.390 OA
HETATM   10  C9  UNL     1     -31.553   8.488   2.663  1.00 20.00     0.202 C 
ENDBRANCH   6   9
TORSDOF 1
ENDMDL
MODEL 3
REMARK VINA RESULT:      -4.5      2.036      3.469
REMARK  1 active torsions:
REMARK  status: ('A' for Active; 'I' for Inactive)
REMARK    1  A    between atoms: C6_6  and  O10_10 
ROOT
HETATM    1  C1  UNL     1     -33.914   6.282   5.813  1.00 20.00     0.003 C 
HETATM    2  C2  UNL     1     -34.994   5.827   4.832  1.00 20.00     0.032 C 
HETATM    3  C3  UNL     1     -33.318   7.622   5.390  1.00 20.00     0.010 C 
HETATM    4  C4  UNL     1     -33.911   8.076   2.919  1.00 20.00     0.017 A 
HETATM    5  C5  UNL     1     -33.481   6.637   2.968  1.00 20.00     0.023 A 
HETATM    6  C6  UNL     1     -34.405   5.558   3.447  1.00 20.00     0.125 C 
HETATM    7  C7  UNL     1     -32.877   7.636   3.941  1.00 20.00    -0.038 A 
HETATM    8  C8  UNL     1     -31.449   8.052   3.717  1.00 20.00     0.015 C 
ENDROOT
BRANCH   6   9
HETATM    9  O10 UNL     1     -33.683   4.326   3.512  1.00 20.00    -0.390 OA
HETATM   10  C9  UNL     1     -32.740   4.228   2.459  1.00 20.00     0.202 C 
ENDBRANCH   6   9
TORSDOF 1
ENDMDL
MODEL 4
REMARK VINA RESULT:      -4.2     10.346     11.725
REMARK  1 active torsions:
REMARK  status: ('A' for Active; 'I' for Inactive)
REMARK    1  A    between atoms: C6_6  and  O10_10 
ROOT
HETATM    1  C1  UNL     1     -32.964  15.692  -5.437  1.00 20.00     0.003 C 
HETATM    2  C2  UNL     1     -33.013  14.521  -4.456  1.00 20.00     0.032 C 
HETATM    3  C3  UNL     1     -33.523  16.963  -4.802  1.00 20.00     0.010 C 
HETATM    4  C4  UNL     1     -34.891  16.337  -2.705  1.00 20.00     0.017 A 
HETATM    5  C5  UNL     1     -35.304  15.349  -3.759  1.00 20.00     0.023 A 
HETATM    6  C6  UNL     1     -34.455  14.161  -4.097  1.00 20.00     0.125 C 
HETATM    7  C7  UNL     1     -34.882  16.751  -4.166  1.00 20.00    -0.038 A 
HETATM    8  C8  UNL     1     -35.955  17.695  -4.635  1.00 20.00     0.015 C 
ENDROOT
BRANCH   6   9
HETATM    9  O10 UNL     1     -35.028  13.486  -5.220  1.00 20.00    -0.390 OA
HETATM   10  C9  UNL     1     -36.425  13.716  -5.298  1.00 20.00     0.202 C 
ENDBRANCH   6   9
TORSDOF 1
ENDMDL
MODEL 5
REMARK VINA RESULT:      -4.1     10.341     12.272
REMARK  1 active torsions:
REMARK  status: ('A' for Active; 'I' for Inactive)
REMARK    1  A    between atoms: C6_6  and  O10_10 
ROOT
HETATM    1  C1  UNL     1     -33.211  14.584  -4.535  1.00 20.00     0.003 C 
HETATM    2  C2  UNL     1     -34.588  14.163  -4.025  1.00 20.00     0.032 C 
HETATM    3  C3  UNL     1     -33.262  15.970  -5.173  1.00 20.00     0.010 C 
HETATM    4  C4  UNL     1     -35.716  16.574  -5.699  1.00 20.00     0.017 A 
HETATM    5  C5  UNL     1     -35.551  15.151  -6.151  1.00 20.00     0.023 A 
HETATM    6  C6  UNL     1     -35.582  14.011  -5.177  1.00 20.00     0.125 C 
HETATM    7  C7  UNL     1     -34.365  16.099  -6.204  1.00 20.00    -0.038 A 
HETATM    8  C8  UNL     1     -33.914  16.577  -7.558  1.00 20.00     0.015 C 
ENDROOT
BRANCH   6   9
HETATM    9  O10 UNL     1     -35.263  12.802  -5.871  1.00 20.00    -0.390 OA
HETATM   10  C9  UNL     1     -35.272  12.999  -7.275  1.00 20.00     0.202 C 
ENDBRANCH   6   9
TORSDOF 1
ENDMDL
MODEL 6
REMARK VINA RESULT:      -4.0     10.731     12.084
REMARK  1 active torsions:
REMARK  status: ('A' for Active; 'I' for Inactive)
REMARK    1  A    between atoms: C6_6  and  O10_10 
ROOT
HETATM    1  C1  UNL     1     -34.661  14.515  -4.006  1.00 20.00     0.003 C 
HETATM    2  C2  UNL     1     -33.235  14.688  -4.527  1.00 20.00     0.032 C 
HETATM    3  C3  UNL     1     -35.506  13.697  -4.980  1.00 20.00     0.010 C 
HETATM    4  C4  UNL     1     -34.334  13.638  -7.280  1.00 20.00     0.017 A 
HETATM    5  C5  UNL     1     -34.240  15.065  -6.822  1.00 20.00     0.023 A 
HETATM    6  C6  UNL     1     -33.214  15.502  -5.821  1.00 20.00     0.125 C 
HETATM    7  C7  UNL     1     -35.429  14.217  -6.401  1.00 20.00    -0.038 A 
HETATM    8  C8  UNL     1     -36.758  14.513  -7.040  1.00 20.00     0.015 C 
ENDROOT
BRANCH   6   9
HETATM    9  O10 UNL     1     -33.453  16.870  -5.479  1.00 20.00    -0.390 OA
HETATM   10  C9  UNL     1     -33.956  17.595  -6.588  1.00 20.00     0.202 C 
ENDBRANCH   6   9
TORSDOF 1
ENDMDL
MODEL 7
REMARK VINA RESULT:      -4.0     10.635     12.024
REMARK  1 active torsions:
REMARK  status: ('A' for Active; 'I' for Inactive)
REMARK    1  A    between atoms: C6_6  and  O10_10 
ROOT
HETATM    1  C1  UNL     1     -34.029  16.537  -6.624  1.00 20.00     0.003 C 
HETATM    2  C2  UNL     1     -33.891  15.104  -7.135  1.00 20.00     0.032 C 
HETATM    3  C3  UNL     1     -33.367  16.699  -5.258  1.00 20.00     0.010 C 
HETATM    4  C4  UNL     1     -32.993  14.369  -4.212  1.00 20.00     0.017 A 
HETATM    5  C5  UNL     1     -34.386  14.334  -4.772  1.00 20.00     0.023 A 
HETATM    6  C6  UNL     1     -34.639  14.121  -6.234  1.00 20.00     0.125 C 
HETATM    7  C7  UNL     1     -33.812  15.646  -4.263  1.00 20.00    -0.038 A 
HETATM    8  C8  UNL     1     -34.351  16.187  -2.967  1.00 20.00     0.015 C 
ENDROOT
BRANCH   6   9
HETATM    9  O10 UNL     1     -36.038  14.274  -6.489  1.00 20.00    -0.390 OA
HETATM   10  C9  UNL     1     -36.808  13.923  -5.352  1.00 20.00     0.202 C 
ENDBRANCH   6   9
TORSDOF 1
ENDMDL
MODEL 8
REMARK VINA RESULT:      -3.7     10.725     11.704
REMARK  1 active torsions:
REMARK  status: ('A' for Active; 'I' for Inactive)
REMARK    1  A    between atoms: C6_6  and  O10_10 
ROOT
HETATM    1  C1  UNL     1     -35.956  15.862  -3.631  1.00 20.00     0.003 C 
HETATM    2  C2  UNL     1     -34.812  16.309  -2.722  1.00 20.00     0.032 C 
HETATM    3  C3  UNL     1     -35.578  14.606  -4.412  1.00 20.00     0.010 C 
HETATM    4  C4  UNL     1     -33.016  14.300  -4.341  1.00 20.00     0.017 A 
HETATM    5  C5  UNL     1     -33.234  15.758  -4.627  1.00 20.00     0.023 A 
HETATM    6  C6  UNL     1     -33.588  16.726  -3.537  1.00 20.00     0.125 C 
HETATM    7  C7  UNL     1     -34.244  14.735  -5.120  1.00 20.00    -0.038 A 
HETATM    8  C8  UNL     1     -34.279  14.445  -6.596  1.00 20.00     0.015 C 
ENDROOT
BRANCH   6   9
HETATM    9  O10 UNL     1     -33.868  18.000  -4.124  1.00 20.00    -0.390 OA
HETATM   10  C9  UNL     1     -33.254  19.047  -3.391  1.00 20.00     0.202 C 
ENDBRANCH   6   9
TORSDOF 1
ENDMDL
MODEL 9
REMARK VINA RESULT:      -3.6     10.991     11.749
REMARK  1 active torsions:
REMARK  status: ('A' for Active; 'I' for Inactive)
REMARK    1  A    between atoms: C6_6  and  O10_10 
ROOT
HETATM    1  C1  UNL     1     -33.674  15.957  -3.661  1.00 20.00     0.003 C 
HETATM    2  C2  UNL     1     -33.024  14.914  -4.569  1.00 20.00     0.032 C 
HETATM    3  C3  UNL     1     -35.102  15.558  -3.299  1.00 20.00     0.010 C 
HETATM    4  C4  UNL     1     -35.918  13.740  -4.940  1.00 20.00     0.017 A 
HETATM    5  C5  UNL     1     -35.237  14.771  -5.795  1.00 20.00     0.023 A 
HETATM    6  C6  UNL     1     -33.744  14.829  -5.915  1.00 20.00     0.125 C 
HETATM    7  C7  UNL     1     -35.934  15.197  -4.513  1.00 20.00    -0.038 A 
HETATM    8  C8  UNL     1     -37.230  15.951  -4.641  1.00 20.00     0.015 C 
ENDROOT
BRANCH   6   9
HETATM    9  O10 UNL     1     -33.386  15.986  -6.675  1.00 20.00    -0.390 OA
HETATM   10  C9  UNL     1     -34.323  16.230  -7.709  1.00 20.00     0.202 C 
ENDBRANCH   6   9
TORSDOF 1
ENDMDL
