MODEL 1
REMARK VINA RESULT:      -4.0      0.000      0.000
REMARK  4 active torsions:
REMARK  status: ('A' for Active; 'I' for Inactive)
REMARK    1  A    between atoms: C1_1  and  C7_7 
REMARK    2  A    between atoms: C7_7  and  N10_10 
REMARK    3  A    between atoms: C8_8  and  C9_9 
REMARK    4  A    between atoms: C8_8  and  N10_10 
ROOT
HETATM    1  C2  UNL     1     -33.526  15.147  -3.887  1.00 20.00     0.043 C 
HETATM    2  C8  UNL     1     -34.843  15.717  -3.358  1.00 20.00     0.226 C 
ENDROOT
BRANCH   2   3
HETATM    3  C9  UNL     1     -34.712  17.051  -2.553  1.00 20.00    -0.021 C 
HETATM    4  C3  UNL     1     -35.207  18.267  -3.360  1.00 20.00     0.016 C 
HETATM    5  C4  UNL     1     -35.523  16.971  -1.244  1.00 20.00     0.016 C 
HETATM    6  C5  UNL     1     -33.234  17.289  -2.172  1.00 20.00     0.016 C 
ENDBRANCH   2   3
BRANCH   2   7
HETATM    7  N10 UNL     1     -35.772  15.854  -4.462  1.00 20.00     0.095 N 
HETATM    8  C6  UNL     1     -37.141  15.539  -4.036  1.00 20.00     0.310 C 
BRANCH   7   9
HETATM    9  C7  UNL     1     -35.386  14.989  -5.583  1.00 20.00     0.341 C 
BRANCH   9  10
HETATM   10  C1  UNL     1     -36.272  13.776  -5.572  1.00 20.00     0.261 C 
HETATM   11  O11 UNL     1     -35.859  12.658  -5.273  1.00 20.00    -0.305 OA
ENDBRANCH   9  10
ENDBRANCH   7   9
ENDBRANCH   2   7
TORSDOF 4
ENDMDL
MODEL 2
REMARK VINA RESULT:      -4.0      1.201      2.138
REMARK  4 active torsions:
REMARK  status: ('A' for Active; 'I' for Inactive)
REMARK    1  A    between atoms: C1_1  and  C7_7 
REMARK    2  A    between atoms: C7_7  and  N10_10 
REMARK    3  A    between atoms: C8_8  and  C9_9 
REMARK    4  A    between atoms: C8_8  and  N10_10 
ROOT
HETATM    1  C2  UNL     1     -34.056  17.280  -5.448  1.00 20.00     0.043 C 
HETATM    2  C8  UNL     1     -33.692  16.610  -4.123  1.00 20.00     0.226 C 
ENDROOT
BRANCH   2   3
HETATM    3  C9  UNL     1     -34.248  17.322  -2.846  1.00 20.00    -0.021 C 
HETATM    4  C3  UNL     1     -35.363  16.505  -2.166  1.00 20.00     0.016 C 
HETATM    5  C4  UNL     1     -33.117  17.552  -1.823  1.00 20.00     0.016 C 
HETATM    6  C5  UNL     1     -34.821  18.705  -3.227  1.00 20.00     0.016 C 
ENDBRANCH   2   3
BRANCH   2   7
HETATM    7  N10 UNL     1     -34.096  15.220  -4.172  1.00 20.00     0.095 N 
HETATM    8  C6  UNL     1     -32.926  14.335  -4.211  1.00 20.00     0.310 C 
BRANCH   7   9
HETATM    9  C7  UNL     1     -34.955  14.964  -5.334  1.00 20.00     0.341 C 
BRANCH   9  10
HETATM   10  C1  UNL     1     -35.982  13.939  -4.947  1.00 20.00     0.261 C 
HETATM   11  O11 UNL     1     -35.890  12.756  -5.268  1.00 20.00    -0.305 OA
ENDBRANCH   9  10
ENDBRANCH   7   9
ENDBRANCH   2   7
TORSDOF 4
ENDMDL
MODEL 3
REMARK VINA RESULT:      -3.9      1.203      1.791
REMARK  4 active torsions:
REMARK  status: ('A' for Active; 'I' for Inactive)
REMARK    1  A    between atoms: C1_1  and  C7_7 
REMARK    2  A    between atoms: C7_7  and  N10_10 
REMARK    3  A    between atoms: C8_8  and  C9_9 
REMARK    4  A    between atoms: C8_8  and  N10_10 
ROOT
HETATM    1  C2  UNL     1     -34.051  17.273  -5.471  1.00 20.00     0.043 C 
HETATM    2  C8  UNL     1     -33.697  16.616  -4.137  1.00 20.00     0.226 C 
ENDROOT
BRANCH   2   3
HETATM    3  C9  UNL     1     -34.257  17.342  -2.870  1.00 20.00    -0.021 C 
HETATM    4  C3  UNL     1     -34.855  18.721  -3.209  1.00 20.00     0.016 C 
HETATM    5  C4  UNL     1     -35.351  16.487  -2.199  1.00 20.00     0.016 C 
HETATM    6  C5  UNL     1     -33.124  17.543  -1.840  1.00 20.00     0.016 C 
ENDBRANCH   2   3
BRANCH   2   7
HETATM    7  N10 UNL     1     -34.106  15.226  -4.175  1.00 20.00     0.095 N 
HETATM    8  C6  UNL     1     -32.939  14.337  -4.200  1.00 20.00     0.310 C 
BRANCH   7   9
HETATM    9  C7  UNL     1     -34.961  14.963  -5.338  1.00 20.00     0.341 C 
BRANCH   9  10
HETATM   10  C1  UNL     1     -35.985  13.935  -4.951  1.00 20.00     0.261 C 
HETATM   11  O11 UNL     1     -35.891  12.752  -5.273  1.00 20.00    -0.305 OA
ENDBRANCH   9  10
ENDBRANCH   7   9
ENDBRANCH   2   7
TORSDOF 4
ENDMDL
MODEL 4
REMARK VINA RESULT:      -3.9      1.595      2.731
REMARK  4 active torsions:
REMARK  status: ('A' for Active; 'I' for Inactive)
REMARK    1  A    between atoms: C1_1  and  C7_7 
REMARK    2  A    between atoms: C7_7  and  N10_10 
REMARK    3  A    between atoms: C8_8  and  C9_9 
REMARK    4  A    between atoms: C8_8  and  N10_10 
ROOT
HETATM    1  C2  UNL     1     -36.906  14.958  -4.535  1.00 20.00     0.043 C 
HETATM    2  C8  UNL     1     -35.734  15.766  -5.094  1.00 20.00     0.226 C 
ENDROOT
BRANCH   2   3
HETATM    3  C9  UNL     1     -34.370  15.549  -4.360  1.00 20.00    -0.021 C 
HETATM    4  C3  UNL     1     -33.170  15.970  -5.231  1.00 20.00     0.016 C 
HETATM    5  C4  UNL     1     -34.329  16.359  -3.049  1.00 20.00     0.016 C 
HETATM    6  C5  UNL     1     -34.205  14.058  -3.993  1.00 20.00     0.016 C 
ENDBRANCH   2   3
BRANCH   2   7
HETATM    7  N10 UNL     1     -35.618  15.505  -6.514  1.00 20.00     0.095 N 
HETATM    8  C6  UNL     1     -36.142  16.630  -7.298  1.00 20.00     0.310 C 
BRANCH   7   9
HETATM    9  C7  UNL     1     -36.323  14.270  -6.880  1.00 20.00     0.341 C 
BRANCH   9  10
HETATM   10  C1  UNL     1     -35.316  13.286  -7.399  1.00 20.00     0.261 C 
HETATM   11  O11 UNL     1     -35.084  12.217  -6.838  1.00 20.00    -0.305 OA
ENDBRANCH   9  10
ENDBRANCH   7   9
ENDBRANCH   2   7
TORSDOF 4
ENDMDL
MODEL 5
REMARK VINA RESULT:      -3.8     11.181     12.014
REMARK  4 active torsions:
REMARK  status: ('A' for Active; 'I' for Inactive)
REMARK    1  A    between atoms: C1_1  and  C7_7 
REMARK    2  A    between atoms: C7_7  and  N10_10 
REMARK    3  A    between atoms: C8_8  and  C9_9 
REMARK    4  A    between atoms: C8_8  and  N10_10 
ROOT
HETATM    1  C2  UNL     1     -33.811   7.816   5.195  1.00 20.00     0.043 C 
HETATM    2  C8  UNL     1     -33.126   6.716   4.383  1.00 20.00     0.226 C 
ENDROOT
BRANCH   2   3
HETATM    3  C9  UNL     1     -34.065   5.559   3.909  1.00 20.00    -0.021 C 
HETATM    4  C3  UNL     1     -35.437   6.080   3.442  1.00 20.00     0.016 C 
HETATM    5  C4  UNL     1     -33.416   4.782   2.746  1.00 20.00     0.016 C 
HETATM    6  C5  UNL     1     -34.291   4.562   5.067  1.00 20.00     0.016 C 
ENDBRANCH   2   3
BRANCH   2   7
HETATM    7  N10 UNL     1     -32.427   7.322   3.268  1.00 20.00     0.095 N 
HETATM    8  C6  UNL     1     -31.276   8.105   3.733  1.00 20.00     0.310 C 
BRANCH   7   9
HETATM    9  C7  UNL     1     -33.329   8.175   2.485  1.00 20.00     0.341 C 
BRANCH   9  10
HETATM   10  C1  UNL     1     -32.497   9.047   1.589  1.00 20.00     0.261 C 
HETATM   11  O11 UNL     1     -32.893  10.132   1.169  1.00 20.00    -0.305 OA
ENDBRANCH   9  10
ENDBRANCH   7   9
ENDBRANCH   2   7
TORSDOF 4
ENDMDL
MODEL 6
REMARK VINA RESULT:      -3.8     11.176     12.014
REMARK  4 active torsions:
REMARK  status: ('A' for Active; 'I' for Inactive)
REMARK    1  A    between atoms: C1_1  and  C7_7 
REMARK    2  A    between atoms: C7_7  and  N10_10 
REMARK    3  A    between atoms: C8_8  and  C9_9 
REMARK    4  A    between atoms: C8_8  and  N10_10 
ROOT
HETATM    1  C2  UNL     1     -33.856   7.818   5.151  1.00 20.00     0.043 C 
HETATM    2  C8  UNL     1     -33.124   6.727   4.370  1.00 20.00     0.226 C 
ENDROOT
BRANCH   2   3
HETATM    3  C9  UNL     1     -34.019   5.534   3.900  1.00 20.00    -0.021 C 
HETATM    4  C3  UNL     1     -33.406   4.786   2.700  1.00 20.00     0.016 C 
HETATM    5  C4  UNL     1     -34.222   4.528   5.050  1.00 20.00     0.016 C 
HETATM    6  C5  UNL     1     -35.413   6.057   3.487  1.00 20.00     0.016 C 
ENDBRANCH   2   3
BRANCH   2   7
HETATM    7  N10 UNL     1     -32.426   7.335   3.256  1.00 20.00     0.095 N 
HETATM    8  C6  UNL     1     -31.261   8.098   3.721  1.00 20.00     0.310 C 
BRANCH   7   9
HETATM    9  C7  UNL     1     -33.322   8.210   2.489  1.00 20.00     0.341 C 
BRANCH   9  10
HETATM   10  C1  UNL     1     -32.488   9.042   1.558  1.00 20.00     0.261 C 
HETATM   11  O11 UNL     1     -32.845  10.150   1.162  1.00 20.00    -0.305 OA
ENDBRANCH   9  10
ENDBRANCH   7   9
ENDBRANCH   2   7
TORSDOF 4
ENDMDL
MODEL 7
REMARK VINA RESULT:      -3.8      1.518      2.768
REMARK  4 active torsions:
REMARK  status: ('A' for Active; 'I' for Inactive)
REMARK    1  A    between atoms: C1_1  and  C7_7 
REMARK    2  A    between atoms: C7_7  and  N10_10 
REMARK    3  A    between atoms: C8_8  and  C9_9 
REMARK    4  A    between atoms: C8_8  and  N10_10 
ROOT
HETATM    1  C2  UNL     1     -36.437  16.804  -5.417  1.00 20.00     0.043 C 
HETATM    2  C8  UNL     1     -34.936  16.521  -5.488  1.00 20.00     0.226 C 
ENDROOT
BRANCH   2   3
HETATM    3  C9  UNL     1     -34.249  16.237  -4.112  1.00 20.00    -0.021 C 
HETATM    4  C3  UNL     1     -33.233  15.082  -4.198  1.00 20.00     0.016 C 
HETATM    5  C4  UNL     1     -33.516  17.496  -3.607  1.00 20.00     0.016 C 
HETATM    6  C5  UNL     1     -35.319  15.867  -3.061  1.00 20.00     0.016 C 
ENDBRANCH   2   3
BRANCH   2   7
HETATM    7  N10 UNL     1     -34.705  15.442  -6.427  1.00 20.00     0.095 N 
HETATM    8  C6  UNL     1     -34.154  15.954  -7.688  1.00 20.00     0.310 C 
BRANCH   7   9
HETATM    9  C7  UNL     1     -35.944  14.699  -6.688  1.00 20.00     0.341 C 
BRANCH   9  10
HETATM   10  C1  UNL     1     -35.712  13.256  -6.344  1.00 20.00     0.261 C 
HETATM   11  O11 UNL     1     -35.908  12.805  -5.218  1.00 20.00    -0.305 OA
ENDBRANCH   9  10
ENDBRANCH   7   9
ENDBRANCH   2   7
TORSDOF 4
ENDMDL
MODEL 8
REMARK VINA RESULT:      -3.7      1.944      3.538
REMARK  4 active torsions:
REMARK  status: ('A' for Active; 'I' for Inactive)
REMARK    1  A    between atoms: C1_1  and  C7_7 
REMARK    2  A    between atoms: C7_7  and  N10_10 
REMARK    3  A    between atoms: C8_8  and  C9_9 
REMARK    4  A    between atoms: C8_8  and  N10_10 
ROOT
HETATM    1  C2  UNL     1     -32.950  15.595  -5.182  1.00 20.00     0.043 C 
HETATM    2  C8  UNL     1     -34.242  16.319  -5.565  1.00 20.00     0.226 C 
ENDROOT
BRANCH   2   3
HETATM    3  C9  UNL     1     -34.540  16.375  -7.099  1.00 20.00    -0.021 C 
HETATM    4  C3  UNL     1     -36.052  16.335  -7.398  1.00 20.00     0.016 C 
HETATM    5  C4  UNL     1     -33.955  17.661  -7.716  1.00 20.00     0.016 C 
HETATM    6  C5  UNL     1     -33.873  15.173  -7.805  1.00 20.00     0.016 C 
ENDBRANCH   2   3
BRANCH   2   7
HETATM    7  N10 UNL     1     -35.345  15.732  -4.832  1.00 20.00     0.095 N 
HETATM    8  C6  UNL     1     -35.693  16.550  -3.664  1.00 20.00     0.310 C 
BRANCH   7   9
HETATM    9  C7  UNL     1     -35.023  14.365  -4.406  1.00 20.00     0.341 C 
BRANCH   9  10
HETATM   10  C1  UNL     1     -35.920  13.415  -5.145  1.00 20.00     0.261 C 
HETATM   11  O11 UNL     1     -35.494  12.605  -5.966  1.00 20.00    -0.305 OA
ENDBRANCH   9  10
ENDBRANCH   7   9
ENDBRANCH   2   7
TORSDOF 4
ENDMDL
MODEL 9
REMARK VINA RESULT:      -3.7      1.682      3.298
REMARK  4 active torsions:
REMARK  status: ('A' for Active; 'I' for Inactive)
REMARK    1  A    between atoms: C1_1  and  C7_7 
REMARK    2  A    between atoms: C7_7  and  N10_10 
REMARK    3  A    between atoms: C8_8  and  C9_9 
REMARK    4  A    between atoms: C8_8  and  N10_10 
ROOT
HETATM    1  C2  UNL     1     -35.046  15.929  -3.132  1.00 20.00     0.043 C 
HETATM    2  C8  UNL     1     -34.989  16.122  -4.648  1.00 20.00     0.226 C 
ENDROOT
BRANCH   2   3
HETATM    3  C9  UNL     1     -34.072  15.110  -5.410  1.00 20.00    -0.021 C 
HETATM    4  C3  UNL     1     -34.877  13.956  -6.039  1.00 20.00     0.016 C 
HETATM    5  C4  UNL     1     -33.293  15.829  -6.530  1.00 20.00     0.016 C 
HETATM    6  C5  UNL     1     -33.036  14.507  -4.435  1.00 20.00     0.016 C 
ENDBRANCH   2   3
BRANCH   2   7
HETATM    7  N10 UNL     1     -36.339  16.112  -5.174  1.00 20.00     0.095 N 
HETATM    8  C6  UNL     1     -36.620  17.345  -5.919  1.00 20.00     0.310 C 
BRANCH   7   9
HETATM    9  C7  UNL     1     -37.321  15.945  -4.095  1.00 20.00     0.341 C 
BRANCH   9  10
HETATM   10  C1  UNL     1     -38.409  15.032  -4.583  1.00 20.00     0.261 C 
HETATM   11  O11 UNL     1     -38.186  13.893  -4.988  1.00 20.00    -0.305 OA
ENDBRANCH   9  10
ENDBRANCH   7   9
ENDBRANCH   2   7
TORSDOF 4
ENDMDL
