MODEL 1
REMARK VINA RESULT:      -4.8      0.000      0.000
REMARK  4 active torsions:
REMARK  status: ('A' for Active; 'I' for Inactive)
REMARK    1  A    between atoms: C1_1  and  C3_3 
REMARK    2  A    between atoms: C3_3  and  N6_6 
REMARK    3  A    between atoms: C4_4  and  C5_5 
REMARK    4  A    between atoms: C4_4  and  N6_6 
ROOT
HETATM    1  C4  UNL     1     -32.751   6.842   3.060  1.00 20.00     0.389 C 
ENDROOT
BRANCH   1   2
HETATM    2  C5  UNL     1     -32.168   8.136   2.550  1.00 20.00     0.413 C 
HETATM    3  F8  UNL     1     -33.152   9.019   2.269  1.00 20.00    -0.169 F 
HETATM    4  F9  UNL     1     -31.357   8.705   3.466  1.00 20.00    -0.169 F 
HETATM    5  F10 UNL     1     -31.456   7.944   1.421  1.00 20.00    -0.169 F 
ENDBRANCH   1   2
BRANCH   1   6
HETATM    6  N6  UNL     1     -33.965   7.069   3.843  1.00 20.00     0.099 N 
HETATM    7  C2  UNL     1     -33.640   7.195   5.263  1.00 20.00     0.310 C 
BRANCH   6   8
HETATM    8  C3  UNL     1     -34.920   5.982   3.632  1.00 20.00     0.341 C 
BRANCH   8   9
HETATM    9  C1  UNL     1     -34.654   4.910   4.650  1.00 20.00     0.261 C 
HETATM   10  O7  UNL     1     -34.326   3.768   4.338  1.00 20.00    -0.305 OA
ENDBRANCH   8   9
ENDBRANCH   6   8
ENDBRANCH   1   6
TORSDOF 4
ENDMDL
MODEL 2
REMARK VINA RESULT:      -4.4      3.477      4.335
REMARK  4 active torsions:
REMARK  status: ('A' for Active; 'I' for Inactive)
REMARK    1  A    between atoms: C1_1  and  C3_3 
REMARK    2  A    between atoms: C3_3  and  N6_6 
REMARK    3  A    between atoms: C4_4  and  C5_5 
REMARK    4  A    between atoms: C4_4  and  N6_6 
ROOT
HETATM    1  C4  UNL     1     -33.663   7.232   4.176  1.00 20.00     0.389 C 
ENDROOT
BRANCH   1   2
HETATM    2  C5  UNL     1     -34.358   5.897   4.091  1.00 20.00     0.413 C 
HETATM    3  F8  UNL     1     -34.558   5.388   5.327  1.00 20.00    -0.169 F 
HETATM    4  F9  UNL     1     -35.564   6.006   3.494  1.00 20.00    -0.169 F 
HETATM    5  F10 UNL     1     -33.626   5.003   3.394  1.00 20.00    -0.169 F 
ENDBRANCH   1   2
BRANCH   1   6
HETATM    6  N6  UNL     1     -32.576   7.337   3.202  1.00 20.00     0.099 N 
HETATM    7  C2  UNL     1     -31.477   8.131   3.748  1.00 20.00     0.310 C 
BRANCH   6   8
HETATM    8  C3  UNL     1     -33.062   7.926   1.955  1.00 20.00     0.341 C 
BRANCH   8   9
HETATM    9  C1  UNL     1     -32.238   9.144   1.652  1.00 20.00     0.261 C 
HETATM   10  O7  UNL     1     -32.707  10.141   1.110  1.00 20.00    -0.305 OA
ENDBRANCH   8   9
ENDBRANCH   6   8
ENDBRANCH   1   6
TORSDOF 4
ENDMDL
MODEL 3
REMARK VINA RESULT:      -4.4      1.175      1.842
REMARK  4 active torsions:
REMARK  status: ('A' for Active; 'I' for Inactive)
REMARK    1  A    between atoms: C1_1  and  C3_3 
REMARK    2  A    between atoms: C3_3  and  N6_6 
REMARK    3  A    between atoms: C4_4  and  C5_5 
REMARK    4  A    between atoms: C4_4  and  N6_6 
ROOT
HETATM    1  C4  UNL     1     -33.069   7.722   2.307  1.00 20.00     0.389 C 
ENDROOT
BRANCH   1   2
HETATM    2  C5  UNL     1     -31.805   8.538   2.198  1.00 20.00     0.413 C 
HETATM    3  F8  UNL     1     -31.158   8.255   1.046  1.00 20.00    -0.169 F 
HETATM    4  F9  UNL     1     -32.071   9.861   2.203  1.00 20.00    -0.169 F 
HETATM    5  F10 UNL     1     -30.960   8.276   3.217  1.00 20.00    -0.169 F 
ENDBRANCH   1   2
BRANCH   1   6
HETATM    6  N6  UNL     1     -32.952   6.680   3.327  1.00 20.00     0.099 N 
HETATM    7  C2  UNL     1     -33.224   5.366   2.747  1.00 20.00     0.310 C 
BRANCH   6   8
HETATM    8  C3  UNL     1     -33.864   6.947   4.438  1.00 20.00     0.341 C 
BRANCH   8   9
HETATM    9  C1  UNL     1     -34.672   5.708   4.698  1.00 20.00     0.261 C 
HETATM   10  O7  UNL     1     -34.746   5.188   5.808  1.00 20.00    -0.305 OA
ENDBRANCH   8   9
ENDBRANCH   6   8
ENDBRANCH   1   6
TORSDOF 4
ENDMDL
MODEL 4
REMARK VINA RESULT:      -4.4      2.116      2.621
REMARK  4 active torsions:
REMARK  status: ('A' for Active; 'I' for Inactive)
REMARK    1  A    between atoms: C1_1  and  C3_3 
REMARK    2  A    between atoms: C3_3  and  N6_6 
REMARK    3  A    between atoms: C4_4  and  C5_5 
REMARK    4  A    between atoms: C4_4  and  N6_6 
ROOT
HETATM    1  C4  UNL     1     -32.029   8.637   1.277  1.00 20.00     0.389 C 
ENDROOT
BRANCH   1   2
HETATM    2  C5  UNL     1     -32.777   9.826   0.729  1.00 20.00     0.413 C 
HETATM    3  F8  UNL     1     -33.722  10.234   1.605  1.00 20.00    -0.169 F 
HETATM    4  F9  UNL     1     -31.950  10.869   0.505  1.00 20.00    -0.169 F 
HETATM    5  F10 UNL     1     -33.398   9.526  -0.431  1.00 20.00    -0.169 F 
ENDBRANCH   1   2
BRANCH   1   6
HETATM    6  N6  UNL     1     -32.538   8.237   2.588  1.00 20.00     0.099 N 
HETATM    7  C2  UNL     1     -31.479   8.314   3.593  1.00 20.00     0.310 C 
BRANCH   6   8
HETATM    8  C3  UNL     1     -33.090   6.884   2.531  1.00 20.00     0.341 C 
BRANCH   8   9
HETATM    9  C1  UNL     1     -33.952   6.670   3.742  1.00 20.00     0.261 C 
HETATM   10  O7  UNL     1     -35.004   6.037   3.702  1.00 20.00    -0.305 OA
ENDBRANCH   8   9
ENDBRANCH   6   8
ENDBRANCH   1   6
TORSDOF 4
ENDMDL
MODEL 5
REMARK VINA RESULT:      -4.3      3.589      4.511
REMARK  4 active torsions:
REMARK  status: ('A' for Active; 'I' for Inactive)
REMARK    1  A    between atoms: C1_1  and  C3_3 
REMARK    2  A    between atoms: C3_3  and  N6_6 
REMARK    3  A    between atoms: C4_4  and  C5_5 
REMARK    4  A    between atoms: C4_4  and  N6_6 
ROOT
HETATM    1  C4  UNL     1     -33.603   6.508   4.668  1.00 20.00     0.389 C 
ENDROOT
BRANCH   1   2
HETATM    2  C5  UNL     1     -34.724   5.514   4.838  1.00 20.00     0.413 C 
HETATM    3  F8  UNL     1     -35.193   5.543   6.105  1.00 20.00    -0.169 F 
HETATM    4  F9  UNL     1     -35.756   5.788   4.013  1.00 20.00    -0.169 F 
HETATM    5  F10 UNL     1     -34.309   4.255   4.585  1.00 20.00    -0.169 F 
ENDBRANCH   1   2
BRANCH   1   6
HETATM    6  N6  UNL     1     -33.333   6.779   3.256  1.00 20.00     0.099 N 
HETATM    7  C2  UNL     1     -32.981   5.544   2.557  1.00 20.00     0.310 C 
BRANCH   6   8
HETATM    8  C3  UNL     1     -32.261   7.765   3.121  1.00 20.00     0.341 C 
BRANCH   8   9
HETATM    9  C1  UNL     1     -32.460   8.510   1.832  1.00 20.00     0.261 C 
HETATM   10  O7  UNL     1     -31.548   8.699   1.031  1.00 20.00    -0.305 OA
ENDBRANCH   8   9
ENDBRANCH   6   8
ENDBRANCH   1   6
TORSDOF 4
ENDMDL
MODEL 6
REMARK VINA RESULT:      -3.9      3.433      4.177
REMARK  4 active torsions:
REMARK  status: ('A' for Active; 'I' for Inactive)
REMARK    1  A    between atoms: C1_1  and  C3_3 
REMARK    2  A    between atoms: C3_3  and  N6_6 
REMARK    3  A    between atoms: C4_4  and  C5_5 
REMARK    4  A    between atoms: C4_4  and  N6_6 
ROOT
HETATM    1  C4  UNL     1     -34.072   6.845   3.651  1.00 20.00     0.389 C 
ENDROOT
BRANCH   1   2
HETATM    2  C5  UNL     1     -34.812   5.639   4.173  1.00 20.00     0.413 C 
HETATM    3  F8  UNL     1     -36.095   5.651   3.746  1.00 20.00    -0.169 F 
HETATM    4  F9  UNL     1     -34.249   4.491   3.742  1.00 20.00    -0.169 F 
HETATM    5  F10 UNL     1     -34.831   5.617   5.522  1.00 20.00    -0.169 F 
ENDBRANCH   1   2
BRANCH   1   6
HETATM    6  N6  UNL     1     -32.881   7.132   4.449  1.00 20.00     0.099 N 
HETATM    7  C2  UNL     1     -33.249   7.806   5.693  1.00 20.00     0.310 C 
BRANCH   6   8
HETATM    8  C3  UNL     1     -31.939   7.950   3.685  1.00 20.00     0.341 C 
BRANCH   8   9
HETATM    9  C1  UNL     1     -32.444   8.064   2.275  1.00 20.00     0.261 C 
HETATM   10  O7  UNL     1     -31.843   8.691   1.406  1.00 20.00    -0.305 OA
ENDBRANCH   8   9
ENDBRANCH   6   8
ENDBRANCH   1   6
TORSDOF 4
ENDMDL
MODEL 7
REMARK VINA RESULT:      -3.8     11.001     11.842
REMARK  4 active torsions:
REMARK  status: ('A' for Active; 'I' for Inactive)
REMARK    1  A    between atoms: C1_1  and  C3_3 
REMARK    2  A    between atoms: C3_3  and  N6_6 
REMARK    3  A    between atoms: C4_4  and  C5_5 
REMARK    4  A    between atoms: C4_4  and  N6_6 
ROOT
HETATM    1  C4  UNL     1     -33.848  14.848  -5.675  1.00 20.00     0.389 C 
ENDROOT
BRANCH   1   2
HETATM    2  C5  UNL     1     -33.522  14.476  -4.250  1.00 20.00     0.413 C 
HETATM    3  F8  UNL     1     -34.477  13.666  -3.742  1.00 20.00    -0.169 F 
HETATM    4  F9  UNL     1     -32.344  13.821  -4.169  1.00 20.00    -0.169 F 
HETATM    5  F10 UNL     1     -33.449  15.568  -3.461  1.00 20.00    -0.169 F 
ENDBRANCH   1   2
BRANCH   1   6
HETATM    6  N6  UNL     1     -35.043  14.154  -6.153  1.00 20.00     0.099 N 
HETATM    7  C2  UNL     1     -34.752  13.426  -7.387  1.00 20.00     0.310 C 
BRANCH   6   8
HETATM    8  C3  UNL     1     -36.135  15.103  -6.364  1.00 20.00     0.341 C 
BRANCH   8   9
HETATM    9  C1  UNL     1     -37.418  14.458  -5.923  1.00 20.00     0.261 C 
HETATM   10  O7  UNL     1     -37.482  13.706  -4.955  1.00 20.00    -0.305 OA
ENDBRANCH   8   9
ENDBRANCH   6   8
ENDBRANCH   1   6
TORSDOF 4
ENDMDL
MODEL 8
REMARK VINA RESULT:      -3.7     10.934     11.554
REMARK  4 active torsions:
REMARK  status: ('A' for Active; 'I' for Inactive)
REMARK    1  A    between atoms: C1_1  and  C3_3 
REMARK    2  A    between atoms: C3_3  and  N6_6 
REMARK    3  A    between atoms: C4_4  and  C5_5 
REMARK    4  A    between atoms: C4_4  and  N6_6 
ROOT
HETATM    1  C4  UNL     1     -35.101  15.993  -3.243  1.00 20.00     0.389 C 
ENDROOT
BRANCH   1   2
HETATM    2  C5  UNL     1     -34.797  16.874  -2.058  1.00 20.00     0.413 C 
HETATM    3  F8  UNL     1     -35.086  18.164  -2.341  1.00 20.00    -0.169 F 
HETATM    4  F9  UNL     1     -35.528  16.519  -0.979  1.00 20.00    -0.169 F 
HETATM    5  F10 UNL     1     -33.493  16.812  -1.719  1.00 20.00    -0.169 F 
ENDBRANCH   1   2
BRANCH   1   6
HETATM    6  N6  UNL     1     -33.878  15.511  -3.884  1.00 20.00     0.099 N 
HETATM    7  C2  UNL     1     -33.552  16.336  -5.047  1.00 20.00     0.310 C 
BRANCH   6   8
HETATM    8  C3  UNL     1     -34.025  14.110  -4.277  1.00 20.00     0.341 C 
BRANCH   8   9
HETATM    9  C1  UNL     1     -35.305  13.963  -5.048  1.00 20.00     0.261 C 
HETATM   10  O7  UNL     1     -35.926  12.905  -5.105  1.00 20.00    -0.305 OA
ENDBRANCH   8   9
ENDBRANCH   6   8
ENDBRANCH   1   6
TORSDOF 4
ENDMDL
MODEL 9
REMARK VINA RESULT:      -3.6      2.645      3.325
REMARK  4 active torsions:
REMARK  status: ('A' for Active; 'I' for Inactive)
REMARK    1  A    between atoms: C1_1  and  C3_3 
REMARK    2  A    between atoms: C3_3  and  N6_6 
REMARK    3  A    between atoms: C4_4  and  C5_5 
REMARK    4  A    between atoms: C4_4  and  N6_6 
ROOT
HETATM    1  C4  UNL     1     -34.152   7.368   4.336  1.00 20.00     0.389 C 
ENDROOT
BRANCH   1   2
HETATM    2  C5  UNL     1     -34.072   6.913   5.772  1.00 20.00     0.413 C 
HETATM    3  F8  UNL     1     -35.015   5.978   6.024  1.00 20.00    -0.169 F 
HETATM    4  F9  UNL     1     -32.869   6.368   6.050  1.00 20.00    -0.169 F 
HETATM    5  F10 UNL     1     -34.274   7.939   6.625  1.00 20.00    -0.169 F 
ENDBRANCH   1   2
BRANCH   1   6
HETATM    6  N6  UNL     1     -33.167   6.684   3.499  1.00 20.00     0.099 N 
HETATM    7  C2  UNL     1     -32.485   7.640   2.628  1.00 20.00     0.310 C 
BRANCH   6   8
HETATM    8  C3  UNL     1     -33.809   5.638   2.704  1.00 20.00     0.341 C 
BRANCH   8   9
HETATM    9  C1  UNL     1     -33.529   4.311   3.350  1.00 20.00     0.261 C 
HETATM   10  O7  UNL     1     -34.291   3.797   4.164  1.00 20.00    -0.305 OA
ENDBRANCH   8   9
ENDBRANCH   6   8
ENDBRANCH   1   6
TORSDOF 4
ENDMDL
