MODEL 1
REMARK VINA RESULT:      -5.2      0.000      0.000
REMARK  2 active torsions:
REMARK  status: ('A' for Active; 'I' for Inactive)
REMARK    1  A    between atoms: C2_2  and  C8_8 
REMARK    2  A    between atoms: C8_8  and  O9_9 
ROOT
HETATM    1  C3  UNL     1     -32.868   6.714   3.161  1.00 20.00     0.012 C 
HETATM    2  C4  UNL     1     -33.397   4.844   2.403  1.00 20.00     0.012 C 
HETATM    3  C5  UNL     1     -35.242   6.134   3.400  1.00 20.00     0.047 C 
HETATM    4  C6  UNL     1     -34.118   6.227   2.362  1.00 20.00    -0.010 C 
HETATM    5  C7  UNL     1     -33.099   5.331   3.863  1.00 20.00     0.024 C 
HETATM    6  C8  UNL     1     -34.474   5.426   4.533  1.00 20.00     0.079 C 
ENDROOT
BRANCH   6   7
HETATM    7  C2  UNL     1     -34.381   6.183   5.814  1.00 20.00     0.001 C 
HETATM    8  C1  UNL     1     -33.741   7.349   5.949  1.00 20.00     0.010 C 
ENDBRANCH   6   7
BRANCH   6   9
HETATM    9  O9  UNL     1     -34.978   4.128   4.811  1.00 20.00    -0.385 OA
HETATM   10  H21 UNL     1     -34.227   3.516   4.751  1.00 20.00     0.211 HD
ENDBRANCH   6   9
TORSDOF 2
ENDMDL
MODEL 2
REMARK VINA RESULT:      -5.0      1.748      3.013
REMARK  2 active torsions:
REMARK  status: ('A' for Active; 'I' for Inactive)
REMARK    1  A    between atoms: C2_2  and  C8_8 
REMARK    2  A    between atoms: C8_8  and  O9_9 
ROOT
HETATM    1  C3  UNL     1     -34.092   6.058   5.339  1.00 20.00     0.012 C 
HETATM    2  C4  UNL     1     -35.545   5.767   3.871  1.00 20.00     0.012 C 
HETATM    3  C5  UNL     1     -33.270   5.057   3.252  1.00 20.00     0.047 C 
HETATM    4  C6  UNL     1     -34.342   4.889   4.335  1.00 20.00    -0.010 C 
HETATM    5  C7  UNL     1     -34.469   6.890   4.064  1.00 20.00     0.024 C 
HETATM    6  C8  UNL     1     -33.386   6.577   3.026  1.00 20.00     0.079 C 
ENDROOT
BRANCH   6   7
HETATM    7  C2  UNL     1     -32.150   7.363   3.306  1.00 20.00     0.001 C 
HETATM    8  C1  UNL     1     -31.768   8.433   2.601  1.00 20.00     0.010 C 
ENDBRANCH   6   7
BRANCH   6   9
HETATM    9  O9  UNL     1     -33.843   6.905   1.721  1.00 20.00    -0.385 OA
HETATM   10  H21 UNL     1     -34.808   6.995   1.776  1.00 20.00     0.211 HD
ENDBRANCH   6   9
TORSDOF 2
ENDMDL
MODEL 3
REMARK VINA RESULT:      -4.7      1.867      3.097
REMARK  2 active torsions:
REMARK  status: ('A' for Active; 'I' for Inactive)
REMARK    1  A    between atoms: C2_2  and  C8_8 
REMARK    2  A    between atoms: C8_8  and  O9_9 
ROOT
HETATM    1  C3  UNL     1     -35.498   6.132   3.633  1.00 20.00     0.012 C 
HETATM    2  C4  UNL     1     -34.002   4.746   4.073  1.00 20.00     0.012 C 
HETATM    3  C5  UNL     1     -33.534   7.057   4.782  1.00 20.00     0.047 C 
HETATM    4  C6  UNL     1     -34.584   5.944   4.885  1.00 20.00    -0.010 C 
HETATM    5  C7  UNL     1     -34.146   5.794   2.916  1.00 20.00     0.024 C 
HETATM    6  C8  UNL     1     -33.180   6.924   3.289  1.00 20.00     0.079 C 
ENDROOT
BRANCH   6   7
HETATM    7  C2  UNL     1     -33.444   8.134   2.457  1.00 20.00     0.001 C 
HETATM    8  C1  UNL     1     -32.507   8.777   1.755  1.00 20.00     0.010 C 
ENDBRANCH   6   7
BRANCH   6   9
HETATM    9  O9  UNL     1     -31.836   6.516   3.077  1.00 20.00    -0.385 OA
HETATM   10  H21 UNL     1     -31.362   7.283   2.717  1.00 20.00     0.211 HD
ENDBRANCH   6   9
TORSDOF 2
ENDMDL
MODEL 4
REMARK VINA RESULT:      -4.6     12.092     13.158
REMARK  2 active torsions:
REMARK  status: ('A' for Active; 'I' for Inactive)
REMARK    1  A    between atoms: C2_2  and  C8_8 
REMARK    2  A    between atoms: C8_8  and  O9_9 
ROOT
HETATM    1  C3  UNL     1     -34.215  15.126  -7.247  1.00 20.00     0.012 C 
HETATM    2  C4  UNL     1     -35.533  13.618  -7.831  1.00 20.00     0.012 C 
HETATM    3  C5  UNL     1     -36.271  14.971  -5.911  1.00 20.00     0.047 C 
HETATM    4  C6  UNL     1     -35.772  15.085  -7.357  1.00 20.00    -0.010 C 
HETATM    5  C7  UNL     1     -34.476  13.689  -6.676  1.00 20.00     0.024 C 
HETATM    6  C8  UNL     1     -35.301  13.888  -5.400  1.00 20.00     0.079 C 
ENDROOT
BRANCH   6   7
HETATM    7  C2  UNL     1     -34.423  14.297  -4.267  1.00 20.00     0.001 C 
HETATM    8  C1  UNL     1     -34.566  15.437  -3.583  1.00 20.00     0.010 C 
ENDBRANCH   6   7
BRANCH   6   9
HETATM    9  O9  UNL     1     -35.963  12.682  -5.047  1.00 20.00    -0.385 OA
HETATM   10  H21 UNL     1     -36.493  12.873  -4.256  1.00 20.00     0.211 HD
ENDBRANCH   6   9
TORSDOF 2
ENDMDL
MODEL 5
REMARK VINA RESULT:      -4.5     11.980     12.937
REMARK  2 active torsions:
REMARK  status: ('A' for Active; 'I' for Inactive)
REMARK    1  A    between atoms: C2_2  and  C8_8 
REMARK    2  A    between atoms: C8_8  and  O9_9 
ROOT
HETATM    1  C3  UNL     1     -34.725  16.094  -5.021  1.00 20.00     0.012 C 
HETATM    2  C4  UNL     1     -33.743  14.423  -4.251  1.00 20.00     0.012 C 
HETATM    3  C5  UNL     1     -34.719  14.128  -6.492  1.00 20.00     0.047 C 
HETATM    4  C6  UNL     1     -33.786  15.038  -5.684  1.00 20.00    -0.010 C 
HETATM    5  C7  UNL     1     -35.264  14.798  -4.323  1.00 20.00     0.024 C 
HETATM    6  C8  UNL     1     -35.831  13.922  -5.446  1.00 20.00     0.079 C 
ENDROOT
BRANCH   6   7
HETATM    7  C2  UNL     1     -37.185  14.399  -5.847  1.00 20.00     0.001 C 
HETATM    8  C1  UNL     1     -38.186  14.619  -4.988  1.00 20.00     0.010 C 
ENDBRANCH   6   7
BRANCH   6   9
HETATM    9  O9  UNL     1     -35.937  12.573  -5.014  1.00 20.00    -0.385 OA
HETATM   10  H21 UNL     1     -36.608  12.554  -4.312  1.00 20.00     0.211 HD
ENDBRANCH   6   9
TORSDOF 2
ENDMDL
MODEL 6
REMARK VINA RESULT:      -4.5     11.993     12.885
REMARK  2 active torsions:
REMARK  status: ('A' for Active; 'I' for Inactive)
REMARK    1  A    between atoms: C2_2  and  C8_8 
REMARK    2  A    between atoms: C8_8  and  O9_9 
ROOT
HETATM    1  C3  UNL     1     -35.403  15.464  -6.450  1.00 20.00     0.012 C 
HETATM    2  C4  UNL     1     -34.446  13.679  -6.951  1.00 20.00     0.012 C 
HETATM    3  C5  UNL     1     -35.177  13.857  -4.606  1.00 20.00     0.047 C 
HETATM    4  C6  UNL     1     -35.683  13.981  -6.049  1.00 20.00    -0.010 C 
HETATM    5  C7  UNL     1     -33.929  14.973  -6.234  1.00 20.00     0.024 C 
HETATM    6  C8  UNL     1     -33.830  14.588  -4.754  1.00 20.00     0.079 C 
ENDROOT
BRANCH   6   7
HETATM    7  C2  UNL     1     -33.664  15.804  -3.906  1.00 20.00     0.001 C 
HETATM    8  C1  UNL     1     -34.498  16.146  -2.919  1.00 20.00     0.010 C 
ENDBRANCH   6   7
BRANCH   6   9
HETATM    9  O9  UNL     1     -32.715  13.734  -4.540  1.00 20.00    -0.385 OA
HETATM   10  H21 UNL     1     -32.562  13.257  -5.372  1.00 20.00     0.211 HD
ENDBRANCH   6   9
TORSDOF 2
ENDMDL
MODEL 7
REMARK VINA RESULT:      -4.5      3.562      4.722
REMARK  2 active torsions:
REMARK  status: ('A' for Active; 'I' for Inactive)
REMARK    1  A    between atoms: C2_2  and  C8_8 
REMARK    2  A    between atoms: C8_8  and  O9_9 
ROOT
HETATM    1  C3  UNL     1     -33.466   9.241   0.172  1.00 20.00     0.012 C 
HETATM    2  C4  UNL     1     -32.380  10.678   1.223  1.00 20.00     0.012 C 
HETATM    3  C5  UNL     1     -31.239   8.518   0.914  1.00 20.00     0.047 C 
HETATM    4  C6  UNL     1     -31.955   9.634   0.144  1.00 20.00    -0.010 C 
HETATM    5  C7  UNL     1     -33.227   9.451   1.707  1.00 20.00     0.024 C 
HETATM    6  C8  UNL     1     -32.192   8.398   2.118  1.00 20.00     0.079 C 
ENDROOT
BRANCH   6   7
HETATM    7  C2  UNL     1     -32.841   7.066   2.291  1.00 20.00     0.001 C 
HETATM    8  C1  UNL     1     -33.585   6.729   3.350  1.00 20.00     0.010 C 
ENDBRANCH   6   7
BRANCH   6   9
HETATM    9  O9  UNL     1     -31.576   8.763   3.345  1.00 20.00    -0.385 OA
HETATM   10  H21 UNL     1     -30.744   8.265   3.401  1.00 20.00     0.211 HD
ENDBRANCH   6   9
TORSDOF 2
ENDMDL
MODEL 8
REMARK VINA RESULT:      -4.4     11.846     13.130
REMARK  2 active torsions:
REMARK  status: ('A' for Active; 'I' for Inactive)
REMARK    1  A    between atoms: C2_2  and  C8_8 
REMARK    2  A    between atoms: C8_8  and  O9_9 
ROOT
HETATM    1  C3  UNL     1     -35.109  16.393  -5.090  1.00 20.00     0.012 C 
HETATM    2  C4  UNL     1     -36.448  15.439  -3.806  1.00 20.00     0.012 C 
HETATM    3  C5  UNL     1     -34.299  14.282  -4.130  1.00 20.00     0.047 C 
HETATM    4  C6  UNL     1     -34.902  15.637  -3.740  1.00 20.00    -0.010 C 
HETATM    5  C7  UNL     1     -36.094  15.193  -5.313  1.00 20.00     0.024 C 
HETATM    6  C8  UNL     1     -35.224  13.932  -5.311  1.00 20.00     0.079 C 
ENDROOT
BRANCH   6   7
HETATM    7  C2  UNL     1     -34.546  13.761  -6.628  1.00 20.00     0.001 C 
HETATM    8  C1  UNL     1     -35.189  13.510  -7.773  1.00 20.00     0.010 C 
ENDBRANCH   6   7
BRANCH   6   9
HETATM    9  O9  UNL     1     -36.021  12.783  -5.061  1.00 20.00    -0.385 OA
HETATM   10  H21 UNL     1     -35.502  12.200  -4.483  1.00 20.00     0.211 HD
ENDBRANCH   6   9
TORSDOF 2
ENDMDL
MODEL 9
REMARK VINA RESULT:      -4.4      1.412      2.129
REMARK  2 active torsions:
REMARK  status: ('A' for Active; 'I' for Inactive)
REMARK    1  A    between atoms: C2_2  and  C8_8 
REMARK    2  A    between atoms: C8_8  and  O9_9 
ROOT
HETATM    1  C3  UNL     1     -32.245   6.181   3.004  1.00 20.00     0.012 C 
HETATM    2  C4  UNL     1     -33.586   7.533   2.152  1.00 20.00     0.012 C 
HETATM    3  C5  UNL     1     -33.870   7.155   4.569  1.00 20.00     0.047 C 
HETATM    4  C6  UNL     1     -32.825   7.539   3.514  1.00 20.00    -0.010 C 
HETATM    5  C7  UNL     1     -33.732   6.020   2.532  1.00 20.00     0.024 C 
HETATM    6  C8  UNL     1     -34.578   6.016   3.810  1.00 20.00     0.079 C 
ENDROOT
BRANCH   6   7
HETATM    7  C2  UNL     1     -34.528   4.679   4.467  1.00 20.00     0.001 C 
HETATM    8  C1  UNL     1     -34.487   4.498   5.791  1.00 20.00     0.010 C 
ENDBRANCH   6   7
BRANCH   6   9
HETATM    9  O9  UNL     1     -35.933   6.319   3.505  1.00 20.00    -0.385 OA
HETATM   10  H21 UNL     1     -36.057   7.265   3.688  1.00 20.00     0.211 HD
ENDBRANCH   6   9
TORSDOF 2
ENDMDL
