MODEL 1
REMARK VINA RESULT:      -5.7      0.000      0.000
REMARK  1 active torsions:
REMARK  status: ('A' for Active; 'I' for Inactive)
REMARK    1  A    between atoms: C4_4  and  C8_8 
ROOT
HETATM    1  C1  UNL     1     -33.271   6.744   2.089  1.00 20.00     0.012 A 
HETATM    2  C2  UNL     1     -33.899   5.906   3.004  1.00 20.00     0.040 A 
HETATM    3  C3  UNL     1     -32.539   8.093   3.907  1.00 20.00     0.125 A 
HETATM    4  C4  UNL     1     -32.576   7.861   2.542  1.00 20.00    -0.036 A 
HETATM    5  C5  UNL     1     -33.803   6.226   4.350  1.00 20.00     0.102 A 
HETATM    6  N9  UNL     1     -33.137   7.302   4.826  1.00 20.00    -0.253 NA
HETATM    7 BR10 UNL     1     -34.653   5.096   5.617  1.00 20.00    -0.029 Br
ENDROOT
BRANCH   4   8
HETATM    8  C8  UNL     1     -31.892   8.775   1.589  1.00 20.00     0.020 A 
HETATM    9  C6  UNL     1     -32.499  10.125   1.300  1.00 20.00     0.010 A 
HETATM   10  C7  UNL     1     -32.530   9.058   0.252  1.00 20.00     0.010 A 
ENDBRANCH   4   8
TORSDOF 1
ENDMDL
MODEL 2
REMARK VINA RESULT:      -4.4      2.667      4.698
REMARK  1 active torsions:
REMARK  status: ('A' for Active; 'I' for Inactive)
REMARK    1  A    between atoms: C4_4  and  C8_8 
ROOT
HETATM    1  C1  UNL     1     -32.692   7.661   4.513  1.00 20.00     0.012 A 
HETATM    2  C2  UNL     1     -31.995   8.308   3.499  1.00 20.00     0.040 A 
HETATM    3  C3  UNL     1     -33.939   6.507   2.848  1.00 20.00     0.125 A 
HETATM    4  C4  UNL     1     -33.684   6.742   4.190  1.00 20.00    -0.036 A 
HETATM    5  C5  UNL     1     -32.326   8.004   2.187  1.00 20.00     0.102 A 
HETATM    6  N9  UNL     1     -33.284   7.117   1.835  1.00 20.00    -0.253 NA
HETATM    7 BR10 UNL     1     -31.388   8.876   0.786  1.00 20.00    -0.029 Br
ENDROOT
BRANCH   4   8
HETATM    8  C8  UNL     1     -34.445   6.032   5.251  1.00 20.00     0.020 A 
HETATM    9  C6  UNL     1     -33.957   4.689   5.734  1.00 20.00     0.010 A 
HETATM   10  C7  UNL     1     -35.198   4.773   4.902  1.00 20.00     0.010 A 
ENDBRANCH   4   8
TORSDOF 1
ENDMDL
MODEL 3
REMARK VINA RESULT:      -4.3      2.547      4.468
REMARK  1 active torsions:
REMARK  status: ('A' for Active; 'I' for Inactive)
REMARK    1  A    between atoms: C4_4  and  C8_8 
ROOT
HETATM    1  C1  UNL     1     -33.950   6.352   2.855  1.00 20.00     0.012 A 
HETATM    2  C2  UNL     1     -33.258   7.003   1.839  1.00 20.00     0.040 A 
HETATM    3  C3  UNL     1     -32.767   7.677   4.438  1.00 20.00     0.125 A 
HETATM    4  C4  UNL     1     -33.705   6.690   4.181  1.00 20.00    -0.036 A 
HETATM    5  C5  UNL     1     -32.338   7.976   2.200  1.00 20.00     0.102 A 
HETATM    6  N9  UNL     1     -32.074   8.331   3.478  1.00 20.00    -0.253 NA
HETATM    7 BR10 UNL     1     -31.381   8.877   0.830  1.00 20.00    -0.029 Br
ENDROOT
BRANCH   4   8
HETATM    8  C8  UNL     1     -34.430   6.015   5.289  1.00 20.00     0.020 A 
HETATM    9  C6  UNL     1     -33.929   4.684   5.794  1.00 20.00     0.010 A 
HETATM   10  C7  UNL     1     -35.198   4.749   5.005  1.00 20.00     0.010 A 
ENDBRANCH   4   8
TORSDOF 1
ENDMDL
MODEL 4
REMARK VINA RESULT:      -4.3     10.320     10.961
REMARK  1 active torsions:
REMARK  status: ('A' for Active; 'I' for Inactive)
REMARK    1  A    between atoms: C4_4  and  C8_8 
ROOT
HETATM    1  C1  UNL     1     -35.526  16.617  -1.904  1.00 20.00     0.012 A 
HETATM    2  C2  UNL     1     -35.436  17.300  -0.696  1.00 20.00     0.040 A 
HETATM    3  C3  UNL     1     -33.240  17.139  -2.309  1.00 20.00     0.125 A 
HETATM    4  C4  UNL     1     -34.412  16.530  -2.732  1.00 20.00    -0.036 A 
HETATM    5  C5  UNL     1     -34.219  17.874  -0.364  1.00 20.00     0.102 A 
HETATM    6  N9  UNL     1     -33.115  17.811  -1.143  1.00 20.00    -0.253 NA
HETATM    7 BR10 UNL     1     -34.073  18.812   1.280  1.00 20.00    -0.029 Br
ENDROOT
BRANCH   4   8
HETATM    8  C8  UNL     1     -34.475  15.806  -4.028  1.00 20.00     0.020 A 
HETATM    9  C6  UNL     1     -34.309  14.307  -4.043  1.00 20.00     0.010 A 
HETATM   10  C7  UNL     1     -33.222  15.180  -4.586  1.00 20.00     0.010 A 
ENDBRANCH   4   8
TORSDOF 1
ENDMDL
MODEL 5
REMARK VINA RESULT:      -4.3     10.273     10.979
REMARK  1 active torsions:
REMARK  status: ('A' for Active; 'I' for Inactive)
REMARK    1  A    between atoms: C4_4  and  C8_8 
ROOT
HETATM    1  C1  UNL     1     -33.276  17.122  -2.364  1.00 20.00     0.012 A 
HETATM    2  C2  UNL     1     -33.248  17.793  -1.146  1.00 20.00     0.040 A 
HETATM    3  C3  UNL     1     -35.557  16.582  -1.954  1.00 20.00     0.125 A 
HETATM    4  C4  UNL     1     -34.449  16.502  -2.782  1.00 20.00    -0.036 A 
HETATM    5  C5  UNL     1     -34.411  17.816  -0.390  1.00 20.00     0.102 A 
HETATM    6  N9  UNL     1     -35.568  17.225  -0.765  1.00 20.00    -0.253 NA
HETATM    7 BR10 UNL     1     -34.396  18.726   1.276  1.00 20.00    -0.029 Br
ENDROOT
BRANCH   4   8
HETATM    8  C8  UNL     1     -34.511  15.778  -4.079  1.00 20.00     0.020 A 
HETATM    9  C6  UNL     1     -34.335  14.280  -4.096  1.00 20.00     0.010 A 
HETATM   10  C7  UNL     1     -33.255  15.161  -4.641  1.00 20.00     0.010 A 
ENDBRANCH   4   8
TORSDOF 1
ENDMDL
MODEL 6
REMARK VINA RESULT:      -4.2     10.984     11.401
REMARK  1 active torsions:
REMARK  status: ('A' for Active; 'I' for Inactive)
REMARK    1  A    between atoms: C4_4  and  C8_8 
ROOT
HETATM    1  C1  UNL     1     -33.588  15.508  -3.746  1.00 20.00     0.012 A 
HETATM    2  C2  UNL     1     -33.501  14.823  -4.953  1.00 20.00     0.040 A 
HETATM    3  C3  UNL     1     -35.951  15.574  -4.013  1.00 20.00     0.125 A 
HETATM    4  C4  UNL     1     -34.832  15.894  -3.260  1.00 20.00    -0.036 A 
HETATM    5  C5  UNL     1     -34.680  14.551  -5.631  1.00 20.00     0.102 A 
HETATM    6  N9  UNL     1     -35.907  14.911  -5.190  1.00 20.00    -0.253 NA
HETATM    7 BR10 UNL     1     -34.586  13.617  -7.281  1.00 20.00    -0.029 Br
ENDROOT
BRANCH   4   8
HETATM    8  C8  UNL     1     -34.958  16.626  -1.972  1.00 20.00     0.020 A 
HETATM    9  C6  UNL     1     -34.918  18.134  -1.974  1.00 20.00     0.010 A 
HETATM   10  C7  UNL     1     -33.763  17.361  -1.421  1.00 20.00     0.010 A 
ENDBRANCH   4   8
TORSDOF 1
ENDMDL
MODEL 7
REMARK VINA RESULT:      -4.1     10.757     11.363
REMARK  1 active torsions:
REMARK  status: ('A' for Active; 'I' for Inactive)
REMARK    1  A    between atoms: C4_4  and  C8_8 
ROOT
HETATM    1  C1  UNL     1     -33.446  15.008  -4.661  1.00 20.00     0.012 A 
HETATM    2  C2  UNL     1     -33.643  15.756  -3.505  1.00 20.00     0.040 A 
HETATM    3  C3  UNL     1     -35.807  14.828  -4.885  1.00 20.00     0.125 A 
HETATM    4  C4  UNL     1     -34.543  14.531  -5.369  1.00 20.00    -0.036 A 
HETATM    5  C5  UNL     1     -34.948  15.997  -3.103  1.00 20.00     0.102 A 
HETATM    6  N9  UNL     1     -36.039  15.550  -3.766  1.00 20.00    -0.253 NA
HETATM    7 BR10 UNL     1     -35.242  17.015  -1.528  1.00 20.00    -0.029 Br
ENDROOT
BRANCH   4   8
HETATM    8  C8  UNL     1     -34.365  13.731  -6.610  1.00 20.00     0.020 A 
HETATM    9  C6  UNL     1     -34.129  14.443  -7.918  1.00 20.00     0.010 A 
HETATM   10  C7  UNL     1     -35.438  13.763  -7.669  1.00 20.00     0.010 A 
ENDBRANCH   4   8
TORSDOF 1
ENDMDL
MODEL 8
REMARK VINA RESULT:      -4.1     10.763     11.786
REMARK  1 active torsions:
REMARK  status: ('A' for Active; 'I' for Inactive)
REMARK    1  A    between atoms: C4_4  and  C8_8 
ROOT
HETATM    1  C1  UNL     1     -34.603  14.431  -4.742  1.00 20.00     0.012 A 
HETATM    2  C2  UNL     1     -34.430  15.161  -3.571  1.00 20.00     0.040 A 
HETATM    3  C3  UNL     1     -33.471  16.158  -5.924  1.00 20.00     0.125 A 
HETATM    4  C4  UNL     1     -34.117  14.932  -5.945  1.00 20.00    -0.036 A 
HETATM    5  C5  UNL     1     -33.770  16.378  -3.656  1.00 20.00     0.102 A 
HETATM    6  N9  UNL     1     -33.285  16.896  -4.807  1.00 20.00    -0.253 NA
HETATM    7 BR10 UNL     1     -33.523  17.392  -2.071  1.00 20.00    -0.029 Br
ENDROOT
BRANCH   4   8
HETATM    8  C8  UNL     1     -34.285  14.175  -7.213  1.00 20.00     0.020 A 
HETATM    9  C6  UNL     1     -35.618  14.203  -7.918  1.00 20.00     0.010 A 
HETATM   10  C7  UNL     1     -35.167  12.952  -7.232  1.00 20.00     0.010 A 
ENDBRANCH   4   8
TORSDOF 1
ENDMDL
MODEL 9
REMARK VINA RESULT:      -4.0     10.980     11.675
REMARK  1 active torsions:
REMARK  status: ('A' for Active; 'I' for Inactive)
REMARK    1  A    between atoms: C4_4  and  C8_8 
ROOT
HETATM    1  C1  UNL     1     -34.462  17.440  -0.787  1.00 20.00     0.012 A 
HETATM    2  C2  UNL     1     -35.074  16.627  -1.734  1.00 20.00     0.040 A 
HETATM    3  C3  UNL     1     -33.054  18.291  -2.505  1.00 20.00     0.125 A 
HETATM    4  C4  UNL     1     -33.431  18.291  -1.171  1.00 20.00    -0.036 A 
HETATM    5  C5  UNL     1     -34.623  16.701  -3.043  1.00 20.00     0.102 A 
HETATM    6  N9  UNL     1     -33.625  17.516  -3.453  1.00 20.00    -0.253 NA
HETATM    7 BR10 UNL     1     -35.445  15.600  -4.353  1.00 20.00    -0.029 Br
ENDROOT
BRANCH   4   8
HETATM    8  C8  UNL     1     -32.758  19.173  -0.183  1.00 20.00     0.020 A 
HETATM    9  C6  UNL     1     -31.541  18.665   0.549  1.00 20.00     0.010 A 
HETATM   10  C7  UNL     1     -32.833  18.831   1.284  1.00 20.00     0.010 A 
ENDBRANCH   4   8
TORSDOF 1
ENDMDL
