MODEL 1
REMARK VINA RESULT:      -5.7      0.000      0.000
REMARK  0 active torsions:
REMARK  status: ('A' for Active; 'I' for Inactive)
ROOT
HETATM    1  C1  UNL     1     -34.411   5.070   4.409  1.00 20.00     0.136 C 
HETATM    2  C2  UNL     1     -33.034   4.284   2.244  1.00 20.00     0.018 A 
HETATM    3  C3  UNL     1     -33.686   6.937   6.025  1.00 20.00     0.018 A 
HETATM    4  C4  UNL     1     -32.612   8.362   2.403  1.00 20.00     0.011 A 
HETATM    5  C5  UNL     1     -33.202   4.856   3.604  1.00 20.00     0.060 A 
HETATM    6  C6  UNL     1     -34.622   6.444   4.955  1.00 20.00     0.060 A 
HETATM    7  C7  UNL     1     -33.197   5.762   2.365  1.00 20.00     0.002 A 
HETATM    8  C8  UNL     1     -33.738   7.664   4.704  1.00 20.00     0.002 A 
HETATM    9  C9  UNL     1     -32.237   6.918   2.564  1.00 20.00    -0.005 A 
HETATM   10  C10 UNL     1     -32.494   7.791   3.797  1.00 20.00    -0.005 A 
HETATM   11  O11 UNL     1     -35.192   4.159   4.651  1.00 20.00    -0.297 OA
ENDROOT
TORSDOF 0
ENDMDL
MODEL 2
REMARK VINA RESULT:      -5.6      1.238      2.929
REMARK  0 active torsions:
REMARK  status: ('A' for Active; 'I' for Inactive)
ROOT
HETATM    1  C1  UNL     1     -33.196   5.239   2.837  1.00 20.00     0.136 C 
HETATM    2  C2  UNL     1     -34.776   4.223   4.753  1.00 20.00     0.018 A 
HETATM    3  C3  UNL     1     -32.974   7.742   2.277  1.00 20.00     0.018 A 
HETATM    4  C4  UNL     1     -33.256   7.704   6.304  1.00 20.00     0.011 A 
HETATM    5  C5  UNL     1     -34.364   5.212   3.726  1.00 20.00     0.060 A 
HETATM    6  C6  UNL     1     -32.372   6.485   2.846  1.00 20.00     0.060 A 
HETATM    7  C7  UNL     1     -33.945   5.381   5.193  1.00 20.00     0.002 A 
HETATM    8  C8  UNL     1     -32.588   7.708   3.735  1.00 20.00     0.002 A 
HETATM    9  C9  UNL     1     -34.259   6.786   5.670  1.00 20.00    -0.005 A 
HETATM   10  C10 UNL     1     -33.629   7.920   4.857  1.00 20.00    -0.005 A 
HETATM   11  O11 UNL     1     -32.928   4.301   2.099  1.00 20.00    -0.297 OA
ENDROOT
TORSDOF 0
ENDMDL
MODEL 3
REMARK VINA RESULT:      -5.5      0.739      2.765
REMARK  0 active torsions:
REMARK  status: ('A' for Active; 'I' for Inactive)
ROOT
HETATM    1  C1  UNL     1     -34.288   5.044   4.259  1.00 20.00     0.136 C 
HETATM    2  C2  UNL     1     -34.282   6.794   6.294  1.00 20.00     0.018 A 
HETATM    3  C3  UNL     1     -34.074   5.671   1.771  1.00 20.00     0.018 A 
HETATM    4  C4  UNL     1     -31.534   8.220   3.602  1.00 20.00     0.011 A 
HETATM    5  C5  UNL     1     -34.516   6.346   4.898  1.00 20.00     0.060 A 
HETATM    6  C6  UNL     1     -33.479   5.044   3.004  1.00 20.00     0.060 A 
HETATM    7  C7  UNL     1     -33.188   7.003   5.301  1.00 20.00     0.002 A 
HETATM    8  C8  UNL     1     -32.811   6.255   2.355  1.00 20.00     0.002 A 
HETATM    9  C9  UNL     1     -32.840   8.118   4.334  1.00 20.00    -0.005 A 
HETATM   10  C10 UNL     1     -32.748   7.714   2.859  1.00 20.00    -0.005 A 
HETATM   11  O11 UNL     1     -34.766   4.013   4.712  1.00 20.00    -0.297 OA
ENDROOT
TORSDOF 0
ENDMDL
MODEL 4
REMARK VINA RESULT:      -5.5      1.513      2.897
REMARK  0 active torsions:
REMARK  status: ('A' for Active; 'I' for Inactive)
ROOT
HETATM    1  C1  UNL     1     -34.117   5.915   2.595  1.00 20.00     0.136 C 
HETATM    2  C2  UNL     1     -32.348   7.933   2.555  1.00 20.00     0.018 A 
HETATM    3  C3  UNL     1     -34.487   4.312   4.575  1.00 20.00     0.018 A 
HETATM    4  C4  UNL     1     -33.885   7.884   6.359  1.00 20.00     0.011 A 
HETATM    5  C5  UNL     1     -32.882   6.612   2.974  1.00 20.00     0.060 A 
HETATM    6  C6  UNL     1     -34.989   5.437   3.709  1.00 20.00     0.060 A 
HETATM    7  C7  UNL     1     -33.190   7.878   3.786  1.00 20.00     0.002 A 
HETATM    8  C8  UNL     1     -34.754   5.658   5.202  1.00 20.00     0.002 A 
HETATM    9  C9  UNL     1     -32.897   7.642   5.255  1.00 20.00    -0.005 A 
HETATM   10  C10 UNL     1     -33.637   6.466   5.899  1.00 20.00    -0.005 A 
HETATM   11  O11 UNL     1     -34.403   5.704   1.424  1.00 20.00    -0.297 OA
ENDROOT
TORSDOF 0
ENDMDL
MODEL 5
REMARK VINA RESULT:      -5.2      1.854      4.023
REMARK  0 active torsions:
REMARK  status: ('A' for Active; 'I' for Inactive)
ROOT
HETATM    1  C1  UNL     1     -33.116   7.286   3.107  1.00 20.00     0.136 C 
HETATM    2  C2  UNL     1     -33.233   8.186   5.633  1.00 20.00     0.018 A 
HETATM    3  C3  UNL     1     -32.798   4.823   2.429  1.00 20.00     0.018 A 
HETATM    4  C4  UNL     1     -35.233   4.603   5.642  1.00 20.00     0.011 A 
HETATM    5  C5  UNL     1     -32.822   7.262   4.545  1.00 20.00     0.060 A 
HETATM    6  C6  UNL     1     -33.684   6.037   2.516  1.00 20.00     0.060 A 
HETATM    7  C7  UNL     1     -34.093   6.996   5.364  1.00 20.00     0.002 A 
HETATM    8  C8  UNL     1     -34.048   4.761   3.271  1.00 20.00     0.002 A 
HETATM    9  C9  UNL     1     -34.104   5.566   5.867  1.00 20.00    -0.005 A 
HETATM   10  C10 UNL     1     -33.991   4.483   4.790  1.00 20.00    -0.005 A 
HETATM   11  O11 UNL     1     -32.877   8.268   2.418  1.00 20.00    -0.297 OA
ENDROOT
TORSDOF 0
ENDMDL
MODEL 6
REMARK VINA RESULT:      -5.2      1.903      3.196
REMARK  0 active torsions:
REMARK  status: ('A' for Active; 'I' for Inactive)
ROOT
HETATM    1  C1  UNL     1     -32.603   7.568   3.513  1.00 20.00     0.136 C 
HETATM    2  C2  UNL     1     -33.466   5.707   1.783  1.00 20.00     0.018 A 
HETATM    3  C3  UNL     1     -33.859   8.312   5.633  1.00 20.00     0.018 A 
HETATM    4  C4  UNL     1     -34.513   4.329   5.503  1.00 20.00     0.011 A 
HETATM    5  C5  UNL     1     -33.614   6.776   2.803  1.00 20.00     0.060 A 
HETATM    6  C6  UNL     1     -32.694   7.596   5.003  1.00 20.00     0.060 A 
HETATM    7  C7  UNL     1     -33.548   5.298   3.215  1.00 20.00     0.002 A 
HETATM    8  C8  UNL     1     -33.696   6.829   5.864  1.00 20.00     0.002 A 
HETATM    9  C9  UNL     1     -34.690   4.964   4.155  1.00 20.00    -0.005 A 
HETATM   10  C10 UNL     1     -34.776   5.815   5.425  1.00 20.00    -0.005 A 
HETATM   11  O11 UNL     1     -31.747   8.204   2.913  1.00 20.00    -0.297 OA
ENDROOT
TORSDOF 0
ENDMDL
MODEL 7
REMARK VINA RESULT:      -4.8      1.565      3.047
REMARK  0 active torsions:
REMARK  status: ('A' for Active; 'I' for Inactive)
ROOT
HETATM    1  C1  UNL     1     -33.672   7.080   5.311  1.00 20.00     0.136 C 
HETATM    2  C2  UNL     1     -32.815   8.171   3.013  1.00 20.00     0.018 A 
HETATM    3  C3  UNL     1     -35.180   5.002   5.488  1.00 20.00     0.018 A 
HETATM    4  C4  UNL     1     -32.715   4.112   2.417  1.00 20.00     0.011 A 
HETATM    5  C5  UNL     1     -33.748   7.409   3.882  1.00 20.00     0.060 A 
HETATM    6  C6  UNL     1     -33.831   5.642   5.679  1.00 20.00     0.060 A 
HETATM    7  C7  UNL     1     -32.645   6.690   3.091  1.00 20.00     0.002 A 
HETATM    8  C8  UNL     1     -33.999   4.472   4.712  1.00 20.00     0.002 A 
HETATM    9  C9  UNL     1     -33.229   5.519   2.325  1.00 20.00    -0.005 A 
HETATM   10  C10 UNL     1     -33.974   4.479   3.167  1.00 20.00    -0.005 A 
HETATM   11  O11 UNL     1     -33.521   7.945   6.163  1.00 20.00    -0.297 OA
ENDROOT
TORSDOF 0
ENDMDL
MODEL 8
REMARK VINA RESULT:      -4.8     11.419     12.550
REMARK  0 active torsions:
REMARK  status: ('A' for Active; 'I' for Inactive)
ROOT
HETATM    1  C1  UNL     1     -35.662  13.738  -4.968  1.00 20.00     0.136 C 
HETATM    2  C2  UNL     1     -38.095  14.859  -5.145  1.00 20.00     0.018 A 
HETATM    3  C3  UNL     1     -33.451  15.035  -4.735  1.00 20.00     0.018 A 
HETATM    4  C4  UNL     1     -36.019  17.142  -2.440  1.00 20.00     0.011 A 
HETATM    5  C5  UNL     1     -36.620  14.798  -5.309  1.00 20.00     0.060 A 
HETATM    6  C6  UNL     1     -34.493  14.133  -4.128  1.00 20.00     0.060 A 
HETATM    7  C7  UNL     1     -37.247  15.402  -4.044  1.00 20.00     0.002 A 
HETATM    8  C8  UNL     1     -34.229  15.516  -3.535  1.00 20.00     0.002 A 
HETATM    9  C9  UNL     1     -36.635  16.759  -3.754  1.00 20.00    -0.005 A 
HETATM   10  C10 UNL     1     -35.113  16.782  -3.594  1.00 20.00    -0.005 A 
HETATM   11  O11 UNL     1     -35.796  12.594  -5.380  1.00 20.00    -0.297 OA
ENDROOT
TORSDOF 0
ENDMDL
MODEL 9
REMARK VINA RESULT:      -4.7     11.863     13.251
REMARK  0 active torsions:
REMARK  status: ('A' for Active; 'I' for Inactive)
ROOT
HETATM    1  C1  UNL     1     -35.327  13.893  -5.338  1.00 20.00     0.136 C 
HETATM    2  C2  UNL     1     -34.316  13.829  -7.823  1.00 20.00     0.018 A 
HETATM    3  C3  UNL     1     -34.505  15.435  -3.447  1.00 20.00     0.018 A 
HETATM    4  C4  UNL     1     -34.305  17.783  -6.726  1.00 20.00     0.011 A 
HETATM    5  C5  UNL     1     -34.279  14.048  -6.355  1.00 20.00     0.060 A 
HETATM    6  C6  UNL     1     -35.572  15.062  -4.441  1.00 20.00     0.060 A 
HETATM    7  C7  UNL     1     -34.609  15.201  -7.314  1.00 20.00     0.002 A 
HETATM    8  C8  UNL     1     -34.887  16.425  -4.520  1.00 20.00     0.002 A 
HETATM    9  C9  UNL     1     -33.755  16.412  -6.991  1.00 20.00    -0.005 A 
HETATM   10  C10 UNL     1     -33.861  16.936  -5.556  1.00 20.00    -0.005 A 
HETATM   11  O11 UNL     1     -35.945  12.846  -5.206  1.00 20.00    -0.297 OA
ENDROOT
TORSDOF 0
ENDMDL
