MODEL 1
REMARK VINA RESULT:      -4.7      0.000      0.000
REMARK  1 active torsions:
REMARK  status: ('A' for Active; 'I' for Inactive)
REMARK    1  A    between atoms: C2_2  and  C6_6 
ROOT
HETATM    1  C1  UNL     1     -32.963   6.511   2.113  1.00 20.00     0.133 A 
HETATM    2  C2  UNL     1     -32.634   7.684   2.758  1.00 20.00     0.007 A 
HETATM    3  C3  UNL     1     -33.804   6.050   4.085  1.00 20.00     0.143 A 
HETATM    4  N7  UNL     1     -33.634   5.572   2.872  1.00 20.00    -0.245 NA
HETATM    5  S8  UNL     1     -33.183   7.622   4.382  1.00 20.00    -0.066 SA
HETATM    6 BR9  UNL     1     -34.694   5.046   5.445  1.00 20.00    -0.021 Br
ENDROOT
BRANCH   2   7
HETATM    7  C6  UNL     1     -31.888   8.872   2.125  1.00 20.00     0.027 A 
HETATM    8  C4  UNL     1     -32.679   9.876   1.321  1.00 20.00     0.010 A 
HETATM    9  C5  UNL     1     -31.758   8.926   0.621  1.00 20.00     0.010 A 
ENDBRANCH   2   7
TORSDOF 1
ENDMDL
MODEL 2
REMARK VINA RESULT:      -4.2      2.866      4.669
REMARK  1 active torsions:
REMARK  status: ('A' for Active; 'I' for Inactive)
REMARK    1  A    between atoms: C2_2  and  C6_6 
ROOT
HETATM    1  C1  UNL     1     -32.966   7.459   4.483  1.00 20.00     0.133 A 
HETATM    2  C2  UNL     1     -33.839   6.611   3.838  1.00 20.00     0.007 A 
HETATM    3  C3  UNL     1     -32.409   7.925   2.415  1.00 20.00     0.143 A 
HETATM    4  N7  UNL     1     -32.144   8.214   3.669  1.00 20.00    -0.245 NA
HETATM    5  S8  UNL     1     -33.635   6.756   2.141  1.00 20.00    -0.066 SA
HETATM    6 BR9  UNL     1     -31.477   8.763   0.972  1.00 20.00    -0.021 Br
ENDROOT
BRANCH   2   7
HETATM    7  C6  UNL     1     -34.847   5.673   4.526  1.00 20.00     0.027 A 
HETATM    8  C4  UNL     1     -34.468   5.052   5.850  1.00 20.00     0.010 A 
HETATM    9  C5  UNL     1     -34.520   4.202   4.619  1.00 20.00     0.010 A 
ENDBRANCH   2   7
TORSDOF 1
ENDMDL
MODEL 3
REMARK VINA RESULT:      -3.7     11.317     11.767
REMARK  1 active torsions:
REMARK  status: ('A' for Active; 'I' for Inactive)
REMARK    1  A    between atoms: C2_2  and  C6_6 
ROOT
HETATM    1  C1  UNL     1     -33.432  16.742  -4.947  1.00 20.00     0.133 A 
HETATM    2  C2  UNL     1     -33.876  16.076  -3.825  1.00 20.00     0.007 A 
HETATM    3  C3  UNL     1     -34.128  14.899  -5.911  1.00 20.00     0.143 A 
HETATM    4  N7  UNL     1     -33.575  16.069  -6.145  1.00 20.00    -0.245 NA
HETATM    5  S8  UNL     1     -34.503  14.544  -4.274  1.00 20.00    -0.066 SA
HETATM    6 BR9  UNL     1     -34.494  13.661  -7.318  1.00 20.00    -0.021 Br
ENDROOT
BRANCH   2   7
HETATM    7  C6  UNL     1     -33.822  16.618  -2.386  1.00 20.00     0.027 A 
HETATM    8  C4  UNL     1     -35.122  16.865  -1.657  1.00 20.00     0.010 A 
HETATM    9  C5  UNL     1     -34.301  18.026  -2.124  1.00 20.00     0.010 A 
ENDBRANCH   2   7
TORSDOF 1
ENDMDL
MODEL 4
REMARK VINA RESULT:      -3.6     11.016     11.675
REMARK  1 active torsions:
REMARK  status: ('A' for Active; 'I' for Inactive)
REMARK    1  A    between atoms: C2_2  and  C6_6 
ROOT
HETATM    1  C1  UNL     1     -34.006  14.500  -3.895  1.00 20.00     0.133 A 
HETATM    2  C2  UNL     1     -33.807  15.858  -3.779  1.00 20.00     0.007 A 
HETATM    3  C3  UNL     1     -33.968  15.010  -6.027  1.00 20.00     0.143 A 
HETATM    4  N7  UNL     1     -34.099  14.011  -5.184  1.00 20.00    -0.245 NA
HETATM    5  S8  UNL     1     -33.728  16.565  -5.340  1.00 20.00    -0.066 SA
HETATM    6 BR9  UNL     1     -34.039  14.746  -7.918  1.00 20.00    -0.021 Br
ENDROOT
BRANCH   2   7
HETATM    7  C6  UNL     1     -33.674  16.632  -2.455  1.00 20.00     0.027 A 
HETATM    8  C4  UNL     1     -34.932  17.016  -1.713  1.00 20.00     0.010 A 
HETATM    9  C5  UNL     1     -34.130  18.071  -2.409  1.00 20.00     0.010 A 
ENDBRANCH   2   7
TORSDOF 1
ENDMDL
MODEL 5
REMARK VINA RESULT:      -3.6     11.138     11.663
REMARK  1 active torsions:
REMARK  status: ('A' for Active; 'I' for Inactive)
REMARK    1  A    between atoms: C2_2  and  C6_6 
ROOT
HETATM    1  C1  UNL     1     -34.750  14.762  -3.899  1.00 20.00     0.133 A 
HETATM    2  C2  UNL     1     -34.555  16.113  -4.096  1.00 20.00     0.007 A 
HETATM    3  C3  UNL     1     -34.398  14.732  -6.063  1.00 20.00     0.143 A 
HETATM    4  N7  UNL     1     -34.660  13.969  -5.026  1.00 20.00    -0.245 NA
HETATM    5  S8  UNL     1     -34.244  16.414  -5.755  1.00 20.00    -0.066 SA
HETATM    6 BR9  UNL     1     -34.197  14.008  -7.819  1.00 20.00    -0.021 Br
ENDROOT
BRANCH   2   7
HETATM    7  C6  UNL     1     -34.607  17.192  -3.000  1.00 20.00     0.027 A 
HETATM    8  C4  UNL     1     -33.463  17.280  -2.018  1.00 20.00     0.010 A 
HETATM    9  C5  UNL     1     -34.790  16.757  -1.565  1.00 20.00     0.010 A 
ENDBRANCH   2   7
TORSDOF 1
ENDMDL
MODEL 6
REMARK VINA RESULT:      -3.5     11.034     11.452
REMARK  1 active torsions:
REMARK  status: ('A' for Active; 'I' for Inactive)
REMARK    1  A    between atoms: C2_2  and  C6_6 
ROOT
HETATM    1  C1  UNL     1     -36.151  13.820  -4.988  1.00 20.00     0.133 A 
HETATM    2  C2  UNL     1     -35.727  14.963  -4.345  1.00 20.00     0.007 A 
HETATM    3  C3  UNL     1     -38.035  14.940  -5.031  1.00 20.00     0.143 A 
HETATM    4  N7  UNL     1     -37.474  13.804  -5.382  1.00 20.00    -0.245 NA
HETATM    5  S8  UNL     1     -37.029  16.073  -4.225  1.00 20.00    -0.066 SA
HETATM    6 BR9  UNL     1     -39.873  15.309  -5.399  1.00 20.00    -0.021 Br
ENDROOT
BRANCH   2   7
HETATM    7  C6  UNL     1     -34.305  15.214  -3.814  1.00 20.00     0.027 A 
HETATM    8  C4  UNL     1     -33.311  15.913  -4.712  1.00 20.00     0.010 A 
HETATM    9  C5  UNL     1     -33.157  14.451  -4.431  1.00 20.00     0.010 A 
ENDBRANCH   2   7
TORSDOF 1
ENDMDL
MODEL 7
REMARK VINA RESULT:      -3.4     10.948     11.497
REMARK  1 active torsions:
REMARK  status: ('A' for Active; 'I' for Inactive)
REMARK    1  A    between atoms: C2_2  and  C6_6 
ROOT
HETATM    1  C1  UNL     1     -33.239  15.062  -4.648  1.00 20.00     0.133 A 
HETATM    2  C2  UNL     1     -34.374  14.628  -5.299  1.00 20.00     0.007 A 
HETATM    3  C3  UNL     1     -34.742  15.932  -3.308  1.00 20.00     0.143 A 
HETATM    4  N7  UNL     1     -33.448  15.810  -3.506  1.00 20.00    -0.245 NA
HETATM    5  S8  UNL     1     -35.765  15.171  -4.457  1.00 20.00    -0.066 SA
HETATM    6 BR9  UNL     1     -35.445  16.906  -1.823  1.00 20.00    -0.021 Br
ENDROOT
BRANCH   2   7
HETATM    7  C6  UNL     1     -34.397  13.785  -6.586  1.00 20.00     0.027 A 
HETATM    8  C4  UNL     1     -34.401  14.499  -7.918  1.00 20.00     0.010 A 
HETATM    9  C5  UNL     1     -35.640  13.807  -7.443  1.00 20.00     0.010 A 
ENDBRANCH   2   7
TORSDOF 1
ENDMDL
MODEL 8
REMARK VINA RESULT:      -3.3     10.644     11.123
REMARK  1 active torsions:
REMARK  status: ('A' for Active; 'I' for Inactive)
REMARK    1  A    between atoms: C2_2  and  C6_6 
ROOT
HETATM    1  C1  UNL     1     -35.642  16.594  -1.943  1.00 20.00     0.133 A 
HETATM    2  C2  UNL     1     -34.540  16.529  -2.769  1.00 20.00     0.007 A 
HETATM    3  C3  UNL     1     -34.238  17.745  -0.713  1.00 20.00     0.143 A 
HETATM    4  N7  UNL     1     -35.471  17.291  -0.763  1.00 20.00    -0.245 NA
HETATM    5  S8  UNL     1     -33.231  17.371  -2.051  1.00 20.00    -0.066 SA
HETATM    6 BR9  UNL     1     -33.602  18.765   0.772  1.00 20.00    -0.021 Br
ENDROOT
BRANCH   2   7
HETATM    7  C6  UNL     1     -34.486  15.811  -4.129  1.00 20.00     0.027 A 
HETATM    8  C4  UNL     1     -34.336  14.307  -4.147  1.00 20.00     0.010 A 
HETATM    9  C5  UNL     1     -33.186  15.173  -4.559  1.00 20.00     0.010 A 
ENDBRANCH   2   7
TORSDOF 1
ENDMDL
MODEL 9
REMARK VINA RESULT:      -3.3     11.048     11.380
REMARK  1 active torsions:
REMARK  status: ('A' for Active; 'I' for Inactive)
REMARK    1  A    between atoms: C2_2  and  C6_6 
ROOT
HETATM    1  C1  UNL     1     -33.763  15.706  -4.201  1.00 20.00     0.133 A 
HETATM    2  C2  UNL     1     -35.024  15.530  -4.728  1.00 20.00     0.007 A 
HETATM    3  C3  UNL     1     -34.933  16.506  -2.529  1.00 20.00     0.143 A 
HETATM    4  N7  UNL     1     -33.708  16.266  -2.940  1.00 20.00    -0.245 NA
HETATM    5  S8  UNL     1     -36.199  16.082  -3.608  1.00 20.00    -0.066 SA
HETATM    6 BR9  UNL     1     -35.286  17.287  -0.821  1.00 20.00    -0.021 Br
ENDROOT
BRANCH   2   7
HETATM    7  C6  UNL     1     -35.339  14.929  -6.110  1.00 20.00     0.027 A 
HETATM    8  C4  UNL     1     -35.676  13.459  -6.199  1.00 20.00     0.010 A 
HETATM    9  C5  UNL     1     -34.359  13.951  -6.714  1.00 20.00     0.010 A 
ENDBRANCH   2   7
TORSDOF 1
ENDMDL
