MODEL 1
REMARK VINA RESULT:      -5.7      0.000      0.000
REMARK  1 active torsions:
REMARK  status: ('A' for Active; 'I' for Inactive)
REMARK    1  A    between atoms: C5_5  and  C8_8 
ROOT
HETATM    1  C1  UNL     1     -33.966  14.241  -4.318  1.00 20.00     0.047 C 
HETATM    2  C2  UNL     1     -33.632  15.420  -3.780  1.00 20.00    -0.009 C 
HETATM    3  C3  UNL     1     -35.375  13.951  -4.675  1.00 20.00     0.149 C 
HETATM    4  C6  UNL     1     -36.401  15.048  -4.503  1.00 20.00     0.084 C 
HETATM    5  C7  UNL     1     -36.042  15.956  -3.333  1.00 20.00     0.025 C 
HETATM    6  C8  UNL     1     -34.608  16.523  -3.429  1.00 20.00    -0.003 C 
HETATM    7  C11 UNL     1     -34.520  17.623  -4.500  1.00 20.00     0.024 C 
HETATM    8  O12 UNL     1     -35.671  12.860  -5.158  1.00 20.00    -0.293 OA
ENDROOT
BRANCH   6   9
HETATM    9  C5  UNL     1     -34.252  17.137  -2.097  1.00 20.00    -0.076 C 
HETATM   10  C4  UNL     1     -33.061  17.736  -1.902  1.00 20.00    -0.027 C 
HETATM   11  C9  UNL     1     -32.565  18.378  -0.670  1.00 20.00     0.036 C 
HETATM   12  C10 UNL     1     -35.313  17.024  -1.039  1.00 20.00     0.044 C 
ENDBRANCH   6   9
TORSDOF 1
ENDMDL
MODEL 2
REMARK VINA RESULT:      -5.7      0.529      1.391
REMARK  1 active torsions:
REMARK  status: ('A' for Active; 'I' for Inactive)
REMARK    1  A    between atoms: C5_5  and  C8_8 
ROOT
HETATM    1  C1  UNL     1     -34.209  14.061  -4.258  1.00 20.00     0.047 C 
HETATM    2  C2  UNL     1     -33.872  15.223  -3.684  1.00 20.00    -0.009 C 
HETATM    3  C3  UNL     1     -35.589  13.840  -4.750  1.00 20.00     0.149 C 
HETATM    4  C6  UNL     1     -36.572  14.985  -4.671  1.00 20.00     0.084 C 
HETATM    5  C7  UNL     1     -36.285  15.875  -3.468  1.00 20.00     0.025 C 
HETATM    6  C8  UNL     1     -34.822  16.372  -3.423  1.00 20.00    -0.003 C 
HETATM    7  C11 UNL     1     -34.580  17.466  -4.476  1.00 20.00     0.024 C 
HETATM    8  O12 UNL     1     -35.889  12.765  -5.264  1.00 20.00    -0.293 OA
ENDROOT
BRANCH   6   9
HETATM    9  C5  UNL     1     -34.567  16.968  -2.060  1.00 20.00    -0.076 C 
HETATM   10  C4  UNL     1     -35.532  16.996  -1.120  1.00 20.00    -0.027 C 
HETATM   11  C9  UNL     1     -35.442  17.539   0.248  1.00 20.00     0.036 C 
HETATM   12  C10 UNL     1     -33.182  17.512  -1.853  1.00 20.00     0.044 C 
ENDBRANCH   6   9
TORSDOF 1
ENDMDL
MODEL 3
REMARK VINA RESULT:      -4.9      2.457      4.732
REMARK  1 active torsions:
REMARK  status: ('A' for Active; 'I' for Inactive)
REMARK    1  A    between atoms: C5_5  and  C8_8 
ROOT
HETATM    1  C1  UNL     1     -35.468  17.099  -0.933  1.00 20.00     0.047 C 
HETATM    2  C2  UNL     1     -35.668  16.612  -2.165  1.00 20.00    -0.009 C 
HETATM    3  C3  UNL     1     -34.193  17.771  -0.590  1.00 20.00     0.149 C 
HETATM    4  C6  UNL     1     -33.170  17.974  -1.684  1.00 20.00     0.084 C 
HETATM    5  C7  UNL     1     -33.230  16.847  -2.708  1.00 20.00     0.025 C 
HETATM    6  C8  UNL     1     -34.647  16.631  -3.283  1.00 20.00    -0.003 C 
HETATM    7  C11 UNL     1     -35.017  17.747  -4.274  1.00 20.00     0.024 C 
HETATM    8  O12 UNL     1     -34.017  18.204   0.547  1.00 20.00    -0.293 OA
ENDROOT
BRANCH   6   9
HETATM    9  C5  UNL     1     -34.660  15.319  -4.030  1.00 20.00    -0.076 C 
HETATM   10  C4  UNL     1     -35.815  14.766  -4.447  1.00 20.00    -0.027 C 
HETATM   11  C9  UNL     1     -35.996  13.500  -5.182  1.00 20.00     0.036 C 
HETATM   12  C10 UNL     1     -33.308  14.704  -4.259  1.00 20.00     0.044 C 
ENDBRANCH   6   9
TORSDOF 1
ENDMDL
MODEL 4
REMARK VINA RESULT:      -4.9      1.594      2.467
REMARK  1 active torsions:
REMARK  status: ('A' for Active; 'I' for Inactive)
REMARK    1  A    between atoms: C5_5  and  C8_8 
ROOT
HETATM    1  C1  UNL     1     -35.827  13.478  -5.566  1.00 20.00     0.047 C 
HETATM    2  C2  UNL     1     -35.256  13.978  -4.462  1.00 20.00    -0.009 C 
HETATM    3  C3  UNL     1     -35.387  13.931  -6.907  1.00 20.00     0.149 C 
HETATM    4  C6  UNL     1     -34.224  14.892  -6.996  1.00 20.00     0.084 C 
HETATM    5  C7  UNL     1     -34.182  15.817  -5.787  1.00 20.00     0.025 C 
HETATM    6  C8  UNL     1     -34.192  15.054  -4.444  1.00 20.00    -0.003 C 
HETATM    7  C11 UNL     1     -32.827  14.398  -4.172  1.00 20.00     0.024 C 
HETATM    8  O12 UNL     1     -35.926  13.473  -7.912  1.00 20.00    -0.293 OA
ENDROOT
BRANCH   6   9
HETATM    9  C5  UNL     1     -34.463  16.045  -3.338  1.00 20.00    -0.076 C 
HETATM   10  C4  UNL     1     -33.454  16.641  -2.674  1.00 20.00    -0.027 C 
HETATM   11  C9  UNL     1     -33.552  17.623  -1.577  1.00 20.00     0.036 C 
HETATM   12  C10 UNL     1     -35.916  16.298  -3.052  1.00 20.00     0.044 C 
ENDBRANCH   6   9
TORSDOF 1
ENDMDL
MODEL 5
REMARK VINA RESULT:      -4.7      1.413      2.098
REMARK  1 active torsions:
REMARK  status: ('A' for Active; 'I' for Inactive)
REMARK    1  A    between atoms: C5_5  and  C8_8 
ROOT
HETATM    1  C1  UNL     1     -34.119  16.971  -5.868  1.00 20.00     0.047 C 
HETATM    2  C2  UNL     1     -34.574  17.365  -4.672  1.00 20.00    -0.009 C 
HETATM    3  C3  UNL     1     -33.929  15.531  -6.161  1.00 20.00     0.149 C 
HETATM    4  C6  UNL     1     -34.349  14.522  -5.116  1.00 20.00     0.084 C 
HETATM    5  C7  UNL     1     -34.171  15.082  -3.710  1.00 20.00     0.025 C 
HETATM    6  C8  UNL     1     -34.878  16.442  -3.510  1.00 20.00    -0.003 C 
HETATM    7  C11 UNL     1     -36.401  16.261  -3.404  1.00 20.00     0.024 C 
HETATM    8  O12 UNL     1     -33.500  15.183  -7.259  1.00 20.00    -0.293 OA
ENDROOT
BRANCH   6   9
HETATM    9  C5  UNL     1     -34.386  17.044  -2.216  1.00 20.00    -0.076 C 
HETATM   10  C4  UNL     1     -33.159  17.591  -2.125  1.00 20.00    -0.027 C 
HETATM   11  C9  UNL     1     -32.535  18.215  -0.942  1.00 20.00     0.036 C 
HETATM   12  C10 UNL     1     -35.360  16.980  -1.074  1.00 20.00     0.044 C 
ENDBRANCH   6   9
TORSDOF 1
ENDMDL
MODEL 6
REMARK VINA RESULT:      -4.7      2.541      4.747
REMARK  1 active torsions:
REMARK  status: ('A' for Active; 'I' for Inactive)
REMARK    1  A    between atoms: C5_5  and  C8_8 
ROOT
HETATM    1  C1  UNL     1     -33.898  17.333  -1.377  1.00 20.00     0.047 C 
HETATM    2  C2  UNL     1     -34.658  16.542  -2.146  1.00 20.00    -0.009 C 
HETATM    3  C3  UNL     1     -33.110  18.433  -1.981  1.00 20.00     0.149 C 
HETATM    4  C6  UNL     1     -33.257  18.695  -3.462  1.00 20.00     0.084 C 
HETATM    5  C7  UNL     1     -33.544  17.405  -4.222  1.00 20.00     0.025 C 
HETATM    6  C8  UNL     1     -34.753  16.628  -3.654  1.00 20.00    -0.003 C 
HETATM    7  C11 UNL     1     -36.076  17.316  -4.030  1.00 20.00     0.024 C 
HETATM    8  O12 UNL     1     -32.407  19.145  -1.266  1.00 20.00    -0.293 OA
ENDROOT
BRANCH   6   9
HETATM    9  C5  UNL     1     -34.755  15.246  -4.261  1.00 20.00    -0.076 C 
HETATM   10  C4  UNL     1     -35.897  14.676  -4.692  1.00 20.00    -0.027 C 
HETATM   11  C9  UNL     1     -36.065  13.344  -5.302  1.00 20.00     0.036 C 
HETATM   12  C10 UNL     1     -33.408  14.583  -4.339  1.00 20.00     0.044 C 
ENDBRANCH   6   9
TORSDOF 1
ENDMDL
MODEL 7
REMARK VINA RESULT:      -4.6      1.562      2.231
REMARK  1 active torsions:
REMARK  status: ('A' for Active; 'I' for Inactive)
REMARK    1  A    between atoms: C5_5  and  C8_8 
ROOT
HETATM    1  C1  UNL     1     -34.203  14.386  -6.720  1.00 20.00     0.047 C 
HETATM    2  C2  UNL     1     -34.229  15.591  -6.137  1.00 20.00    -0.009 C 
HETATM    3  C3  UNL     1     -35.196  13.351  -6.345  1.00 20.00     0.149 C 
HETATM    4  C6  UNL     1     -36.285  13.720  -5.365  1.00 20.00     0.084 C 
HETATM    5  C7  UNL     1     -35.793  14.756  -4.362  1.00 20.00     0.025 C 
HETATM    6  C8  UNL     1     -35.183  16.005  -5.037  1.00 20.00    -0.003 C 
HETATM    7  C11 UNL     1     -36.281  16.896  -5.641  1.00 20.00     0.024 C 
HETATM    8  O12 UNL     1     -35.154  12.244  -6.879  1.00 20.00    -0.293 OA
ENDROOT
BRANCH   6   9
HETATM    9  C5  UNL     1     -34.458  16.806  -3.983  1.00 20.00    -0.076 C 
HETATM   10  C4  UNL     1     -34.581  16.509  -2.675  1.00 20.00    -0.027 C 
HETATM   11  C9  UNL     1     -33.944  17.190  -1.532  1.00 20.00     0.036 C 
HETATM   12  C10 UNL     1     -33.611  17.930  -4.509  1.00 20.00     0.044 C 
ENDBRANCH   6   9
TORSDOF 1
ENDMDL
MODEL 8
REMARK VINA RESULT:      -4.5      9.946     10.950
REMARK  1 active torsions:
REMARK  status: ('A' for Active; 'I' for Inactive)
REMARK    1  A    between atoms: C5_5  and  C8_8 
ROOT
HETATM    1  C1  UNL     1     -34.417   6.940   4.252  1.00 20.00     0.047 C 
HETATM    2  C2  UNL     1     -33.704   7.950   3.737  1.00 20.00    -0.009 C 
HETATM    3  C3  UNL     1     -34.115   5.539   3.876  1.00 20.00     0.149 C 
HETATM    4  C6  UNL     1     -32.930   5.276   2.975  1.00 20.00     0.084 C 
HETATM    5  C7  UNL     1     -32.711   6.430   2.005  1.00 20.00     0.025 C 
HETATM    6  C8  UNL     1     -32.599   7.799   2.712  1.00 20.00    -0.003 C 
HETATM    7  C11 UNL     1     -31.242   7.945   3.420  1.00 20.00     0.024 C 
HETATM    8  O12 UNL     1     -34.784   4.622   4.347  1.00 20.00    -0.293 OA
ENDROOT
BRANCH   6   9
HETATM    9  C5  UNL     1     -32.700   8.883   1.666  1.00 20.00    -0.076 C 
HETATM   10  C4  UNL     1     -33.004   8.589   0.387  1.00 20.00    -0.027 C 
HETATM   11  C9  UNL     1     -33.138   9.525  -0.745  1.00 20.00     0.036 C 
HETATM   12  C10 UNL     1     -32.439  10.276   2.165  1.00 20.00     0.044 C 
ENDBRANCH   6   9
TORSDOF 1
ENDMDL
MODEL 9
REMARK VINA RESULT:      -4.5      2.445      4.686
REMARK  1 active torsions:
REMARK  status: ('A' for Active; 'I' for Inactive)
REMARK    1  A    between atoms: C5_5  and  C8_8 
ROOT
HETATM    1  C1  UNL     1     -33.355  17.867  -4.694  1.00 20.00     0.047 C 
HETATM    2  C2  UNL     1     -33.814  16.696  -5.154  1.00 20.00    -0.009 C 
HETATM    3  C3  UNL     1     -33.270  18.117  -3.235  1.00 20.00     0.149 C 
HETATM    4  C6  UNL     1     -33.624  16.992  -2.290  1.00 20.00     0.084 C 
HETATM    5  C7  UNL     1     -34.700  16.093  -2.886  1.00 20.00     0.025 C 
HETATM    6  C8  UNL     1     -34.334  15.566  -4.292  1.00 20.00    -0.003 C 
HETATM    7  C11 UNL     1     -33.258  14.470  -4.207  1.00 20.00     0.024 C 
HETATM    8  O12 UNL     1     -32.858  19.200  -2.825  1.00 20.00    -0.293 OA
ENDROOT
BRANCH   6   9
HETATM    9  C5  UNL     1     -35.572  14.960  -4.907  1.00 20.00    -0.076 C 
HETATM   10  C4  UNL     1     -36.791  15.178  -4.378  1.00 20.00    -0.027 C 
HETATM   11  C9  UNL     1     -38.088  14.662  -4.856  1.00 20.00     0.036 C 
HETATM   12  C10 UNL     1     -35.329  14.116  -6.126  1.00 20.00     0.044 C 
ENDBRANCH   6   9
TORSDOF 1
ENDMDL
