MODEL 1
REMARK VINA RESULT:      -4.5      0.000      0.000
REMARK  0 active torsions:
REMARK  status: ('A' for Active; 'I' for Inactive)
ROOT
HETATM    1  C1  UNL     1     -33.830   7.192   5.299  1.00 20.00     0.069 C 
HETATM    2  C2  UNL     1     -33.866   5.026   2.975  1.00 20.00     0.007 C 
HETATM    3  C3  UNL     1     -34.905   6.085   3.361  1.00 20.00     0.025 C 
HETATM    4  C4  UNL     1     -32.509   5.733   2.949  1.00 20.00     0.070 C 
HETATM    5  C5  UNL     1     -31.631   9.106   2.666  1.00 20.00     0.197 C 
HETATM    6  C6  UNL     1     -32.057   8.555   1.335  1.00 20.00     0.197 C 
HETATM    7  C7  UNL     1     -34.106   7.296   3.855  1.00 20.00     0.155 C 
HETATM    8  C8  UNL     1     -32.836   7.223   2.998  1.00 20.00     0.180 C 
HETATM    9  N9  UNL     1     -33.612   7.109   6.436  1.00 20.00    -0.197 NA
HETATM   10  O10 UNL     1     -31.751   7.981   3.535  1.00 20.00    -0.352 OA
HETATM   11  O11 UNL     1     -33.142   7.692   1.670  1.00 20.00    -0.352 OA
ENDROOT
TORSDOF 0
ENDMDL
MODEL 2
REMARK VINA RESULT:      -4.3     11.206     12.260
REMARK  0 active torsions:
REMARK  status: ('A' for Active; 'I' for Inactive)
ROOT
HETATM    1  C1  UNL     1     -35.735  13.977  -5.344  1.00 20.00     0.069 C 
HETATM    2  C2  UNL     1     -33.517  15.762  -6.752  1.00 20.00     0.007 C 
HETATM    3  C3  UNL     1     -35.044  15.801  -6.871  1.00 20.00     0.025 C 
HETATM    4  C4  UNL     1     -33.195  15.691  -5.257  1.00 20.00     0.070 C 
HETATM    5  C5  UNL     1     -35.066  16.511  -2.419  1.00 20.00     0.197 C 
HETATM    6  C6  UNL     1     -34.554  17.753  -3.094  1.00 20.00     0.197 C 
HETATM    7  C7  UNL     1     -35.583  15.436  -5.483  1.00 20.00     0.155 C 
HETATM    8  C8  UNL     1     -34.510  16.015  -4.553  1.00 20.00     0.180 C 
HETATM    9  N9  UNL     1     -35.854  12.827  -5.233  1.00 20.00    -0.197 NA
HETATM   10  O10 UNL     1     -34.550  15.463  -3.236  1.00 20.00    -0.352 OA
HETATM   11  O11 UNL     1     -34.677  17.444  -4.481  1.00 20.00    -0.352 OA
ENDROOT
TORSDOF 0
ENDMDL
MODEL 3
REMARK VINA RESULT:      -4.2     11.266     12.394
REMARK  0 active torsions:
REMARK  status: ('A' for Active; 'I' for Inactive)
ROOT
HETATM    1  C1  UNL     1     -35.043  13.581  -6.592  1.00 20.00     0.069 C 
HETATM    2  C2  UNL     1     -33.030  15.346  -4.883  1.00 20.00     0.007 C 
HETATM    3  C3  UNL     1     -33.568  15.549  -6.304  1.00 20.00     0.025 C 
HETATM    4  C4  UNL     1     -34.235  15.007  -4.003  1.00 20.00     0.070 C 
HETATM    5  C5  UNL     1     -37.665  15.543  -4.422  1.00 20.00     0.197 C 
HETATM    6  C6  UNL     1     -36.971  16.820  -4.042  1.00 20.00     0.197 C 
HETATM    7  C7  UNL     1     -35.007  15.022  -6.288  1.00 20.00     0.155 C 
HETATM    8  C8  UNL     1     -35.456  15.340  -4.856  1.00 20.00     0.180 C 
HETATM    9  N9  UNL     1     -35.073  12.445  -6.832  1.00 20.00    -0.197 NA
HETATM   10  O10 UNL     1     -36.602  14.592  -4.447  1.00 20.00    -0.352 OA
HETATM   11  O11 UNL     1     -35.740  16.750  -4.759  1.00 20.00    -0.352 OA
ENDROOT
TORSDOF 0
ENDMDL
MODEL 4
REMARK VINA RESULT:      -4.2     11.413     12.366
REMARK  0 active torsions:
REMARK  status: ('A' for Active; 'I' for Inactive)
ROOT
HETATM    1  C1  UNL     1     -35.620  13.899  -5.473  1.00 20.00     0.069 C 
HETATM    2  C2  UNL     1     -32.906  15.496  -5.058  1.00 20.00     0.007 C 
HETATM    3  C3  UNL     1     -33.826  15.404  -6.280  1.00 20.00     0.025 C 
HETATM    4  C4  UNL     1     -33.807  15.762  -3.850  1.00 20.00     0.070 C 
HETATM    5  C5  UNL     1     -37.055  17.032  -3.587  1.00 20.00     0.197 C 
HETATM    6  C6  UNL     1     -36.075  18.135  -3.872  1.00 20.00     0.197 C 
HETATM    7  C7  UNL     1     -35.251  15.303  -5.726  1.00 20.00     0.155 C 
HETATM    8  C8  UNL     1     -35.163  16.137  -4.442  1.00 20.00     0.180 C 
HETATM    9  N9  UNL     1     -35.911  12.793  -5.273  1.00 20.00    -0.197 NA
HETATM   10  O10 UNL     1     -36.227  15.872  -3.525  1.00 20.00    -0.352 OA
HETATM   11  O11 UNL     1     -35.165  17.535  -4.792  1.00 20.00    -0.352 OA
ENDROOT
TORSDOF 0
ENDMDL
MODEL 5
REMARK VINA RESULT:      -4.2     11.162     12.226
REMARK  0 active torsions:
REMARK  status: ('A' for Active; 'I' for Inactive)
ROOT
HETATM    1  C1  UNL     1     -37.347  14.530  -5.459  1.00 20.00     0.069 C 
HETATM    2  C2  UNL     1     -35.544  13.639  -7.918  1.00 20.00     0.007 C 
HETATM    3  C3  UNL     1     -36.291  14.952  -7.660  1.00 20.00     0.025 C 
HETATM    4  C4  UNL     1     -34.794  13.301  -6.628  1.00 20.00     0.070 C 
HETATM    5  C5  UNL     1     -33.815  15.265  -3.905  1.00 20.00     0.197 C 
HETATM    6  C6  UNL     1     -32.918  15.510  -5.086  1.00 20.00     0.197 C 
HETATM    7  C7  UNL     1     -36.220  15.185  -6.147  1.00 20.00     0.155 C 
HETATM    8  C8  UNL     1     -34.862  14.571  -5.784  1.00 20.00     0.180 C 
HETATM    9  N9  UNL     1     -38.234  14.013  -4.917  1.00 20.00    -0.197 NA
HETATM   10  O10 UNL     1     -34.729  14.284  -4.391  1.00 20.00    -0.352 OA
HETATM   11  O11 UNL     1     -33.818  15.476  -6.192  1.00 20.00    -0.352 OA
ENDROOT
TORSDOF 0
ENDMDL
MODEL 6
REMARK VINA RESULT:      -4.2     11.555     12.780
REMARK  0 active torsions:
REMARK  status: ('A' for Active; 'I' for Inactive)
ROOT
HETATM    1  C1  UNL     1     -35.151  13.680  -5.414  1.00 20.00     0.069 C 
HETATM    2  C2  UNL     1     -33.886  15.881  -3.505  1.00 20.00     0.007 C 
HETATM    3  C3  UNL     1     -33.210  14.808  -4.366  1.00 20.00     0.025 C 
HETATM    4  C4  UNL     1     -34.931  16.562  -4.392  1.00 20.00     0.070 C 
HETATM    5  C5  UNL     1     -35.290  16.747  -7.865  1.00 20.00     0.197 C 
HETATM    6  C6  UNL     1     -34.198  17.666  -7.395  1.00 20.00     0.197 C 
HETATM    7  C7  UNL     1     -34.079  14.670  -5.621  1.00 20.00     0.155 C 
HETATM    8  C8  UNL     1     -34.612  16.096  -5.810  1.00 20.00     0.180 C 
HETATM    9  N9  UNL     1     -35.996  12.902  -5.251  1.00 20.00    -0.197 NA
HETATM   10  O10 UNL     1     -35.762  16.159  -6.655  1.00 20.00    -0.352 OA
HETATM   11  O11 UNL     1     -33.563  16.916  -6.361  1.00 20.00    -0.352 OA
ENDROOT
TORSDOF 0
ENDMDL
MODEL 7
REMARK VINA RESULT:      -4.1     10.858     12.212
REMARK  0 active torsions:
REMARK  status: ('A' for Active; 'I' for Inactive)
ROOT
HETATM    1  C1  UNL     1     -36.051  15.646  -3.999  1.00 20.00     0.069 C 
HETATM    2  C2  UNL     1     -33.004  15.101  -4.711  1.00 20.00     0.007 C 
HETATM    3  C3  UNL     1     -33.997  14.265  -3.897  1.00 20.00     0.025 C 
HETATM    4  C4  UNL     1     -33.728  15.516  -5.994  1.00 20.00     0.070 C 
HETATM    5  C5  UNL     1     -36.533  14.212  -7.625  1.00 20.00     0.197 C 
HETATM    6  C6  UNL     1     -35.331  13.340  -7.857  1.00 20.00     0.197 C 
HETATM    7  C7  UNL     1     -35.363  14.470  -4.562  1.00 20.00     0.155 C 
HETATM    8  C8  UNL     1     -34.985  14.651  -6.037  1.00 20.00     0.180 C 
HETATM    9  N9  UNL     1     -36.594  16.572  -3.557  1.00 20.00    -0.197 NA
HETATM   10  O10 UNL     1     -36.017  15.264  -6.812  1.00 20.00    -0.352 OA
HETATM   11  O11 UNL     1     -34.663  13.362  -6.597  1.00 20.00    -0.352 OA
ENDROOT
TORSDOF 0
ENDMDL
MODEL 8
REMARK VINA RESULT:      -4.0     11.279     12.481
REMARK  0 active torsions:
REMARK  status: ('A' for Active; 'I' for Inactive)
ROOT
HETATM    1  C1  UNL     1     -33.306  14.850  -4.230  1.00 20.00     0.069 C 
HETATM    2  C2  UNL     1     -34.949  16.557  -2.115  1.00 20.00     0.007 C 
HETATM    3  C3  UNL     1     -33.558  16.793  -2.714  1.00 20.00     0.025 C 
HETATM    4  C4  UNL     1     -35.879  16.221  -3.283  1.00 20.00     0.070 C 
HETATM    5  C5  UNL     1     -35.625  16.812  -6.721  1.00 20.00     0.197 C 
HETATM    6  C6  UNL     1     -35.995  18.073  -5.991  1.00 20.00     0.197 C 
HETATM    7  C7  UNL     1     -33.632  16.286  -4.158  1.00 20.00     0.155 C 
HETATM    8  C8  UNL     1     -35.088  16.586  -4.537  1.00 20.00     0.180 C 
HETATM    9  N9  UNL     1     -33.049  13.719  -4.287  1.00 20.00    -0.197 NA
HETATM   10  O10 UNL     1     -35.537  15.847  -5.674  1.00 20.00    -0.352 OA
HETATM   11  O11 UNL     1     -35.221  17.997  -4.796  1.00 20.00    -0.352 OA
ENDROOT
TORSDOF 0
ENDMDL
MODEL 9
REMARK VINA RESULT:      -4.0     11.187     12.440
REMARK  0 active torsions:
REMARK  status: ('A' for Active; 'I' for Inactive)
ROOT
HETATM    1  C1  UNL     1     -33.533  16.162  -6.308  1.00 20.00     0.069 C 
HETATM    2  C2  UNL     1     -34.722  14.289  -4.035  1.00 20.00     0.007 C 
HETATM    3  C3  UNL     1     -33.290  14.417  -4.567  1.00 20.00     0.025 C 
HETATM    4  C4  UNL     1     -35.229  15.713  -3.795  1.00 20.00     0.070 C 
HETATM    5  C5  UNL     1     -33.555  18.751  -3.354  1.00 20.00     0.197 C 
HETATM    6  C6  UNL     1     -33.474  17.915  -2.108  1.00 20.00     0.197 C 
HETATM    7  C7  UNL     1     -33.105  15.896  -4.923  1.00 20.00     0.155 C 
HETATM    8  C8  UNL     1     -33.987  16.596  -3.882  1.00 20.00     0.180 C 
HETATM    9  N9  UNL     1     -33.871  16.372  -7.399  1.00 20.00    -0.197 NA
HETATM   10  O10 UNL     1     -34.322  17.938  -4.240  1.00 20.00    -0.352 OA
HETATM   11  O11 UNL     1     -33.304  16.592  -2.613  1.00 20.00    -0.352 OA
ENDROOT
TORSDOF 0
ENDMDL
