MODEL 1
REMARK VINA RESULT:      -5.8      0.000      0.000
REMARK  1 active torsions:
REMARK  status: ('A' for Active; 'I' for Inactive)
REMARK    1  A    between atoms: C4_4  and  C7_7 
ROOT
HETATM    1  C1  UNL     1     -34.106   6.285   5.705  1.00 20.00     0.056 A 
HETATM    2  C2  UNL     1     -33.671   7.418   5.160  1.00 20.00     0.010 A 
HETATM    3  C3  UNL     1     -34.537   5.447   4.592  1.00 20.00     0.157 A 
HETATM    4  C4  UNL     1     -33.791   7.394   3.684  1.00 20.00     0.157 A 
HETATM    5  N8  UNL     1     -35.025   4.260   4.649  1.00 20.00    -0.278 NA
HETATM    6  O9  UNL     1     -34.354   6.103   3.412  1.00 20.00    -0.325 OA
HETATM    7  H20 UNL     1     -35.234   3.928   3.699  1.00 20.00     0.189 HD
ENDROOT
BRANCH   4   8
HETATM    8  C7  UNL     1     -32.453   7.518   2.975  1.00 20.00     0.011 C 
HETATM    9  C5  UNL     1     -32.601   8.287   1.661  1.00 20.00     0.012 C 
HETATM   10  C6  UNL     1     -31.421   8.201   3.875  1.00 20.00     0.012 C 
ENDBRANCH   4   8
TORSDOF 1
ENDMDL
MODEL 2
REMARK VINA RESULT:      -5.5      2.206      3.672
REMARK  1 active torsions:
REMARK  status: ('A' for Active; 'I' for Inactive)
REMARK    1  A    between atoms: C4_4  and  C7_7 
ROOT
HETATM    1  C1  UNL     1     -32.623   5.927   2.504  1.00 20.00     0.056 A 
HETATM    2  C2  UNL     1     -33.713   5.378   3.033  1.00 20.00     0.010 A 
HETATM    3  C3  UNL     1     -32.700   7.349   2.817  1.00 20.00     0.157 A 
HETATM    4  C4  UNL     1     -34.559   6.389   3.709  1.00 20.00     0.157 A 
HETATM    5  N8  UNL     1     -31.856   8.267   2.505  1.00 20.00    -0.278 NA
HETATM    6  O9  UNL     1     -33.837   7.614   3.518  1.00 20.00    -0.325 OA
HETATM    7  H20 UNL     1     -32.184   9.171   2.864  1.00 20.00     0.189 HD
ENDROOT
BRANCH   4   8
HETATM    8  C7  UNL     1     -34.724   6.129   5.197  1.00 20.00     0.011 C 
HETATM    9  C5  UNL     1     -34.414   4.670   5.534  1.00 20.00     0.012 C 
HETATM   10  C6  UNL     1     -33.832   7.064   6.016  1.00 20.00     0.012 C 
ENDBRANCH   4   8
TORSDOF 1
ENDMDL
MODEL 3
REMARK VINA RESULT:      -5.4      2.178      3.732
REMARK  1 active torsions:
REMARK  status: ('A' for Active; 'I' for Inactive)
REMARK    1  A    between atoms: C4_4  and  C7_7 
ROOT
HETATM    1  C1  UNL     1     -32.504   6.609   2.605  1.00 20.00     0.056 A 
HETATM    2  C2  UNL     1     -33.665   5.959   2.580  1.00 20.00     0.010 A 
HETATM    3  C3  UNL     1     -32.575   7.510   3.749  1.00 20.00     0.157 A 
HETATM    4  C4  UNL     1     -34.553   6.389   3.684  1.00 20.00     0.157 A 
HETATM    5  N8  UNL     1     -31.674   8.329   4.158  1.00 20.00    -0.278 NA
HETATM    6  O9  UNL     1     -33.779   7.380   4.374  1.00 20.00    -0.325 OA
HETATM    7  H20 UNL     1     -32.015   8.828   4.989  1.00 20.00     0.189 HD
ENDROOT
BRANCH   4   8
HETATM    8  C7  UNL     1     -34.899   5.263   4.643  1.00 20.00     0.011 C 
HETATM    9  C5  UNL     1     -34.163   3.977   4.264  1.00 20.00     0.012 C 
HETATM   10  C6  UNL     1     -34.572   5.655   6.085  1.00 20.00     0.012 C 
ENDBRANCH   4   8
TORSDOF 1
ENDMDL
MODEL 4
REMARK VINA RESULT:      -5.2      2.456      3.834
REMARK  1 active torsions:
REMARK  status: ('A' for Active; 'I' for Inactive)
REMARK    1  A    between atoms: C4_4  and  C7_7 
ROOT
HETATM    1  C1  UNL     1     -31.538   8.774   2.868  1.00 20.00     0.056 A 
HETATM    2  C2  UNL     1     -31.801   7.860   3.798  1.00 20.00     0.010 A 
HETATM    3  C3  UNL     1     -32.447   8.493   1.764  1.00 20.00     0.157 A 
HETATM    4  C4  UNL     1     -32.877   6.939   3.367  1.00 20.00     0.157 A 
HETATM    5  N8  UNL     1     -32.548   9.128   0.651  1.00 20.00    -0.278 NA
HETATM    6  O9  UNL     1     -33.226   7.415   2.060  1.00 20.00    -0.325 OA
HETATM    7  H20 UNL     1     -33.278   8.694   0.073  1.00 20.00     0.189 HD
ENDROOT
BRANCH   4   8
HETATM    8  C7  UNL     1     -34.102   6.991   4.265  1.00 20.00     0.011 C 
HETATM    9  C5  UNL     1     -34.899   5.689   4.177  1.00 20.00     0.012 C 
HETATM   10  C6  UNL     1     -33.704   7.272   5.715  1.00 20.00     0.012 C 
ENDBRANCH   4   8
TORSDOF 1
ENDMDL
MODEL 5
REMARK VINA RESULT:      -4.6      1.563      2.505
REMARK  1 active torsions:
REMARK  status: ('A' for Active; 'I' for Inactive)
REMARK    1  A    between atoms: C4_4  and  C7_7 
ROOT
HETATM    1  C1  UNL     1     -34.138   4.209   4.211  1.00 20.00     0.056 A 
HETATM    2  C2  UNL     1     -34.734   5.292   4.703  1.00 20.00     0.010 A 
HETATM    3  C3  UNL     1     -33.495   4.634   2.974  1.00 20.00     0.157 A 
HETATM    4  C4  UNL     1     -34.524   6.472   3.832  1.00 20.00     0.157 A 
HETATM    5  N8  UNL     1     -32.800   3.916   2.166  1.00 20.00    -0.278 NA
HETATM    6  O9  UNL     1     -33.728   5.958   2.754  1.00 20.00    -0.325 OA
HETATM    7  H20 UNL     1     -32.478   4.496   1.381  1.00 20.00     0.189 HD
ENDROOT
BRANCH   4   8
HETATM    8  C7  UNL     1     -33.771   7.596   4.522  1.00 20.00     0.011 C 
HETATM    9  C5  UNL     1     -33.626   7.317   6.019  1.00 20.00     0.012 C 
HETATM   10  C6  UNL     1     -32.396   7.802   3.886  1.00 20.00     0.012 C 
ENDBRANCH   4   8
TORSDOF 1
ENDMDL
MODEL 6
REMARK VINA RESULT:      -4.3      1.821      2.488
REMARK  1 active torsions:
REMARK  status: ('A' for Active; 'I' for Inactive)
REMARK    1  A    between atoms: C4_4  and  C7_7 
ROOT
HETATM    1  C1  UNL     1     -34.122   6.265   3.692  1.00 20.00     0.056 A 
HETATM    2  C2  UNL     1     -33.449   6.383   2.551  1.00 20.00     0.010 A 
HETATM    3  C3  UNL     1     -33.471   7.167   4.635  1.00 20.00     0.157 A 
HETATM    4  C4  UNL     1     -32.333   7.348   2.674  1.00 20.00     0.157 A 
HETATM    5  N8  UNL     1     -33.789   7.382   5.861  1.00 20.00    -0.278 NA
HETATM    6  O9  UNL     1     -32.422   7.795   4.034  1.00 20.00    -0.325 OA
HETATM    7  H20 UNL     1     -33.145   8.071   6.267  1.00 20.00     0.189 HD
ENDROOT
BRANCH   4   8
HETATM    8  C7  UNL     1     -32.472   8.541   1.743  1.00 20.00     0.011 C 
HETATM    9  C5  UNL     1     -32.273   9.853   2.503  1.00 20.00     0.012 C 
HETATM   10  C6  UNL     1     -31.479   8.445   0.582  1.00 20.00     0.012 C 
ENDBRANCH   4   8
TORSDOF 1
ENDMDL
MODEL 7
REMARK VINA RESULT:      -4.3     11.573     11.943
REMARK  1 active torsions:
REMARK  status: ('A' for Active; 'I' for Inactive)
REMARK    1  A    between atoms: C4_4  and  C7_7 
ROOT
HETATM    1  C1  UNL     1     -35.039  14.579  -4.152  1.00 20.00     0.056 A 
HETATM    2  C2  UNL     1     -35.469  15.690  -3.560  1.00 20.00     0.010 A 
HETATM    3  C3  UNL     1     -33.588  14.704  -4.230  1.00 20.00     0.157 A 
HETATM    4  C4  UNL     1     -34.347  16.596  -3.222  1.00 20.00     0.157 A 
HETATM    5  N8  UNL     1     -32.755  13.860  -4.724  1.00 20.00    -0.278 NA
HETATM    6  O9  UNL     1     -33.189  15.888  -3.688  1.00 20.00    -0.325 OA
HETATM    7  H20 UNL     1     -31.800  14.228  -4.635  1.00 20.00     0.189 HD
ENDROOT
BRANCH   4   8
HETATM    8  C7  UNL     1     -34.215  16.851  -1.730  1.00 20.00     0.011 C 
HETATM    9  C5  UNL     1     -33.161  17.925  -1.451  1.00 20.00     0.012 C 
HETATM   10  C6  UNL     1     -35.559  17.258  -1.125  1.00 20.00     0.012 C 
ENDBRANCH   4   8
TORSDOF 1
ENDMDL
MODEL 8
REMARK VINA RESULT:      -4.2      2.306      3.289
REMARK  1 active torsions:
REMARK  status: ('A' for Active; 'I' for Inactive)
REMARK    1  A    between atoms: C4_4  and  C7_7 
ROOT
HETATM    1  C1  UNL     1     -33.181   6.620   3.135  1.00 20.00     0.056 A 
HETATM    2  C2  UNL     1     -32.867   7.020   1.906  1.00 20.00     0.010 A 
HETATM    3  C3  UNL     1     -32.704   7.668   4.030  1.00 20.00     0.157 A 
HETATM    4  C4  UNL     1     -32.175   8.329   1.919  1.00 20.00     0.157 A 
HETATM    5  N8  UNL     1     -32.795   7.706   5.310  1.00 20.00    -0.278 NA
HETATM    6  O9  UNL     1     -32.112   8.663   3.312  1.00 20.00    -0.325 OA
HETATM    7  H20 UNL     1     -32.367   8.572   5.660  1.00 20.00     0.189 HD
ENDROOT
BRANCH   4   8
HETATM    8  C7  UNL     1     -32.937   9.413   1.175  1.00 20.00     0.011 C 
HETATM    9  C5  UNL     1     -32.370  10.797   1.497  1.00 20.00     0.012 C 
HETATM   10  C6  UNL     1     -32.903   9.165  -0.334  1.00 20.00     0.012 C 
ENDBRANCH   4   8
TORSDOF 1
ENDMDL
MODEL 9
REMARK VINA RESULT:      -4.2     11.495     12.141
REMARK  1 active torsions:
REMARK  status: ('A' for Active; 'I' for Inactive)
REMARK    1  A    between atoms: C4_4  and  C7_7 
ROOT
HETATM    1  C1  UNL     1     -34.496  14.499  -6.200  1.00 20.00     0.056 A 
HETATM    2  C2  UNL     1     -33.531  15.270  -5.705  1.00 20.00     0.010 A 
HETATM    3  C3  UNL     1     -35.038  13.760  -5.066  1.00 20.00     0.157 A 
HETATM    4  C4  UNL     1     -33.381  15.083  -4.244  1.00 20.00     0.157 A 
HETATM    5  N8  UNL     1     -35.993  12.900  -5.076  1.00 20.00    -0.278 NA
HETATM    6  O9  UNL     1     -34.379  14.103  -3.925  1.00 20.00    -0.325 OA
HETATM    7  H20 UNL     1     -36.149  12.550  -4.123  1.00 20.00     0.189 HD
ENDROOT
BRANCH   4   8
HETATM    8  C7  UNL     1     -33.649  16.351  -3.451  1.00 20.00     0.011 C 
HETATM    9  C5  UNL     1     -33.666  17.575  -4.368  1.00 20.00     0.012 C 
HETATM   10  C6  UNL     1     -34.969  16.245  -2.684  1.00 20.00     0.012 C 
ENDBRANCH   4   8
TORSDOF 1
ENDMDL
