MODEL 1
REMARK VINA RESULT:      -5.8      0.000      0.000
REMARK  1 active torsions:
REMARK  status: ('A' for Active; 'I' for Inactive)
REMARK    1  A    between atoms: C10_10  and  O11_11 
ROOT
HETATM    1  C1  UNL     1     -34.002   4.383   5.513  1.00 20.00     0.011 A 
HETATM    2  C2  UNL     1     -32.874   5.174   2.562  1.00 20.00     0.013 A 
HETATM    3  C3  UNL     1     -33.319   7.914   6.210  1.00 20.00     0.013 A 
HETATM    4  C4  UNL     1     -34.854   4.825   4.353  1.00 20.00    -0.005 A 
HETATM    5  C5  UNL     1     -34.809   5.645   5.643  1.00 20.00    -0.005 A 
HETATM    6  C6  UNL     1     -34.320   5.314   2.988  1.00 20.00    -0.003 A 
HETATM    7  C7  UNL     1     -34.319   7.065   5.502  1.00 20.00    -0.003 A 
HETATM    8  C8  UNL     1     -33.488   6.548   2.609  1.00 20.00     0.019 A 
HETATM    9  C9  UNL     1     -32.910   7.202   4.953  1.00 20.00     0.019 A 
HETATM   10  C10 UNL     1     -32.940   7.620   3.528  1.00 20.00     0.127 C 
ENDROOT
BRANCH  10  11
HETATM   11  O11 UNL     1     -31.619   7.951   3.103  1.00 20.00    -0.395 OA
HETATM   12  H25 UNL     1     -31.236   8.505   3.800  1.00 20.00     0.210 HD
ENDBRANCH  10  11
TORSDOF 1
ENDMDL
MODEL 2
REMARK VINA RESULT:      -5.5      1.315      2.618
REMARK  1 active torsions:
REMARK  status: ('A' for Active; 'I' for Inactive)
REMARK    1  A    between atoms: C10_10  and  O11_11 
ROOT
HETATM    1  C1  UNL     1     -32.861   4.674   2.775  1.00 20.00     0.011 A 
HETATM    2  C2  UNL     1     -31.991   7.726   3.508  1.00 20.00     0.013 A 
HETATM    3  C3  UNL     1     -34.705   4.935   5.929  1.00 20.00     0.013 A 
HETATM    4  C4  UNL     1     -33.578   5.913   2.307  1.00 20.00    -0.005 A 
HETATM    5  C5  UNL     1     -34.290   4.886   3.188  1.00 20.00    -0.005 A 
HETATM    6  C6  UNL     1     -33.245   7.357   2.744  1.00 20.00    -0.003 A 
HETATM    7  C7  UNL     1     -34.795   5.396   4.514  1.00 20.00    -0.003 A 
HETATM    8  C8  UNL     1     -33.332   8.047   4.113  1.00 20.00     0.019 A 
HETATM    9  C9  UNL     1     -33.725   5.958   5.432  1.00 20.00     0.019 A 
HETATM   10  C10 UNL     1     -33.761   7.442   5.435  1.00 20.00     0.127 C 
ENDROOT
BRANCH  10  11
HETATM   11  O11 UNL     1     -32.900   7.936   6.459  1.00 20.00    -0.395 OA
HETATM   12  H25 UNL     1     -32.691   8.853   6.225  1.00 20.00     0.210 HD
ENDBRANCH  10  11
TORSDOF 1
ENDMDL
MODEL 3
REMARK VINA RESULT:      -5.3      1.432      2.784
REMARK  1 active torsions:
REMARK  status: ('A' for Active; 'I' for Inactive)
REMARK    1  A    between atoms: C10_10  and  O11_11 
ROOT
HETATM    1  C1  UNL     1     -33.213   7.156   6.078  1.00 20.00     0.011 A 
HETATM    2  C2  UNL     1     -33.707   4.085   5.112  1.00 20.00     0.013 A 
HETATM    3  C3  UNL     1     -32.652   7.701   2.500  1.00 20.00     0.013 A 
HETATM    4  C4  UNL     1     -34.554   6.564   5.731  1.00 20.00    -0.005 A 
HETATM    5  C5  UNL     1     -33.988   7.737   4.929  1.00 20.00    -0.005 A 
HETATM    6  C6  UNL     1     -34.785   5.147   5.160  1.00 20.00    -0.003 A 
HETATM    7  C7  UNL     1     -33.774   7.485   3.457  1.00 20.00    -0.003 A 
HETATM    8  C8  UNL     1     -34.364   4.511   3.826  1.00 20.00     0.019 A 
HETATM    9  C9  UNL     1     -32.816   6.351   3.137  1.00 20.00     0.019 A 
HETATM   10  C10 UNL     1     -33.561   5.141   2.707  1.00 20.00     0.127 C 
ENDROOT
BRANCH  10  11
HETATM   11  O11 UNL     1     -32.641   4.171   2.208  1.00 20.00    -0.395 OA
HETATM   12  H25 UNL     1     -32.726   3.392   2.779  1.00 20.00     0.210 HD
ENDBRANCH  10  11
TORSDOF 1
ENDMDL
MODEL 4
REMARK VINA RESULT:      -5.1      1.889      3.922
REMARK  1 active torsions:
REMARK  status: ('A' for Active; 'I' for Inactive)
REMARK    1  A    between atoms: C10_10  and  O11_11 
ROOT
HETATM    1  C1  UNL     1     -31.875   7.694   3.481  1.00 20.00     0.011 A 
HETATM    2  C2  UNL     1     -33.810   6.731   5.917  1.00 20.00     0.013 A 
HETATM    3  C3  UNL     1     -32.959   4.530   1.988  1.00 20.00     0.013 A 
HETATM    4  C4  UNL     1     -33.326   8.067   3.631  1.00 20.00    -0.005 A 
HETATM    5  C5  UNL     1     -32.848   7.267   2.418  1.00 20.00    -0.005 A 
HETATM    6  C6  UNL     1     -34.282   7.522   4.716  1.00 20.00    -0.003 A 
HETATM    7  C7  UNL     1     -33.473   5.905   2.242  1.00 20.00    -0.003 A 
HETATM    8  C8  UNL     1     -34.809   6.104   4.981  1.00 20.00     0.019 A 
HETATM    9  C9  UNL     1     -33.255   4.948   3.399  1.00 20.00     0.019 A 
HETATM   10  C10 UNL     1     -34.483   4.832   4.225  1.00 20.00     0.127 C 
ENDROOT
BRANCH  10  11
HETATM   11  O11 UNL     1     -34.324   3.773   5.167  1.00 20.00    -0.395 OA
HETATM   12  H25 UNL     1     -35.204   3.392   5.304  1.00 20.00     0.210 HD
ENDBRANCH  10  11
TORSDOF 1
ENDMDL
MODEL 5
REMARK VINA RESULT:      -4.9     11.661     12.826
REMARK  1 active torsions:
REMARK  status: ('A' for Active; 'I' for Inactive)
REMARK    1  A    between atoms: C10_10  and  O11_11 
ROOT
HETATM    1  C1  UNL     1     -34.636  16.656  -2.420  1.00 20.00     0.011 A 
HETATM    2  C2  UNL     1     -37.143  15.388  -4.066  1.00 20.00     0.013 A 
HETATM    3  C3  UNL     1     -32.770  14.017  -4.144  1.00 20.00     0.013 A 
HETATM    4  C4  UNL     1     -35.115  17.132  -3.766  1.00 20.00    -0.005 A 
HETATM    5  C5  UNL     1     -33.703  16.569  -3.595  1.00 20.00    -0.005 A 
HETATM    6  C6  UNL     1     -36.226  16.464  -4.607  1.00 20.00    -0.003 A 
HETATM    7  C7  UNL     1     -33.378  15.349  -4.421  1.00 20.00    -0.003 A 
HETATM    8  C8  UNL     1     -36.298  15.082  -5.275  1.00 20.00     0.019 A 
HETATM    9  C9  UNL     1     -34.266  14.146  -4.158  1.00 20.00     0.019 A 
HETATM   10  C10 UNL     1     -35.261  13.979  -5.247  1.00 20.00     0.127 C 
ENDROOT
BRANCH  10  11
HETATM   11  O11 UNL     1     -35.932  12.730  -5.090  1.00 20.00    -0.395 OA
HETATM   12  H25 UNL     1     -36.879  12.913  -5.181  1.00 20.00     0.210 HD
ENDBRANCH  10  11
TORSDOF 1
ENDMDL
MODEL 6
REMARK VINA RESULT:      -4.7      1.831      3.105
REMARK  1 active torsions:
REMARK  status: ('A' for Active; 'I' for Inactive)
REMARK    1  A    between atoms: C10_10  and  O11_11 
ROOT
HETATM    1  C1  UNL     1     -33.167   8.458   2.728  1.00 20.00     0.011 A 
HETATM    2  C2  UNL     1     -34.076   5.408   2.035  1.00 20.00     0.013 A 
HETATM    3  C3  UNL     1     -33.975   7.427   6.149  1.00 20.00     0.013 A 
HETATM    4  C4  UNL     1     -32.236   7.277   2.642  1.00 20.00    -0.005 A 
HETATM    5  C5  UNL     1     -32.399   8.047   3.953  1.00 20.00    -0.005 A 
HETATM    6  C6  UNL     1     -32.671   5.810   2.430  1.00 20.00    -0.003 A 
HETATM    7  C7  UNL     1     -32.906   7.245   5.126  1.00 20.00    -0.003 A 
HETATM    8  C8  UNL     1     -33.496   4.861   3.312  1.00 20.00     0.019 A 
HETATM    9  C9  UNL     1     -34.269   6.610   4.924  1.00 20.00     0.019 A 
HETATM   10  C10 UNL     1     -34.137   5.156   4.653  1.00 20.00     0.127 C 
ENDROOT
BRANCH  10  11
HETATM   11  O11 UNL     1     -35.426   4.548   4.683  1.00 20.00    -0.395 OA
HETATM   12  H25 UNL     1     -35.980   5.046   4.062  1.00 20.00     0.210 HD
ENDBRANCH  10  11
TORSDOF 1
ENDMDL
MODEL 7
REMARK VINA RESULT:      -4.7     12.184     13.558
REMARK  1 active torsions:
REMARK  status: ('A' for Active; 'I' for Inactive)
REMARK    1  A    between atoms: C10_10  and  O11_11 
ROOT
HETATM    1  C1  UNL     1     -33.908  16.583  -6.854  1.00 20.00     0.011 A 
HETATM    2  C2  UNL     1     -36.000  14.226  -7.675  1.00 20.00     0.013 A 
HETATM    3  C3  UNL     1     -34.714  15.476  -3.457  1.00 20.00     0.013 A 
HETATM    4  C4  UNL     1     -33.526  15.162  -7.176  1.00 20.00    -0.005 A 
HETATM    5  C5  UNL     1     -33.246  15.750  -5.793  1.00 20.00    -0.005 A 
HETATM    6  C6  UNL     1     -34.519  14.010  -7.451  1.00 20.00    -0.003 A 
HETATM    7  C7  UNL     1     -33.907  15.046  -4.634  1.00 20.00    -0.003 A 
HETATM    8  C8  UNL     1     -35.558  13.331  -6.547  1.00 20.00     0.019 A 
HETATM    9  C9  UNL     1     -35.423  15.005  -4.693  1.00 20.00     0.019 A 
HETATM   10  C10 UNL     1     -35.897  13.660  -5.107  1.00 20.00     0.127 C 
ENDROOT
BRANCH  10  11
HETATM   11  O11 UNL     1     -37.312  13.585  -4.946  1.00 20.00    -0.395 OA
HETATM   12  H25 UNL     1     -37.488  12.778  -4.437  1.00 20.00     0.210 HD
ENDBRANCH  10  11
TORSDOF 1
ENDMDL
MODEL 8
REMARK VINA RESULT:      -4.7      0.915      2.828
REMARK  1 active torsions:
REMARK  status: ('A' for Active; 'I' for Inactive)
REMARK    1  A    between atoms: C10_10  and  O11_11 
ROOT
HETATM    1  C1  UNL     1     -35.517   4.991   4.594  1.00 20.00     0.011 A 
HETATM    2  C2  UNL     1     -34.244   7.973   4.896  1.00 20.00     0.013 A 
HETATM    3  C3  UNL     1     -33.016   4.698   1.934  1.00 20.00     0.013 A 
HETATM    4  C4  UNL     1     -34.404   5.364   5.536  1.00 20.00    -0.005 A 
HETATM    5  C5  UNL     1     -34.175   4.336   4.427  1.00 20.00    -0.005 A 
HETATM    6  C6  UNL     1     -33.714   6.744   5.604  1.00 20.00    -0.003 A 
HETATM    7  C7  UNL     1     -33.104   4.682   3.422  1.00 20.00    -0.003 A 
HETATM    8  C8  UNL     1     -32.851   7.497   4.580  1.00 20.00     0.019 A 
HETATM    9  C9  UNL     1     -33.339   5.973   2.658  1.00 20.00     0.019 A 
HETATM   10  C10 UNL     1     -32.471   7.058   3.181  1.00 20.00     0.127 C 
ENDROOT
BRANCH  10  11
HETATM   11  O11 UNL     1     -32.551   8.188   2.314  1.00 20.00    -0.395 OA
HETATM   12  H25 UNL     1     -31.644   8.384   2.033  1.00 20.00     0.210 HD
ENDBRANCH  10  11
TORSDOF 1
ENDMDL
MODEL 9
REMARK VINA RESULT:      -4.5     12.306     13.965
REMARK  1 active torsions:
REMARK  status: ('A' for Active; 'I' for Inactive)
REMARK    1  A    between atoms: C10_10  and  O11_11 
ROOT
HETATM    1  C1  UNL     1     -33.319  16.724  -5.537  1.00 20.00     0.011 A 
HETATM    2  C2  UNL     1     -35.592  15.368  -3.639  1.00 20.00     0.013 A 
HETATM    3  C3  UNL     1     -34.148  13.917  -7.740  1.00 20.00     0.013 A 
HETATM    4  C4  UNL     1     -34.779  17.095  -5.538  1.00 20.00    -0.005 A 
HETATM    5  C5  UNL     1     -34.120  16.523  -6.794  1.00 20.00    -0.005 A 
HETATM    6  C6  UNL     1     -35.883  16.379  -4.728  1.00 20.00    -0.003 A 
HETATM    7  C7  UNL     1     -34.704  15.232  -7.312  1.00 20.00    -0.003 A 
HETATM    8  C8  UNL     1     -36.436  14.948  -4.813  1.00 20.00     0.019 A 
HETATM    9  C9  UNL     1     -34.655  14.072  -6.336  1.00 20.00     0.019 A 
HETATM   10  C10 UNL     1     -35.993  13.832  -5.737  1.00 20.00     0.127 C 
ENDROOT
BRANCH  10  11
HETATM   11  O11 UNL     1     -35.970  12.613  -4.997  1.00 20.00    -0.395 OA
HETATM   12  H25 UNL     1     -35.036  12.388  -4.867  1.00 20.00     0.210 HD
ENDBRANCH  10  11
TORSDOF 1
ENDMDL
