MODEL 1
REMARK VINA RESULT:      -5.3      0.000      0.000
REMARK  1 active torsions:
REMARK  status: ('A' for Active; 'I' for Inactive)
REMARK    1  A    between atoms: C3_3  and  C7_7 
ROOT
HETATM    1  C1  UNL     1     -33.448   7.138   2.425  1.00 20.00     0.034 A 
HETATM    2  C2  UNL     1     -32.878   7.419   4.660  1.00 20.00     0.058 A 
HETATM    3  C3  UNL     1     -33.703   6.761   3.774  1.00 20.00    -0.046 A 
HETATM    4  C4  UNL     1     -32.438   8.069   2.329  1.00 20.00     0.051 A 
HETATM    5  S8  UNL     1     -31.802   8.487   3.863  1.00 20.00    -0.094 SA
HETATM    6 BR9  UNL     1     -31.814   8.814   0.697  1.00 20.00    -0.043 Br
ENDROOT
BRANCH   3   7
HETATM    7  C7  UNL     1     -34.766   5.747   4.190  1.00 20.00     0.019 A 
HETATM    8  C5  UNL     1     -34.689   5.128   5.572  1.00 20.00     0.010 A 
HETATM    9  C6  UNL     1     -34.366   4.296   4.371  1.00 20.00     0.010 A 
ENDBRANCH   3   7
TORSDOF 1
ENDMDL
MODEL 2
REMARK VINA RESULT:      -5.0      2.786      4.608
REMARK  1 active torsions:
REMARK  status: ('A' for Active; 'I' for Inactive)
REMARK    1  A    between atoms: C3_3  and  C7_7 
ROOT
HETATM    1  C1  UNL     1     -33.166   7.676   4.014  1.00 20.00     0.034 A 
HETATM    2  C2  UNL     1     -32.914   6.591   1.974  1.00 20.00     0.058 A 
HETATM    3  C3  UNL     1     -32.665   7.747   2.682  1.00 20.00    -0.046 A 
HETATM    4  C4  UNL     1     -33.778   6.470   4.274  1.00 20.00     0.051 A 
HETATM    5  S8  UNL     1     -33.748   5.428   2.915  1.00 20.00    -0.094 SA
HETATM    6 BR9  UNL     1     -34.567   6.003   5.937  1.00 20.00    -0.043 Br
ENDROOT
BRANCH   3   7
HETATM    7  C7  UNL     1     -31.939   8.961   2.107  1.00 20.00     0.019 A 
HETATM    8  C5  UNL     1     -32.730   9.979   1.309  1.00 20.00     0.010 A 
HETATM    9  C6  UNL     1     -31.770   9.071   0.604  1.00 20.00     0.010 A 
ENDBRANCH   3   7
TORSDOF 1
ENDMDL
MODEL 3
REMARK VINA RESULT:      -4.3     11.133     11.800
REMARK  1 active torsions:
REMARK  status: ('A' for Active; 'I' for Inactive)
REMARK    1  A    between atoms: C3_3  and  C7_7 
ROOT
HETATM    1  C1  UNL     1     -33.343  17.136  -2.253  1.00 20.00     0.034 A 
HETATM    2  C2  UNL     1     -35.597  16.595  -2.077  1.00 20.00     0.058 A 
HETATM    3  C3  UNL     1     -34.454  16.459  -2.835  1.00 20.00    -0.046 A 
HETATM    4  C4  UNL     1     -33.679  17.763  -1.074  1.00 20.00     0.051 A 
HETATM    5  S8  UNL     1     -35.328  17.535  -0.671  1.00 20.00    -0.094 SA
HETATM    6 BR9  UNL     1     -32.468  18.766  -0.008  1.00 20.00    -0.043 Br
ENDROOT
BRANCH   3   7
HETATM    7  C7  UNL     1     -34.385  15.676  -4.144  1.00 20.00     0.019 A 
HETATM    8  C5  UNL     1     -34.427  14.162  -4.096  1.00 20.00     0.010 A 
HETATM    9  C6  UNL     1     -33.146  14.855  -4.443  1.00 20.00     0.010 A 
ENDBRANCH   3   7
TORSDOF 1
ENDMDL
MODEL 4
REMARK VINA RESULT:      -4.1     11.194     11.897
REMARK  1 active torsions:
REMARK  status: ('A' for Active; 'I' for Inactive)
REMARK    1  A    between atoms: C3_3  and  C7_7 
ROOT
HETATM    1  C1  UNL     1     -35.331  16.725  -1.575  1.00 20.00     0.034 A 
HETATM    2  C2  UNL     1     -33.253  17.435  -2.337  1.00 20.00     0.058 A 
HETATM    3  C3  UNL     1     -34.369  16.680  -2.625  1.00 20.00    -0.046 A 
HETATM    4  C4  UNL     1     -34.914  17.513  -0.525  1.00 20.00     0.051 A 
HETATM    5  S8  UNL     1     -33.368  18.194  -0.806  1.00 20.00    -0.094 SA
HETATM    6 BR9  UNL     1     -35.923  17.817   1.055  1.00 20.00    -0.043 Br
ENDROOT
BRANCH   3   7
HETATM    7  C7  UNL     1     -34.554  15.888  -3.917  1.00 20.00     0.019 A 
HETATM    8  C5  UNL     1     -34.150  14.426  -3.946  1.00 20.00     0.010 A 
HETATM    9  C6  UNL     1     -33.325  15.436  -4.683  1.00 20.00     0.010 A 
ENDBRANCH   3   7
TORSDOF 1
ENDMDL
MODEL 5
REMARK VINA RESULT:      -4.1     11.776     12.302
REMARK  1 active torsions:
REMARK  status: ('A' for Active; 'I' for Inactive)
REMARK    1  A    between atoms: C3_3  and  C7_7 
ROOT
HETATM    1  C1  UNL     1     -33.624  18.600   1.621  1.00 20.00     0.034 A 
HETATM    2  C2  UNL     1     -31.678  18.650   0.352  1.00 20.00     0.058 A 
HETATM    3  C3  UNL     1     -33.052  18.552   0.318  1.00 20.00    -0.046 A 
HETATM    4  C4  UNL     1     -32.668  18.733   2.602  1.00 20.00     0.051 A 
HETATM    5  S8  UNL     1     -31.085  18.800   1.952  1.00 20.00    -0.094 SA
HETATM    6 BR9  UNL     1     -33.043  18.832   4.462  1.00 20.00    -0.043 Br
ENDROOT
BRANCH   3   7
HETATM    7  C7  UNL     1     -33.865  18.408  -0.967  1.00 20.00     0.019 A 
HETATM    8  C5  UNL     1     -34.609  17.112  -1.223  1.00 20.00     0.010 A 
HETATM    9  C6  UNL     1     -33.391  17.438  -2.031  1.00 20.00     0.010 A 
ENDBRANCH   3   7
TORSDOF 1
ENDMDL
MODEL 6
REMARK VINA RESULT:      -3.9     11.436     11.890
REMARK  1 active torsions:
REMARK  status: ('A' for Active; 'I' for Inactive)
REMARK    1  A    between atoms: C3_3  and  C7_7 
ROOT
HETATM    1  C1  UNL     1     -33.829  15.968  -3.120  1.00 20.00     0.034 A 
HETATM    2  C2  UNL     1     -36.133  16.002  -3.422  1.00 20.00     0.058 A 
HETATM    3  C3  UNL     1     -34.962  15.332  -3.704  1.00 20.00    -0.046 A 
HETATM    4  C4  UNL     1     -34.175  17.097  -2.414  1.00 20.00     0.051 A 
HETATM    5  S8  UNL     1     -35.862  17.390  -2.457  1.00 20.00    -0.094 SA
HETATM    6 BR9  UNL     1     -32.941  18.212  -1.496  1.00 20.00    -0.043 Br
ENDROOT
BRANCH   3   7
HETATM    7  C7  UNL     1     -34.888  14.059  -4.545  1.00 20.00     0.019 A 
HETATM    8  C5  UNL     1     -34.954  14.173  -6.055  1.00 20.00     0.010 A 
HETATM    9  C6  UNL     1     -36.120  13.609  -5.304  1.00 20.00     0.010 A 
ENDBRANCH   3   7
TORSDOF 1
ENDMDL
MODEL 7
REMARK VINA RESULT:      -3.9     11.841     12.408
REMARK  1 active torsions:
REMARK  status: ('A' for Active; 'I' for Inactive)
REMARK    1  A    between atoms: C3_3  and  C7_7 
ROOT
HETATM    1  C1  UNL     1     -34.518  15.045  -4.228  1.00 20.00     0.034 A 
HETATM    2  C2  UNL     1     -33.527  17.075  -4.772  1.00 20.00     0.058 A 
HETATM    3  C3  UNL     1     -33.957  16.262  -3.746  1.00 20.00    -0.046 A 
HETATM    4  C4  UNL     1     -34.495  14.972  -5.603  1.00 20.00     0.051 A 
HETATM    5  S8  UNL     1     -33.800  16.370  -6.309  1.00 20.00    -0.094 SA
HETATM    6 BR9  UNL     1     -35.153  13.505  -6.613  1.00 20.00    -0.043 Br
ENDROOT
BRANCH   3   7
HETATM    7  C7  UNL     1     -33.847  16.623  -2.267  1.00 20.00     0.019 A 
HETATM    8  C5  UNL     1     -35.113  16.920  -1.488  1.00 20.00     0.010 A 
HETATM    9  C6  UNL     1     -34.177  18.037  -1.830  1.00 20.00     0.010 A 
ENDBRANCH   3   7
TORSDOF 1
ENDMDL
MODEL 8
REMARK VINA RESULT:      -3.9     11.454     12.151
REMARK  1 active torsions:
REMARK  status: ('A' for Active; 'I' for Inactive)
REMARK    1  A    between atoms: C3_3  and  C7_7 
ROOT
HETATM    1  C1  UNL     1     -36.205  15.898  -3.779  1.00 20.00     0.034 A 
HETATM    2  C2  UNL     1     -34.413  14.470  -4.166  1.00 20.00     0.058 A 
HETATM    3  C3  UNL     1     -34.824  15.634  -3.554  1.00 20.00    -0.046 A 
HETATM    4  C4  UNL     1     -36.799  14.926  -4.553  1.00 20.00     0.051 A 
HETATM    5  S8  UNL     1     -35.692  13.701  -5.006  1.00 20.00    -0.094 SA
HETATM    6 BR9  UNL     1     -38.628  14.930  -5.067  1.00 20.00    -0.043 Br
ENDROOT
BRANCH   3   7
HETATM    7  C7  UNL     1     -33.906  16.537  -2.732  1.00 20.00     0.019 A 
HETATM    8  C5  UNL     1     -34.389  17.044  -1.388  1.00 20.00     0.010 A 
HETATM    9  C6  UNL     1     -34.286  17.992  -2.542  1.00 20.00     0.010 A 
ENDBRANCH   3   7
TORSDOF 1
ENDMDL
MODEL 9
REMARK VINA RESULT:      -3.9     11.789     12.193
REMARK  1 active torsions:
REMARK  status: ('A' for Active; 'I' for Inactive)
REMARK    1  A    between atoms: C3_3  and  C7_7 
ROOT
HETATM    1  C1  UNL     1     -35.924  15.877  -3.265  1.00 20.00     0.034 A 
HETATM    2  C2  UNL     1     -33.650  15.741  -3.723  1.00 20.00     0.058 A 
HETATM    3  C3  UNL     1     -34.605  16.225  -2.856  1.00 20.00    -0.046 A 
HETATM    4  C4  UNL     1     -35.929  15.139  -4.428  1.00 20.00     0.051 A 
HETATM    5  S8  UNL     1     -34.346  14.870  -5.024  1.00 20.00    -0.094 SA
HETATM    6 BR9  UNL     1     -37.495  14.491  -5.284  1.00 20.00    -0.043 Br
ENDROOT
BRANCH   3   7
HETATM    7  C7  UNL     1     -34.287  17.039  -1.604  1.00 20.00     0.019 A 
HETATM    8  C5  UNL     1     -34.285  18.553  -1.695  1.00 20.00     0.010 A 
HETATM    9  C6  UNL     1     -32.988  17.819  -1.546  1.00 20.00     0.010 A 
ENDBRANCH   3   7
TORSDOF 1
ENDMDL
