MODEL 1
REMARK VINA RESULT:      -5.7      0.000      0.000
REMARK  2 active torsions:
REMARK  status: ('A' for Active; 'I' for Inactive)
REMARK    1  A    between atoms: C3_3  and  C6_6 
REMARK    2  A    between atoms: C3_3  and  O10_10 
ROOT
HETATM    1  C1  UNL     1     -34.680   5.133   5.155  1.00 20.00    -0.003 C 
HETATM    2  C2  UNL     1     -34.203   4.954   3.916  1.00 20.00     0.132 C 
HETATM    3  C4  UNL     1     -34.430   6.394   5.918  1.00 20.00     0.032 C 
HETATM    4  C5  UNL     1     -33.337   7.222   5.246  1.00 20.00     0.046 C 
HETATM    5  C6  UNL     1     -33.527   7.200   3.732  1.00 20.00     0.227 C 
HETATM    6  O9  UNL     1     -33.497   5.877   3.186  1.00 20.00    -0.348 OA
ENDROOT
BRANCH   5   7
HETATM    7  C3  UNL     1     -32.402   7.904   3.048  1.00 20.00     0.288 C 
HETATM    8  O8  UNL     1     -31.354   8.217   3.598  1.00 20.00    -0.262 OA
BRANCH   7   9
HETATM    9  O10 UNL     1     -32.731   8.131   1.745  1.00 20.00    -0.324 OA
HETATM   10  C7  UNL     1     -32.195   9.329   1.176  1.00 20.00     0.213 C 
ENDBRANCH   7   9
ENDBRANCH   5   7
TORSDOF 2
ENDMDL
MODEL 2
REMARK VINA RESULT:      -5.3      0.992      1.608
REMARK  2 active torsions:
REMARK  status: ('A' for Active; 'I' for Inactive)
REMARK    1  A    between atoms: C3_3  and  C6_6 
REMARK    2  A    between atoms: C3_3  and  O10_10 
ROOT
HETATM    1  C1  UNL     1     -34.754   5.810   5.482  1.00 20.00    -0.003 C 
HETATM    2  C2  UNL     1     -33.982   6.836   5.865  1.00 20.00     0.132 C 
HETATM    3  C4  UNL     1     -34.753   5.312   4.072  1.00 20.00     0.032 C 
HETATM    4  C5  UNL     1     -34.060   6.311   3.149  1.00 20.00     0.046 C 
HETATM    5  C6  UNL     1     -32.808   6.860   3.827  1.00 20.00     0.227 C 
HETATM    6  O9  UNL     1     -33.089   7.509   5.071  1.00 20.00    -0.348 OA
ENDROOT
BRANCH   5   7
HETATM    7  C3  UNL     1     -32.179   7.926   2.992  1.00 20.00     0.288 C 
HETATM    8  O8  UNL     1     -31.193   8.567   3.328  1.00 20.00    -0.262 OA
BRANCH   7   9
HETATM    9  O10 UNL     1     -32.872   8.060   1.825  1.00 20.00    -0.324 OA
HETATM   10  C7  UNL     1     -32.463   9.145   0.989  1.00 20.00     0.213 C 
ENDBRANCH   7   9
ENDBRANCH   5   7
TORSDOF 2
ENDMDL
MODEL 3
REMARK VINA RESULT:      -4.4      1.570      4.155
REMARK  2 active torsions:
REMARK  status: ('A' for Active; 'I' for Inactive)
REMARK    1  A    between atoms: C3_3  and  C6_6 
REMARK    2  A    between atoms: C3_3  and  O10_10 
ROOT
HETATM    1  C1  UNL     1     -31.582   8.529   2.647  1.00 20.00    -0.003 C 
HETATM    2  C2  UNL     1     -31.604   8.456   3.984  1.00 20.00     0.132 C 
HETATM    3  C4  UNL     1     -32.573   7.793   1.804  1.00 20.00     0.032 C 
HETATM    4  C5  UNL     1     -33.321   6.754   2.635  1.00 20.00     0.046 C 
HETATM    5  C6  UNL     1     -33.675   7.340   3.999  1.00 20.00     0.227 C 
HETATM    6  O9  UNL     1     -32.526   7.771   4.735  1.00 20.00    -0.348 OA
ENDROOT
BRANCH   5   7
HETATM    7  C3  UNL     1     -34.301   6.303   4.873  1.00 20.00     0.288 C 
HETATM    8  O8  UNL     1     -34.378   6.390   6.091  1.00 20.00    -0.262 OA
BRANCH   7   9
HETATM    9  O10 UNL     1     -34.758   5.274   4.104  1.00 20.00    -0.324 OA
HETATM   10  C7  UNL     1     -34.268   3.978   4.459  1.00 20.00     0.213 C 
ENDBRANCH   7   9
ENDBRANCH   5   7
TORSDOF 2
ENDMDL
MODEL 4
REMARK VINA RESULT:      -4.4     11.182     11.940
REMARK  2 active torsions:
REMARK  status: ('A' for Active; 'I' for Inactive)
REMARK    1  A    between atoms: C3_3  and  C6_6 
REMARK    2  A    between atoms: C3_3  and  O10_10 
ROOT
HETATM    1  C1  UNL     1     -34.638  16.638  -2.792  1.00 20.00    -0.003 C 
HETATM    2  C2  UNL     1     -35.959  16.504  -2.976  1.00 20.00     0.132 C 
HETATM    3  C4  UNL     1     -33.658  15.728  -3.461  1.00 20.00     0.032 C 
HETATM    4  C5  UNL     1     -34.367  14.510  -4.047  1.00 20.00     0.046 C 
HETATM    5  C6  UNL     1     -35.673  14.940  -4.709  1.00 20.00     0.227 C 
HETATM    6  O9  UNL     1     -36.567  15.594  -3.803  1.00 20.00    -0.348 OA
ENDROOT
BRANCH   5   7
HETATM    7  C3  UNL     1     -36.441  13.750  -5.185  1.00 20.00     0.288 C 
HETATM    8  O8  UNL     1     -37.653  13.629  -5.075  1.00 20.00    -0.262 OA
BRANCH   7   9
HETATM    9  O10 UNL     1     -35.584  12.850  -5.745  1.00 20.00    -0.324 OA
HETATM   10  C7  UNL     1     -35.282  13.067  -7.126  1.00 20.00     0.213 C 
ENDBRANCH   7   9
ENDBRANCH   5   7
TORSDOF 2
ENDMDL
MODEL 5
REMARK VINA RESULT:      -4.2     11.278     11.952
REMARK  2 active torsions:
REMARK  status: ('A' for Active; 'I' for Inactive)
REMARK    1  A    between atoms: C3_3  and  C6_6 
REMARK    2  A    between atoms: C3_3  and  O10_10 
ROOT
HETATM    1  C1  UNL     1     -33.645  16.494  -3.456  1.00 20.00    -0.003 C 
HETATM    2  C2  UNL     1     -33.289  15.742  -4.506  1.00 20.00     0.132 C 
HETATM    3  C4  UNL     1     -34.979  16.341  -2.798  1.00 20.00     0.032 C 
HETATM    4  C5  UNL     1     -35.917  15.511  -3.671  1.00 20.00     0.046 C 
HETATM    5  C6  UNL     1     -35.157  14.332  -4.274  1.00 20.00     0.227 C 
HETATM    6  O9  UNL     1     -34.038  14.740  -5.067  1.00 20.00    -0.348 OA
ENDROOT
BRANCH   5   7
HETATM    7  C3  UNL     1     -36.024  13.575  -5.225  1.00 20.00     0.288 C 
HETATM    8  O8  UNL     1     -37.240  13.698  -5.291  1.00 20.00    -0.262 OA
BRANCH   7   9
HETATM    9  O10 UNL     1     -35.252  12.747  -5.985  1.00 20.00    -0.324 OA
HETATM   10  C7  UNL     1     -35.399  12.897  -7.400  1.00 20.00     0.213 C 
ENDBRANCH   7   9
ENDBRANCH   5   7
TORSDOF 2
ENDMDL
MODEL 6
REMARK VINA RESULT:      -4.1     11.453     12.561
REMARK  2 active torsions:
REMARK  status: ('A' for Active; 'I' for Inactive)
REMARK    1  A    between atoms: C3_3  and  C6_6 
REMARK    2  A    between atoms: C3_3  and  O10_10 
ROOT
HETATM    1  C1  UNL     1     -33.367  16.563  -4.800  1.00 20.00    -0.003 C 
HETATM    2  C2  UNL     1     -33.824  15.766  -3.826  1.00 20.00     0.132 C 
HETATM    3  C4  UNL     1     -33.850  16.437  -6.209  1.00 20.00     0.032 C 
HETATM    4  C5  UNL     1     -34.615  15.129  -6.401  1.00 20.00     0.046 C 
HETATM    5  C6  UNL     1     -35.517  14.876  -5.196  1.00 20.00     0.227 C 
HETATM    6  O9  UNL     1     -34.792  14.804  -3.964  1.00 20.00    -0.348 OA
ENDROOT
BRANCH   5   7
HETATM    7  C3  UNL     1     -36.184  13.545  -5.306  1.00 20.00     0.288 C 
HETATM    8  O8  UNL     1     -35.627  12.530  -5.701  1.00 20.00    -0.262 OA
BRANCH   7   9
HETATM    9  O10 UNL     1     -37.483  13.651  -4.904  1.00 20.00    -0.324 OA
HETATM   10  C7  UNL     1     -38.212  14.746  -5.467  1.00 20.00     0.213 C 
ENDBRANCH   7   9
ENDBRANCH   5   7
TORSDOF 2
ENDMDL
MODEL 7
REMARK VINA RESULT:      -4.0      1.615      3.914
REMARK  2 active torsions:
REMARK  status: ('A' for Active; 'I' for Inactive)
REMARK    1  A    between atoms: C3_3  and  C6_6 
REMARK    2  A    between atoms: C3_3  and  O10_10 
ROOT
HETATM    1  C1  UNL     1     -31.913   8.453   1.986  1.00 20.00    -0.003 C 
HETATM    2  C2  UNL     1     -33.112   7.876   1.829  1.00 20.00     0.132 C 
HETATM    3  C4  UNL     1     -31.227   8.486   3.314  1.00 20.00     0.032 C 
HETATM    4  C5  UNL     1     -32.196   8.105   4.431  1.00 20.00     0.046 C 
HETATM    5  C6  UNL     1     -33.066   6.933   3.984  1.00 20.00     0.227 C 
HETATM    6  O9  UNL     1     -33.822   7.220   2.802  1.00 20.00    -0.348 OA
ENDROOT
BRANCH   5   7
HETATM    7  C3  UNL     1     -34.101   6.620   5.013  1.00 20.00     0.288 C 
HETATM    8  O8  UNL     1     -34.138   7.130   6.125  1.00 20.00    -0.262 OA
BRANCH   7   9
HETATM    9  O10 UNL     1     -34.971   5.695   4.518  1.00 20.00    -0.324 OA
HETATM   10  C7  UNL     1     -34.504   4.343   4.532  1.00 20.00     0.213 C 
ENDBRANCH   7   9
ENDBRANCH   5   7
TORSDOF 2
ENDMDL
MODEL 8
REMARK VINA RESULT:      -3.8     11.148     12.392
REMARK  2 active torsions:
REMARK  status: ('A' for Active; 'I' for Inactive)
REMARK    1  A    between atoms: C3_3  and  C6_6 
REMARK    2  A    between atoms: C3_3  and  O10_10 
ROOT
HETATM    1  C1  UNL     1     -33.491  18.155  -3.216  1.00 20.00    -0.003 C 
HETATM    2  C2  UNL     1     -33.356  17.867  -4.517  1.00 20.00     0.132 C 
HETATM    3  C4  UNL     1     -33.928  17.124  -2.225  1.00 20.00     0.032 C 
HETATM    4  C5  UNL     1     -34.491  15.897  -2.938  1.00 20.00     0.046 C 
HETATM    5  C6  UNL     1     -33.625  15.559  -4.149  1.00 20.00     0.227 C 
HETATM    6  O9  UNL     1     -33.540  16.635  -5.090  1.00 20.00    -0.348 OA
ENDROOT
BRANCH   5   7
HETATM    7  C3  UNL     1     -34.223  14.436  -4.929  1.00 20.00     0.288 C 
HETATM    8  O8  UNL     1     -34.780  13.471  -4.424  1.00 20.00    -0.262 OA
BRANCH   7   9
HETATM    9  O10 UNL     1     -34.046  14.662  -6.262  1.00 20.00    -0.324 OA
HETATM   10  C7  UNL     1     -34.491  13.614  -7.128  1.00 20.00     0.213 C 
ENDBRANCH   7   9
ENDBRANCH   5   7
TORSDOF 2
ENDMDL
MODEL 9
REMARK VINA RESULT:      -3.8     11.184     11.855
REMARK  2 active torsions:
REMARK  status: ('A' for Active; 'I' for Inactive)
REMARK    1  A    between atoms: C3_3  and  C6_6 
REMARK    2  A    between atoms: C3_3  and  O10_10 
ROOT
HETATM    1  C1  UNL     1     -34.189  17.607  -1.195  1.00 20.00    -0.003 C 
HETATM    2  C2  UNL     1     -33.251  17.416  -2.132  1.00 20.00     0.132 C 
HETATM    3  C4  UNL     1     -35.532  16.955  -1.286  1.00 20.00     0.032 C 
HETATM    4  C5  UNL     1     -35.758  16.379  -2.682  1.00 20.00     0.046 C 
HETATM    5  C6  UNL     1     -34.482  15.704  -3.176  1.00 20.00     0.227 C 
HETATM    6  O9  UNL     1     -33.364  16.597  -3.226  1.00 20.00    -0.348 OA
ENDROOT
BRANCH   5   7
HETATM    7  C3  UNL     1     -34.642  15.238  -4.585  1.00 20.00     0.288 C 
HETATM    8  O8  UNL     1     -34.629  15.980  -5.558  1.00 20.00    -0.262 OA
BRANCH   7   9
HETATM    9  O10 UNL     1     -34.802  13.884  -4.602  1.00 20.00    -0.324 OA
HETATM   10  C7  UNL     1     -35.958  13.411  -5.299  1.00 20.00     0.213 C 
ENDBRANCH   7   9
ENDBRANCH   5   7
TORSDOF 2
ENDMDL
