MODEL 1
REMARK VINA RESULT:      -7.8      0.000      0.000
REMARK  1 active torsions:
REMARK  status: ('A' for Active; 'I' for Inactive)
REMARK    1  A    between atoms: C9_9  and  C10_10 
ROOT
HETATM    1  C1  UNL     1     -32.438   9.104   1.114  1.00 20.00     0.063 C 
HETATM    2  C10 UNL     1     -31.835   8.590   2.327  1.00 20.00     0.163 C 
HETATM    3  N11 UNL     1     -32.893   9.539   0.139  1.00 20.00    -0.197 NA
ENDROOT
BRANCH   2   4
HETATM    4  C9  UNL     1     -32.696   7.437   2.851  1.00 20.00    -0.033 A 
HETATM    5  C6  UNL     1     -33.235   6.229   2.249  1.00 20.00     0.021 A 
HETATM    6  C7  UNL     1     -33.792   5.914   3.424  1.00 20.00    -0.025 A 
HETATM    7  C4  UNL     1     -34.601   4.986   4.223  1.00 20.00     0.012 A 
HETATM    8  C8  UNL     1     -33.266   7.090   4.011  1.00 20.00    -0.019 A 
HETATM    9  C2  UNL     1     -34.818   5.296   5.519  1.00 20.00     0.001 A 
HETATM   10  C3  UNL     1     -34.271   6.514   6.128  1.00 20.00     0.001 A 
HETATM   11  C5  UNL     1     -33.523   7.392   5.424  1.00 20.00     0.013 A 
ENDBRANCH   2   4
TORSDOF 1
ENDMDL
MODEL 2
REMARK VINA RESULT:      -7.3      0.709      1.834
REMARK  1 active torsions:
REMARK  status: ('A' for Active; 'I' for Inactive)
REMARK    1  A    between atoms: C9_9  and  C10_10 
ROOT
HETATM    1  C1  UNL     1     -32.406   9.366   1.311  1.00 20.00     0.063 C 
HETATM    2  C10 UNL     1     -31.750   8.169   1.797  1.00 20.00     0.163 C 
HETATM    3  N11 UNL     1     -32.908  10.325   0.892  1.00 20.00    -0.197 NA
ENDROOT
BRANCH   2   4
HETATM    4  C9  UNL     1     -32.423   7.740   3.105  1.00 20.00    -0.033 A 
HETATM    5  C6  UNL     1     -32.446   8.286   4.451  1.00 20.00     0.021 A 
HETATM    6  C7  UNL     1     -33.242   7.278   4.826  1.00 20.00    -0.025 A 
HETATM    7  C4  UNL     1     -34.008   6.608   5.884  1.00 20.00     0.012 A 
HETATM    8  C8  UNL     1     -33.221   6.746   3.515  1.00 20.00    -0.019 A 
HETATM    9  C2  UNL     1     -34.680   5.484   5.558  1.00 20.00     0.001 A 
HETATM   10  C3  UNL     1     -34.659   4.932   4.198  1.00 20.00     0.001 A 
HETATM   11  C5  UNL     1     -33.965   5.521   3.200  1.00 20.00     0.013 A 
ENDBRANCH   2   4
TORSDOF 1
ENDMDL
MODEL 3
REMARK VINA RESULT:      -5.5     10.906     11.540
REMARK  1 active torsions:
REMARK  status: ('A' for Active; 'I' for Inactive)
REMARK    1  A    between atoms: C9_9  and  C10_10 
ROOT
HETATM    1  C1  UNL     1     -34.112  14.756  -4.073  1.00 20.00     0.063 C 
HETATM    2  C10 UNL     1     -33.701  16.142  -3.971  1.00 20.00     0.163 C 
HETATM    3  N11 UNL     1     -34.425  13.645  -4.187  1.00 20.00    -0.197 NA
ENDROOT
BRANCH   2   4
HETATM    4  C9  UNL     1     -34.133  16.681  -2.603  1.00 20.00    -0.033 A 
HETATM    5  C6  UNL     1     -35.356  16.586  -1.825  1.00 20.00     0.021 A 
HETATM    6  C7  UNL     1     -34.781  17.321  -0.866  1.00 20.00    -0.025 A 
HETATM    7  C4  UNL     1     -34.874  17.969   0.448  1.00 20.00     0.012 A 
HETATM    8  C8  UNL     1     -33.588  17.413  -1.624  1.00 20.00    -0.019 A 
HETATM    9  C2  UNL     1     -33.793  18.642   0.895  1.00 20.00     0.001 A 
HETATM   10  C3  UNL     1     -32.556  18.736   0.110  1.00 20.00     0.001 A 
HETATM   11  C5  UNL     1     -32.434  18.154  -1.103  1.00 20.00     0.013 A 
ENDBRANCH   2   4
TORSDOF 1
ENDMDL
MODEL 4
REMARK VINA RESULT:      -5.5     11.127     11.587
REMARK  1 active torsions:
REMARK  status: ('A' for Active; 'I' for Inactive)
REMARK    1  A    between atoms: C9_9  and  C10_10 
ROOT
HETATM    1  C1  UNL     1     -35.860  13.974  -4.789  1.00 20.00     0.063 C 
HETATM    2  C10 UNL     1     -36.397  15.176  -4.184  1.00 20.00     0.163 C 
HETATM    3  N11 UNL     1     -35.462  13.003  -5.287  1.00 20.00    -0.197 NA
ENDROOT
BRANCH   2   4
HETATM    4  C9  UNL     1     -35.260  15.916  -3.473  1.00 20.00    -0.033 A 
HETATM    5  C6  UNL     1     -33.870  16.179  -3.802  1.00 20.00     0.021 A 
HETATM    6  C7  UNL     1     -33.740  16.841  -2.646  1.00 20.00    -0.025 A 
HETATM    7  C4  UNL     1     -32.893  17.605  -1.723  1.00 20.00     0.012 A 
HETATM    8  C8  UNL     1     -35.095  16.585  -2.326  1.00 20.00    -0.019 A 
HETATM    9  C2  UNL     1     -33.451  18.045  -0.575  1.00 20.00     0.001 A 
HETATM   10  C3  UNL     1     -34.856  17.781  -0.243  1.00 20.00     0.001 A 
HETATM   11  C5  UNL     1     -35.665  17.081  -1.068  1.00 20.00     0.013 A 
ENDBRANCH   2   4
TORSDOF 1
ENDMDL
MODEL 5
REMARK VINA RESULT:      -5.3     10.944     11.543
REMARK  1 active torsions:
REMARK  status: ('A' for Active; 'I' for Inactive)
REMARK    1  A    between atoms: C9_9  and  C10_10 
ROOT
HETATM    1  C1  UNL     1     -35.213  14.503  -4.209  1.00 20.00     0.063 C 
HETATM    2  C10 UNL     1     -35.894  15.623  -3.592  1.00 20.00     0.163 C 
HETATM    3  N11 UNL     1     -34.698  13.596  -4.719  1.00 20.00    -0.197 NA
ENDROOT
BRANCH   2   4
HETATM    4  C9  UNL     1     -34.879  16.417  -2.764  1.00 20.00    -0.033 A 
HETATM    5  C6  UNL     1     -33.505  16.833  -2.986  1.00 20.00     0.021 A 
HETATM    6  C7  UNL     1     -33.509  17.424  -1.786  1.00 20.00    -0.025 A 
HETATM    7  C4  UNL     1     -32.796  18.201  -0.764  1.00 20.00     0.012 A 
HETATM    8  C8  UNL     1     -34.849  17.020  -1.570  1.00 20.00    -0.019 A 
HETATM    9  C2  UNL     1     -33.461  18.509   0.369  1.00 20.00     0.001 A 
HETATM   10  C3  UNL     1     -34.850  18.091   0.593  1.00 20.00     0.001 A 
HETATM   11  C5  UNL     1     -35.537  17.375  -0.323  1.00 20.00     0.013 A 
ENDBRANCH   2   4
TORSDOF 1
ENDMDL
MODEL 6
REMARK VINA RESULT:      -5.2      2.438      4.704
REMARK  1 active torsions:
REMARK  status: ('A' for Active; 'I' for Inactive)
REMARK    1  A    between atoms: C9_9  and  C10_10 
ROOT
HETATM    1  C1  UNL     1     -34.522   4.295   4.736  1.00 20.00     0.063 C 
HETATM    2  C10 UNL     1     -34.880   5.494   5.467  1.00 20.00     0.163 C 
HETATM    3  N11 UNL     1     -34.263   3.318   4.166  1.00 20.00    -0.197 NA
ENDROOT
BRANCH   2   4
HETATM    4  C9  UNL     1     -33.895   6.606   5.095  1.00 20.00    -0.033 A 
HETATM    5  C6  UNL     1     -33.210   7.639   5.853  1.00 20.00     0.021 A 
HETATM    6  C7  UNL     1     -32.630   8.058   4.722  1.00 20.00    -0.025 A 
HETATM    7  C4  UNL     1     -31.723   8.994   4.047  1.00 20.00     0.012 A 
HETATM    8  C8  UNL     1     -33.296   7.051   3.984  1.00 20.00    -0.019 A 
HETATM    9  C2  UNL     1     -31.554   8.855   2.715  1.00 20.00     0.001 A 
HETATM   10  C3  UNL     1     -32.244   7.811   1.949  1.00 20.00     0.001 A 
HETATM   11  C5  UNL     1     -33.086   6.932   2.536  1.00 20.00     0.013 A 
ENDBRANCH   2   4
TORSDOF 1
ENDMDL
MODEL 7
REMARK VINA RESULT:      -5.0     11.300     11.765
REMARK  1 active torsions:
REMARK  status: ('A' for Active; 'I' for Inactive)
REMARK    1  A    between atoms: C9_9  and  C10_10 
ROOT
HETATM    1  C1  UNL     1     -35.295  15.702  -3.814  1.00 20.00     0.063 C 
HETATM    2  C10 UNL     1     -34.041  16.288  -3.382  1.00 20.00     0.163 C 
HETATM    3  N11 UNL     1     -36.282  15.222  -4.190  1.00 20.00    -0.197 NA
ENDROOT
BRANCH   2   4
HETATM    4  C9  UNL     1     -34.249  16.928  -2.006  1.00 20.00    -0.033 A 
HETATM    5  C6  UNL     1     -35.372  16.995  -1.086  1.00 20.00     0.021 A 
HETATM    6  C7  UNL     1     -34.616  17.708  -0.244  1.00 20.00    -0.025 A 
HETATM    7  C4  UNL     1     -34.485  18.418   1.034  1.00 20.00     0.012 A 
HETATM    8  C8  UNL     1     -33.521  17.641  -1.139  1.00 20.00    -0.019 A 
HETATM    9  C2  UNL     1     -33.297  18.995   1.314  1.00 20.00     0.001 A 
HETATM   10  C3  UNL     1     -32.162  18.925   0.387  1.00 20.00     0.001 A 
HETATM   11  C5  UNL     1     -32.245  18.281  -0.798  1.00 20.00     0.013 A 
ENDBRANCH   2   4
TORSDOF 1
ENDMDL
MODEL 8
REMARK VINA RESULT:      -5.0     11.438     12.011
REMARK  1 active torsions:
REMARK  status: ('A' for Active; 'I' for Inactive)
REMARK    1  A    between atoms: C9_9  and  C10_10 
ROOT
HETATM    1  C1  UNL     1     -31.775  19.003   1.579  1.00 20.00     0.063 C 
HETATM    2  C10 UNL     1     -33.186  19.163   1.867  1.00 20.00     0.163 C 
HETATM    3  N11 UNL     1     -30.637  18.894   1.377  1.00 20.00    -0.197 NA
ENDROOT
BRANCH   2   4
HETATM    4  C9  UNL     1     -33.991  18.405   0.806  1.00 20.00    -0.033 A 
HETATM    5  C6  UNL     1     -35.333  17.851   0.768  1.00 20.00     0.021 A 
HETATM    6  C7  UNL     1     -35.105  17.433  -0.482  1.00 20.00    -0.025 A 
HETATM    7  C4  UNL     1     -35.589  16.747  -1.687  1.00 20.00     0.012 A 
HETATM    8  C8  UNL     1     -33.797  17.974  -0.445  1.00 20.00    -0.019 A 
HETATM    9  C2  UNL     1     -34.748  16.656  -2.739  1.00 20.00     0.001 A 
HETATM   10  C3  UNL     1     -33.393  17.218  -2.702  1.00 20.00     0.001 A 
HETATM   11  C5  UNL     1     -32.913  17.855  -1.611  1.00 20.00     0.013 A 
ENDBRANCH   2   4
TORSDOF 1
ENDMDL
MODEL 9
REMARK VINA RESULT:      -4.9     11.519     12.132
REMARK  1 active torsions:
REMARK  status: ('A' for Active; 'I' for Inactive)
REMARK    1  A    between atoms: C9_9  and  C10_10 
ROOT
HETATM    1  C1  UNL     1     -32.084  19.171   2.442  1.00 20.00     0.063 C 
HETATM    2  C10 UNL     1     -33.408  19.176   1.853  1.00 20.00     0.163 C 
HETATM    3  N11 UNL     1     -31.038  19.183   2.945  1.00 20.00    -0.197 NA
ENDROOT
BRANCH   2   4
HETATM    4  C9  UNL     1     -33.317  18.582   0.443  1.00 20.00    -0.033 A 
HETATM    5  C6  UNL     1     -32.270  18.534  -0.563  1.00 20.00     0.021 A 
HETATM    6  C7  UNL     1     -33.099  17.856  -1.366  1.00 20.00    -0.025 A 
HETATM    7  C4  UNL     1     -33.338  17.189  -2.652  1.00 20.00     0.012 A 
HETATM    8  C8  UNL     1     -34.119  17.902  -0.385  1.00 20.00    -0.019 A 
HETATM    9  C2  UNL     1     -34.550  16.631  -2.855  1.00 20.00     0.001 A 
HETATM   10  C3  UNL     1     -35.608  16.678  -1.838  1.00 20.00     0.001 A 
HETATM   11  C5  UNL     1     -35.424  17.283  -0.644  1.00 20.00     0.013 A 
ENDBRANCH   2   4
TORSDOF 1
ENDMDL
