MODEL 1
REMARK VINA RESULT:      -5.4      0.000      0.000
REMARK  2 active torsions:
REMARK  status: ('A' for Active; 'I' for Inactive)
REMARK    1  A    between atoms: C5_5  and  C9_9 
REMARK    2  A    between atoms: C6_6  and  C10_10 
ROOT
HETATM    1  C1  UNL     1     -33.820   6.920   5.324  1.00 20.00     0.131 C 
HETATM    2  C2  UNL     1     -33.042   8.218   5.321  1.00 20.00     0.079 C 
HETATM    3  C3  UNL     1     -32.055   8.247   4.161  1.00 20.00     0.012 C 
HETATM    4  C4  UNL     1     -33.462   6.602   2.873  1.00 20.00     0.016 C 
HETATM    5  C5  UNL     1     -34.490   6.541   4.008  1.00 20.00     0.055 C 
HETATM    6  C6  UNL     1     -32.745   7.959   2.822  1.00 20.00    -0.014 C 
HETATM    7  O11 UNL     1     -33.966   6.272   6.359  1.00 20.00    -0.298 OA
ENDROOT
BRANCH   5   8
HETATM    8  C9  UNL     1     -35.134   5.160   4.080  1.00 20.00     0.007 C 
HETATM    9  C7  UNL     1     -34.112   4.073   4.134  1.00 20.00     0.006 C 
ENDBRANCH   5   8
BRANCH   6  10
HETATM   10  C10 UNL     1     -31.732   7.989   1.678  1.00 20.00     0.000 C 
HETATM   11  C8  UNL     1     -31.940   9.169   0.788  1.00 20.00     0.005 C 
ENDBRANCH   6  10
TORSDOF 2
ENDMDL
MODEL 2
REMARK VINA RESULT:      -5.0      1.036      1.220
REMARK  2 active torsions:
REMARK  status: ('A' for Active; 'I' for Inactive)
REMARK    1  A    between atoms: C5_5  and  C9_9 
REMARK    2  A    between atoms: C6_6  and  C10_10 
ROOT
HETATM    1  C1  UNL     1     -34.112   5.885   5.241  1.00 20.00     0.131 C 
HETATM    2  C2  UNL     1     -33.984   7.325   5.686  1.00 20.00     0.079 C 
HETATM    3  C3  UNL     1     -32.810   7.997   4.987  1.00 20.00     0.012 C 
HETATM    4  C4  UNL     1     -32.961   6.362   3.077  1.00 20.00     0.016 C 
HETATM    5  C5  UNL     1     -34.150   5.653   3.734  1.00 20.00     0.055 C 
HETATM    6  C6  UNL     1     -32.896   7.847   3.463  1.00 20.00    -0.014 C 
HETATM    7  O11 UNL     1     -34.269   4.981   6.060  1.00 20.00    -0.298 OA
ENDROOT
BRANCH   5   8
HETATM    8  C9  UNL     1     -34.150   4.167   3.391  1.00 20.00     0.007 C 
HETATM    9  C7  UNL     1     -33.062   3.821   2.429  1.00 20.00     0.006 C 
ENDBRANCH   5   8
BRANCH   6  10
HETATM   10  C10 UNL     1     -31.703   8.525   2.788  1.00 20.00     0.000 C 
HETATM   11  C8  UNL     1     -32.051   9.020   1.423  1.00 20.00     0.005 C 
ENDBRANCH   6  10
TORSDOF 2
ENDMDL
MODEL 3
REMARK VINA RESULT:      -4.7     11.744     12.447
REMARK  2 active torsions:
REMARK  status: ('A' for Active; 'I' for Inactive)
REMARK    1  A    between atoms: C5_5  and  C9_9 
REMARK    2  A    between atoms: C6_6  and  C10_10 
ROOT
HETATM    1  C1  UNL     1     -34.462  15.022  -6.217  1.00 20.00     0.131 C 
HETATM    2  C2  UNL     1     -33.198  15.830  -6.018  1.00 20.00     0.079 C 
HETATM    3  C3  UNL     1     -33.327  16.730  -4.796  1.00 20.00     0.012 C 
HETATM    4  C4  UNL     1     -35.052  15.191  -3.796  1.00 20.00     0.016 C 
HETATM    5  C5  UNL     1     -34.957  14.248  -5.001  1.00 20.00     0.055 C 
HETATM    6  C6  UNL     1     -33.733  15.937  -3.547  1.00 20.00    -0.014 C 
HETATM    7  O11 UNL     1     -34.989  14.935  -7.324  1.00 20.00    -0.298 OA
ENDROOT
BRANCH   5   8
HETATM    8  C9  UNL     1     -36.300  13.576  -5.268  1.00 20.00     0.007 C 
HETATM    9  C7  UNL     1     -37.445  14.466  -4.915  1.00 20.00     0.006 C 
ENDBRANCH   5   8
BRANCH   6  10
HETATM   10  C10 UNL     1     -33.860  16.864  -2.339  1.00 20.00     0.000 C 
HETATM   11  C8  UNL     1     -35.210  16.766  -1.709  1.00 20.00     0.005 C 
ENDBRANCH   6  10
TORSDOF 2
ENDMDL
MODEL 4
REMARK VINA RESULT:      -4.6     11.411     12.210
REMARK  2 active torsions:
REMARK  status: ('A' for Active; 'I' for Inactive)
REMARK    1  A    between atoms: C5_5  and  C9_9 
REMARK    2  A    between atoms: C6_6  and  C10_10 
ROOT
HETATM    1  C1  UNL     1     -31.824  18.799   0.621  1.00 20.00     0.131 C 
HETATM    2  C2  UNL     1     -32.052  18.653  -0.867  1.00 20.00     0.079 C 
HETATM    3  C3  UNL     1     -33.244  17.744  -1.138  1.00 20.00     0.012 C 
HETATM    4  C4  UNL     1     -34.213  18.277   1.125  1.00 20.00     0.016 C 
HETATM    5  C5  UNL     1     -33.039  19.208   1.445  1.00 20.00     0.055 C 
HETATM    6  C6  UNL     1     -34.495  18.210  -0.384  1.00 20.00    -0.014 C 
HETATM    7  O11 UNL     1     -30.698  18.680   1.103  1.00 20.00    -0.298 OA
ENDROOT
BRANCH   5   8
HETATM    8  C9  UNL     1     -32.736  19.200   2.940  1.00 20.00     0.007 C 
HETATM    9  C7  UNL     1     -33.442  18.088   3.643  1.00 20.00     0.006 C 
ENDBRANCH   5   8
BRANCH   6  10
HETATM   10  C10 UNL     1     -35.673  17.278  -0.669  1.00 20.00     0.000 C 
HETATM   11  C8  UNL     1     -35.555  16.636  -2.012  1.00 20.00     0.005 C 
ENDBRANCH   6  10
TORSDOF 2
ENDMDL
MODEL 5
REMARK VINA RESULT:      -4.6     11.517     12.146
REMARK  2 active torsions:
REMARK  status: ('A' for Active; 'I' for Inactive)
REMARK    1  A    between atoms: C5_5  and  C9_9 
REMARK    2  A    between atoms: C6_6  and  C10_10 
ROOT
HETATM    1  C1  UNL     1     -37.136  14.866  -4.703  1.00 20.00     0.131 C 
HETATM    2  C2  UNL     1     -37.359  16.213  -4.052  1.00 20.00     0.079 C 
HETATM    3  C3  UNL     1     -36.271  16.497  -3.025  1.00 20.00     0.012 C 
HETATM    4  C4  UNL     1     -34.688  14.941  -4.216  1.00 20.00     0.016 C 
HETATM    5  C5  UNL     1     -35.746  14.625  -5.279  1.00 20.00     0.055 C 
HETATM    6  C6  UNL     1     -34.868  16.349  -3.629  1.00 20.00    -0.014 C 
HETATM    7  O11 UNL     1     -38.060  14.064  -4.830  1.00 20.00    -0.298 OA
ENDROOT
BRANCH   5   8
HETATM    8  C9  UNL     1     -35.587  13.198  -5.792  1.00 20.00     0.007 C 
HETATM    9  C7  UNL     1     -35.160  13.168  -7.223  1.00 20.00     0.006 C 
ENDBRANCH   5   8
BRANCH   6  10
HETATM   10  C10 UNL     1     -33.797  16.633  -2.577  1.00 20.00     0.000 C 
HETATM   11  C8  UNL     1     -34.391  17.174  -1.318  1.00 20.00     0.005 C 
ENDBRANCH   6  10
TORSDOF 2
ENDMDL
MODEL 6
REMARK VINA RESULT:      -4.6      1.461      2.652
REMARK  2 active torsions:
REMARK  status: ('A' for Active; 'I' for Inactive)
REMARK    1  A    between atoms: C5_5  and  C9_9 
REMARK    2  A    between atoms: C6_6  and  C10_10 
ROOT
HETATM    1  C1  UNL     1     -33.980   4.976   3.939  1.00 20.00     0.131 C 
HETATM    2  C2  UNL     1     -33.292   4.755   2.610  1.00 20.00     0.079 C 
HETATM    3  C3  UNL     1     -33.294   6.037   1.788  1.00 20.00     0.012 C 
HETATM    4  C4  UNL     1     -33.491   7.424   3.881  1.00 20.00     0.016 C 
HETATM    5  C5  UNL     1     -33.487   6.165   4.755  1.00 20.00     0.055 C 
HETATM    6  C6  UNL     1     -32.709   7.216   2.575  1.00 20.00    -0.014 C 
HETATM    7  O11 UNL     1     -34.818   4.180   4.358  1.00 20.00    -0.298 OA
ENDROOT
BRANCH   5   8
HETATM    8  C9  UNL     1     -34.328   6.376   6.010  1.00 20.00     0.007 C 
HETATM    9  C7  UNL     1     -34.034   7.688   6.660  1.00 20.00     0.006 C 
ENDBRANCH   5   8
BRANCH   6  10
HETATM   10  C10 UNL     1     -32.729   8.489   1.730  1.00 20.00     0.000 C 
HETATM   11  C8  UNL     1     -31.466   8.652   0.950  1.00 20.00     0.005 C 
ENDBRANCH   6  10
TORSDOF 2
ENDMDL
MODEL 7
REMARK VINA RESULT:      -4.5     11.432     12.185
REMARK  2 active torsions:
REMARK  status: ('A' for Active; 'I' for Inactive)
REMARK    1  A    between atoms: C5_5  and  C9_9 
REMARK    2  A    between atoms: C6_6  and  C10_10 
ROOT
HETATM    1  C1  UNL     1     -34.653  18.210  -0.005  1.00 20.00     0.131 C 
HETATM    2  C2  UNL     1     -35.563  17.130  -0.547  1.00 20.00     0.079 C 
HETATM    3  C3  UNL     1     -35.337  16.942  -2.042  1.00 20.00     0.012 C 
HETATM    4  C4  UNL     1     -32.999  17.857  -1.843  1.00 20.00     0.016 C 
HETATM    5  C5  UNL     1     -33.172  18.061  -0.334  1.00 20.00     0.055 C 
HETATM    6  C6  UNL     1     -33.858  16.696  -2.365  1.00 20.00    -0.014 C 
HETATM    7  O11 UNL     1     -35.088  19.094   0.731  1.00 20.00    -0.298 OA
ENDROOT
BRANCH   5   8
HETATM    8  C9  UNL     1     -32.363  19.263   0.146  1.00 20.00     0.007 C 
HETATM    9  C7  UNL     1     -31.345  18.874   1.166  1.00 20.00     0.006 C 
ENDBRANCH   5   8
BRANCH   6  10
HETATM   10  C10 UNL     1     -33.660  16.517  -3.870  1.00 20.00     0.000 C 
HETATM   11  C8  UNL     1     -33.495  15.079  -4.237  1.00 20.00     0.005 C 
ENDBRANCH   6  10
TORSDOF 2
ENDMDL
MODEL 8
REMARK VINA RESULT:      -4.5     11.633     12.291
REMARK  2 active torsions:
REMARK  status: ('A' for Active; 'I' for Inactive)
REMARK    1  A    between atoms: C5_5  and  C9_9 
REMARK    2  A    between atoms: C6_6  and  C10_10 
ROOT
HETATM    1  C1  UNL     1     -36.106  17.107  -2.454  1.00 20.00     0.131 C 
HETATM    2  C2  UNL     1     -36.550  16.168  -3.554  1.00 20.00     0.079 C 
HETATM    3  C3  UNL     1     -35.416  15.931  -4.543  1.00 20.00     0.012 C 
HETATM    4  C4  UNL     1     -33.708  16.491  -2.779  1.00 20.00     0.016 C 
HETATM    5  C5  UNL     1     -34.810  16.736  -1.743  1.00 20.00     0.055 C 
HETATM    6  C6  UNL     1     -34.136  15.464  -3.838  1.00 20.00    -0.014 C 
HETATM    7  O11 UNL     1     -36.810  18.055  -2.110  1.00 20.00    -0.298 OA
ENDROOT
BRANCH   5   8
HETATM    8  C9  UNL     1     -34.386  17.810  -0.746  1.00 20.00     0.007 C 
HETATM    9  C7  UNL     1     -32.970  18.234  -0.958  1.00 20.00     0.006 C 
ENDBRANCH   5   8
BRANCH   6  10
HETATM   10  C10 UNL     1     -33.015  15.239  -4.852  1.00 20.00     0.000 C 
HETATM   11  C8  UNL     1     -33.324  15.879  -6.165  1.00 20.00     0.005 C 
ENDBRANCH   6  10
TORSDOF 2
ENDMDL
MODEL 9
REMARK VINA RESULT:      -4.4     11.578     12.793
REMARK  2 active torsions:
REMARK  status: ('A' for Active; 'I' for Inactive)
REMARK    1  A    between atoms: C5_5  and  C9_9 
REMARK    2  A    between atoms: C6_6  and  C10_10 
ROOT
HETATM    1  C1  UNL     1     -33.660  17.102  -5.301  1.00 20.00     0.131 C 
HETATM    2  C2  UNL     1     -33.353  18.458  -4.706  1.00 20.00     0.079 C 
HETATM    3  C3  UNL     1     -33.930  18.568  -3.301  1.00 20.00     0.012 C 
HETATM    4  C4  UNL     1     -33.873  16.063  -3.040  1.00 20.00     0.016 C 
HETATM    5  C5  UNL     1     -33.285  15.897  -4.446  1.00 20.00     0.055 C 
HETATM    6  C6  UNL     1     -33.476  17.405  -2.409  1.00 20.00    -0.014 C 
HETATM    7  O11 UNL     1     -34.101  16.998  -6.445  1.00 20.00    -0.298 OA
ENDROOT
BRANCH   5   8
HETATM    8  C9  UNL     1     -33.752  14.589  -5.077  1.00 20.00     0.007 C 
HETATM    9  C7  UNL     1     -35.013  14.092  -4.450  1.00 20.00     0.006 C 
ENDBRANCH   5   8
BRANCH   6  10
HETATM   10  C10 UNL     1     -34.073  17.537  -1.008  1.00 20.00     0.000 C 
HETATM   11  C8  UNL     1     -35.488  17.062  -0.966  1.00 20.00     0.005 C 
ENDBRANCH   6  10
TORSDOF 2
ENDMDL
