MODEL 1
REMARK VINA RESULT:      -4.5      0.000      0.000
REMARK  0 active torsions:
REMARK  status: ('A' for Active; 'I' for Inactive)
ROOT
HETATM    1  C1  UNL     1     -33.423   7.793   4.054  1.00 20.00     0.050 C 
HETATM    2  C2  UNL     1     -32.842   7.166   3.015  1.00 20.00     0.003 C 
HETATM    3  C3  UNL     1     -33.867   7.088   5.293  1.00 20.00     0.027 C 
HETATM    4  C4  UNL     1     -33.979   3.877   4.069  1.00 20.00     0.056 A 
HETATM    5  C5  UNL     1     -34.802   5.126   4.271  1.00 20.00     0.133 A 
HETATM    6  C6  UNL     1     -33.926   4.986   3.063  1.00 20.00     0.108 A 
HETATM    7  C7  UNL     1     -32.211   7.989   1.920  1.00 20.00     0.068 C 
HETATM    8  C8  UNL     1     -33.615   7.842   6.582  1.00 20.00     0.070 C 
HETATM    9  N9  UNL     1     -34.442   5.938   5.423  1.00 20.00    -0.287 NA
HETATM   10  N10 UNL     1     -32.738   5.801   2.846  1.00 20.00    -0.387 N 
HETATM   11  H22 UNL     1     -32.056   5.495   2.159  1.00 20.00     0.159 HD
ENDROOT
TORSDOF 0
ENDMDL
MODEL 2
REMARK VINA RESULT:      -4.0     11.620     12.218
REMARK  0 active torsions:
REMARK  status: ('A' for Active; 'I' for Inactive)
ROOT
HETATM    1  C1  UNL     1     -34.097  15.772  -3.410  1.00 20.00     0.050 C 
HETATM    2  C2  UNL     1     -33.928  14.629  -4.100  1.00 20.00     0.003 C 
HETATM    3  C3  UNL     1     -35.427  16.249  -2.927  1.00 20.00     0.027 C 
HETATM    4  C4  UNL     1     -37.445  14.375  -4.983  1.00 20.00     0.056 A 
HETATM    5  C5  UNL     1     -36.729  15.698  -4.868  1.00 20.00     0.133 A 
HETATM    6  C6  UNL     1     -36.002  14.486  -5.368  1.00 20.00     0.108 A 
HETATM    7  C7  UNL     1     -32.531  14.110  -4.330  1.00 20.00     0.068 C 
HETATM    8  C8  UNL     1     -35.419  16.876  -1.548  1.00 20.00     0.070 C 
HETATM    9  N9  UNL     1     -36.575  16.215  -3.517  1.00 20.00    -0.287 NA
HETATM   10  N10 UNL     1     -34.932  13.839  -4.620  1.00 20.00    -0.387 N 
HETATM   11  H22 UNL     1     -34.659  12.896  -4.878  1.00 20.00     0.159 HD
ENDROOT
TORSDOF 0
ENDMDL
MODEL 3
REMARK VINA RESULT:      -3.9      1.487      2.569
REMARK  0 active torsions:
REMARK  status: ('A' for Active; 'I' for Inactive)
ROOT
HETATM    1  C1  UNL     1     -32.819   6.140   2.523  1.00 20.00     0.050 C 
HETATM    2  C2  UNL     1     -33.108   4.848   2.763  1.00 20.00     0.003 C 
HETATM    3  C3  UNL     1     -32.797   7.188   3.588  1.00 20.00     0.027 C 
HETATM    4  C4  UNL     1     -34.643   5.553   5.983  1.00 20.00     0.056 A 
HETATM    5  C5  UNL     1     -34.745   6.496   4.809  1.00 20.00     0.133 A 
HETATM    6  C6  UNL     1     -34.713   5.014   4.587  1.00 20.00     0.108 A 
HETATM    7  C7  UNL     1     -32.868   3.828   1.679  1.00 20.00     0.068 C 
HETATM    8  C8  UNL     1     -31.682   8.205   3.460  1.00 20.00     0.070 C 
HETATM    9  N9  UNL     1     -33.593   7.356   4.590  1.00 20.00    -0.287 NA
HETATM   10  N10 UNL     1     -33.597   4.333   3.945  1.00 20.00    -0.387 N 
HETATM   11  H22 UNL     1     -33.514   3.326   4.051  1.00 20.00     0.159 HD
ENDROOT
TORSDOF 0
ENDMDL
MODEL 4
REMARK VINA RESULT:      -3.9     12.106     13.846
REMARK  0 active torsions:
REMARK  status: ('A' for Active; 'I' for Inactive)
ROOT
HETATM    1  C1  UNL     1     -34.039  15.348  -7.362  1.00 20.00     0.050 C 
HETATM    2  C2  UNL     1     -34.074  16.619  -6.922  1.00 20.00     0.003 C 
HETATM    3  C3  UNL     1     -34.378  14.173  -6.504  1.00 20.00     0.027 C 
HETATM    4  C4  UNL     1     -34.030  15.649  -3.418  1.00 20.00     0.056 A 
HETATM    5  C5  UNL     1     -33.288  14.881  -4.485  1.00 20.00     0.133 A 
HETATM    6  C6  UNL     1     -33.431  16.369  -4.587  1.00 20.00     0.108 A 
HETATM    7  C7  UNL     1     -33.955  17.745  -7.918  1.00 20.00     0.068 C 
HETATM    8  C8  UNL     1     -35.164  13.081  -7.198  1.00 20.00     0.070 C 
HETATM    9  N9  UNL     1     -34.089  13.951  -5.265  1.00 20.00    -0.287 NA
HETATM   10  N10 UNL     1     -34.235  17.020  -5.612  1.00 20.00    -0.387 N 
HETATM   11  H22 UNL     1     -34.499  17.992  -5.481  1.00 20.00     0.159 HD
ENDROOT
TORSDOF 0
ENDMDL
MODEL 5
REMARK VINA RESULT:      -3.9     11.778     13.323
REMARK  0 active torsions:
REMARK  status: ('A' for Active; 'I' for Inactive)
ROOT
HETATM    1  C1  UNL     1     -33.440  16.698  -4.948  1.00 20.00     0.050 C 
HETATM    2  C2  UNL     1     -34.000  16.297  -3.792  1.00 20.00     0.003 C 
HETATM    3  C3  UNL     1     -33.968  16.312  -6.292  1.00 20.00     0.027 C 
HETATM    4  C4  UNL     1     -35.859  13.596  -5.362  1.00 20.00     0.056 A 
HETATM    5  C5  UNL     1     -34.484  14.014  -5.824  1.00 20.00     0.133 A 
HETATM    6  C6  UNL     1     -34.848  14.090  -4.372  1.00 20.00     0.108 A 
HETATM    7  C7  UNL     1     -33.549  16.931  -2.500  1.00 20.00     0.068 C 
HETATM    8  C8  UNL     1     -33.929  17.411  -7.333  1.00 20.00     0.070 C 
HETATM    9  N9  UNL     1     -34.440  15.179  -6.694  1.00 20.00    -0.287 NA
HETATM   10  N10 UNL     1     -34.993  15.350  -3.657  1.00 20.00    -0.387 N 
HETATM   11  H22 UNL     1     -35.481  15.351  -2.766  1.00 20.00     0.159 HD
ENDROOT
TORSDOF 0
ENDMDL
MODEL 6
REMARK VINA RESULT:      -3.8     12.246     12.918
REMARK  0 active torsions:
REMARK  status: ('A' for Active; 'I' for Inactive)
ROOT
HETATM    1  C1  UNL     1     -34.449  15.750  -3.376  1.00 20.00     0.050 C 
HETATM    2  C2  UNL     1     -35.563  16.292  -2.852  1.00 20.00     0.003 C 
HETATM    3  C3  UNL     1     -34.330  15.344  -4.809  1.00 20.00     0.027 C 
HETATM    4  C4  UNL     1     -37.673  15.175  -5.594  1.00 20.00     0.056 A 
HETATM    5  C5  UNL     1     -36.506  14.366  -5.083  1.00 20.00     0.133 A 
HETATM    6  C6  UNL     1     -37.318  15.199  -4.139  1.00 20.00     0.108 A 
HETATM    7  C7  UNL     1     -35.508  16.890  -1.469  1.00 20.00     0.068 C 
HETATM    8  C8  UNL     1     -32.990  15.643  -5.448  1.00 20.00     0.070 C 
HETATM    9  N9  UNL     1     -35.198  14.769  -5.574  1.00 20.00    -0.287 NA
HETATM   10  N10 UNL     1     -36.791  16.383  -3.473  1.00 20.00    -0.387 N 
HETATM   11  H22 UNL     1     -37.445  17.040  -3.058  1.00 20.00     0.159 HD
ENDROOT
TORSDOF 0
ENDMDL
MODEL 7
REMARK VINA RESULT:      -3.7     12.175     13.219
REMARK  0 active torsions:
REMARK  status: ('A' for Active; 'I' for Inactive)
ROOT
HETATM    1  C1  UNL     1     -36.293  16.170  -3.451  1.00 20.00     0.050 C 
HETATM    2  C2  UNL     1     -35.147  16.375  -2.777  1.00 20.00     0.003 C 
HETATM    3  C3  UNL     1     -36.358  15.447  -4.757  1.00 20.00     0.027 C 
HETATM    4  C4  UNL     1     -33.055  15.703  -5.674  1.00 20.00     0.056 A 
HETATM    5  C5  UNL     1     -34.398  16.383  -5.780  1.00 20.00     0.133 A 
HETATM    6  C6  UNL     1     -33.528  16.612  -4.581  1.00 20.00     0.108 A 
HETATM    7  C7  UNL     1     -35.209  16.894  -1.363  1.00 20.00     0.068 C 
HETATM    8  C8  UNL     1     -37.551  14.528  -4.920  1.00 20.00     0.070 C 
HETATM    9  N9  UNL     1     -35.553  15.500  -5.766  1.00 20.00    -0.287 NA
HETATM   10  N10 UNL     1     -33.873  16.134  -3.249  1.00 20.00    -0.387 N 
HETATM   11  H22 UNL     1     -33.145  16.092  -2.542  1.00 20.00     0.159 HD
ENDROOT
TORSDOF 0
ENDMDL
MODEL 8
REMARK VINA RESULT:      -3.6     12.119     13.008
REMARK  0 active torsions:
REMARK  status: ('A' for Active; 'I' for Inactive)
ROOT
HETATM    1  C1  UNL     1     -36.041  15.578  -4.500  1.00 20.00     0.050 C 
HETATM    2  C2  UNL     1     -34.786  15.105  -4.387  1.00 20.00     0.003 C 
HETATM    3  C3  UNL     1     -37.104  14.901  -5.301  1.00 20.00     0.027 C 
HETATM    4  C4  UNL     1     -35.104  12.926  -7.280  1.00 20.00     0.056 A 
HETATM    5  C5  UNL     1     -35.775  14.276  -7.201  1.00 20.00     0.133 A 
HETATM    6  C6  UNL     1     -34.439  14.057  -6.558  1.00 20.00     0.108 A 
HETATM    7  C7  UNL     1     -33.859  15.718  -3.369  1.00 20.00     0.068 C 
HETATM    8  C8  UNL     1     -38.483  14.917  -4.675  1.00 20.00     0.070 C 
HETATM    9  N9  UNL     1     -37.020  14.317  -6.450  1.00 20.00    -0.287 NA
HETATM   10  N10 UNL     1     -34.243  14.066  -5.114  1.00 20.00    -0.387 N 
HETATM   11  H22 UNL     1     -33.389  13.666  -4.735  1.00 20.00     0.159 HD
ENDROOT
TORSDOF 0
ENDMDL
MODEL 9
REMARK VINA RESULT:      -3.6     11.614     13.436
REMARK  0 active torsions:
REMARK  status: ('A' for Active; 'I' for Inactive)
ROOT
HETATM    1  C1  UNL     1     -35.728  15.737  -6.222  1.00 20.00     0.050 C 
HETATM    2  C2  UNL     1     -36.058  14.616  -5.555  1.00 20.00     0.003 C 
HETATM    3  C3  UNL     1     -34.319  16.115  -6.546  1.00 20.00     0.027 C 
HETATM    4  C4  UNL     1     -32.695  14.123  -4.262  1.00 20.00     0.056 A 
HETATM    5  C5  UNL     1     -33.297  15.493  -4.464  1.00 20.00     0.133 A 
HETATM    6  C6  UNL     1     -34.162  14.341  -4.051  1.00 20.00     0.108 A 
HETATM    7  C7  UNL     1     -37.505  14.199  -5.490  1.00 20.00     0.068 C 
HETATM    8  C8  UNL     1     -34.121  16.727  -7.917  1.00 20.00     0.070 C 
HETATM    9  N9  UNL     1     -33.254  16.005  -5.824  1.00 20.00    -0.287 NA
HETATM   10  N10 UNL     1     -35.180  13.763  -4.919  1.00 20.00    -0.387 N 
HETATM   11  H22 UNL     1     -35.549  12.844  -4.693  1.00 20.00     0.159 HD
ENDROOT
TORSDOF 0
ENDMDL
