MODEL 1
REMARK VINA RESULT:      -4.9      0.000      0.000
REMARK  0 active torsions:
REMARK  status: ('A' for Active; 'I' for Inactive)
ROOT
HETATM    1  C1  UNL     1     -33.164   4.896   2.546  1.00 20.00    -0.023 C 
HETATM    2  C2  UNL     1     -33.821   4.402   3.655  1.00 20.00    -0.013 C 
HETATM    3  C3  UNL     1     -34.020   6.686   5.267  1.00 20.00     0.140 C 
HETATM    4  C4  UNL     1     -33.226   7.937   4.809  1.00 20.00     0.088 C 
HETATM    5  C5  UNL     1     -32.756   6.061   3.393  1.00 20.00     0.035 C 
HETATM    6  C6  UNL     1     -34.240   5.838   3.988  1.00 20.00     0.042 C 
HETATM    7  C7  UNL     1     -32.678   7.578   3.364  1.00 20.00    -0.033 C 
HETATM    8  C8  UNL     1     -35.627   6.137   3.400  1.00 20.00     0.029 C 
HETATM    9  C9  UNL     1     -33.442   8.235   2.216  1.00 20.00     0.016 C 
HETATM   10  C10 UNL     1     -31.203   8.007   3.246  1.00 20.00     0.016 C 
HETATM   11  O11 UNL     1     -34.396   6.490   6.415  1.00 20.00    -0.297 OA
ENDROOT
TORSDOF 0
ENDMDL
MODEL 2
REMARK VINA RESULT:      -4.7     11.601     12.910
REMARK  0 active torsions:
REMARK  status: ('A' for Active; 'I' for Inactive)
ROOT
HETATM    1  C1  UNL     1     -34.293  13.977  -7.829  1.00 20.00    -0.023 C 
HETATM    2  C2  UNL     1     -35.579  13.475  -7.855  1.00 20.00    -0.013 C 
HETATM    3  C3  UNL     1     -36.531  14.206  -5.324  1.00 20.00     0.140 C 
HETATM    4  C4  UNL     1     -35.492  14.773  -4.321  1.00 20.00     0.088 C 
HETATM    5  C5  UNL     1     -34.423  14.041  -6.339  1.00 20.00     0.035 C 
HETATM    6  C6  UNL     1     -35.934  14.456  -6.732  1.00 20.00     0.042 C 
HETATM    7  C7  UNL     1     -34.163  14.971  -5.165  1.00 20.00    -0.033 C 
HETATM    8  C8  UNL     1     -36.514  15.751  -7.321  1.00 20.00     0.029 C 
HETATM    9  C9  UNL     1     -33.867  16.419  -5.551  1.00 20.00     0.016 C 
HETATM   10  C10 UNL     1     -32.956  14.448  -4.364  1.00 20.00     0.016 C 
HETATM   11  O11 UNL     1     -37.602  13.711  -5.000  1.00 20.00    -0.297 OA
ENDROOT
TORSDOF 0
ENDMDL
MODEL 3
REMARK VINA RESULT:      -4.6     11.576     12.646
REMARK  0 active torsions:
REMARK  status: ('A' for Active; 'I' for Inactive)
ROOT
HETATM    1  C1  UNL     1     -33.263  15.867  -4.121  1.00 20.00    -0.023 C 
HETATM    2  C2  UNL     1     -33.113  14.523  -4.396  1.00 20.00    -0.013 C 
HETATM    3  C3  UNL     1     -35.723  13.789  -5.108  1.00 20.00     0.140 C 
HETATM    4  C4  UNL     1     -36.837  14.840  -4.862  1.00 20.00     0.088 C 
HETATM    5  C5  UNL     1     -34.734  15.608  -4.006  1.00 20.00     0.035 C 
HETATM    6  C6  UNL     1     -34.404  14.596  -5.220  1.00 20.00     0.042 C 
HETATM    7  C7  UNL     1     -36.075  16.168  -4.450  1.00 20.00    -0.033 C 
HETATM    8  C8  UNL     1     -34.077  14.853  -6.699  1.00 20.00     0.029 C 
HETATM    9  C9  UNL     1     -35.992  17.220  -5.554  1.00 20.00     0.016 C 
HETATM   10  C10 UNL     1     -36.776  16.817  -3.242  1.00 20.00     0.016 C 
HETATM   11  O11 UNL     1     -35.921  12.587  -5.218  1.00 20.00    -0.297 OA
ENDROOT
TORSDOF 0
ENDMDL
MODEL 4
REMARK VINA RESULT:      -4.5     11.883     13.189
REMARK  0 active torsions:
REMARK  status: ('A' for Active; 'I' for Inactive)
ROOT
HETATM    1  C1  UNL     1     -33.765  15.572  -7.642  1.00 20.00    -0.023 C 
HETATM    2  C2  UNL     1     -34.200  14.276  -7.832  1.00 20.00    -0.013 C 
HETATM    3  C3  UNL     1     -35.569  13.773  -5.440  1.00 20.00     0.140 C 
HETATM    4  C4  UNL     1     -35.420  14.829  -4.312  1.00 20.00     0.088 C 
HETATM    5  C5  UNL     1     -34.017  15.368  -6.180  1.00 20.00     0.035 C 
HETATM    6  C6  UNL     1     -35.266  14.527  -6.761  1.00 20.00     0.042 C 
HETATM    7  C7  UNL     1     -34.656  16.048  -4.980  1.00 20.00    -0.033 C 
HETATM    8  C8  UNL     1     -36.581  14.978  -7.414  1.00 20.00     0.029 C 
HETATM    9  C9  UNL     1     -35.544  17.242  -5.322  1.00 20.00     0.016 C 
HETATM   10  C10 UNL     1     -33.548  16.548  -4.034  1.00 20.00     0.016 C 
HETATM   11  O11 UNL     1     -35.900  12.610  -5.255  1.00 20.00    -0.297 OA
ENDROOT
TORSDOF 0
ENDMDL
MODEL 5
REMARK VINA RESULT:      -4.4     11.578     13.149
REMARK  0 active torsions:
REMARK  status: ('A' for Active; 'I' for Inactive)
ROOT
HETATM    1  C1  UNL     1     -34.786  16.779  -3.883  1.00 20.00    -0.023 C 
HETATM    2  C2  UNL     1     -35.049  15.587  -3.239  1.00 20.00    -0.013 C 
HETATM    3  C3  UNL     1     -35.448  13.846  -5.398  1.00 20.00     0.140 C 
HETATM    4  C4  UNL     1     -35.545  14.488  -6.807  1.00 20.00     0.088 C 
HETATM    5  C5  UNL     1     -35.397  16.173  -5.107  1.00 20.00     0.035 C 
HETATM    6  C6  UNL     1     -34.658  14.859  -4.529  1.00 20.00     0.042 C 
HETATM    7  C7  UNL     1     -35.154  16.011  -6.599  1.00 20.00    -0.033 C 
HETATM    8  C8  UNL     1     -33.175  14.461  -4.487  1.00 20.00     0.029 C 
HETATM    9  C9  UNL     1     -33.742  16.371  -7.057  1.00 20.00     0.016 C 
HETATM   10  C10 UNL     1     -36.137  16.910  -7.372  1.00 20.00     0.016 C 
HETATM   11  O11 UNL     1     -35.894  12.744  -5.111  1.00 20.00    -0.297 OA
ENDROOT
TORSDOF 0
ENDMDL
MODEL 6
REMARK VINA RESULT:      -4.4     11.327     12.818
REMARK  0 active torsions:
REMARK  status: ('A' for Active; 'I' for Inactive)
ROOT
HETATM    1  C1  UNL     1     -36.515  16.835  -6.164  1.00 20.00    -0.023 C 
HETATM    2  C2  UNL     1     -36.820  15.671  -6.839  1.00 20.00    -0.013 C 
HETATM    3  C3  UNL     1     -35.629  13.731  -5.205  1.00 20.00     0.140 C 
HETATM    4  C4  UNL     1     -34.708  14.244  -4.067  1.00 20.00     0.088 C 
HETATM    5  C5  UNL     1     -35.457  16.058  -5.444  1.00 20.00     0.035 C 
HETATM    6  C6  UNL     1     -36.586  14.907  -5.532  1.00 20.00     0.042 C 
HETATM    7  C7  UNL     1     -34.904  15.818  -4.049  1.00 20.00    -0.033 C 
HETATM    8  C8  UNL     1     -37.911  14.722  -4.779  1.00 20.00     0.029 C 
HETATM    9  C9  UNL     1     -35.788  16.334  -2.916  1.00 20.00     0.016 C 
HETATM   10  C10 UNL     1     -33.534  16.510  -3.923  1.00 20.00     0.016 C 
HETATM   11  O11 UNL     1     -35.580  12.603  -5.676  1.00 20.00    -0.297 OA
ENDROOT
TORSDOF 0
ENDMDL
MODEL 7
REMARK VINA RESULT:      -4.3     11.488     12.632
REMARK  0 active torsions:
REMARK  status: ('A' for Active; 'I' for Inactive)
ROOT
HETATM    1  C1  UNL     1     -35.701  16.810  -2.952  1.00 20.00    -0.023 C 
HETATM    2  C2  UNL     1     -34.487  16.328  -2.508  1.00 20.00    -0.013 C 
HETATM    3  C3  UNL     1     -33.910  14.370  -4.428  1.00 20.00     0.140 C 
HETATM    4  C4  UNL     1     -35.043  14.013  -5.426  1.00 20.00     0.088 C 
HETATM    5  C5  UNL     1     -35.821  15.560  -3.767  1.00 20.00     0.035 C 
HETATM    6  C6  UNL     1     -34.232  15.801  -3.924  1.00 20.00     0.042 C 
HETATM    7  C7  UNL     1     -36.182  15.086  -5.165  1.00 20.00    -0.033 C 
HETATM    8  C8  UNL     1     -33.433  16.830  -4.738  1.00 20.00     0.029 C 
HETATM    9  C9  UNL     1     -36.261  16.194  -6.214  1.00 20.00     0.016 C 
HETATM   10  C10 UNL     1     -37.554  14.387  -5.123  1.00 20.00     0.016 C 
HETATM   11  O11 UNL     1     -32.965  13.638  -4.168  1.00 20.00    -0.297 OA
ENDROOT
TORSDOF 0
ENDMDL
MODEL 8
REMARK VINA RESULT:      -4.3     11.192     12.198
REMARK  0 active torsions:
REMARK  status: ('A' for Active; 'I' for Inactive)
ROOT
HETATM    1  C1  UNL     1     -35.910  13.765  -5.557  1.00 20.00    -0.023 C 
HETATM    2  C2  UNL     1     -36.884  14.332  -4.760  1.00 20.00    -0.013 C 
HETATM    3  C3  UNL     1     -35.391  16.150  -3.237  1.00 20.00     0.140 C 
HETATM    4  C4  UNL     1     -33.847  16.055  -3.350  1.00 20.00     0.088 C 
HETATM    5  C5  UNL     1     -34.903  14.290  -4.581  1.00 20.00     0.035 C 
HETATM    6  C6  UNL     1     -35.945  15.523  -4.543  1.00 20.00     0.042 C 
HETATM    7  C7  UNL     1     -33.576  15.029  -4.529  1.00 20.00    -0.033 C 
HETATM    8  C8  UNL     1     -36.248  16.632  -5.563  1.00 20.00     0.029 C 
HETATM    9  C9  UNL     1     -33.153  15.674  -5.846  1.00 20.00     0.016 C 
HETATM   10  C10 UNL     1     -32.466  14.044  -4.116  1.00 20.00     0.016 C 
HETATM   11  O11 UNL     1     -35.983  16.662  -2.298  1.00 20.00    -0.297 OA
ENDROOT
TORSDOF 0
ENDMDL
MODEL 9
REMARK VINA RESULT:      -4.3     11.901     13.149
REMARK  0 active torsions:
REMARK  status: ('A' for Active; 'I' for Inactive)
ROOT
HETATM    1  C1  UNL     1     -35.419  17.088  -6.095  1.00 20.00    -0.023 C 
HETATM    2  C2  UNL     1     -36.731  17.090  -5.668  1.00 20.00    -0.013 C 
HETATM    3  C3  UNL     1     -37.129  14.390  -5.028  1.00 20.00     0.140 C 
HETATM    4  C4  UNL     1     -36.011  13.399  -5.448  1.00 20.00     0.088 C 
HETATM    5  C5  UNL     1     -35.548  15.606  -6.263  1.00 20.00     0.035 C 
HETATM    6  C6  UNL     1     -36.443  15.777  -4.930  1.00 20.00     0.042 C 
HETATM    7  C7  UNL     1     -34.816  14.309  -5.958  1.00 20.00    -0.033 C 
HETATM    8  C8  UNL     1     -36.052  16.062  -3.472  1.00 20.00     0.029 C 
HETATM    9  C9  UNL     1     -33.659  14.447  -4.970  1.00 20.00     0.016 C 
HETATM   10  C10 UNL     1     -34.244  13.732  -7.266  1.00 20.00     0.016 C 
HETATM   11  O11 UNL     1     -38.286  14.067  -4.800  1.00 20.00    -0.297 OA
ENDROOT
TORSDOF 0
ENDMDL
