MODEL 1
REMARK VINA RESULT:      -4.9      0.000      0.000
REMARK  0 active torsions:
REMARK  status: ('A' for Active; 'I' for Inactive)
ROOT
HETATM    1  C1  UNL     1     -33.570   7.135   5.639  1.00 20.00    -0.023 C 
HETATM    2  C2  UNL     1     -34.283   6.002   5.497  1.00 20.00    -0.013 C 
HETATM    3  C3  UNL     1     -33.482   5.319   3.182  1.00 20.00     0.140 C 
HETATM    4  C4  UNL     1     -32.211   6.117   2.959  1.00 20.00     0.088 C 
HETATM    5  C5  UNL     1     -33.808   7.589   4.205  1.00 20.00     0.035 C 
HETATM    6  C6  UNL     1     -34.486   6.201   4.006  1.00 20.00     0.042 C 
HETATM    7  C7  UNL     1     -32.625   7.592   3.201  1.00 20.00    -0.033 C 
HETATM    8  C8  UNL     1     -35.916   6.190   3.505  1.00 20.00     0.029 C 
HETATM    9  C9  UNL     1     -31.455   8.418   3.742  1.00 20.00     0.016 C 
HETATM   10  C10 UNL     1     -33.110   8.219   1.880  1.00 20.00     0.016 C 
HETATM   11  O11 UNL     1     -33.615   4.160   2.804  1.00 20.00    -0.297 OA
ENDROOT
TORSDOF 0
ENDMDL
MODEL 2
REMARK VINA RESULT:      -4.9     11.017     12.260
REMARK  0 active torsions:
REMARK  status: ('A' for Active; 'I' for Inactive)
ROOT
HETATM    1  C1  UNL     1     -36.768  16.307  -3.746  1.00 20.00    -0.023 C 
HETATM    2  C2  UNL     1     -37.482  15.366  -4.393  1.00 20.00    -0.013 C 
HETATM    3  C3  UNL     1     -35.589  13.776  -4.990  1.00 20.00     0.140 C 
HETATM    4  C4  UNL     1     -34.446  14.169  -4.073  1.00 20.00     0.088 C 
HETATM    5  C5  UNL     1     -35.621  16.276  -4.747  1.00 20.00     0.035 C 
HETATM    6  C6  UNL     1     -36.375  15.075  -5.391  1.00 20.00     0.042 C 
HETATM    7  C7  UNL     1     -34.251  15.689  -4.317  1.00 20.00    -0.033 C 
HETATM    8  C8  UNL     1     -36.735  15.186  -6.859  1.00 20.00     0.029 C 
HETATM    9  C9  UNL     1     -33.727  16.392  -3.061  1.00 20.00     0.016 C 
HETATM   10  C10 UNL     1     -33.247  15.905  -5.465  1.00 20.00     0.016 C 
HETATM   11  O11 UNL     1     -35.836  12.612  -5.285  1.00 20.00    -0.297 OA
ENDROOT
TORSDOF 0
ENDMDL
MODEL 3
REMARK VINA RESULT:      -4.7     11.090     12.583
REMARK  0 active torsions:
REMARK  status: ('A' for Active; 'I' for Inactive)
ROOT
HETATM    1  C1  UNL     1     -35.138  16.663  -6.097  1.00 20.00    -0.023 C 
HETATM    2  C2  UNL     1     -35.821  15.727  -6.781  1.00 20.00    -0.013 C 
HETATM    3  C3  UNL     1     -35.350  13.725  -5.286  1.00 20.00     0.140 C 
HETATM    4  C4  UNL     1     -34.880  14.321  -3.972  1.00 20.00     0.088 C 
HETATM    5  C5  UNL     1     -33.956  15.747  -5.813  1.00 20.00     0.035 C 
HETATM    6  C6  UNL     1     -34.826  14.626  -6.459  1.00 20.00     0.042 C 
HETATM    7  C7  UNL     1     -33.705  15.255  -4.363  1.00 20.00    -0.033 C 
HETATM    8  C8  UNL     1     -34.233  13.878  -7.635  1.00 20.00     0.029 C 
HETATM    9  C9  UNL     1     -33.590  16.440  -3.399  1.00 20.00     0.016 C 
HETATM   10  C10 UNL     1     -32.383  14.464  -4.340  1.00 20.00     0.016 C 
HETATM   11  O11 UNL     1     -36.066  12.731  -5.348  1.00 20.00    -0.297 OA
ENDROOT
TORSDOF 0
ENDMDL
MODEL 4
REMARK VINA RESULT:      -4.4     11.123     12.580
REMARK  0 active torsions:
REMARK  status: ('A' for Active; 'I' for Inactive)
ROOT
HETATM    1  C1  UNL     1     -33.891  16.543  -6.181  1.00 20.00    -0.023 C 
HETATM    2  C2  UNL     1     -33.574  15.255  -6.412  1.00 20.00    -0.013 C 
HETATM    3  C3  UNL     1     -35.175  14.155  -4.771  1.00 20.00     0.140 C 
HETATM    4  C4  UNL     1     -36.200  15.225  -4.449  1.00 20.00     0.088 C 
HETATM    5  C5  UNL     1     -33.979  16.361  -4.672  1.00 20.00     0.035 C 
HETATM    6  C6  UNL     1     -33.777  14.844  -4.965  1.00 20.00     0.042 C 
HETATM    7  C7  UNL     1     -35.363  16.442  -3.974  1.00 20.00    -0.033 C 
HETATM    8  C8  UNL     1     -32.615  14.153  -4.282  1.00 20.00     0.029 C 
HETATM    9  C9  UNL     1     -36.062  17.763  -4.305  1.00 20.00     0.016 C 
HETATM   10  C10 UNL     1     -35.145  16.360  -2.451  1.00 20.00     0.016 C 
HETATM   11  O11 UNL     1     -35.466  12.970  -4.898  1.00 20.00    -0.297 OA
ENDROOT
TORSDOF 0
ENDMDL
MODEL 5
REMARK VINA RESULT:      -4.4     11.534     12.534
REMARK  0 active torsions:
REMARK  status: ('A' for Active; 'I' for Inactive)
ROOT
HETATM    1  C1  UNL     1     -34.857  16.186  -2.841  1.00 20.00    -0.023 C 
HETATM    2  C2  UNL     1     -33.634  16.455  -3.336  1.00 20.00    -0.013 C 
HETATM    3  C3  UNL     1     -34.051  15.848  -5.770  1.00 20.00     0.140 C 
HETATM    4  C4  UNL     1     -35.561  15.835  -5.915  1.00 20.00     0.088 C 
HETATM    5  C5  UNL     1     -35.020  14.908  -3.652  1.00 20.00     0.035 C 
HETATM    6  C6  UNL     1     -33.683  15.317  -4.339  1.00 20.00     0.042 C 
HETATM    7  C7  UNL     1     -36.054  14.866  -4.808  1.00 20.00    -0.033 C 
HETATM    8  C8  UNL     1     -32.544  14.319  -4.293  1.00 20.00     0.029 C 
HETATM    9  C9  UNL     1     -37.447  15.256  -4.306  1.00 20.00     0.016 C 
HETATM   10  C10 UNL     1     -36.107  13.429  -5.361  1.00 20.00     0.016 C 
HETATM   11  O11 UNL     1     -33.302  16.269  -6.644  1.00 20.00    -0.297 OA
ENDROOT
TORSDOF 0
ENDMDL
MODEL 6
REMARK VINA RESULT:      -4.4     11.348     12.329
REMARK  0 active torsions:
REMARK  status: ('A' for Active; 'I' for Inactive)
ROOT
HETATM    1  C1  UNL     1     -34.969  16.326  -3.019  1.00 20.00    -0.023 C 
HETATM    2  C2  UNL     1     -36.311  16.386  -3.097  1.00 20.00    -0.013 C 
HETATM    3  C3  UNL     1     -36.691  14.518  -4.781  1.00 20.00     0.140 C 
HETATM    4  C4  UNL     1     -35.402  13.717  -4.772  1.00 20.00     0.088 C 
HETATM    5  C5  UNL     1     -34.783  16.130  -4.517  1.00 20.00     0.035 C 
HETATM    6  C6  UNL     1     -36.337  16.033  -4.574  1.00 20.00     0.042 C 
HETATM    7  C7  UNL     1     -34.288  14.760  -5.051  1.00 20.00    -0.033 C 
HETATM    8  C8  UNL     1     -37.061  16.998  -5.492  1.00 20.00     0.029 C 
HETATM    9  C9  UNL     1     -32.970  14.360  -4.384  1.00 20.00     0.016 C 
HETATM   10  C10 UNL     1     -34.062  14.883  -6.570  1.00 20.00     0.016 C 
HETATM   11  O11 UNL     1     -37.797  13.998  -4.882  1.00 20.00    -0.297 OA
ENDROOT
TORSDOF 0
ENDMDL
MODEL 7
REMARK VINA RESULT:      -4.3     11.130     12.811
REMARK  0 active torsions:
REMARK  status: ('A' for Active; 'I' for Inactive)
ROOT
HETATM    1  C1  UNL     1     -33.668  14.590  -4.809  1.00 20.00    -0.023 C 
HETATM    2  C2  UNL     1     -34.606  14.377  -3.866  1.00 20.00    -0.013 C 
HETATM    3  C3  UNL     1     -36.645  14.196  -5.375  1.00 20.00     0.140 C 
HETATM    4  C4  UNL     1     -36.084  13.941  -6.761  1.00 20.00     0.088 C 
HETATM    5  C5  UNL     1     -34.540  15.544  -5.612  1.00 20.00     0.035 C 
HETATM    6  C6  UNL     1     -35.671  15.162  -4.611  1.00 20.00     0.042 C 
HETATM    7  C7  UNL     1     -35.080  15.100  -6.997  1.00 20.00    -0.033 C 
HETATM    8  C8  UNL     1     -36.341  16.290  -3.854  1.00 20.00     0.029 C 
HETATM    9  C9  UNL     1     -33.933  14.666  -7.914  1.00 20.00     0.016 C 
HETATM   10  C10 UNL     1     -35.809  16.295  -7.641  1.00 20.00     0.016 C 
HETATM   11  O11 UNL     1     -37.668  13.660  -4.962  1.00 20.00    -0.297 OA
ENDROOT
TORSDOF 0
ENDMDL
MODEL 8
REMARK VINA RESULT:      -4.3     11.373     12.416
REMARK  0 active torsions:
REMARK  status: ('A' for Active; 'I' for Inactive)
ROOT
HETATM    1  C1  UNL     1     -36.842  14.378  -4.976  1.00 20.00    -0.023 C 
HETATM    2  C2  UNL     1     -36.001  13.373  -5.287  1.00 20.00    -0.013 C 
HETATM    3  C3  UNL     1     -33.827  14.417  -4.481  1.00 20.00     0.140 C 
HETATM    4  C4  UNL     1     -34.253  15.547  -3.562  1.00 20.00     0.088 C 
HETATM    5  C5  UNL     1     -35.891  15.465  -5.456  1.00 20.00     0.035 C 
HETATM    6  C6  UNL     1     -34.864  14.309  -5.655  1.00 20.00     0.042 C 
HETATM    7  C7  UNL     1     -35.222  16.405  -4.418  1.00 20.00    -0.033 C 
HETATM    8  C8  UNL     1     -34.263  14.142  -7.035  1.00 20.00     0.029 C 
HETATM    9  C9  UNL     1     -36.278  17.090  -3.546  1.00 20.00     0.016 C 
HETATM   10  C10 UNL     1     -34.427  17.482  -5.179  1.00 20.00     0.016 C 
HETATM   11  O11 UNL     1     -32.852  13.708  -4.255  1.00 20.00    -0.297 OA
ENDROOT
TORSDOF 0
ENDMDL
MODEL 9
REMARK VINA RESULT:      -4.3     11.331     12.974
REMARK  0 active torsions:
REMARK  status: ('A' for Active; 'I' for Inactive)
ROOT
HETATM    1  C1  UNL     1     -34.589  16.169  -6.902  1.00 20.00    -0.023 C 
HETATM    2  C2  UNL     1     -34.068  14.929  -6.852  1.00 20.00    -0.013 C 
HETATM    3  C3  UNL     1     -35.742  13.861  -5.263  1.00 20.00     0.140 C 
HETATM    4  C4  UNL     1     -36.942  14.790  -5.279  1.00 20.00     0.088 C 
HETATM    5  C5  UNL     1     -34.888  16.219  -5.410  1.00 20.00     0.035 C 
HETATM    6  C6  UNL     1     -34.439  14.726  -5.393  1.00 20.00     0.042 C 
HETATM    7  C7  UNL     1     -36.362  16.186  -4.927  1.00 20.00    -0.033 C 
HETATM    8  C8  UNL     1     -33.315  14.349  -4.450  1.00 20.00     0.029 C 
HETATM    9  C9  UNL     1     -37.174  17.307  -5.581  1.00 20.00     0.016 C 
HETATM   10  C10 UNL     1     -36.378  16.384  -3.399  1.00 20.00     0.016 C 
HETATM   11  O11 UNL     1     -35.847  12.640  -5.211  1.00 20.00    -0.297 OA
ENDROOT
TORSDOF 0
ENDMDL
