MODEL 1
REMARK VINA RESULT:      -5.7      0.000      0.000
REMARK  1 active torsions:
REMARK  status: ('A' for Active; 'I' for Inactive)
REMARK    1  A    between atoms: C10_10  and  O12_12 
ROOT
HETATM    1  C1  UNL     1     -33.633   4.374   5.539  1.00 20.00     0.011 A 
HETATM    2  C2  UNL     1     -33.275   7.612   6.206  1.00 20.00     0.013 A 
HETATM    3  C3  UNL     1     -32.920   4.853   2.326  1.00 20.00     0.013 A 
HETATM    4  C4  UNL     1     -34.702   5.429   5.625  1.00 20.00    -0.005 A 
HETATM    5  C5  UNL     1     -34.589   4.551   4.390  1.00 20.00    -0.005 A 
HETATM    6  C6  UNL     1     -34.479   6.937   5.595  1.00 20.00    -0.003 A 
HETATM    7  C7  UNL     1     -34.242   5.099   3.010  1.00 20.00    -0.003 A 
HETATM    8  C8  UNL     1     -33.494   7.685   4.721  1.00 20.00     0.020 A 
HETATM    9  C9  UNL     1     -33.312   6.254   2.707  1.00 20.00     0.020 A 
HETATM   10  C10 UNL     1     -32.562   6.978   3.785  1.00 20.00     0.129 C 
ENDROOT
BRANCH  10  11
HETATM   11  O12 UNL     1     -31.707   7.953   3.182  1.00 20.00    -0.390 OA
HETATM   12  C11 UNL     1     -32.292   8.492   2.008  1.00 20.00     0.202 C 
ENDBRANCH  10  11
TORSDOF 1
ENDMDL
MODEL 2
REMARK VINA RESULT:      -5.0     11.860     13.348
REMARK  1 active torsions:
REMARK  status: ('A' for Active; 'I' for Inactive)
REMARK    1  A    between atoms: C10_10  and  O12_12 
ROOT
HETATM    1  C1  UNL     1     -33.864  16.372  -6.670  1.00 20.00     0.011 A 
HETATM    2  C2  UNL     1     -34.614  15.495  -3.550  1.00 20.00     0.013 A 
HETATM    3  C3  UNL     1     -35.805  13.976  -7.918  1.00 20.00     0.013 A 
HETATM    4  C4  UNL     1     -33.085  15.479  -5.742  1.00 20.00    -0.005 A 
HETATM    5  C5  UNL     1     -33.464  14.996  -7.131  1.00 20.00    -0.005 A 
HETATM    6  C6  UNL     1     -33.612  14.833  -4.465  1.00 20.00    -0.003 A 
HETATM    7  C7  UNL     1     -34.405  13.821  -7.375  1.00 20.00    -0.003 A 
HETATM    8  C8  UNL     1     -34.984  14.224  -4.264  1.00 20.00     0.020 A 
HETATM    9  C9  UNL     1     -35.600  13.434  -6.529  1.00 20.00     0.020 A 
HETATM   10  C10 UNL     1     -36.027  14.238  -5.338  1.00 20.00     0.129 C 
ENDROOT
BRANCH  10  11
HETATM   11  O12 UNL     1     -37.228  13.674  -4.803  1.00 20.00    -0.390 OA
HETATM   12  C11 UNL     1     -38.340  14.523  -5.032  1.00 20.00     0.202 C 
ENDBRANCH  10  11
TORSDOF 1
ENDMDL
MODEL 3
REMARK VINA RESULT:      -4.9      0.921      2.840
REMARK  1 active torsions:
REMARK  status: ('A' for Active; 'I' for Inactive)
REMARK    1  A    between atoms: C10_10  and  O12_12 
ROOT
HETATM    1  C1  UNL     1     -35.505   5.027   4.604  1.00 20.00     0.011 A 
HETATM    2  C2  UNL     1     -33.671   5.251   1.838  1.00 20.00     0.013 A 
HETATM    3  C3  UNL     1     -34.074   7.738   5.894  1.00 20.00     0.013 A 
HETATM    4  C4  UNL     1     -34.222   4.310   4.277  1.00 20.00    -0.005 A 
HETATM    5  C5  UNL     1     -34.350   5.101   5.568  1.00 20.00    -0.005 A 
HETATM    6  C6  UNL     1     -33.244   4.681   3.169  1.00 20.00    -0.003 A 
HETATM    7  C7  UNL     1     -33.512   6.338   5.871  1.00 20.00    -0.003 A 
HETATM    8  C8  UNL     1     -32.827   6.081   2.766  1.00 20.00     0.020 A 
HETATM    9  C9  UNL     1     -33.035   7.370   4.870  1.00 20.00     0.020 A 
HETATM   10  C10 UNL     1     -33.400   7.301   3.418  1.00 20.00     0.129 C 
ENDROOT
BRANCH  10  11
HETATM   11  O12 UNL     1     -32.876   8.453   2.752  1.00 20.00    -0.390 OA
HETATM   12  C11 UNL     1     -31.461   8.489   2.827  1.00 20.00     0.202 C 
ENDBRANCH  10  11
TORSDOF 1
ENDMDL
MODEL 4
REMARK VINA RESULT:      -4.7     11.860     12.928
REMARK  1 active torsions:
REMARK  status: ('A' for Active; 'I' for Inactive)
REMARK    1  A    between atoms: C10_10  and  O12_12 
ROOT
HETATM    1  C1  UNL     1     -34.816  16.288  -2.485  1.00 20.00     0.011 A 
HETATM    2  C2  UNL     1     -32.803  14.364  -4.303  1.00 20.00     0.013 A 
HETATM    3  C3  UNL     1     -37.458  15.425  -4.311  1.00 20.00     0.013 A 
HETATM    4  C4  UNL     1     -33.944  16.689  -3.644  1.00 20.00    -0.005 A 
HETATM    5  C5  UNL     1     -35.425  17.026  -3.647  1.00 20.00    -0.005 A 
HETATM    6  C6  UNL     1     -33.306  15.743  -4.655  1.00 20.00    -0.003 A 
HETATM    7  C7  UNL     1     -36.407  16.450  -4.661  1.00 20.00    -0.003 A 
HETATM    8  C8  UNL     1     -33.945  14.515  -5.269  1.00 20.00     0.020 A 
HETATM    9  C9  UNL     1     -36.360  15.066  -5.275  1.00 20.00     0.020 A 
HETATM   10  C10 UNL     1     -35.320  14.058  -4.888  1.00 20.00     0.129 C 
ENDROOT
BRANCH  10  11
HETATM   11  O12 UNL     1     -35.589  12.829  -5.570  1.00 20.00    -0.390 OA
HETATM   12  C11 UNL     1     -35.286  12.932  -6.951  1.00 20.00     0.202 C 
ENDBRANCH  10  11
TORSDOF 1
ENDMDL
MODEL 5
REMARK VINA RESULT:      -4.6     12.299     13.464
REMARK  1 active torsions:
REMARK  status: ('A' for Active; 'I' for Inactive)
REMARK    1  A    between atoms: C10_10  and  O12_12 
ROOT
HETATM    1  C1  UNL     1     -32.959  14.879  -4.629  1.00 20.00     0.011 A 
HETATM    2  C2  UNL     1     -34.787  13.439  -7.006  1.00 20.00     0.013 A 
HETATM    3  C3  UNL     1     -35.681  15.929  -3.031  1.00 20.00     0.013 A 
HETATM    4  C4  UNL     1     -33.340  15.435  -5.975  1.00 20.00    -0.005 A 
HETATM    5  C5  UNL     1     -33.624  16.227  -4.710  1.00 20.00    -0.005 A 
HETATM    6  C6  UNL     1     -34.439  14.903  -6.887  1.00 20.00    -0.003 A 
HETATM    7  C7  UNL     1     -35.035  16.562  -4.239  1.00 20.00    -0.003 A 
HETATM    8  C8  UNL     1     -35.803  14.402  -6.457  1.00 20.00     0.020 A 
HETATM    9  C9  UNL     1     -36.267  15.695  -4.397  1.00 20.00     0.020 A 
HETATM   10  C10 UNL     1     -36.208  14.332  -5.017  1.00 20.00     0.129 C 
ENDROOT
BRANCH  10  11
HETATM   11  O12 UNL     1     -37.505  13.733  -4.946  1.00 20.00    -0.390 OA
HETATM   12  C11 UNL     1     -38.524  14.685  -5.201  1.00 20.00     0.202 C 
ENDBRANCH  10  11
TORSDOF 1
ENDMDL
MODEL 6
REMARK VINA RESULT:      -4.5     11.737     13.096
REMARK  1 active torsions:
REMARK  status: ('A' for Active; 'I' for Inactive)
REMARK    1  A    between atoms: C10_10  and  O12_12 
ROOT
HETATM    1  C1  UNL     1     -35.574  17.370  -4.958  1.00 20.00     0.011 A 
HETATM    2  C2  UNL     1     -37.910  15.116  -5.682  1.00 20.00     0.013 A 
HETATM    3  C3  UNL     1     -33.326  14.995  -4.351  1.00 20.00     0.013 A 
HETATM    4  C4  UNL     1     -36.642  16.814  -4.055  1.00 20.00    -0.005 A 
HETATM    5  C5  UNL     1     -35.184  16.775  -3.631  1.00 20.00    -0.005 A 
HETATM    6  C6  UNL     1     -37.467  15.557  -4.309  1.00 20.00    -0.003 A 
HETATM    7  C7  UNL     1     -34.413  15.476  -3.422  1.00 20.00    -0.003 A 
HETATM    8  C8  UNL     1     -36.965  14.253  -4.893  1.00 20.00     0.020 A 
HETATM    9  C9  UNL     1     -34.588  14.190  -4.201  1.00 20.00     0.020 A 
HETATM   10  C10 UNL     1     -35.548  14.076  -5.346  1.00 20.00     0.129 C 
ENDROOT
BRANCH  10  11
HETATM   11  O12 UNL     1     -35.423  12.775  -5.929  1.00 20.00    -0.390 OA
HETATM   12  C11 UNL     1     -35.164  12.859  -7.320  1.00 20.00     0.202 C 
ENDBRANCH  10  11
TORSDOF 1
ENDMDL
MODEL 7
REMARK VINA RESULT:      -4.2     12.026     12.950
REMARK  1 active torsions:
REMARK  status: ('A' for Active; 'I' for Inactive)
REMARK    1  A    between atoms: C10_10  and  O12_12 
ROOT
HETATM    1  C1  UNL     1     -33.292  15.743  -4.919  1.00 20.00     0.011 A 
HETATM    2  C2  UNL     1     -35.393  17.688  -3.227  1.00 20.00     0.013 A 
HETATM    3  C3  UNL     1     -35.784  13.832  -6.016  1.00 20.00     0.013 A 
HETATM    4  C4  UNL     1     -33.661  15.667  -3.462  1.00 20.00    -0.005 A 
HETATM    5  C5  UNL     1     -33.785  14.440  -4.350  1.00 20.00    -0.005 A 
HETATM    6  C6  UNL     1     -34.860  16.341  -2.804  1.00 20.00    -0.003 A 
HETATM    7  C7  UNL     1     -35.120  13.772  -4.662  1.00 20.00    -0.003 A 
HETATM    8  C8  UNL     1     -36.254  16.466  -3.383  1.00 20.00     0.020 A 
HETATM    9  C9  UNL     1     -36.457  14.464  -4.828  1.00 20.00     0.020 A 
HETATM   10  C10 UNL     1     -36.598  15.954  -4.748  1.00 20.00     0.129 C 
ENDROOT
BRANCH  10  11
HETATM   11  O12 UNL     1     -37.955  16.308  -5.030  1.00 20.00    -0.390 OA
HETATM   12  C11 UNL     1     -38.854  15.339  -4.517  1.00 20.00     0.202 C 
ENDBRANCH  10  11
TORSDOF 1
ENDMDL
MODEL 8
REMARK VINA RESULT:      -4.2     11.982     13.712
REMARK  1 active torsions:
REMARK  status: ('A' for Active; 'I' for Inactive)
REMARK    1  A    between atoms: C10_10  and  O12_12 
ROOT
HETATM    1  C1  UNL     1     -36.386  14.225  -5.482  1.00 20.00     0.011 A 
HETATM    2  C2  UNL     1     -34.673  15.708  -7.917  1.00 20.00     0.013 A 
HETATM    3  C3  UNL     1     -34.657  15.840  -3.144  1.00 20.00     0.013 A 
HETATM    4  C4  UNL     1     -35.191  13.701  -6.232  1.00 20.00    -0.005 A 
HETATM    5  C5  UNL     1     -35.185  13.743  -4.713  1.00 20.00    -0.005 A 
HETATM    6  C6  UNL     1     -34.236  14.525  -7.089  1.00 20.00    -0.003 A 
HETATM    7  C7  UNL     1     -34.226  14.613  -3.908  1.00 20.00    -0.003 A 
HETATM    8  C8  UNL     1     -33.715  15.913  -6.777  1.00 20.00     0.020 A 
HETATM    9  C9  UNL     1     -33.705  15.980  -4.301  1.00 20.00     0.020 A 
HETATM   10  C10 UNL     1     -34.145  16.669  -5.557  1.00 20.00     0.129 C 
ENDROOT
BRANCH  10  11
HETATM   11  O12 UNL     1     -33.550  17.970  -5.605  1.00 20.00    -0.390 OA
HETATM   12  C11 UNL     1     -34.484  18.974  -5.247  1.00 20.00     0.202 C 
ENDBRANCH  10  11
TORSDOF 1
ENDMDL
MODEL 9
REMARK VINA RESULT:      -4.1     11.657     12.882
REMARK  1 active torsions:
REMARK  status: ('A' for Active; 'I' for Inactive)
REMARK    1  A    between atoms: C10_10  and  O12_12 
ROOT
HETATM    1  C1  UNL     1     -36.039  14.503  -6.321  1.00 20.00     0.011 A 
HETATM    2  C2  UNL     1     -33.247  14.727  -4.528  1.00 20.00     0.013 A 
HETATM    3  C3  UNL     1     -37.526  16.845  -4.485  1.00 20.00     0.013 A 
HETATM    4  C4  UNL     1     -35.605  13.644  -5.163  1.00 20.00    -0.005 A 
HETATM    5  C5  UNL     1     -36.967  14.318  -5.149  1.00 20.00    -0.005 A 
HETATM    6  C6  UNL     1     -34.504  13.977  -4.163  1.00 20.00    -0.003 A 
HETATM    7  C7  UNL     1     -37.355  15.387  -4.134  1.00 20.00    -0.003 A 
HETATM    8  C8  UNL     1     -34.219  15.334  -3.555  1.00 20.00     0.020 A 
HETATM    9  C9  UNL     1     -36.439  16.432  -3.531  1.00 20.00     0.020 A 
HETATM   10  C10 UNL     1     -35.000  16.556  -3.931  1.00 20.00     0.129 C 
ENDROOT
BRANCH  10  11
HETATM   11  O12 UNL     1     -34.426  17.680  -3.257  1.00 20.00    -0.390 OA
HETATM   12  C11 UNL     1     -33.899  17.307  -1.995  1.00 20.00     0.202 C 
ENDBRANCH  10  11
TORSDOF 1
ENDMDL
