MODEL 1
REMARK VINA RESULT:      -5.2      0.000      0.000
REMARK  0 active torsions:
REMARK  status: ('A' for Active; 'I' for Inactive)
ROOT
HETATM    1  C1  UNL     1     -35.987  15.004  -4.513  1.00 20.00     0.052 A 
HETATM    2  C2  UNL     1     -33.218  15.065  -4.180  1.00 20.00     0.126 A 
HETATM    3  C3  UNL     1     -35.401  15.860  -3.611  1.00 20.00    -0.043 A 
HETATM    4  C4  UNL     1     -34.012  15.899  -3.439  1.00 20.00    -0.028 A 
HETATM    5  C5  UNL     1     -35.106  14.192  -5.215  1.00 20.00     0.126 A 
HETATM    6  C6  UNL     1     -34.964  16.755  -1.531  1.00 20.00     0.020 C 
HETATM    7  C7  UNL     1     -35.593  18.289  -3.252  1.00 20.00     0.030 C 
HETATM    8  C8  UNL     1     -35.979  16.902  -2.686  1.00 20.00     0.021 C 
HETATM    9  C9  UNL     1     -33.717  16.966  -2.419  1.00 20.00     0.040 C 
HETATM   10  C10 UNL     1     -34.057  18.360  -3.000  1.00 20.00     0.091 C 
HETATM   11  N11 UNL     1     -33.747  14.197  -5.073  1.00 20.00    -0.248 NA
HETATM   12 CL12 UNL     1     -35.691  13.067  -6.375  1.00 20.00    -0.062 Cl
HETATM   13 CL13 UNL     1     -33.136  18.767  -4.461  1.00 20.00    -0.124 Cl
ENDROOT
TORSDOF 0
ENDMDL
MODEL 2
REMARK VINA RESULT:      -5.0      2.865      4.647
REMARK  0 active torsions:
REMARK  status: ('A' for Active; 'I' for Inactive)
ROOT
HETATM    1  C1  UNL     1     -32.929  17.772  -1.607  1.00 20.00     0.052 A 
HETATM    2  C2  UNL     1     -35.532  17.167  -0.811  1.00 20.00     0.126 A 
HETATM    3  C3  UNL     1     -33.771  17.059  -2.425  1.00 20.00    -0.043 A 
HETATM    4  C4  UNL     1     -35.080  16.753  -2.035  1.00 20.00    -0.028 A 
HETATM    5  C5  UNL     1     -33.468  18.145  -0.383  1.00 20.00     0.126 A 
HETATM    6  C6  UNL     1     -34.475  15.240  -3.655  1.00 20.00     0.020 C 
HETATM    7  C7  UNL     1     -34.455  17.352  -4.774  1.00 20.00     0.030 C 
HETATM    8  C8  UNL     1     -33.593  16.497  -3.814  1.00 20.00     0.021 C 
HETATM    9  C9  UNL     1     -35.726  16.011  -3.176  1.00 20.00     0.040 C 
HETATM   10  C10 UNL     1     -35.912  16.961  -4.384  1.00 20.00     0.091 C 
HETATM   11  N11 UNL     1     -34.738  17.862   0.036  1.00 20.00    -0.248 NA
HETATM   12 CL12 UNL     1     -32.533  19.038   0.749  1.00 20.00    -0.062 Cl
HETATM   13 CL13 UNL     1     -36.934  18.368  -4.033  1.00 20.00    -0.124 Cl
ENDROOT
TORSDOF 0
ENDMDL
MODEL 3
REMARK VINA RESULT:      -4.9      2.330      3.248
REMARK  0 active torsions:
REMARK  status: ('A' for Active; 'I' for Inactive)
ROOT
HETATM    1  C1  UNL     1     -37.047  16.213  -4.289  1.00 20.00     0.052 A 
HETATM    2  C2  UNL     1     -36.190  13.674  -5.062  1.00 20.00     0.126 A 
HETATM    3  C3  UNL     1     -35.711  15.899  -4.328  1.00 20.00    -0.043 A 
HETATM    4  C4  UNL     1     -35.271  14.628  -4.717  1.00 20.00    -0.028 A 
HETATM    5  C5  UNL     1     -37.907  15.183  -4.649  1.00 20.00     0.126 A 
HETATM    6  C6  UNL     1     -33.593  15.583  -3.469  1.00 20.00     0.020 C 
HETATM    7  C7  UNL     1     -33.774  16.983  -5.398  1.00 20.00     0.030 C 
HETATM    8  C8  UNL     1     -34.473  16.714  -4.044  1.00 20.00     0.021 C 
HETATM    9  C9  UNL     1     -33.765  14.646  -4.687  1.00 20.00     0.040 C 
HETATM   10  C10 UNL     1     -33.227  15.580  -5.798  1.00 20.00     0.091 C 
HETATM   11  N11 UNL     1     -37.518  13.930  -5.030  1.00 20.00    -0.248 NA
HETATM   12 CL12 UNL     1     -39.608  15.424  -4.646  1.00 20.00    -0.062 Cl
HETATM   13 CL13 UNL     1     -33.710  15.093  -7.434  1.00 20.00    -0.124 Cl
ENDROOT
TORSDOF 0
ENDMDL
MODEL 4
REMARK VINA RESULT:      -4.9      2.359      4.350
REMARK  0 active torsions:
REMARK  status: ('A' for Active; 'I' for Inactive)
ROOT
HETATM    1  C1  UNL     1     -33.325  17.042  -2.061  1.00 20.00     0.052 A 
HETATM    2  C2  UNL     1     -36.099  16.872  -2.299  1.00 20.00     0.126 A 
HETATM    3  C3  UNL     1     -33.905  16.272  -3.040  1.00 20.00    -0.043 A 
HETATM    4  C4  UNL     1     -35.297  16.183  -3.169  1.00 20.00    -0.028 A 
HETATM    5  C5  UNL     1     -34.214  17.699  -1.221  1.00 20.00     0.126 A 
HETATM    6  C6  UNL     1     -34.394  14.329  -4.182  1.00 20.00     0.020 C 
HETATM    7  C7  UNL     1     -33.595  16.168  -5.482  1.00 20.00     0.030 C 
HETATM    8  C8  UNL     1     -33.317  15.434  -4.149  1.00 20.00     0.021 C 
HETATM    9  C9  UNL     1     -35.582  15.302  -4.357  1.00 20.00     0.040 C 
HETATM   10  C10 UNL     1     -35.135  16.011  -5.658  1.00 20.00     0.091 C 
HETATM   11  N11 UNL     1     -35.576  17.635  -1.312  1.00 20.00    -0.248 NA
HETATM   12 CL12 UNL     1     -33.637  18.696   0.054  1.00 20.00    -0.062 Cl
HETATM   13 CL13 UNL     1     -35.958  17.556  -5.946  1.00 20.00    -0.124 Cl
ENDROOT
TORSDOF 0
ENDMDL
MODEL 5
REMARK VINA RESULT:      -4.9      2.504      4.381
REMARK  0 active torsions:
REMARK  status: ('A' for Active; 'I' for Inactive)
ROOT
HETATM    1  C1  UNL     1     -33.796  17.375  -1.274  1.00 20.00     0.052 A 
HETATM    2  C2  UNL     1     -33.265  18.908  -3.543  1.00 20.00     0.126 A 
HETATM    3  C3  UNL     1     -34.485  17.169  -2.445  1.00 20.00    -0.043 A 
HETATM    4  C4  UNL     1     -34.224  17.932  -3.589  1.00 20.00    -0.028 A 
HETATM    5  C5  UNL     1     -32.848  18.389  -1.317  1.00 20.00     0.126 A 
HETATM    6  C6  UNL     1     -36.342  17.070  -3.809  1.00 20.00     0.020 C 
HETATM    7  C7  UNL     1     -34.916  15.152  -3.792  1.00 20.00     0.030 C 
HETATM    8  C8  UNL     1     -35.556  16.176  -2.825  1.00 20.00     0.021 C 
HETATM    9  C9  UNL     1     -35.117  17.416  -4.686  1.00 20.00     0.040 C 
HETATM   10  C10 UNL     1     -34.686  15.985  -5.088  1.00 20.00     0.091 C 
HETATM   11  N11 UNL     1     -32.566  19.157  -2.411  1.00 20.00    -0.248 NA
HETATM   12 CL12 UNL     1     -31.910  18.766   0.072  1.00 20.00    -0.062 Cl
HETATM   13 CL13 UNL     1     -33.018  15.885  -5.686  1.00 20.00    -0.124 Cl
ENDROOT
TORSDOF 0
ENDMDL
MODEL 6
REMARK VINA RESULT:      -4.8     10.996     11.833
REMARK  0 active torsions:
REMARK  status: ('A' for Active; 'I' for Inactive)
ROOT
HETATM    1  C1  UNL     1     -33.497   8.247   1.478  1.00 20.00     0.052 A 
HETATM    2  C2  UNL     1     -31.560   7.958   3.465  1.00 20.00     0.126 A 
HETATM    3  C3  UNL     1     -33.485   7.147   2.300  1.00 20.00    -0.043 A 
HETATM    4  C4  UNL     1     -32.518   6.994   3.302  1.00 20.00    -0.028 A 
HETATM    5  C5  UNL     1     -32.485   9.170   1.711  1.00 20.00     0.126 A 
HETATM    6  C6  UNL     1     -33.342   4.904   2.820  1.00 20.00     0.020 C 
HETATM    7  C7  UNL     1     -35.217   6.095   3.702  1.00 20.00     0.030 C 
HETATM    8  C8  UNL     1     -34.398   5.949   2.398  1.00 20.00     0.021 C 
HETATM    9  C9  UNL     1     -32.827   5.713   4.032  1.00 20.00     0.040 C 
HETATM   10  C10 UNL     1     -34.153   5.860   4.816  1.00 20.00     0.091 C 
HETATM   11  N11 UNL     1     -31.522   9.056   2.674  1.00 20.00    -0.248 NA
HETATM   12 CL12 UNL     1     -32.367  10.596   0.760  1.00 20.00    -0.062 Cl
HETATM   13 CL13 UNL     1     -34.125   7.155   6.028  1.00 20.00    -0.124 Cl
ENDROOT
TORSDOF 0
ENDMDL
MODEL 7
REMARK VINA RESULT:      -4.8      2.575      4.189
REMARK  0 active torsions:
REMARK  status: ('A' for Active; 'I' for Inactive)
ROOT
HETATM    1  C1  UNL     1     -35.608  16.614  -1.783  1.00 20.00     0.052 A 
HETATM    2  C2  UNL     1     -33.068  17.408  -2.618  1.00 20.00     0.126 A 
HETATM    3  C3  UNL     1     -35.167  16.348  -3.056  1.00 20.00    -0.043 A 
HETATM    4  C4  UNL     1     -33.893  16.740  -3.483  1.00 20.00    -0.028 A 
HETATM    5  C5  UNL     1     -34.710  17.300  -0.977  1.00 20.00     0.126 A 
HETATM    6  C6  UNL     1     -35.187  16.453  -5.360  1.00 20.00     0.020 C 
HETATM    7  C7  UNL     1     -35.060  14.275  -4.384  1.00 20.00     0.030 C 
HETATM    8  C8  UNL     1     -35.804  15.621  -4.215  1.00 20.00     0.021 C 
HETATM    9  C9  UNL     1     -33.725  16.255  -4.899  1.00 20.00     0.040 C 
HETATM   10  C10 UNL     1     -33.664  14.709  -4.923  1.00 20.00     0.091 C 
HETATM   11  N11 UNL     1     -33.460  17.703  -1.357  1.00 20.00    -0.248 NA
HETATM   12 CL12 UNL     1     -35.122  17.708   0.641  1.00 20.00    -0.062 Cl
HETATM   13 CL13 UNL     1     -32.321  14.034  -3.979  1.00 20.00    -0.124 Cl
ENDROOT
TORSDOF 0
ENDMDL
MODEL 8
REMARK VINA RESULT:      -4.7      2.183      4.418
REMARK  0 active torsions:
REMARK  status: ('A' for Active; 'I' for Inactive)
ROOT
HETATM    1  C1  UNL     1     -34.003  15.694  -3.397  1.00 20.00     0.052 A 
HETATM    2  C2  UNL     1     -36.725  16.300  -3.409  1.00 20.00     0.126 A 
HETATM    3  C3  UNL     1     -34.855  15.103  -4.297  1.00 20.00    -0.043 A 
HETATM    4  C4  UNL     1     -36.223  15.402  -4.312  1.00 20.00    -0.028 A 
HETATM    5  C5  UNL     1     -34.600  16.586  -2.515  1.00 20.00     0.126 A 
HETATM    6  C6  UNL     1     -35.958  13.355  -5.323  1.00 20.00     0.020 C 
HETATM    7  C7  UNL     1     -34.796  14.880  -6.750  1.00 20.00     0.030 C 
HETATM    8  C8  UNL     1     -34.618  14.118  -5.416  1.00 20.00     0.021 C 
HETATM    9  C9  UNL     1     -36.841  14.618  -5.440  1.00 20.00     0.040 C 
HETATM   10  C10 UNL     1     -36.329  15.155  -6.798  1.00 20.00     0.091 C 
HETATM   11  N11 UNL     1     -35.929  16.902  -2.496  1.00 20.00    -0.248 NA
HETATM   12 CL12 UNL     1     -33.662  17.401  -1.329  1.00 20.00    -0.062 Cl
HETATM   13 CL13 UNL     1     -36.715  16.864  -7.079  1.00 20.00    -0.124 Cl
ENDROOT
TORSDOF 0
ENDMDL
MODEL 9
REMARK VINA RESULT:      -4.6      1.242      1.371
REMARK  0 active torsions:
REMARK  status: ('A' for Active; 'I' for Inactive)
ROOT
HETATM    1  C1  UNL     1     -35.256  14.476  -4.731  1.00 20.00     0.052 A 
HETATM    2  C2  UNL     1     -33.361  16.178  -5.867  1.00 20.00     0.126 A 
HETATM    3  C3  UNL     1     -34.808  15.586  -4.057  1.00 20.00    -0.043 A 
HETATM    4  C4  UNL     1     -33.859  16.447  -4.620  1.00 20.00    -0.028 A 
HETATM    5  C5  UNL     1     -34.692  14.278  -5.985  1.00 20.00     0.126 A 
HETATM    6  C6  UNL     1     -33.787  16.742  -2.342  1.00 20.00     0.020 C 
HETATM    7  C7  UNL     1     -35.979  17.460  -2.968  1.00 20.00     0.030 C 
HETATM    8  C8  UNL     1     -35.171  16.166  -2.712  1.00 20.00     0.021 C 
HETATM    9  C9  UNL     1     -33.633  17.568  -3.640  1.00 20.00     0.040 C 
HETATM   10  C10 UNL     1     -34.907  18.440  -3.533  1.00 20.00     0.091 C 
HETATM   11  N11 UNL     1     -33.762  15.093  -6.567  1.00 20.00    -0.248 NA
HETATM   12 CL12 UNL     1     -35.151  12.929  -6.946  1.00 20.00    -0.062 Cl
HETATM   13 CL13 UNL     1     -35.393  19.183  -5.069  1.00 20.00    -0.124 Cl
ENDROOT
TORSDOF 0
ENDMDL
