MODEL 1
REMARK VINA RESULT:      -3.9      0.000      0.000
REMARK  0 active torsions:
REMARK  status: ('A' for Active; 'I' for Inactive)
ROOT
HETATM    1  C1  UNL     1     -33.456   7.110   5.414  1.00 20.00     0.005 A 
HETATM    2  C2  UNL     1     -34.506   6.308   5.678  1.00 20.00     0.107 A 
HETATM    3  C3  UNL     1     -33.131   6.596   4.003  1.00 20.00     0.132 A 
HETATM    4  C4  UNL     1     -33.193   7.643   2.902  1.00 20.00     0.031 C 
HETATM    5  O5  UNL     1     -35.773   5.955   3.658  1.00 20.00    -0.223 OA
HETATM    6  O6  UNL     1     -34.196   4.160   4.629  1.00 20.00    -0.223 OA
HETATM    7  S7  UNL     1     -34.486   5.472   4.101  1.00 20.00     0.172 S 
ENDROOT
TORSDOF 0
ENDMDL
MODEL 2
REMARK VINA RESULT:      -3.9      1.768      2.220
REMARK  0 active torsions:
REMARK  status: ('A' for Active; 'I' for Inactive)
ROOT
HETATM    1  C1  UNL     1     -32.999   5.103   2.774  1.00 20.00     0.005 A 
HETATM    2  C2  UNL     1     -33.844   4.642   3.717  1.00 20.00     0.107 A 
HETATM    3  C3  UNL     1     -33.379   6.589   2.841  1.00 20.00     0.132 A 
HETATM    4  C4  UNL     1     -32.241   7.534   3.192  1.00 20.00     0.031 C 
HETATM    5  O5  UNL     1     -34.043   6.273   5.481  1.00 20.00    -0.223 OA
HETATM    6  O6  UNL     1     -35.883   5.926   3.707  1.00 20.00    -0.223 OA
HETATM    7  S7  UNL     1     -34.536   6.236   4.123  1.00 20.00     0.172 S 
ENDROOT
TORSDOF 0
ENDMDL
MODEL 3
REMARK VINA RESULT:      -3.7      1.535      2.738
REMARK  0 active torsions:
REMARK  status: ('A' for Active; 'I' for Inactive)
ROOT
HETATM    1  C1  UNL     1     -33.680   7.184   4.757  1.00 20.00     0.005 A 
HETATM    2  C2  UNL     1     -33.018   7.118   3.586  1.00 20.00     0.107 A 
HETATM    3  C3  UNL     1     -34.632   5.998   4.543  1.00 20.00     0.132 A 
HETATM    4  C4  UNL     1     -34.526   4.887   5.576  1.00 20.00     0.031 C 
HETATM    5  O5  UNL     1     -32.749   4.810   2.946  1.00 20.00    -0.223 OA
HETATM    6  O6  UNL     1     -34.493   6.354   1.839  1.00 20.00    -0.223 OA
HETATM    7  S7  UNL     1     -33.894   5.690   2.972  1.00 20.00     0.172 S 
ENDROOT
TORSDOF 0
ENDMDL
MODEL 4
REMARK VINA RESULT:      -3.6     16.193     16.618
REMARK  0 active torsions:
REMARK  status: ('A' for Active; 'I' for Inactive)
ROOT
HETATM    1  C1  UNL     1     -24.288  18.934  11.967  1.00 20.00     0.005 A 
HETATM    2  C2  UNL     1     -23.304  18.307  11.293  1.00 20.00     0.107 A 
HETATM    3  C3  UNL     1     -25.485  18.389  11.174  1.00 20.00     0.132 A 
HETATM    4  C4  UNL     1     -26.504  17.610  11.992  1.00 20.00     0.031 C 
HETATM    5  O5  UNL     1     -24.056  16.114  10.633  1.00 20.00    -0.223 OA
HETATM    6  O6  UNL     1     -23.904  18.078   8.969  1.00 20.00    -0.223 OA
HETATM    7  S7  UNL     1     -24.389  17.441  10.171  1.00 20.00     0.172 S 
ENDROOT
TORSDOF 0
ENDMDL
MODEL 5
REMARK VINA RESULT:      -3.5      2.049      2.508
REMARK  0 active torsions:
REMARK  status: ('A' for Active; 'I' for Inactive)
ROOT
HETATM    1  C1  UNL     1     -35.185   5.888   4.396  1.00 20.00     0.005 A 
HETATM    2  C2  UNL     1     -34.900   5.996   3.084  1.00 20.00     0.107 A 
HETATM    3  C3  UNL     1     -33.777   6.149   4.952  1.00 20.00     0.132 A 
HETATM    4  C4  UNL     1     -33.661   7.342   5.888  1.00 20.00     0.031 C 
HETATM    5  O5  UNL     1     -33.230   7.704   2.763  1.00 20.00    -0.223 OA
HETATM    6  O6  UNL     1     -32.671   5.189   2.647  1.00 20.00    -0.223 OA
HETATM    7  S7  UNL     1     -33.170   6.369   3.312  1.00 20.00     0.172 S 
ENDROOT
TORSDOF 0
ENDMDL
MODEL 6
REMARK VINA RESULT:      -3.5     12.076     13.002
REMARK  0 active torsions:
REMARK  status: ('A' for Active; 'I' for Inactive)
ROOT
HETATM    1  C1  UNL     1     -35.739  15.745  -6.032  1.00 20.00     0.005 A 
HETATM    2  C2  UNL     1     -36.408  14.701  -6.559  1.00 20.00     0.107 A 
HETATM    3  C3  UNL     1     -35.801  15.327  -4.555  1.00 20.00     0.132 A 
HETATM    4  C4  UNL     1     -34.453  15.141  -3.876  1.00 20.00     0.031 C 
HETATM    5  O5  UNL     1     -35.868  12.699  -5.330  1.00 20.00    -0.223 OA
HETATM    6  O6  UNL     1     -38.108  13.942  -5.028  1.00 20.00    -0.223 OA
HETATM    7  S7  UNL     1     -36.666  13.859  -5.007  1.00 20.00     0.172 S 
ENDROOT
TORSDOF 0
ENDMDL
MODEL 7
REMARK VINA RESULT:      -3.4     12.153     12.718
REMARK  0 active torsions:
REMARK  status: ('A' for Active; 'I' for Inactive)
ROOT
HETATM    1  C1  UNL     1     -35.513  15.956  -5.586  1.00 20.00     0.005 A 
HETATM    2  C2  UNL     1     -34.927  14.864  -6.113  1.00 20.00     0.107 A 
HETATM    3  C3  UNL     1     -35.812  15.397  -4.187  1.00 20.00     0.132 A 
HETATM    4  C4  UNL     1     -35.175  16.159  -3.035  1.00 20.00     0.031 C 
HETATM    5  O5  UNL     1     -33.634  13.748  -4.411  1.00 20.00    -0.223 OA
HETATM    6  O6  UNL     1     -35.924  12.865  -5.205  1.00 20.00    -0.223 OA
HETATM    7  S7  UNL     1     -35.056  13.869  -4.636  1.00 20.00     0.172 S 
ENDROOT
TORSDOF 0
ENDMDL
MODEL 8
REMARK VINA RESULT:      -3.4     12.175     12.708
REMARK  0 active torsions:
REMARK  status: ('A' for Active; 'I' for Inactive)
ROOT
HETATM    1  C1  UNL     1     -35.088  15.405  -3.745  1.00 20.00     0.005 A 
HETATM    2  C2  UNL     1     -36.189  15.002  -4.407  1.00 20.00     0.107 A 
HETATM    3  C3  UNL     1     -34.040  14.642  -4.568  1.00 20.00     0.132 A 
HETATM    4  C4  UNL     1     -32.986  15.508  -5.239  1.00 20.00     0.031 C 
HETATM    5  O5  UNL     1     -35.683  14.799  -6.755  1.00 20.00    -0.223 OA
HETATM    6  O6  UNL     1     -35.900  12.747  -5.208  1.00 20.00    -0.223 OA
HETATM    7  S7  UNL     1     -35.317  14.007  -5.604  1.00 20.00     0.172 S 
ENDROOT
TORSDOF 0
ENDMDL
MODEL 9
REMARK VINA RESULT:      -3.2      1.592      2.082
REMARK  0 active torsions:
REMARK  status: ('A' for Active; 'I' for Inactive)
ROOT
HETATM    1  C1  UNL     1     -32.787   7.004   2.999  1.00 20.00     0.005 A 
HETATM    2  C2  UNL     1     -33.840   7.528   3.656  1.00 20.00     0.107 A 
HETATM    3  C3  UNL     1     -32.935   5.547   3.463  1.00 20.00     0.132 A 
HETATM    4  C4  UNL     1     -33.125   4.529   2.350  1.00 20.00     0.031 C 
HETATM    5  O5  UNL     1     -35.640   5.924   3.693  1.00 20.00    -0.223 OA
HETATM    6  O6  UNL     1     -34.161   6.385   5.755  1.00 20.00    -0.223 OA
HETATM    7  S7  UNL     1     -34.373   5.987   4.383  1.00 20.00     0.172 S 
ENDROOT
TORSDOF 0
ENDMDL
