MODEL 1
REMARK VINA RESULT:      -5.0      0.000      0.000
REMARK  1 active torsions:
REMARK  status: ('A' for Active; 'I' for Inactive)
REMARK    1  A    between atoms: C3_3  and  C7_7 
ROOT
HETATM    1  C1  UNL     1     -34.193   6.668   5.395  1.00 20.00     0.259 C 
HETATM    2  C4  UNL     1     -34.528   5.233   5.087  1.00 20.00     0.111 C 
HETATM    3  C5  UNL     1     -33.886   4.709   3.821  1.00 20.00     0.013 C 
HETATM    4  C6  UNL     1     -34.182   5.664   2.680  1.00 20.00     0.037 C 
HETATM    5  C7  UNL     1     -33.670   7.062   3.006  1.00 20.00     0.154 C 
HETATM    6  O8  UNL     1     -34.202   7.089   6.549  1.00 20.00    -0.265 OA
HETATM    7  O9  UNL     1     -34.000   7.500   4.345  1.00 20.00    -0.312 OA
ENDROOT
BRANCH   5   8
HETATM    8  C3  UNL     1     -32.193   7.214   2.825  1.00 20.00    -0.005 C 
HETATM    9  C2  UNL     1     -31.481   8.237   3.309  1.00 20.00     0.009 C 
ENDBRANCH   5   8
TORSDOF 1
ENDMDL
MODEL 2
REMARK VINA RESULT:      -5.0      1.014      1.185
REMARK  1 active torsions:
REMARK  status: ('A' for Active; 'I' for Inactive)
REMARK    1  A    between atoms: C3_3  and  C7_7 
ROOT
HETATM    1  C1  UNL     1     -34.472   5.365   5.137  1.00 20.00     0.259 C 
HETATM    2  C4  UNL     1     -34.257   4.316   4.079  1.00 20.00     0.111 C 
HETATM    3  C5  UNL     1     -33.304   4.736   2.982  1.00 20.00     0.013 C 
HETATM    4  C6  UNL     1     -33.741   6.079   2.429  1.00 20.00     0.037 C 
HETATM    5  C7  UNL     1     -33.782   7.125   3.536  1.00 20.00     0.154 C 
HETATM    6  O8  UNL     1     -34.785   5.056   6.284  1.00 20.00    -0.265 OA
HETATM    7  O9  UNL     1     -34.426   6.660   4.746  1.00 20.00    -0.312 OA
ENDROOT
BRANCH   5   8
HETATM    8  C3  UNL     1     -32.433   7.653   3.909  1.00 20.00    -0.005 C 
HETATM    9  C2  UNL     1     -31.623   8.302   3.066  1.00 20.00     0.009 C 
ENDBRANCH   5   8
TORSDOF 1
ENDMDL
MODEL 3
REMARK VINA RESULT:      -4.7      1.678      3.165
REMARK  1 active torsions:
REMARK  status: ('A' for Active; 'I' for Inactive)
REMARK    1  A    between atoms: C3_3  and  C7_7 
ROOT
HETATM    1  C1  UNL     1     -32.343   7.677   3.670  1.00 20.00     0.259 C 
HETATM    2  C4  UNL     1     -32.955   7.960   5.015  1.00 20.00     0.111 C 
HETATM    3  C5  UNL     1     -33.825   6.841   5.544  1.00 20.00     0.013 C 
HETATM    4  C6  UNL     1     -34.836   6.452   4.482  1.00 20.00     0.037 C 
HETATM    5  C7  UNL     1     -34.130   6.027   3.200  1.00 20.00     0.154 C 
HETATM    6  O8  UNL     1     -31.285   8.202   3.330  1.00 20.00    -0.265 OA
HETATM    7  O9  UNL     1     -33.060   6.919   2.808  1.00 20.00    -0.312 OA
ENDROOT
BRANCH   5   8
HETATM    8  C3  UNL     1     -33.572   4.640   3.258  1.00 20.00    -0.005 C 
HETATM    9  C2  UNL     1     -33.960   3.714   4.140  1.00 20.00     0.009 C 
ENDBRANCH   5   8
TORSDOF 1
ENDMDL
MODEL 4
REMARK VINA RESULT:      -4.5      1.740      2.645
REMARK  1 active torsions:
REMARK  status: ('A' for Active; 'I' for Inactive)
REMARK    1  A    between atoms: C3_3  and  C7_7 
ROOT
HETATM    1  C1  UNL     1     -34.218   6.486   3.711  1.00 20.00     0.259 C 
HETATM    2  C4  UNL     1     -33.667   6.981   5.021  1.00 20.00     0.111 C 
HETATM    3  C5  UNL     1     -32.770   8.193   4.893  1.00 20.00     0.013 C 
HETATM    4  C6  UNL     1     -31.706   7.917   3.847  1.00 20.00     0.037 C 
HETATM    5  C7  UNL     1     -32.348   7.577   2.507  1.00 20.00     0.154 C 
HETATM    6  O8  UNL     1     -35.284   5.877   3.660  1.00 20.00    -0.265 OA
HETATM    7  O9  UNL     1     -33.439   6.632   2.614  1.00 20.00    -0.312 OA
ENDROOT
BRANCH   5   8
HETATM    8  C3  UNL     1     -32.849   8.774   1.764  1.00 20.00    -0.005 C 
HETATM    9  C2  UNL     1     -32.134   9.443   0.853  1.00 20.00     0.009 C 
ENDBRANCH   5   8
TORSDOF 1
ENDMDL
MODEL 5
REMARK VINA RESULT:      -4.5      1.694      2.729
REMARK  1 active torsions:
REMARK  status: ('A' for Active; 'I' for Inactive)
REMARK    1  A    between atoms: C3_3  and  C7_7 
ROOT
HETATM    1  C1  UNL     1     -34.131   4.744   3.837  1.00 20.00     0.259 C 
HETATM    2  C4  UNL     1     -33.154   4.815   2.695  1.00 20.00     0.111 C 
HETATM    3  C5  UNL     1     -32.368   6.107   2.638  1.00 20.00     0.013 C 
HETATM    4  C6  UNL     1     -33.331   7.278   2.693  1.00 20.00     0.037 C 
HETATM    5  C7  UNL     1     -34.176   7.218   3.959  1.00 20.00     0.154 C 
HETATM    6  O8  UNL     1     -34.469   3.664   4.318  1.00 20.00    -0.265 OA
HETATM    7  O9  UNL     1     -34.711   5.901   4.233  1.00 20.00    -0.312 OA
ENDROOT
BRANCH   5   8
HETATM    8  C3  UNL     1     -33.452   7.681   5.183  1.00 20.00    -0.005 C 
HETATM    9  C2  UNL     1     -33.734   7.266   6.422  1.00 20.00     0.009 C 
ENDBRANCH   5   8
TORSDOF 1
ENDMDL
MODEL 6
REMARK VINA RESULT:      -4.4      2.015      2.749
REMARK  1 active torsions:
REMARK  status: ('A' for Active; 'I' for Inactive)
REMARK    1  A    between atoms: C3_3  and  C7_7 
ROOT
HETATM    1  C1  UNL     1     -33.146   5.107   2.833  1.00 20.00     0.259 C 
HETATM    2  C4  UNL     1     -34.253   5.136   3.851  1.00 20.00     0.111 C 
HETATM    3  C5  UNL     1     -34.731   6.528   4.203  1.00 20.00     0.013 C 
HETATM    4  C6  UNL     1     -33.537   7.385   4.575  1.00 20.00     0.037 C 
HETATM    5  C7  UNL     1     -32.533   7.432   3.430  1.00 20.00     0.154 C 
HETATM    6  O8  UNL     1     -32.983   4.136   2.098  1.00 20.00    -0.265 OA
HETATM    7  O9  UNL     1     -32.267   6.137   2.842  1.00 20.00    -0.312 OA
ENDROOT
BRANCH   5   8
HETATM    8  C3  UNL     1     -32.929   8.363   2.328  1.00 20.00    -0.005 C 
HETATM    9  C2  UNL     1     -32.078   8.855   1.422  1.00 20.00     0.009 C 
ENDBRANCH   5   8
TORSDOF 1
ENDMDL
MODEL 7
REMARK VINA RESULT:      -4.0      1.767      3.652
REMARK  1 active torsions:
REMARK  status: ('A' for Active; 'I' for Inactive)
REMARK    1  A    between atoms: C3_3  and  C7_7 
ROOT
HETATM    1  C1  UNL     1     -33.176   5.447   2.699  1.00 20.00     0.259 C 
HETATM    2  C4  UNL     1     -32.327   6.686   2.594  1.00 20.00     0.111 C 
HETATM    3  C5  UNL     1     -32.446   7.615   3.782  1.00 20.00     0.013 C 
HETATM    4  C6  UNL     1     -33.912   7.899   4.047  1.00 20.00     0.037 C 
HETATM    5  C7  UNL     1     -34.672   6.602   4.299  1.00 20.00     0.154 C 
HETATM    6  O8  UNL     1     -32.859   4.409   2.122  1.00 20.00    -0.265 OA
HETATM    7  O9  UNL     1     -34.356   5.555   3.351  1.00 20.00    -0.312 OA
ENDROOT
BRANCH   5   8
HETATM    8  C3  UNL     1     -34.471   6.051   5.675  1.00 20.00    -0.005 C 
HETATM    9  C2  UNL     1     -34.533   4.749   5.976  1.00 20.00     0.009 C 
ENDBRANCH   5   8
TORSDOF 1
ENDMDL
MODEL 8
REMARK VINA RESULT:      -4.0     11.667     12.306
REMARK  1 active torsions:
REMARK  status: ('A' for Active; 'I' for Inactive)
REMARK    1  A    between atoms: C3_3  and  C7_7 
ROOT
HETATM    1  C1  UNL     1     -36.886  14.540  -4.663  1.00 20.00     0.259 C 
HETATM    2  C4  UNL     1     -35.651  13.735  -4.968  1.00 20.00     0.111 C 
HETATM    3  C5  UNL     1     -34.433  14.154  -4.174  1.00 20.00     0.013 C 
HETATM    4  C6  UNL     1     -34.237  15.651  -4.314  1.00 20.00     0.037 C 
HETATM    5  C7  UNL     1     -35.475  16.400  -3.837  1.00 20.00     0.154 C 
HETATM    6  O8  UNL     1     -38.008  14.063  -4.815  1.00 20.00    -0.265 OA
HETATM    7  O9  UNL     1     -36.715  15.840  -4.331  1.00 20.00    -0.312 OA
ENDROOT
BRANCH   5   8
HETATM    8  C3  UNL     1     -35.577  16.496  -2.347  1.00 20.00    -0.005 C 
HETATM    9  C2  UNL     1     -34.606  16.968  -1.559  1.00 20.00     0.009 C 
ENDBRANCH   5   8
TORSDOF 1
ENDMDL
MODEL 9
REMARK VINA RESULT:      -4.0      9.388     10.619
REMARK  1 active torsions:
REMARK  status: ('A' for Active; 'I' for Inactive)
REMARK    1  A    between atoms: C3_3  and  C7_7 
ROOT
HETATM    1  C1  UNL     1     -42.136   7.750  -0.951  1.00 20.00     0.259 C 
HETATM    2  C4  UNL     1     -41.121   7.258   0.045  1.00 20.00     0.111 C 
HETATM    3  C5  UNL     1     -41.081   5.753   0.189  1.00 20.00     0.013 C 
HETATM    4  C6  UNL     1     -42.485   5.239   0.443  1.00 20.00     0.037 C 
HETATM    5  C7  UNL     1     -43.417   5.646  -0.691  1.00 20.00     0.154 C 
HETATM    6  O8  UNL     1     -41.984   8.819  -1.538  1.00 20.00    -0.265 OA
HETATM    7  O9  UNL     1     -43.275   7.032  -1.085  1.00 20.00    -0.312 OA
ENDROOT
BRANCH   5   8
HETATM    8  C3  UNL     1     -43.269   4.804  -1.918  1.00 20.00    -0.005 C 
HETATM    9  C2  UNL     1     -43.340   3.469  -1.922  1.00 20.00     0.009 C 
ENDBRANCH   5   8
TORSDOF 1
ENDMDL
