MODEL 1
REMARK VINA RESULT:      -4.9      0.000      0.000
REMARK  2 active torsions:
REMARK  status: ('A' for Active; 'I' for Inactive)
REMARK    1  A    between atoms: C6_6  and  C10_10 
REMARK    2  A    between atoms: C10_10  and  O11_11 
ROOT
HETATM    1  C1  UNL     1     -33.963   4.122   4.362  1.00 20.00    -0.024 C 
HETATM    2  C2  UNL     1     -33.653   4.776   3.228  1.00 20.00    -0.081 C 
HETATM    3  C3  UNL     1     -34.508   4.781   5.593  1.00 20.00     0.027 C 
HETATM    4  C4  UNL     1     -34.431   6.306   5.559  1.00 20.00     0.004 C 
HETATM    5  C5  UNL     1     -34.781   6.843   4.174  1.00 20.00     0.012 C 
HETATM    6  C6  UNL     1     -33.854   6.274   3.082  1.00 20.00     0.042 C 
HETATM    7  C7  UNL     1     -33.125   4.041   2.027  1.00 20.00     0.043 C 
ENDROOT
BRANCH   6   8
HETATM    8  C10 UNL     1     -32.507   7.007   3.074  1.00 20.00     0.124 C 
HETATM    9  C8  UNL     1     -32.398   7.955   1.895  1.00 20.00     0.040 C 
BRANCH   8  10
HETATM   10  O11 UNL     1     -32.375   7.734   4.287  1.00 20.00    -0.390 OA
HETATM   11  C9  UNL     1     -31.453   8.807   4.155  1.00 20.00     0.202 C 
ENDBRANCH   8  10
ENDBRANCH   6   8
TORSDOF 2
ENDMDL
MODEL 2
REMARK VINA RESULT:      -4.2      1.497      3.983
REMARK  2 active torsions:
REMARK  status: ('A' for Active; 'I' for Inactive)
REMARK    1  A    between atoms: C6_6  and  C10_10 
REMARK    2  A    between atoms: C10_10  and  O11_11 
ROOT
HETATM    1  C1  UNL     1     -31.877   8.119   4.373  1.00 20.00    -0.024 C 
HETATM    2  C2  UNL     1     -33.118   7.618   4.511  1.00 20.00    -0.081 C 
HETATM    3  C3  UNL     1     -31.264   8.502   3.059  1.00 20.00     0.027 C 
HETATM    4  C4  UNL     1     -32.061   8.025   1.847  1.00 20.00     0.004 C 
HETATM    5  C5  UNL     1     -33.560   8.186   2.077  1.00 20.00     0.012 C 
HETATM    6  C6  UNL     1     -34.040   7.414   3.322  1.00 20.00     0.042 C 
HETATM    7  C7  UNL     1     -33.669   7.272   5.866  1.00 20.00     0.043 C 
ENDROOT
BRANCH   6   8
HETATM    8  C10 UNL     1     -34.204   5.922   3.009  1.00 20.00     0.124 C 
HETATM    9  C8  UNL     1     -32.863   5.217   2.945  1.00 20.00     0.040 C 
BRANCH   8  10
HETATM   10  O11 UNL     1     -35.008   5.329   4.019  1.00 20.00    -0.390 OA
HETATM   11  C9  UNL     1     -34.425   4.133   4.517  1.00 20.00     0.202 C 
ENDBRANCH   8  10
ENDBRANCH   6   8
TORSDOF 2
ENDMDL
MODEL 3
REMARK VINA RESULT:      -4.2     12.092     13.098
REMARK  2 active torsions:
REMARK  status: ('A' for Active; 'I' for Inactive)
REMARK    1  A    between atoms: C6_6  and  C10_10 
REMARK    2  A    between atoms: C10_10  and  O11_11 
ROOT
HETATM    1  C1  UNL     1     -36.239  15.860  -3.676  1.00 20.00    -0.024 C 
HETATM    2  C2  UNL     1     -34.991  15.433  -3.937  1.00 20.00    -0.081 C 
HETATM    3  C3  UNL     1     -37.477  15.264  -4.277  1.00 20.00     0.027 C 
HETATM    4  C4  UNL     1     -37.198  14.301  -5.430  1.00 20.00     0.004 C 
HETATM    5  C5  UNL     1     -35.984  13.426  -5.133  1.00 20.00     0.012 C 
HETATM    6  C6  UNL     1     -34.718  14.265  -4.869  1.00 20.00     0.042 C 
HETATM    7  C7  UNL     1     -33.799  16.072  -3.282  1.00 20.00     0.043 C 
ENDROOT
BRANCH   6   8
HETATM    8  C10 UNL     1     -34.100  14.751  -6.185  1.00 20.00     0.124 C 
HETATM    9  C8  UNL     1     -34.318  13.750  -7.303  1.00 20.00     0.040 C 
BRANCH   8  10
HETATM   10  O11 UNL     1     -34.690  15.995  -6.535  1.00 20.00    -0.390 OA
HETATM   11  C9  UNL     1     -35.027  16.044  -7.915  1.00 20.00     0.202 C 
ENDBRANCH   8  10
ENDBRANCH   6   8
TORSDOF 2
ENDMDL
MODEL 4
REMARK VINA RESULT:      -4.2     11.566     13.233
REMARK  2 active torsions:
REMARK  status: ('A' for Active; 'I' for Inactive)
REMARK    1  A    between atoms: C6_6  and  C10_10 
REMARK    2  A    between atoms: C10_10  and  O11_11 
ROOT
HETATM    1  C1  UNL     1     -34.030  15.125  -6.740  1.00 20.00    -0.024 C 
HETATM    2  C2  UNL     1     -35.137  14.401  -6.496  1.00 20.00    -0.081 C 
HETATM    3  C3  UNL     1     -33.103  15.633  -5.676  1.00 20.00     0.027 C 
HETATM    4  C4  UNL     1     -33.660  15.496  -4.260  1.00 20.00     0.004 C 
HETATM    5  C5  UNL     1     -34.389  14.167  -4.082  1.00 20.00     0.012 C 
HETATM    6  C6  UNL     1     -35.544  14.003  -5.089  1.00 20.00     0.042 C 
HETATM    7  C7  UNL     1     -36.009  13.913  -7.619  1.00 20.00     0.043 C 
ENDROOT
BRANCH   6   8
HETATM    8  C10 UNL     1     -36.779  14.790  -4.635  1.00 20.00     0.124 C 
HETATM    9  C8  UNL     1     -36.909  16.101  -5.386  1.00 20.00     0.040 C 
BRANCH   8  10
HETATM   10  O11 UNL     1     -37.935  13.995  -4.857  1.00 20.00    -0.390 OA
HETATM   11  C9  UNL     1     -39.036  14.782  -5.292  1.00 20.00     0.202 C 
ENDBRANCH   8  10
ENDBRANCH   6   8
TORSDOF 2
ENDMDL
MODEL 5
REMARK VINA RESULT:      -4.2     11.628     13.281
REMARK  2 active torsions:
REMARK  status: ('A' for Active; 'I' for Inactive)
REMARK    1  A    between atoms: C6_6  and  C10_10 
REMARK    2  A    between atoms: C10_10  and  O11_11 
ROOT
HETATM    1  C1  UNL     1     -33.262  15.839  -5.728  1.00 20.00    -0.024 C 
HETATM    2  C2  UNL     1     -34.034  14.992  -6.432  1.00 20.00    -0.081 C 
HETATM    3  C3  UNL     1     -33.358  16.034  -4.245  1.00 20.00     0.027 C 
HETATM    4  C4  UNL     1     -34.596  15.391  -3.621  1.00 20.00     0.004 C 
HETATM    5  C5  UNL     1     -34.880  14.027  -4.242  1.00 20.00     0.012 C 
HETATM    6  C6  UNL     1     -35.083  14.118  -5.767  1.00 20.00     0.042 C 
HETATM    7  C7  UNL     1     -33.867  14.840  -7.918  1.00 20.00     0.043 C 
ENDROOT
BRANCH   6   8
HETATM    8  C10 UNL     1     -36.496  14.612  -6.100  1.00 20.00     0.124 C 
HETATM    9  C8  UNL     1     -36.835  14.381  -7.560  1.00 20.00     0.040 C 
BRANCH   8  10
HETATM   10  O11 UNL     1     -37.427  13.923  -5.278  1.00 20.00    -0.390 OA
HETATM   11  C9  UNL     1     -38.525  14.752  -4.923  1.00 20.00     0.202 C 
ENDBRANCH   8  10
ENDBRANCH   6   8
TORSDOF 2
ENDMDL
MODEL 6
REMARK VINA RESULT:      -4.2      1.504      2.898
REMARK  2 active torsions:
REMARK  status: ('A' for Active; 'I' for Inactive)
REMARK    1  A    between atoms: C6_6  and  C10_10 
REMARK    2  A    between atoms: C10_10  and  O11_11 
ROOT
HETATM    1  C1  UNL     1     -34.777   6.314   4.885  1.00 20.00    -0.024 C 
HETATM    2  C2  UNL     1     -33.607   6.978   4.880  1.00 20.00    -0.081 C 
HETATM    3  C3  UNL     1     -35.282   5.487   3.741  1.00 20.00     0.027 C 
HETATM    4  C4  UNL     1     -34.488   5.675   2.450  1.00 20.00     0.004 C 
HETATM    5  C5  UNL     1     -32.992   5.772   2.733  1.00 20.00     0.012 C 
HETATM    6  C6  UNL     1     -32.660   6.930   3.694  1.00 20.00     0.042 C 
HETATM    7  C7  UNL     1     -33.161   7.774   6.074  1.00 20.00     0.043 C 
ENDROOT
BRANCH   6   8
HETATM    8  C10 UNL     1     -32.649   8.270   2.950  1.00 20.00     0.124 C 
HETATM    9  C8  UNL     1     -31.373   9.044   3.218  1.00 20.00     0.040 C 
BRANCH   8  10
HETATM   10  O11 UNL     1     -32.774   8.020   1.557  1.00 20.00    -0.390 OA
HETATM   11  C9  UNL     1     -32.297   9.114   0.785  1.00 20.00     0.202 C 
ENDBRANCH   8  10
ENDBRANCH   6   8
TORSDOF 2
ENDMDL
MODEL 7
REMARK VINA RESULT:      -4.2     12.294     13.122
REMARK  2 active torsions:
REMARK  status: ('A' for Active; 'I' for Inactive)
REMARK    1  A    between atoms: C6_6  and  C10_10 
REMARK    2  A    between atoms: C10_10  and  O11_11 
ROOT
HETATM    1  C1  UNL     1     -32.976  17.707  -1.520  1.00 20.00    -0.024 C 
HETATM    2  C2  UNL     1     -33.935  16.991  -2.133  1.00 20.00    -0.081 C 
HETATM    3  C3  UNL     1     -33.189  18.506  -0.270  1.00 20.00     0.027 C 
HETATM    4  C4  UNL     1     -34.659  18.667   0.113  1.00 20.00     0.004 C 
HETATM    5  C5  UNL     1     -35.432  17.373  -0.119  1.00 20.00     0.012 C 
HETATM    6  C6  UNL     1     -35.349  16.905  -1.585  1.00 20.00     0.042 C 
HETATM    7  C7  UNL     1     -33.640  16.201  -3.377  1.00 20.00     0.043 C 
ENDROOT
BRANCH   6   8
HETATM    8  C10 UNL     1     -36.323  17.696  -2.466  1.00 20.00     0.124 C 
HETATM    9  C8  UNL     1     -36.928  16.824  -3.549  1.00 20.00     0.040 C 
BRANCH   8  10
HETATM   10  O11 UNL     1     -37.356  18.224  -1.645  1.00 20.00    -0.390 OA
HETATM   11  C9  UNL     1     -38.544  18.463  -2.388  1.00 20.00     0.202 C 
ENDBRANCH   8  10
ENDBRANCH   6   8
TORSDOF 2
ENDMDL
MODEL 8
REMARK VINA RESULT:      -4.1     12.090     13.117
REMARK  2 active torsions:
REMARK  status: ('A' for Active; 'I' for Inactive)
REMARK    1  A    between atoms: C6_6  and  C10_10 
REMARK    2  A    between atoms: C10_10  and  O11_11 
ROOT
HETATM    1  C1  UNL     1     -35.176  14.840  -6.490  1.00 20.00    -0.024 C 
HETATM    2  C2  UNL     1     -35.687  14.681  -5.256  1.00 20.00    -0.081 C 
HETATM    3  C3  UNL     1     -33.766  15.265  -6.771  1.00 20.00     0.027 C 
HETATM    4  C4  UNL     1     -33.021  15.773  -5.538  1.00 20.00     0.004 C 
HETATM    5  C5  UNL     1     -33.343  14.924  -4.313  1.00 20.00     0.012 C 
HETATM    6  C6  UNL     1     -34.853  14.901  -4.006  1.00 20.00     0.042 C 
HETATM    7  C7  UNL     1     -37.108  14.236  -5.054  1.00 20.00     0.043 C 
ENDROOT
BRANCH   6   8
HETATM    8  C10 UNL     1     -35.282  16.184  -3.283  1.00 20.00     0.124 C 
HETATM    9  C8  UNL     1     -34.216  16.659  -2.315  1.00 20.00     0.040 C 
BRANCH   8  10
HETATM   10  O11 UNL     1     -35.532  17.192  -4.252  1.00 20.00    -0.390 OA
HETATM   11  C9  UNL     1     -35.025  18.454  -3.837  1.00 20.00     0.202 C 
ENDBRANCH   8  10
ENDBRANCH   6   8
TORSDOF 2
ENDMDL
MODEL 9
REMARK VINA RESULT:      -4.1     11.815     12.402
REMARK  2 active torsions:
REMARK  status: ('A' for Active; 'I' for Inactive)
REMARK    1  A    between atoms: C6_6  and  C10_10 
REMARK    2  A    between atoms: C10_10  and  O11_11 
ROOT
HETATM    1  C1  UNL     1     -35.387  13.931  -4.837  1.00 20.00    -0.024 C 
HETATM    2  C2  UNL     1     -34.516  14.839  -4.360  1.00 20.00    -0.081 C 
HETATM    3  C3  UNL     1     -36.862  14.163  -4.964  1.00 20.00     0.027 C 
HETATM    4  C4  UNL     1     -37.349  15.424  -4.252  1.00 20.00     0.004 C 
HETATM    5  C5  UNL     1     -36.366  16.575  -4.440  1.00 20.00     0.012 C 
HETATM    6  C6  UNL     1     -34.958  16.223  -3.920  1.00 20.00     0.042 C 
HETATM    7  C7  UNL     1     -33.046  14.537  -4.279  1.00 20.00     0.043 C 
ENDROOT
BRANCH   6   8
HETATM    8  C10 UNL     1     -34.891  16.357  -2.394  1.00 20.00     0.124 C 
HETATM    9  C8  UNL     1     -33.656  17.121  -1.957  1.00 20.00     0.040 C 
BRANCH   8  10
HETATM   10  O11 UNL     1     -36.056  17.032  -1.943  1.00 20.00    -0.390 OA
HETATM   11  C9  UNL     1     -35.801  17.786  -0.765  1.00 20.00     0.202 C 
ENDBRANCH   8  10
ENDBRANCH   6   8
TORSDOF 2
ENDMDL
