MODEL 1
REMARK VINA RESULT:      -5.6      0.000      0.000
REMARK  3 active torsions:
REMARK  status: ('A' for Active; 'I' for Inactive)
REMARK    1  A    between atoms: C6_6  and  C7_7 
REMARK    2  A    between atoms: C8_8  and  C10_10 
REMARK    3  A    between atoms: C9_9  and  C11_11 
ROOT
HETATM    1  C1  UNL     1     -33.293  16.268  -5.811  1.00 20.00    -0.021 C 
HETATM    2  C2  UNL     1     -33.123  15.292  -4.886  1.00 20.00    -0.020 C 
HETATM    3  C5  UNL     1     -35.722  16.008  -5.758  1.00 20.00    -0.003 C 
HETATM    4  C6  UNL     1     -35.523  14.901  -5.006  1.00 20.00     0.024 C 
HETATM    5  C8  UNL     1     -34.619  17.063  -5.621  1.00 20.00     0.039 C 
HETATM    6  C9  UNL     1     -34.345  15.027  -4.004  1.00 20.00     0.056 C 
ENDROOT
BRANCH   4   7
HETATM    7  C7  UNL     1     -36.441  13.709  -5.044  1.00 20.00     0.205 C 
HETATM    8  O12 UNL     1     -37.670  13.964  -4.875  1.00 20.00    -0.644 OA
HETATM    9  O13 UNL     1     -35.877  12.593  -5.239  1.00 20.00    -0.644 OA
ENDBRANCH   4   7
BRANCH   6  10
HETATM   10  C11 UNL     1     -34.844  16.289  -3.265  1.00 20.00     0.029 C 
HETATM   11  C4  UNL     1     -35.624  16.741  -2.060  1.00 20.00    -0.024 C 
HETATM   12  C3  UNL     1     -34.675  17.749  -1.929  1.00 20.00    -0.024 C 
HETATM   13  C10 UNL     1     -33.653  16.708  -2.303  1.00 20.00     0.028 C 
ENDBRANCH   6  10
TORSDOF 3
ENDMDL
MODEL 2
REMARK VINA RESULT:      -5.1      0.999      3.079
REMARK  3 active torsions:
REMARK  status: ('A' for Active; 'I' for Inactive)
REMARK    1  A    between atoms: C6_6  and  C7_7 
REMARK    2  A    between atoms: C8_8  and  C10_10 
REMARK    3  A    between atoms: C9_9  and  C11_11 
ROOT
HETATM    1  C1  UNL     1     -34.794  16.410  -2.471  1.00 20.00    -0.021 C 
HETATM    2  C2  UNL     1     -35.976  16.672  -3.083  1.00 20.00    -0.020 C 
HETATM    3  C5  UNL     1     -34.251  14.659  -4.087  1.00 20.00    -0.003 C 
HETATM    4  C6  UNL     1     -35.517  14.784  -4.550  1.00 20.00     0.024 C 
HETATM    5  C8  UNL     1     -33.687  15.939  -3.460  1.00 20.00     0.039 C 
HETATM    6  C9  UNL     1     -36.044  16.242  -4.551  1.00 20.00     0.056 C 
ENDROOT
BRANCH   4   7
HETATM    7  C7  UNL     1     -36.292  13.633  -5.135  1.00 20.00     0.205 C 
HETATM    8  O12 UNL     1     -35.594  12.742  -5.705  1.00 20.00    -0.644 OA
HETATM    9  O13 UNL     1     -37.547  13.692  -4.988  1.00 20.00    -0.644 OA
ENDBRANCH   4   7
BRANCH   6  10
HETATM   10  C11 UNL     1     -34.923  16.861  -5.415  1.00 20.00     0.029 C 
HETATM   11  C4  UNL     1     -34.470  17.040  -6.840  1.00 20.00    -0.024 C 
HETATM   12  C3  UNL     1     -34.096  18.327  -6.470  1.00 20.00    -0.024 C 
HETATM   13  C10 UNL     1     -35.367  18.365  -5.663  1.00 20.00     0.028 C 
ENDBRANCH   6  10
TORSDOF 3
ENDMDL
MODEL 3
REMARK VINA RESULT:      -4.9      0.917      1.094
REMARK  3 active torsions:
REMARK  status: ('A' for Active; 'I' for Inactive)
REMARK    1  A    between atoms: C6_6  and  C7_7 
REMARK    2  A    between atoms: C8_8  and  C10_10 
REMARK    3  A    between atoms: C9_9  and  C11_11 
ROOT
HETATM    1  C1  UNL     1     -34.325  17.791  -5.685  1.00 20.00    -0.021 C 
HETATM    2  C2  UNL     1     -33.495  16.855  -5.162  1.00 20.00    -0.020 C 
HETATM    3  C5  UNL     1     -36.306  16.539  -4.994  1.00 20.00    -0.003 C 
HETATM    4  C6  UNL     1     -35.473  15.522  -4.674  1.00 20.00     0.024 C 
HETATM    5  C8  UNL     1     -35.663  17.926  -4.900  1.00 20.00     0.039 C 
HETATM    6  C9  UNL     1     -34.121  15.984  -4.070  1.00 20.00     0.056 C 
ENDROOT
BRANCH   4   7
HETATM    7  C7  UNL     1     -35.873  14.073  -4.772  1.00 20.00     0.205 C 
HETATM    8  O12 UNL     1     -37.079  13.864  -5.097  1.00 20.00    -0.644 OA
HETATM    9  O13 UNL     1     -34.957  13.237  -4.518  1.00 20.00    -0.644 OA
ENDBRANCH   4   7
BRANCH   6  10
HETATM   10  C11 UNL     1     -34.697  16.806  -2.896  1.00 20.00     0.029 C 
HETATM   11  C4  UNL     1     -35.305  16.673  -1.525  1.00 20.00    -0.024 C 
HETATM   12  C3  UNL     1     -34.554  17.790  -1.176  1.00 20.00    -0.024 C 
HETATM   13  C10 UNL     1     -33.446  17.186  -1.997  1.00 20.00     0.028 C 
ENDBRANCH   6  10
TORSDOF 3
ENDMDL
MODEL 4
REMARK VINA RESULT:      -4.6      2.415      3.341
REMARK  3 active torsions:
REMARK  status: ('A' for Active; 'I' for Inactive)
REMARK    1  A    between atoms: C6_6  and  C7_7 
REMARK    2  A    between atoms: C8_8  and  C10_10 
REMARK    3  A    between atoms: C9_9  and  C11_11 
ROOT
HETATM    1  C1  UNL     1     -34.654  14.036  -4.374  1.00 20.00    -0.021 C 
HETATM    2  C2  UNL     1     -35.626  14.982  -4.410  1.00 20.00    -0.020 C 
HETATM    3  C5  UNL     1     -32.999  15.585  -5.288  1.00 20.00    -0.003 C 
HETATM    4  C6  UNL     1     -34.022  16.441  -5.517  1.00 20.00     0.024 C 
HETATM    5  C8  UNL     1     -33.237  14.628  -4.115  1.00 20.00     0.039 C 
HETATM    6  C9  UNL     1     -35.113  16.424  -4.415  1.00 20.00     0.056 C 
ENDROOT
BRANCH   4   7
HETATM    7  C7  UNL     1     -34.033  17.415  -6.665  1.00 20.00     0.205 C 
HETATM    8  O12 UNL     1     -34.033  16.894  -7.820  1.00 20.00    -0.644 OA
HETATM    9  O13 UNL     1     -34.041  18.639  -6.341  1.00 20.00    -0.644 OA
ENDBRANCH   4   7
BRANCH   6  10
HETATM   10  C11 UNL     1     -34.193  16.745  -3.216  1.00 20.00     0.029 C 
HETATM   11  C4  UNL     1     -33.515  17.880  -2.497  1.00 20.00    -0.024 C 
HETATM   12  C3  UNL     1     -33.847  17.220  -1.319  1.00 20.00    -0.024 C 
HETATM   13  C10 UNL     1     -35.167  16.910  -1.974  1.00 20.00     0.028 C 
ENDBRANCH   6  10
TORSDOF 3
ENDMDL
MODEL 5
REMARK VINA RESULT:      -4.6      1.781      3.088
REMARK  3 active torsions:
REMARK  status: ('A' for Active; 'I' for Inactive)
REMARK    1  A    between atoms: C6_6  and  C7_7 
REMARK    2  A    between atoms: C8_8  and  C10_10 
REMARK    3  A    between atoms: C9_9  and  C11_11 
ROOT
HETATM    1  C1  UNL     1     -33.971  17.540  -1.901  1.00 20.00    -0.021 C 
HETATM    2  C2  UNL     1     -35.002  16.681  -1.707  1.00 20.00    -0.020 C 
HETATM    3  C5  UNL     1     -33.433  16.534  -4.062  1.00 20.00    -0.003 C 
HETATM    4  C6  UNL     1     -34.317  15.557  -3.755  1.00 20.00     0.024 C 
HETATM    5  C8  UNL     1     -33.739  17.883  -3.403  1.00 20.00     0.039 C 
HETATM    6  C9  UNL     1     -35.567  16.060  -2.987  1.00 20.00     0.056 C 
ENDROOT
BRANCH   4   7
HETATM    7  C7  UNL     1     -34.167  14.136  -4.232  1.00 20.00     0.205 C 
HETATM    8  O12 UNL     1     -35.247  13.547  -4.532  1.00 20.00    -0.644 OA
HETATM    9  O13 UNL     1     -32.979  13.700  -4.275  1.00 20.00    -0.644 OA
ENDBRANCH   4   7
BRANCH   6  10
HETATM   10  C11 UNL     1     -36.026  17.115  -4.019  1.00 20.00     0.029 C 
HETATM   11  C4  UNL     1     -36.793  17.278  -5.304  1.00 20.00    -0.024 C 
HETATM   12  C3  UNL     1     -37.306  18.446  -4.751  1.00 20.00    -0.024 C 
HETATM   13  C10 UNL     1     -37.397  17.683  -3.456  1.00 20.00     0.028 C 
ENDBRANCH   6  10
TORSDOF 3
ENDMDL
MODEL 6
REMARK VINA RESULT:      -4.6      2.804      4.287
REMARK  3 active torsions:
REMARK  status: ('A' for Active; 'I' for Inactive)
REMARK    1  A    between atoms: C6_6  and  C7_7 
REMARK    2  A    between atoms: C8_8  and  C10_10 
REMARK    3  A    between atoms: C9_9  and  C11_11 
ROOT
HETATM    1  C1  UNL     1     -34.511  14.070  -4.116  1.00 20.00    -0.021 C 
HETATM    2  C2  UNL     1     -33.292  14.608  -4.366  1.00 20.00    -0.020 C 
HETATM    3  C5  UNL     1     -35.327  16.160  -3.148  1.00 20.00    -0.003 C 
HETATM    4  C6  UNL     1     -34.052  16.609  -3.205  1.00 20.00     0.024 C 
HETATM    5  C8  UNL     1     -35.668  15.109  -4.210  1.00 20.00     0.039 C 
HETATM    6  C9  UNL     1     -33.276  16.136  -4.462  1.00 20.00     0.056 C 
ENDROOT
BRANCH   4   7
HETATM    7  C7  UNL     1     -33.483  17.586  -2.211  1.00 20.00     0.205 C 
HETATM    8  O12 UNL     1     -32.807  18.535  -2.708  1.00 20.00    -0.644 OA
HETATM    9  O13 UNL     1     -33.746  17.343  -0.997  1.00 20.00    -0.644 OA
ENDBRANCH   4   7
BRANCH   6  10
HETATM   10  C11 UNL     1     -34.256  16.686  -5.522  1.00 20.00     0.029 C 
HETATM   11  C4  UNL     1     -34.591  17.919  -6.317  1.00 20.00    -0.024 C 
HETATM   12  C3  UNL     1     -34.829  17.063  -7.386  1.00 20.00    -0.024 C 
HETATM   13  C10 UNL     1     -33.618  16.297  -6.923  1.00 20.00     0.028 C 
ENDBRANCH   6  10
TORSDOF 3
ENDMDL
MODEL 7
REMARK VINA RESULT:      -4.4      1.750      2.627
REMARK  3 active torsions:
REMARK  status: ('A' for Active; 'I' for Inactive)
REMARK    1  A    between atoms: C6_6  and  C7_7 
REMARK    2  A    between atoms: C8_8  and  C10_10 
REMARK    3  A    between atoms: C9_9  and  C11_11 
ROOT
HETATM    1  C1  UNL     1     -34.543  14.154  -7.798  1.00 20.00    -0.021 C 
HETATM    2  C2  UNL     1     -34.926  13.285  -6.830  1.00 20.00    -0.020 C 
HETATM    3  C5  UNL     1     -36.178  15.816  -7.068  1.00 20.00    -0.003 C 
HETATM    4  C6  UNL     1     -36.689  14.863  -6.256  1.00 20.00     0.024 C 
HETATM    5  C8  UNL     1     -34.686  15.645  -7.371  1.00 20.00     0.039 C 
HETATM    6  C9  UNL     1     -35.618  13.933  -5.628  1.00 20.00     0.056 C 
ENDROOT
BRANCH   4   7
HETATM    7  C7  UNL     1     -38.148  14.794  -5.890  1.00 20.00     0.205 C 
HETATM    8  O12 UNL     1     -38.432  14.018  -4.930  1.00 20.00    -0.644 OA
HETATM    9  O13 UNL     1     -38.918  15.520  -6.585  1.00 20.00    -0.644 OA
ENDBRANCH   4   7
BRANCH   6  10
HETATM   10  C11 UNL     1     -34.765  15.033  -4.958  1.00 20.00     0.029 C 
HETATM   11  C4  UNL     1     -34.655  15.871  -3.713  1.00 20.00    -0.024 C 
HETATM   12  C3  UNL     1     -33.281  15.676  -3.805  1.00 20.00    -0.024 C 
HETATM   13  C10 UNL     1     -33.602  14.260  -4.204  1.00 20.00     0.028 C 
ENDBRANCH   6  10
TORSDOF 3
ENDMDL
MODEL 8
REMARK VINA RESULT:      -4.4      2.406      3.914
REMARK  3 active torsions:
REMARK  status: ('A' for Active; 'I' for Inactive)
REMARK    1  A    between atoms: C6_6  and  C7_7 
REMARK    2  A    between atoms: C8_8  and  C10_10 
REMARK    3  A    between atoms: C9_9  and  C11_11 
ROOT
HETATM    1  C1  UNL     1     -36.272  14.131  -4.753  1.00 20.00    -0.021 C 
HETATM    2  C2  UNL     1     -34.952  14.049  -4.456  1.00 20.00    -0.020 C 
HETATM    3  C5  UNL     1     -36.463  16.315  -3.674  1.00 20.00    -0.003 C 
HETATM    4  C6  UNL     1     -35.210  16.120  -3.202  1.00 20.00     0.024 C 
HETATM    5  C8  UNL     1     -36.753  15.593  -4.994  1.00 20.00     0.039 C 
HETATM    6  C9  UNL     1     -34.269  15.395  -4.200  1.00 20.00     0.056 C 
ENDROOT
BRANCH   4   7
HETATM    7  C7  UNL     1     -34.735  16.673  -1.884  1.00 20.00     0.205 C 
HETATM    8  O12 UNL     1     -33.518  17.019  -1.847  1.00 20.00    -0.644 OA
HETATM    9  O13 UNL     1     -35.609  16.725  -0.970  1.00 20.00    -0.644 OA
ENDBRANCH   4   7
BRANCH   6  10
HETATM   10  C11 UNL     1     -34.423  16.385  -5.376  1.00 20.00     0.029 C 
HETATM   11  C4  UNL     1     -33.931  17.708  -5.899  1.00 20.00    -0.024 C 
HETATM   12  C3  UNL     1     -33.939  17.117  -7.158  1.00 20.00    -0.024 C 
HETATM   13  C10 UNL     1     -33.400  15.885  -6.481  1.00 20.00     0.028 C 
ENDBRANCH   6  10
TORSDOF 3
ENDMDL
MODEL 9
REMARK VINA RESULT:      -4.3      3.167      4.609
REMARK  3 active torsions:
REMARK  status: ('A' for Active; 'I' for Inactive)
REMARK    1  A    between atoms: C6_6  and  C7_7 
REMARK    2  A    between atoms: C8_8  and  C10_10 
REMARK    3  A    between atoms: C9_9  and  C11_11 
ROOT
HETATM    1  C1  UNL     1     -36.377  17.705  -3.997  1.00 20.00    -0.021 C 
HETATM    2  C2  UNL     1     -36.329  16.777  -3.009  1.00 20.00    -0.020 C 
HETATM    3  C5  UNL     1     -34.069  18.390  -3.577  1.00 20.00    -0.003 C 
HETATM    4  C6  UNL     1     -34.110  17.619  -2.466  1.00 20.00     0.024 C 
HETATM    5  C8  UNL     1     -35.003  17.921  -4.698  1.00 20.00     0.039 C 
HETATM    6  C9  UNL     1     -34.919  16.308  -2.641  1.00 20.00     0.056 C 
ENDROOT
BRANCH   4   7
HETATM    7  C7  UNL     1     -33.332  17.940  -1.217  1.00 20.00     0.205 C 
HETATM    8  O12 UNL     1     -32.124  18.273  -1.401  1.00 20.00    -0.644 OA
HETATM    9  O13 UNL     1     -33.977  17.839  -0.133  1.00 20.00    -0.644 OA
ENDBRANCH   4   7
BRANCH   6  10
HETATM   10  C11 UNL     1     -34.134  15.747  -3.848  1.00 20.00     0.029 C 
HETATM   11  C4  UNL     1     -32.924  14.929  -4.213  1.00 20.00    -0.024 C 
HETATM   12  C3  UNL     1     -33.714  14.359  -5.206  1.00 20.00    -0.024 C 
HETATM   13  C10 UNL     1     -34.827  14.361  -4.191  1.00 20.00     0.028 C 
ENDBRANCH   6  10
TORSDOF 3
ENDMDL
