MODEL 1
REMARK VINA RESULT:      -7.0      0.000      0.000
REMARK  0 active torsions:
REMARK  status: ('A' for Active; 'I' for Inactive)
ROOT
HETATM    1  C1  UNL     1     -33.592   7.620   5.954  1.00 20.00    -0.021 C 
HETATM    2  C2  UNL     1     -32.371   8.392   3.577  1.00 20.00    -0.021 C 
HETATM    3  C3  UNL     1     -34.385   6.520   6.020  1.00 20.00    -0.018 C 
HETATM    4  C4  UNL     1     -32.402   7.600   2.460  1.00 20.00    -0.024 C 
HETATM    5  C5  UNL     1     -34.174   4.623   3.886  1.00 20.00     0.135 C 
HETATM    6  C6  UNL     1     -33.730   5.055   2.454  1.00 20.00     0.087 C 
HETATM    7  C7  UNL     1     -32.752   7.533   4.745  1.00 20.00     0.036 C 
HETATM    8  C8  UNL     1     -34.598   5.848   4.699  1.00 20.00     0.083 C 
HETATM    9  C9  UNL     1     -32.852   6.214   2.871  1.00 20.00     0.021 C 
HETATM   10  C10 UNL     1     -33.778   6.815   3.904  1.00 20.00     0.020 C 
HETATM   11  O11 UNL     1     -34.249   3.467   4.275  1.00 20.00    -0.297 OA
ENDROOT
TORSDOF 0
ENDMDL
MODEL 2
REMARK VINA RESULT:      -6.4      1.833      3.038
REMARK  0 active torsions:
REMARK  status: ('A' for Active; 'I' for Inactive)
ROOT
HETATM    1  C1  UNL     1     -33.952   7.333   6.189  1.00 20.00    -0.021 C 
HETATM    2  C2  UNL     1     -34.664   4.730   5.513  1.00 20.00    -0.021 C 
HETATM    3  C3  UNL     1     -33.175   8.090   5.374  1.00 20.00    -0.018 C 
HETATM    4  C4  UNL     1     -34.391   4.206   4.279  1.00 20.00    -0.024 C 
HETATM    5  C5  UNL     1     -32.914   7.240   2.653  1.00 20.00     0.135 C 
HETATM    6  C6  UNL     1     -33.058   5.739   2.252  1.00 20.00     0.087 C 
HETATM    7  C7  UNL     1     -34.521   6.218   5.409  1.00 20.00     0.036 C 
HETATM    8  C8  UNL     1     -32.683   7.364   4.160  1.00 20.00     0.083 C 
HETATM    9  C9  UNL     1     -34.018   5.342   3.350  1.00 20.00     0.021 C 
HETATM   10  C10 UNL     1     -33.334   6.058   4.493  1.00 20.00     0.020 C 
HETATM   11  O11 UNL     1     -32.905   8.176   1.866  1.00 20.00    -0.297 OA
ENDROOT
TORSDOF 0
ENDMDL
MODEL 3
REMARK VINA RESULT:      -6.2      1.900      3.921
REMARK  0 active torsions:
REMARK  status: ('A' for Active; 'I' for Inactive)
ROOT
HETATM    1  C1  UNL     1     -33.579   4.624   2.628  1.00 20.00    -0.021 C 
HETATM    2  C2  UNL     1     -34.858   4.557   5.098  1.00 20.00    -0.021 C 
HETATM    3  C3  UNL     1     -32.997   5.758   2.162  1.00 20.00    -0.018 C 
HETATM    4  C4  UNL     1     -34.794   5.608   5.972  1.00 20.00    -0.024 C 
HETATM    5  C5  UNL     1     -32.467   7.836   4.058  1.00 20.00     0.135 C 
HETATM    6  C6  UNL     1     -33.326   7.996   5.351  1.00 20.00     0.087 C 
HETATM    7  C7  UNL     1     -33.769   4.749   4.086  1.00 20.00     0.036 C 
HETATM    8  C8  UNL     1     -33.196   6.950   3.047  1.00 20.00     0.083 C 
HETATM    9  C9  UNL     1     -33.686   6.537   5.520  1.00 20.00     0.021 C 
HETATM   10  C10 UNL     1     -34.017   6.236   4.076  1.00 20.00     0.020 C 
HETATM   11  O11 UNL     1     -31.404   8.402   3.852  1.00 20.00    -0.297 OA
ENDROOT
TORSDOF 0
ENDMDL
MODEL 4
REMARK VINA RESULT:      -6.1      1.212      2.245
REMARK  0 active torsions:
REMARK  status: ('A' for Active; 'I' for Inactive)
ROOT
HETATM    1  C1  UNL     1     -34.773   5.110   5.964  1.00 20.00    -0.021 C 
HETATM    2  C2  UNL     1     -33.705   7.672   6.155  1.00 20.00    -0.021 C 
HETATM    3  C3  UNL     1     -34.844   4.458   4.775  1.00 20.00    -0.018 C 
HETATM    4  C4  UNL     1     -33.079   8.273   5.097  1.00 20.00    -0.024 C 
HETATM    5  C5  UNL     1     -33.221   5.450   2.637  1.00 20.00     0.135 C 
HETATM    6  C6  UNL     1     -32.798   6.951   2.564  1.00 20.00     0.087 C 
HETATM    7  C7  UNL     1     -33.793   6.207   5.850  1.00 20.00     0.036 C 
HETATM    8  C8  UNL     1     -34.390   5.278   3.607  1.00 20.00     0.083 C 
HETATM    9  C9  UNL     1     -32.786   7.215   4.053  1.00 20.00     0.021 C 
HETATM   10  C10 UNL     1     -34.077   6.508   4.400  1.00 20.00     0.020 C 
HETATM   11  O11 UNL     1     -32.740   4.556   1.956  1.00 20.00    -0.297 OA
ENDROOT
TORSDOF 0
ENDMDL
MODEL 5
REMARK VINA RESULT:      -5.4      1.707      3.421
REMARK  0 active torsions:
REMARK  status: ('A' for Active; 'I' for Inactive)
ROOT
HETATM    1  C1  UNL     1     -32.568   6.943   2.237  1.00 20.00    -0.021 C 
HETATM    2  C2  UNL     1     -33.403   4.311   2.577  1.00 20.00    -0.021 C 
HETATM    3  C3  UNL     1     -32.939   7.922   3.101  1.00 20.00    -0.018 C 
HETATM    4  C4  UNL     1     -34.067   3.905   3.703  1.00 20.00    -0.024 C 
HETATM    5  C5  UNL     1     -33.956   7.104   5.649  1.00 20.00     0.135 C 
HETATM    6  C6  UNL     1     -34.664   5.727   5.839  1.00 20.00     0.087 C 
HETATM    7  C7  UNL     1     -32.766   5.632   2.884  1.00 20.00     0.036 C 
HETATM    8  C8  UNL     1     -33.889   7.464   4.164  1.00 20.00     0.083 C 
HETATM    9  C9  UNL     1     -33.915   4.979   4.759  1.00 20.00     0.021 C 
HETATM   10  C10 UNL     1     -33.972   6.046   3.689  1.00 20.00     0.020 C 
HETATM   11  O11 UNL     1     -33.581   7.828   6.560  1.00 20.00    -0.297 OA
ENDROOT
TORSDOF 0
ENDMDL
MODEL 6
REMARK VINA RESULT:      -5.3     12.160     13.056
REMARK  0 active torsions:
REMARK  status: ('A' for Active; 'I' for Inactive)
ROOT
HETATM    1  C1  UNL     1     -34.797  16.706  -2.118  1.00 20.00    -0.021 C 
HETATM    2  C2  UNL     1     -36.191  17.749   0.052  1.00 20.00    -0.021 C 
HETATM    3  C3  UNL     1     -33.531  17.103  -2.405  1.00 20.00    -0.018 C 
HETATM    4  C4  UNL     1     -35.587  18.558   0.976  1.00 20.00    -0.024 C 
HETATM    5  C5  UNL     1     -32.079  18.447  -0.336  1.00 20.00     0.135 C 
HETATM    6  C6  UNL     1     -32.811  19.263   0.774  1.00 20.00     0.087 C 
HETATM    7  C7  UNL     1     -35.106  17.062  -0.721  1.00 20.00     0.036 C 
HETATM    8  C8  UNL     1     -33.022  18.193  -1.514  1.00 20.00     0.083 C 
HETATM    9  C9  UNL     1     -34.087  18.451   0.794  1.00 20.00     0.021 C 
HETATM   10  C10 UNL     1     -34.273  18.319  -0.701  1.00 20.00     0.020 C 
HETATM   11  O11 UNL     1     -30.900  18.127  -0.304  1.00 20.00    -0.297 OA
ENDROOT
TORSDOF 0
ENDMDL
MODEL 7
REMARK VINA RESULT:      -4.9     12.198     12.959
REMARK  0 active torsions:
REMARK  status: ('A' for Active; 'I' for Inactive)
ROOT
HETATM    1  C1  UNL     1     -34.861  18.243   2.035  1.00 20.00    -0.021 C 
HETATM    2  C2  UNL     1     -33.393  18.869   4.314  1.00 20.00    -0.021 C 
HETATM    3  C3  UNL     1     -34.342  18.403   0.791  1.00 20.00    -0.018 C 
HETATM    4  C4  UNL     1     -32.065  19.194   4.249  1.00 20.00    -0.024 C 
HETATM    5  C5  UNL     1     -31.500  18.677   0.581  1.00 20.00     0.135 C 
HETATM    6  C6  UNL     1     -30.651  19.263   1.752  1.00 20.00     0.087 C 
HETATM    7  C7  UNL     1     -33.758  18.217   3.014  1.00 20.00     0.036 C 
HETATM    8  C8  UNL     1     -32.978  19.020   0.778  1.00 20.00     0.083 C 
HETATM    9  C9  UNL     1     -31.544  18.803   2.882  1.00 20.00     0.021 C 
HETATM   10  C10 UNL     1     -32.872  19.179   2.263  1.00 20.00     0.020 C 
HETATM   11  O11 UNL     1     -31.042  18.098  -0.393  1.00 20.00    -0.297 OA
ENDROOT
TORSDOF 0
ENDMDL
MODEL 8
REMARK VINA RESULT:      -4.8     12.316     12.978
REMARK  0 active torsions:
REMARK  status: ('A' for Active; 'I' for Inactive)
ROOT
HETATM    1  C1  UNL     1     -33.626  16.820  -2.592  1.00 20.00    -0.021 C 
HETATM    2  C2  UNL     1     -32.166  18.321  -0.761  1.00 20.00    -0.021 C 
HETATM    3  C3  UNL     1     -34.935  16.526  -2.385  1.00 20.00    -0.018 C 
HETATM    4  C4  UNL     1     -32.764  18.937   0.306  1.00 20.00    -0.024 C 
HETATM    5  C5  UNL     1     -36.336  18.085  -0.436  1.00 20.00     0.135 C 
HETATM    6  C6  UNL     1     -35.591  18.748   0.764  1.00 20.00     0.087 C 
HETATM    7  C7  UNL     1     -33.249  17.956  -1.731  1.00 20.00     0.036 C 
HETATM    8  C8  UNL     1     -35.461  17.000  -1.066  1.00 20.00     0.083 C 
HETATM    9  C9  UNL     1     -34.260  18.946   0.074  1.00 20.00     0.021 C 
HETATM   10  C10 UNL     1     -34.170  17.592  -0.594  1.00 20.00     0.020 C 
HETATM   11  O11 UNL     1     -37.483  18.340  -0.773  1.00 20.00    -0.297 OA
ENDROOT
TORSDOF 0
ENDMDL
MODEL 9
REMARK VINA RESULT:      -4.8     11.904     12.518
REMARK  0 active torsions:
REMARK  status: ('A' for Active; 'I' for Inactive)
ROOT
HETATM    1  C1  UNL     1     -35.866  17.109  -3.020  1.00 20.00    -0.021 C 
HETATM    2  C2  UNL     1     -33.536  15.671  -3.515  1.00 20.00    -0.021 C 
HETATM    3  C3  UNL     1     -37.017  16.847  -3.691  1.00 20.00    -0.018 C 
HETATM    4  C4  UNL     1     -33.529  14.564  -4.320  1.00 20.00    -0.024 C 
HETATM    5  C5  UNL     1     -37.196  14.338  -5.057  1.00 20.00     0.135 C 
HETATM    6  C6  UNL     1     -35.923  13.605  -5.582  1.00 20.00     0.087 C 
HETATM    7  C7  UNL     1     -34.963  15.950  -3.149  1.00 20.00     0.036 C 
HETATM    8  C8  UNL     1     -36.874  15.802  -4.754  1.00 20.00     0.083 C 
HETATM    9  C9  UNL     1     -34.962  14.123  -4.535  1.00 20.00     0.021 C 
HETATM   10  C10 UNL     1     -35.412  15.566  -4.537  1.00 20.00     0.020 C 
HETATM   11  O11 UNL     1     -38.308  13.837  -4.977  1.00 20.00    -0.297 OA
ENDROOT
TORSDOF 0
ENDMDL
