MODEL 1
REMARK VINA RESULT:      -5.5      0.000      0.000
REMARK  0 active torsions:
REMARK  status: ('A' for Active; 'I' for Inactive)
ROOT
HETATM    1  C1  UNL     1     -35.404  13.536  -6.337  1.00 20.00     0.064 C 
HETATM    2  C2  UNL     1     -33.588  16.425  -6.655  1.00 20.00    -0.030 C 
HETATM    3  C3  UNL     1     -34.851  16.816  -6.853  1.00 20.00    -0.030 C 
HETATM    4  C4  UNL     1     -33.106  15.591  -5.515  1.00 20.00     0.037 C 
HETATM    5  C5  UNL     1     -36.016  16.522  -5.966  1.00 20.00     0.038 C 
HETATM    6  C6  UNL     1     -34.774  16.603  -2.137  1.00 20.00     0.001 C 
HETATM    7  C7  UNL     1     -36.119  17.018  -2.723  1.00 20.00     0.001 C 
HETATM    8  C8  UNL     1     -33.722  16.437  -3.226  1.00 20.00     0.011 C 
HETATM    9  C9  UNL     1     -36.663  15.908  -3.610  1.00 20.00     0.012 C 
HETATM   10  C10 UNL     1     -34.431  14.003  -4.027  1.00 20.00     0.030 C 
HETATM   11  C11 UNL     1     -35.650  14.034  -4.996  1.00 20.00     0.103 C 
HETATM   12  C12 UNL     1     -34.150  15.505  -4.373  1.00 20.00    -0.027 C 
HETATM   13  C13 UNL     1     -35.687  15.600  -4.782  1.00 20.00    -0.013 C 
HETATM   14  N14 UNL     1     -35.208  13.138  -7.409  1.00 20.00    -0.197 NA
ENDROOT
TORSDOF 0
ENDMDL
MODEL 2
REMARK VINA RESULT:      -5.4      1.263      2.151
REMARK  0 active torsions:
REMARK  status: ('A' for Active; 'I' for Inactive)
ROOT
HETATM    1  C1  UNL     1     -35.258  13.671  -4.691  1.00 20.00     0.064 C 
HETATM    2  C2  UNL     1     -36.392  16.533  -6.197  1.00 20.00    -0.030 C 
HETATM    3  C3  UNL     1     -37.152  16.422  -5.104  1.00 20.00    -0.030 C 
HETATM    4  C4  UNL     1     -34.904  16.442  -6.232  1.00 20.00     0.037 C 
HETATM    5  C5  UNL     1     -36.666  16.216  -3.707  1.00 20.00     0.038 C 
HETATM    6  C6  UNL     1     -33.243  18.275  -3.217  1.00 20.00     0.001 C 
HETATM    7  C7  UNL     1     -34.352  17.997  -2.209  1.00 20.00     0.001 C 
HETATM    8  C8  UNL     1     -33.695  17.969  -4.638  1.00 20.00     0.011 C 
HETATM    9  C9  UNL     1     -34.675  16.510  -2.192  1.00 20.00     0.012 C 
HETATM   10  C10 UNL     1     -33.332  15.337  -4.559  1.00 20.00     0.030 C 
HETATM   11  C11 UNL     1     -34.514  14.601  -3.861  1.00 20.00     0.103 C 
HETATM   12  C12 UNL     1     -34.279  16.557  -4.819  1.00 20.00    -0.027 C 
HETATM   13  C13 UNL     1     -35.146  16.025  -3.593  1.00 20.00    -0.013 C 
HETATM   14  N14 UNL     1     -35.852  12.928  -5.354  1.00 20.00    -0.197 NA
ENDROOT
TORSDOF 0
ENDMDL
MODEL 3
REMARK VINA RESULT:      -5.2      2.049      4.017
REMARK  0 active torsions:
REMARK  status: ('A' for Active; 'I' for Inactive)
ROOT
HETATM    1  C1  UNL     1     -34.638  16.202  -2.765  1.00 20.00     0.064 C 
HETATM    2  C2  UNL     1     -37.414  16.210  -4.775  1.00 20.00    -0.030 C 
HETATM    3  C3  UNL     1     -36.690  17.240  -5.223  1.00 20.00    -0.030 C 
HETATM    4  C4  UNL     1     -36.904  14.828  -4.541  1.00 20.00     0.037 C 
HETATM    5  C5  UNL     1     -35.245  17.206  -5.602  1.00 20.00     0.038 C 
HETATM    6  C6  UNL     1     -34.453  13.665  -7.343  1.00 20.00     0.001 C 
HETATM    7  C7  UNL     1     -33.857  15.037  -7.636  1.00 20.00     0.001 C 
HETATM    8  C8  UNL     1     -35.710  13.776  -6.492  1.00 20.00     0.011 C 
HETATM    9  C9  UNL     1     -33.382  15.682  -6.342  1.00 20.00     0.012 C 
HETATM   10  C10 UNL     1     -34.510  14.056  -4.136  1.00 20.00     0.030 C 
HETATM   11  C11 UNL     1     -34.029  15.517  -3.890  1.00 20.00     0.103 C 
HETATM   12  C12 UNL     1     -35.522  14.596  -5.203  1.00 20.00    -0.027 C 
HETATM   13  C13 UNL     1     -34.559  15.857  -5.341  1.00 20.00    -0.013 C 
HETATM   14  N14 UNL     1     -35.125  16.750  -1.866  1.00 20.00    -0.197 NA
ENDROOT
TORSDOF 0
ENDMDL
MODEL 4
REMARK VINA RESULT:      -5.1      1.105      2.940
REMARK  0 active torsions:
REMARK  status: ('A' for Active; 'I' for Inactive)
ROOT
HETATM    1  C1  UNL     1     -33.788  15.687  -6.745  1.00 20.00     0.064 C 
HETATM    2  C2  UNL     1     -36.622  14.181  -5.541  1.00 20.00    -0.030 C 
HETATM    3  C3  UNL     1     -35.631  13.579  -4.877  1.00 20.00    -0.030 C 
HETATM    4  C4  UNL     1     -36.798  15.655  -5.688  1.00 20.00     0.037 C 
HETATM    5  C5  UNL     1     -34.528  14.255  -4.131  1.00 20.00     0.038 C 
HETATM    6  C6  UNL     1     -35.998  17.572  -2.386  1.00 20.00     0.001 C 
HETATM    7  C7  UNL     1     -34.912  16.624  -1.892  1.00 20.00     0.001 C 
HETATM    8  C8  UNL     1     -36.788  16.959  -3.535  1.00 20.00     0.011 C 
HETATM    9  C9  UNL     1     -33.878  16.404  -2.987  1.00 20.00     0.012 C 
HETATM   10  C10 UNL     1     -35.054  17.500  -5.476  1.00 20.00     0.030 C 
HETATM   11  C11 UNL     1     -33.887  16.470  -5.527  1.00 20.00     0.103 C 
HETATM   12  C12 UNL     1     -35.914  16.450  -4.694  1.00 20.00    -0.027 C 
HETATM   13  C13 UNL     1     -34.533  15.786  -4.256  1.00 20.00    -0.013 C 
HETATM   14  N14 UNL     1     -33.709  15.060  -7.718  1.00 20.00    -0.197 NA
ENDROOT
TORSDOF 0
ENDMDL
MODEL 5
REMARK VINA RESULT:      -5.0      1.022      2.029
REMARK  0 active torsions:
REMARK  status: ('A' for Active; 'I' for Inactive)
ROOT
HETATM    1  C1  UNL     1     -35.505  13.657  -6.754  1.00 20.00     0.064 C 
HETATM    2  C2  UNL     1     -33.145  14.872  -4.588  1.00 20.00    -0.030 C 
HETATM    3  C3  UNL     1     -33.076  15.699  -5.635  1.00 20.00    -0.030 C 
HETATM    4  C4  UNL     1     -34.394  14.473  -3.877  1.00 20.00     0.037 C 
HETATM    5  C5  UNL     1     -34.224  16.406  -6.279  1.00 20.00     0.038 C 
HETATM    6  C6  UNL     1     -36.854  17.466  -3.422  1.00 20.00     0.001 C 
HETATM    7  C7  UNL     1     -36.489  18.190  -4.713  1.00 20.00     0.001 C 
HETATM    8  C8  UNL     1     -35.841  16.377  -3.092  1.00 20.00     0.011 C 
HETATM    9  C9  UNL     1     -36.573  17.228  -5.888  1.00 20.00     0.012 C 
HETATM   10  C10 UNL     1     -36.796  14.510  -4.728  1.00 20.00     0.030 C 
HETATM   11  C11 UNL     1     -36.324  14.718  -6.197  1.00 20.00     0.103 C 
HETATM   12  C12 UNL     1     -35.591  15.387  -4.243  1.00 20.00    -0.027 C 
HETATM   13  C13 UNL     1     -35.596  16.031  -5.700  1.00 20.00    -0.013 C 
HETATM   14  N14 UNL     1     -34.852  12.808  -7.199  1.00 20.00    -0.197 NA
ENDROOT
TORSDOF 0
ENDMDL
MODEL 6
REMARK VINA RESULT:      -5.0      1.527      1.703
REMARK  0 active torsions:
REMARK  status: ('A' for Active; 'I' for Inactive)
ROOT
HETATM    1  C1  UNL     1     -35.846  13.898  -4.841  1.00 20.00     0.064 C 
HETATM    2  C2  UNL     1     -33.638  15.439  -6.960  1.00 20.00    -0.030 C 
HETATM    3  C3  UNL     1     -34.836  15.786  -7.437  1.00 20.00    -0.030 C 
HETATM    4  C4  UNL     1     -33.206  15.548  -5.536  1.00 20.00     0.037 C 
HETATM    5  C5  UNL     1     -35.964  16.373  -6.654  1.00 20.00     0.038 C 
HETATM    6  C6  UNL     1     -34.444  18.849  -3.868  1.00 20.00     0.001 C 
HETATM    7  C7  UNL     1     -35.749  18.962  -4.648  1.00 20.00     0.001 C 
HETATM    8  C8  UNL     1     -33.513  17.816  -4.489  1.00 20.00     0.011 C 
HETATM    9  C9  UNL     1     -36.521  17.653  -4.557  1.00 20.00     0.012 C 
HETATM   10  C10 UNL     1     -34.644  15.653  -3.436  1.00 20.00     0.030 C 
HETATM   11  C11 UNL     1     -35.912  15.209  -4.223  1.00 20.00     0.103 C 
HETATM   12  C12 UNL     1     -34.163  16.438  -4.703  1.00 20.00    -0.027 C 
HETATM   13  C13 UNL     1     -35.693  16.475  -5.145  1.00 20.00    -0.013 C 
HETATM   14  N14 UNL     1     -35.793  12.849  -5.335  1.00 20.00    -0.197 NA
ENDROOT
TORSDOF 0
ENDMDL
MODEL 7
REMARK VINA RESULT:      -5.0      2.667      4.096
REMARK  0 active torsions:
REMARK  status: ('A' for Active; 'I' for Inactive)
ROOT
HETATM    1  C1  UNL     1     -33.189  17.807  -2.033  1.00 20.00     0.064 C 
HETATM    2  C2  UNL     1     -34.676  19.038  -4.864  1.00 20.00    -0.030 C 
HETATM    3  C3  UNL     1     -33.701  18.251  -5.329  1.00 20.00    -0.030 C 
HETATM    4  C4  UNL     1     -35.683  18.654  -3.833  1.00 20.00     0.037 C 
HETATM    5  C5  UNL     1     -33.445  16.834  -4.934  1.00 20.00     0.038 C 
HETATM    6  C6  UNL     1     -36.979  15.008  -4.320  1.00 20.00     0.001 C 
HETATM    7  C7  UNL     1     -35.682  14.434  -4.878  1.00 20.00     0.001 C 
HETATM    8  C8  UNL     1     -36.949  16.530  -4.302  1.00 20.00     0.011 C 
HETATM    9  C9  UNL     1     -34.523  14.779  -3.954  1.00 20.00     0.012 C 
HETATM   10  C10 UNL     1     -35.541  16.823  -2.066  1.00 20.00     0.030 C 
HETATM   11  C11 UNL     1     -34.013  16.644  -2.306  1.00 20.00     0.103 C 
HETATM   12  C12 UNL     1     -35.719  17.124  -3.593  1.00 20.00    -0.027 C 
HETATM   13  C13 UNL     1     -34.362  16.320  -3.814  1.00 20.00    -0.013 C 
HETATM   14  N14 UNL     1     -32.530  18.737  -1.815  1.00 20.00    -0.197 NA
ENDROOT
TORSDOF 0
ENDMDL
MODEL 8
REMARK VINA RESULT:      -4.9      1.344      3.406
REMARK  0 active torsions:
REMARK  status: ('A' for Active; 'I' for Inactive)
ROOT
HETATM    1  C1  UNL     1     -35.771  13.759  -5.858  1.00 20.00     0.064 C 
HETATM    2  C2  UNL     1     -34.547  15.731  -3.337  1.00 20.00    -0.030 C 
HETATM    3  C3  UNL     1     -33.464  15.417  -4.054  1.00 20.00    -0.030 C 
HETATM    4  C4  UNL     1     -35.826  16.267  -3.887  1.00 20.00     0.037 C 
HETATM    5  C5  UNL     1     -33.309  15.565  -5.532  1.00 20.00     0.038 C 
HETATM    6  C6  UNL     1     -35.235  18.900  -6.703  1.00 20.00     0.001 C 
HETATM    7  C7  UNL     1     -33.957  18.280  -7.257  1.00 20.00     0.001 C 
HETATM    8  C8  UNL     1     -35.601  18.301  -5.351  1.00 20.00     0.011 C 
HETATM    9  C9  UNL     1     -34.181  16.803  -7.545  1.00 20.00     0.012 C 
HETATM   10  C10 UNL     1     -36.748  16.080  -6.255  1.00 20.00     0.030 C 
HETATM   11  C11 UNL     1     -35.703  14.987  -6.628  1.00 20.00     0.103 C 
HETATM   12  C12 UNL     1     -35.671  16.764  -5.346  1.00 20.00    -0.027 C 
HETATM   13  C13 UNL     1     -34.582  16.037  -6.252  1.00 20.00    -0.013 C 
HETATM   14  N14 UNL     1     -35.825  12.777  -5.243  1.00 20.00    -0.197 NA
ENDROOT
TORSDOF 0
ENDMDL
MODEL 9
REMARK VINA RESULT:      -4.9      2.195      3.775
REMARK  0 active torsions:
REMARK  status: ('A' for Active; 'I' for Inactive)
ROOT
HETATM    1  C1  UNL     1     -34.611  16.805  -2.486  1.00 20.00     0.064 C 
HETATM    2  C2  UNL     1     -32.872  15.564  -5.166  1.00 20.00    -0.030 C 
HETATM    3  C3  UNL     1     -33.297  14.471  -4.525  1.00 20.00    -0.030 C 
HETATM    4  C4  UNL     1     -33.719  16.731  -5.548  1.00 20.00     0.037 C 
HETATM    5  C5  UNL     1     -34.699  14.190  -4.093  1.00 20.00     0.038 C 
HETATM    6  C6  UNL     1     -37.222  15.639  -6.875  1.00 20.00     0.001 C 
HETATM    7  C7  UNL     1     -37.363  14.400  -5.998  1.00 20.00     0.001 C 
HETATM    8  C8  UNL     1     -35.794  16.170  -6.858  1.00 20.00     0.011 C 
HETATM    9  C9  UNL     1     -37.110  14.764  -4.542  1.00 20.00     0.012 C 
HETATM   10  C10 UNL     1     -35.940  17.486  -4.552  1.00 20.00     0.030 C 
HETATM   11  C11 UNL     1     -35.766  16.543  -3.325  1.00 20.00     0.103 C 
HETATM   12  C12 UNL     1     -35.232  16.411  -5.446  1.00 20.00    -0.027 C 
HETATM   13  C13 UNL     1     -35.679  15.344  -4.352  1.00 20.00    -0.013 C 
HETATM   14  N14 UNL     1     -33.688  17.014  -1.815  1.00 20.00    -0.197 NA
ENDROOT
TORSDOF 0
ENDMDL
