MODEL 1
REMARK VINA RESULT:      -4.4      0.000      0.000
REMARK  0 active torsions:
REMARK  status: ('A' for Active; 'I' for Inactive)
ROOT
HETATM    1  C1  UNL     1     -35.897  16.413  -5.630  1.00 20.00    -0.002 C 
HETATM    2  C2  UNL     1     -35.499  14.159  -4.601  1.00 20.00    -0.002 C 
HETATM    3  C3  UNL     1     -34.673  16.964  -5.627  1.00 20.00    -0.022 C 
HETATM    4  C4  UNL     1     -34.180  14.173  -4.351  1.00 20.00    -0.022 C 
HETATM    5  C5  UNL     1     -35.239  16.511  -2.615  1.00 20.00     0.079 C 
HETATM    6  C6  UNL     1     -36.337  15.402  -4.613  1.00 20.00     0.128 C 
HETATM    7  C7  UNL     1     -33.588  16.704  -4.671  1.00 20.00     0.028 A 
HETATM    8  C8  UNL     1     -33.348  15.347  -4.050  1.00 20.00     0.028 A 
HETATM    9  C9  UNL     1     -33.866  16.487  -3.199  1.00 20.00     0.063 A 
HETATM   10  N10 UNL     1     -36.334  16.010  -3.287  1.00 20.00    -0.373 N 
HETATM   11  S11 UNL     1     -35.386  17.181  -1.090  1.00 20.00    -0.065 SA
HETATM   12  H20 UNL     1     -37.228  16.072  -2.810  1.00 20.00     0.161 HD
ENDROOT
TORSDOF 0
ENDMDL
MODEL 2
REMARK VINA RESULT:      -4.3      2.084      3.099
REMARK  0 active torsions:
REMARK  status: ('A' for Active; 'I' for Inactive)
ROOT
HETATM    1  C1  UNL     1     -32.918  15.513  -5.293  1.00 20.00    -0.002 C 
HETATM    2  C2  UNL     1     -34.206  14.658  -7.269  1.00 20.00    -0.002 C 
HETATM    3  C3  UNL     1     -33.376  14.754  -4.286  1.00 20.00    -0.022 C 
HETATM    4  C4  UNL     1     -34.973  13.695  -6.733  1.00 20.00    -0.022 C 
HETATM    5  C5  UNL     1     -35.916  16.245  -5.246  1.00 20.00     0.079 C 
HETATM    6  C6  UNL     1     -33.745  15.856  -6.496  1.00 20.00     0.128 C 
HETATM    7  C7  UNL     1     -34.712  14.153  -4.168  1.00 20.00     0.028 A 
HETATM    8  C8  UNL     1     -35.489  13.638  -5.358  1.00 20.00     0.028 A 
HETATM    9  C9  UNL     1     -35.953  14.884  -4.634  1.00 20.00     0.063 A 
HETATM   10  N10 UNL     1     -34.899  16.648  -6.084  1.00 20.00    -0.373 N 
HETATM   11  S11 UNL     1     -37.184  17.266  -4.862  1.00 20.00    -0.065 SA
HETATM   12  H20 UNL     1     -34.960  17.593  -6.452  1.00 20.00     0.161 HD
ENDROOT
TORSDOF 0
ENDMDL
MODEL 3
REMARK VINA RESULT:      -4.2      2.165      2.811
REMARK  0 active torsions:
REMARK  status: ('A' for Active; 'I' for Inactive)
ROOT
HETATM    1  C1  UNL     1     -35.362  13.430  -6.406  1.00 20.00    -0.002 C 
HETATM    2  C2  UNL     1     -34.466  14.121  -4.166  1.00 20.00    -0.002 C 
HETATM    3  C3  UNL     1     -34.489  13.983  -7.261  1.00 20.00    -0.022 C 
HETATM    4  C4  UNL     1     -33.379  14.840  -4.488  1.00 20.00    -0.022 C 
HETATM    5  C5  UNL     1     -35.685  16.440  -5.801  1.00 20.00     0.079 C 
HETATM    6  C6  UNL     1     -35.665  14.015  -5.059  1.00 20.00     0.128 C 
HETATM    7  C7  UNL     1     -33.710  15.213  -7.059  1.00 20.00     0.028 A 
HETATM    8  C8  UNL     1     -33.170  15.630  -5.710  1.00 20.00     0.028 A 
HETATM    9  C9  UNL     1     -34.297  16.414  -6.349  1.00 20.00     0.063 A 
HETATM   10  N10 UNL     1     -36.271  15.333  -5.225  1.00 20.00    -0.373 N 
HETATM   11  S11 UNL     1     -36.504  17.893  -5.922  1.00 20.00    -0.065 SA
HETATM   12  H20 UNL     1     -37.220  15.446  -4.881  1.00 20.00     0.161 HD
ENDROOT
TORSDOF 0
ENDMDL
MODEL 4
REMARK VINA RESULT:      -4.2      2.086      2.913
REMARK  0 active torsions:
REMARK  status: ('A' for Active; 'I' for Inactive)
ROOT
HETATM    1  C1  UNL     1     -36.314  14.504  -4.564  1.00 20.00    -0.002 C 
HETATM    2  C2  UNL     1     -35.977  16.455  -3.021  1.00 20.00    -0.002 C 
HETATM    3  C3  UNL     1     -35.094  13.948  -4.613  1.00 20.00    -0.022 C 
HETATM    4  C4  UNL     1     -34.676  16.364  -2.704  1.00 20.00    -0.022 C 
HETATM    5  C5  UNL     1     -34.615  16.779  -5.774  1.00 20.00     0.079 C 
HETATM    6  C6  UNL     1     -36.532  15.969  -4.326  1.00 20.00     0.128 C 
HETATM    7  C7  UNL     1     -33.803  14.632  -4.463  1.00 20.00     0.028 A 
HETATM    8  C8  UNL     1     -33.599  15.807  -3.534  1.00 20.00     0.028 A 
HETATM    9  C9  UNL     1     -33.568  16.014  -5.034  1.00 20.00     0.063 A 
HETATM   10  N10 UNL     1     -35.947  16.733  -5.423  1.00 20.00    -0.373 N 
HETATM   11  S11 UNL     1     -34.085  17.706  -7.061  1.00 20.00    -0.065 SA
HETATM   12  H20 UNL     1     -36.586  17.287  -5.986  1.00 20.00     0.161 HD
ENDROOT
TORSDOF 0
ENDMDL
MODEL 5
REMARK VINA RESULT:      -4.1      2.143      3.276
REMARK  0 active torsions:
REMARK  status: ('A' for Active; 'I' for Inactive)
ROOT
HETATM    1  C1  UNL     1     -33.935  16.409  -2.868  1.00 20.00    -0.002 C 
HETATM    2  C2  UNL     1     -33.761  14.394  -4.353  1.00 20.00    -0.002 C 
HETATM    3  C3  UNL     1     -35.257  16.516  -2.664  1.00 20.00    -0.022 C 
HETATM    4  C4  UNL     1     -35.041  14.021  -4.504  1.00 20.00    -0.022 C 
HETATM    5  C5  UNL     1     -34.997  16.867  -5.731  1.00 20.00     0.079 C 
HETATM    6  C6  UNL     1     -33.350  15.816  -4.115  1.00 20.00     0.128 C 
HETATM    7  C7  UNL     1     -36.330  16.105  -3.579  1.00 20.00     0.028 A 
HETATM    8  C8  UNL     1     -36.226  14.891  -4.474  1.00 20.00     0.028 A 
HETATM    9  C9  UNL     1     -36.204  16.280  -5.077  1.00 20.00     0.063 A 
HETATM   10  N10 UNL     1     -33.720  16.634  -5.265  1.00 20.00    -0.373 N 
HETATM   11  S11 UNL     1     -35.272  17.830  -7.070  1.00 20.00    -0.065 SA
HETATM   12  H20 UNL     1     -32.962  17.077  -5.775  1.00 20.00     0.161 HD
ENDROOT
TORSDOF 0
ENDMDL
MODEL 6
REMARK VINA RESULT:      -4.1      1.006      2.738
REMARK  0 active torsions:
REMARK  status: ('A' for Active; 'I' for Inactive)
ROOT
HETATM    1  C1  UNL     1     -33.752  14.352  -4.460  1.00 20.00    -0.002 C 
HETATM    2  C2  UNL     1     -33.716  16.660  -5.444  1.00 20.00    -0.002 C 
HETATM    3  C3  UNL     1     -35.055  14.033  -4.492  1.00 20.00    -0.022 C 
HETATM    4  C4  UNL     1     -35.011  16.892  -5.710  1.00 20.00    -0.022 C 
HETATM    5  C5  UNL     1     -34.992  16.511  -2.635  1.00 20.00     0.079 C 
HETATM    6  C6  UNL     1     -33.262  15.763  -4.332  1.00 20.00     0.128 C 
HETATM    7  C7  UNL     1     -36.194  14.956  -4.402  1.00 20.00     0.028 A 
HETATM    8  C8  UNL     1     -36.174  16.347  -4.994  1.00 20.00     0.028 A 
HETATM    9  C9  UNL     1     -36.164  16.165  -3.491  1.00 20.00     0.063 A 
HETATM   10  N10 UNL     1     -33.692  16.314  -3.050  1.00 20.00    -0.373 N 
HETATM   11  S11 UNL     1     -35.335  17.158  -1.131  1.00 20.00    -0.065 SA
HETATM   12  H20 UNL     1     -32.960  16.580  -2.398  1.00 20.00     0.161 HD
ENDROOT
TORSDOF 0
ENDMDL
MODEL 7
REMARK VINA RESULT:      -4.1     11.770     13.109
REMARK  0 active torsions:
REMARK  status: ('A' for Active; 'I' for Inactive)
ROOT
HETATM    1  C1  UNL     1     -43.417   7.294   0.850  1.00 20.00    -0.002 C 
HETATM    2  C2  UNL     1     -41.676   8.029  -0.800  1.00 20.00    -0.002 C 
HETATM    3  C3  UNL     1     -42.792   6.322   1.532  1.00 20.00    -0.022 C 
HETATM    4  C4  UNL     1     -40.635   7.231  -0.513  1.00 20.00    -0.022 C 
HETATM    5  C5  UNL     1     -42.836   5.223  -1.364  1.00 20.00     0.079 C 
HETATM    6  C6  UNL     1     -43.100   7.619  -0.579  1.00 20.00     0.128 C 
HETATM    7  C7  UNL     1     -41.739   5.428   1.032  1.00 20.00     0.028 A 
HETATM    8  C8  UNL     1     -40.690   5.869   0.038  1.00 20.00     0.028 A 
HETATM    9  C9  UNL     1     -41.763   4.888  -0.382  1.00 20.00     0.063 A 
HETATM   10  N10 UNL     1     -43.417   6.471  -1.423  1.00 20.00    -0.373 N 
HETATM   11  S11 UNL     1     -43.301   3.997  -2.402  1.00 20.00    -0.065 SA
HETATM   12  H20 UNL     1     -44.140   6.605  -2.124  1.00 20.00     0.161 HD
ENDROOT
TORSDOF 0
ENDMDL
MODEL 8
REMARK VINA RESULT:      -4.1      2.542      3.699
REMARK  0 active torsions:
REMARK  status: ('A' for Active; 'I' for Inactive)
ROOT
HETATM    1  C1  UNL     1     -33.900  15.252  -4.627  1.00 20.00    -0.002 C 
HETATM    2  C2  UNL     1     -33.735  15.011  -7.120  1.00 20.00    -0.002 C 
HETATM    3  C3  UNL     1     -34.638  14.188  -4.272  1.00 20.00    -0.022 C 
HETATM    4  C4  UNL     1     -34.435  13.890  -7.359  1.00 20.00    -0.022 C 
HETATM    5  C5  UNL     1     -36.553  15.779  -6.115  1.00 20.00     0.079 C 
HETATM    6  C6  UNL     1     -34.026  15.920  -5.964  1.00 20.00     0.128 C 
HETATM    7  C7  UNL     1     -35.666  13.516  -5.079  1.00 20.00     0.028 A 
HETATM    8  C8  UNL     1     -35.567  13.370  -6.580  1.00 20.00     0.028 A 
HETATM    9  C9  UNL     1     -36.604  14.294  -5.976  1.00 20.00     0.063 A 
HETATM   10  N10 UNL     1     -35.366  16.480  -6.105  1.00 20.00    -0.373 N 
HETATM   11  S11 UNL     1     -38.022  16.559  -6.288  1.00 20.00    -0.065 SA
HETATM   12  H20 UNL     1     -35.432  17.489  -6.206  1.00 20.00     0.161 HD
ENDROOT
TORSDOF 0
ENDMDL
MODEL 9
REMARK VINA RESULT:      -4.0      1.712      2.733
REMARK  0 active torsions:
REMARK  status: ('A' for Active; 'I' for Inactive)
ROOT
HETATM    1  C1  UNL     1     -33.084  15.529  -5.823  1.00 20.00    -0.002 C 
HETATM    2  C2  UNL     1     -35.203  16.848  -6.091  1.00 20.00    -0.002 C 
HETATM    3  C3  UNL     1     -33.379  14.691  -4.818  1.00 20.00    -0.022 C 
HETATM    4  C4  UNL     1     -36.002  16.324  -5.149  1.00 20.00    -0.022 C 
HETATM    5  C5  UNL     1     -33.648  17.480  -3.498  1.00 20.00     0.079 C 
HETATM    6  C6  UNL     1     -33.710  16.885  -5.962  1.00 20.00     0.128 C 
HETATM    7  C7  UNL     1     -34.314  14.931  -3.711  1.00 20.00     0.028 A 
HETATM    8  C8  UNL     1     -35.590  15.725  -3.871  1.00 20.00     0.028 A 
HETATM    9  C9  UNL     1     -34.442  16.293  -3.064  1.00 20.00     0.063 A 
HETATM   10  N10 UNL     1     -33.336  17.714  -4.820  1.00 20.00    -0.373 N 
HETATM   11  S11 UNL     1     -33.152  18.523  -2.289  1.00 20.00    -0.065 SA
HETATM   12  H20 UNL     1     -32.791  18.547  -5.019  1.00 20.00     0.161 HD
ENDROOT
TORSDOF 0
ENDMDL
