MODEL 1
REMARK VINA RESULT:      -4.7      0.000      0.000
REMARK  1 active torsions:
REMARK  status: ('A' for Active; 'I' for Inactive)
REMARK    1  A    between atoms: C3_3  and  C8_8 
ROOT
HETATM    1  C1  UNL     1     -34.572  14.619  -4.558  1.00 20.00     0.147 C 
HETATM    2  C4  UNL     1     -34.032  16.709  -6.487  1.00 20.00     0.007 C 
HETATM    3  C5  UNL     1     -33.271  16.598  -5.151  1.00 20.00     0.022 C 
HETATM    4  C6  UNL     1     -35.628  16.677  -4.760  1.00 20.00     0.027 C 
HETATM    5  C7  UNL     1     -35.410  16.089  -6.162  1.00 20.00     0.002 C 
HETATM    6  C8  UNL     1     -34.344  16.078  -4.190  1.00 20.00     0.038 C 
HETATM    7  C9  UNL     1     -35.321  14.550  -5.888  1.00 20.00     0.018 C 
HETATM    8  C10 UNL     1     -36.700  13.915  -5.694  1.00 20.00     0.023 C 
HETATM    9  C11 UNL     1     -34.528  13.770  -6.935  1.00 20.00     0.023 C 
HETATM   10  O12 UNL     1     -34.189  13.650  -3.918  1.00 20.00    -0.296 OA
ENDROOT
BRANCH   6  11
HETATM   11  C3  UNL     1     -34.101  16.292  -2.747  1.00 20.00    -0.020 C 
HETATM   12  C2  UNL     1     -35.035  16.709  -1.885  1.00 20.00     0.008 C 
ENDBRANCH   6  11
TORSDOF 1
ENDMDL
MODEL 2
REMARK VINA RESULT:      -4.6      1.474      2.499
REMARK  1 active torsions:
REMARK  status: ('A' for Active; 'I' for Inactive)
REMARK    1  A    between atoms: C3_3  and  C8_8 
ROOT
HETATM    1  C1  UNL     1     -34.561  15.682  -5.793  1.00 20.00     0.147 C 
HETATM    2  C4  UNL     1     -37.013  14.728  -4.585  1.00 20.00     0.007 C 
HETATM    3  C5  UNL     1     -36.205  15.905  -4.002  1.00 20.00     0.022 C 
HETATM    4  C6  UNL     1     -34.811  13.977  -4.237  1.00 20.00     0.027 C 
HETATM    5  C7  UNL     1     -35.933  13.867  -5.280  1.00 20.00     0.002 C 
HETATM    6  C8  UNL     1     -34.757  15.502  -4.295  1.00 20.00     0.038 C 
HETATM    7  C9  UNL     1     -35.319  14.580  -6.533  1.00 20.00     0.018 C 
HETATM    8  C10 UNL     1     -34.346  13.678  -7.294  1.00 20.00     0.023 C 
HETATM    9  C11 UNL     1     -36.353  15.164  -7.493  1.00 20.00     0.023 C 
HETATM   10  O12 UNL     1     -33.931  16.581  -6.330  1.00 20.00    -0.296 OA
ENDROOT
BRANCH   6  11
HETATM   11  C3  UNL     1     -33.710  16.155  -3.479  1.00 20.00    -0.020 C 
HETATM   12  C2  UNL     1     -33.943  16.768  -2.314  1.00 20.00     0.008 C 
ENDBRANCH   6  11
TORSDOF 1
ENDMDL
MODEL 3
REMARK VINA RESULT:      -4.4      1.602      2.540
REMARK  1 active torsions:
REMARK  status: ('A' for Active; 'I' for Inactive)
REMARK    1  A    between atoms: C3_3  and  C8_8 
ROOT
HETATM    1  C1  UNL     1     -35.294  15.934  -5.506  1.00 20.00     0.147 C 
HETATM    2  C4  UNL     1     -33.034  14.341  -4.652  1.00 20.00     0.007 C 
HETATM    3  C5  UNL     1     -34.379  14.343  -3.897  1.00 20.00     0.022 C 
HETATM    4  C6  UNL     1     -33.546  16.574  -4.118  1.00 20.00     0.027 C 
HETATM    5  C7  UNL     1     -32.981  15.750  -5.285  1.00 20.00     0.002 C 
HETATM    6  C8  UNL     1     -34.855  15.789  -4.056  1.00 20.00     0.038 C 
HETATM    7  C9  UNL     1     -34.059  15.941  -6.405  1.00 20.00     0.018 C 
HETATM    8  C10 UNL     1     -33.921  17.288  -7.118  1.00 20.00     0.023 C 
HETATM    9  C11 UNL     1     -34.108  14.808  -7.429  1.00 20.00     0.023 C 
HETATM   10  O12 UNL     1     -36.449  16.000  -5.902  1.00 20.00    -0.296 OA
ENDROOT
BRANCH   6  11
HETATM   11  C3  UNL     1     -35.863  16.266  -3.083  1.00 20.00    -0.020 C 
HETATM   12  C2  UNL     1     -35.560  16.810  -1.899  1.00 20.00     0.008 C 
ENDBRANCH   6  11
TORSDOF 1
ENDMDL
MODEL 4
REMARK VINA RESULT:      -4.4      1.507      3.087
REMARK  1 active torsions:
REMARK  status: ('A' for Active; 'I' for Inactive)
REMARK    1  A    between atoms: C3_3  and  C8_8 
ROOT
HETATM    1  C1  UNL     1     -35.773  13.985  -5.299  1.00 20.00     0.147 C 
HETATM    2  C4  UNL     1     -35.316  16.596  -4.138  1.00 20.00     0.007 C 
HETATM    3  C5  UNL     1     -36.547  15.737  -3.787  1.00 20.00     0.022 C 
HETATM    4  C6  UNL     1     -36.401  16.051  -6.152  1.00 20.00     0.027 C 
HETATM    5  C7  UNL     1     -34.979  16.159  -5.582  1.00 20.00     0.002 C 
HETATM    6  C8  UNL     1     -36.859  15.033  -5.110  1.00 20.00     0.038 C 
HETATM    7  C9  UNL     1     -34.459  14.683  -5.651  1.00 20.00     0.018 C 
HETATM    8  C10 UNL     1     -34.005  14.293  -7.059  1.00 20.00     0.023 C 
HETATM    9  C11 UNL     1     -33.365  14.354  -4.638  1.00 20.00     0.023 C 
HETATM   10  O12 UNL     1     -35.908  12.778  -5.160  1.00 20.00    -0.296 OA
ENDROOT
BRANCH   6  11
HETATM   11  C3  UNL     1     -38.230  14.499  -5.269  1.00 20.00    -0.020 C 
HETATM   12  C2  UNL     1     -39.340  15.213  -5.055  1.00 20.00     0.008 C 
ENDBRANCH   6  11
TORSDOF 1
ENDMDL
MODEL 5
REMARK VINA RESULT:      -4.3      1.623      2.631
REMARK  1 active torsions:
REMARK  status: ('A' for Active; 'I' for Inactive)
REMARK    1  A    between atoms: C3_3  and  C8_8 
ROOT
HETATM    1  C1  UNL     1     -34.378  16.681  -5.014  1.00 20.00     0.147 C 
HETATM    2  C4  UNL     1     -36.703  15.073  -4.394  1.00 20.00     0.007 C 
HETATM    3  C5  UNL     1     -36.148  16.136  -3.425  1.00 20.00     0.022 C 
HETATM    4  C6  UNL     1     -34.432  14.582  -4.023  1.00 20.00     0.027 C 
HETATM    5  C7  UNL     1     -35.449  14.616  -5.174  1.00 20.00     0.002 C 
HETATM    6  C8  UNL     1     -34.637  16.050  -3.654  1.00 20.00     0.038 C 
HETATM    7  C9  UNL     1     -34.886  15.741  -6.107  1.00 20.00     0.018 C 
HETATM    8  C10 UNL     1     -33.725  15.249  -6.974  1.00 20.00     0.023 C 
HETATM    9  C11 UNL     1     -35.940  16.420  -6.979  1.00 20.00     0.023 C 
HETATM   10  O12 UNL     1     -33.877  17.779  -5.212  1.00 20.00    -0.296 OA
ENDROOT
BRANCH   6  11
HETATM   11  C3  UNL     1     -33.772  16.585  -2.580  1.00 20.00    -0.020 C 
HETATM   12  C2  UNL     1     -34.234  17.154  -1.461  1.00 20.00     0.008 C 
ENDBRANCH   6  11
TORSDOF 1
ENDMDL
MODEL 6
REMARK VINA RESULT:      -4.3      0.917      3.736
REMARK  1 active torsions:
REMARK  status: ('A' for Active; 'I' for Inactive)
REMARK    1  A    between atoms: C3_3  and  C8_8 
ROOT
HETATM    1  C1  UNL     1     -34.908  14.649  -4.398  1.00 20.00     0.147 C 
HETATM    2  C4  UNL     1     -37.366  16.178  -4.437  1.00 20.00     0.007 C 
HETATM    3  C5  UNL     1     -37.325  14.667  -4.742  1.00 20.00     0.022 C 
HETATM    4  C6  UNL     1     -35.812  15.844  -6.172  1.00 20.00     0.027 C 
HETATM    5  C7  UNL     1     -35.969  16.668  -4.885  1.00 20.00     0.002 C 
HETATM    6  C8  UNL     1     -35.984  14.502  -5.463  1.00 20.00     0.038 C 
HETATM    7  C9  UNL     1     -34.823  16.114  -3.971  1.00 20.00     0.018 C 
HETATM    8  C10 UNL     1     -33.458  16.701  -4.334  1.00 20.00     0.023 C 
HETATM    9  C11 UNL     1     -35.081  16.274  -2.474  1.00 20.00     0.023 C 
HETATM   10  O12 UNL     1     -34.238  13.743  -3.926  1.00 20.00    -0.296 OA
ENDROOT
BRANCH   6  11
HETATM   11  C3  UNL     1     -35.826  13.291  -6.299  1.00 20.00    -0.020 C 
HETATM   12  C2  UNL     1     -34.985  13.202  -7.334  1.00 20.00     0.008 C 
ENDBRANCH   6  11
TORSDOF 1
ENDMDL
MODEL 7
REMARK VINA RESULT:      -4.2      1.648      3.627
REMARK  1 active torsions:
REMARK  status: ('A' for Active; 'I' for Inactive)
REMARK    1  A    between atoms: C3_3  and  C8_8 
ROOT
HETATM    1  C1  UNL     1     -35.500  16.680  -4.384  1.00 20.00     0.147 C 
HETATM    2  C4  UNL     1     -32.963  15.578  -5.236  1.00 20.00     0.007 C 
HETATM    3  C5  UNL     1     -34.179  15.683  -6.178  1.00 20.00     0.022 C 
HETATM    4  C6  UNL     1     -34.766  14.485  -4.194  1.00 20.00     0.027 C 
HETATM    5  C7  UNL     1     -33.609  15.430  -3.839  1.00 20.00     0.002 C 
HETATM    6  C8  UNL     1     -35.360  15.429  -5.238  1.00 20.00     0.038 C 
HETATM    7  C9  UNL     1     -34.346  16.734  -3.383  1.00 20.00     0.018 C 
HETATM    8  C10 UNL     1     -34.873  16.631  -1.950  1.00 20.00     0.023 C 
HETATM    9  C11 UNL     1     -33.525  18.012  -3.548  1.00 20.00     0.023 C 
HETATM   10  O12 UNL     1     -36.371  17.530  -4.495  1.00 20.00    -0.296 OA
ENDROOT
BRANCH   6  11
HETATM   11  C3  UNL     1     -36.628  14.998  -5.868  1.00 20.00    -0.020 C 
HETATM   12  C2  UNL     1     -37.587  14.319  -5.231  1.00 20.00     0.008 C 
ENDBRANCH   6  11
TORSDOF 1
ENDMDL
MODEL 8
REMARK VINA RESULT:      -4.2      1.769      3.583
REMARK  1 active torsions:
REMARK  status: ('A' for Active; 'I' for Inactive)
REMARK    1  A    between atoms: C3_3  and  C8_8 
ROOT
HETATM    1  C1  UNL     1     -35.510  15.933  -5.821  1.00 20.00     0.147 C 
HETATM    2  C4  UNL     1     -33.459  15.922  -3.779  1.00 20.00     0.007 C 
HETATM    3  C5  UNL     1     -33.154  15.627  -5.262  1.00 20.00     0.022 C 
HETATM    4  C6  UNL     1     -34.868  14.165  -4.460  1.00 20.00     0.027 C 
HETATM    5  C7  UNL     1     -34.922  15.449  -3.618  1.00 20.00     0.002 C 
HETATM    6  C8  UNL     1     -34.411  14.885  -5.726  1.00 20.00     0.038 C 
HETATM    7  C9  UNL     1     -35.930  16.348  -4.412  1.00 20.00     0.018 C 
HETATM    8  C10 UNL     1     -37.386  15.959  -4.148  1.00 20.00     0.023 C 
HETATM    9  C11 UNL     1     -35.740  17.848  -4.193  1.00 20.00     0.023 C 
HETATM   10  O12 UNL     1     -35.968  16.400  -6.854  1.00 20.00    -0.296 OA
ENDROOT
BRANCH   6  11
HETATM   11  C3  UNL     1     -34.278  14.055  -6.944  1.00 20.00    -0.020 C 
HETATM   12  C2  UNL     1     -35.105  13.052  -7.259  1.00 20.00     0.008 C 
ENDBRANCH   6  11
TORSDOF 1
ENDMDL
MODEL 9
REMARK VINA RESULT:      -4.1      1.435      2.740
REMARK  1 active torsions:
REMARK  status: ('A' for Active; 'I' for Inactive)
REMARK    1  A    between atoms: C3_3  and  C8_8 
ROOT
HETATM    1  C1  UNL     1     -34.970  14.664  -4.597  1.00 20.00     0.147 C 
HETATM    2  C4  UNL     1     -33.719  16.729  -3.001  1.00 20.00     0.007 C 
HETATM    3  C5  UNL     1     -35.065  16.084  -2.614  1.00 20.00     0.022 C 
HETATM    4  C6  UNL     1     -35.174  16.965  -4.834  1.00 20.00     0.027 C 
HETATM    5  C7  UNL     1     -33.705  16.622  -4.543  1.00 20.00     0.002 C 
HETATM    6  C8  UNL     1     -35.723  15.829  -3.973  1.00 20.00     0.038 C 
HETATM    7  C9  UNL     1     -33.585  15.140  -5.035  1.00 20.00     0.018 C 
HETATM    8  C10 UNL     1     -33.441  15.044  -6.556  1.00 20.00     0.023 C 
HETATM    9  C11 UNL     1     -32.478  14.338  -4.353  1.00 20.00     0.023 C 
HETATM   10  O12 UNL     1     -35.382  13.518  -4.703  1.00 20.00    -0.296 OA
ENDROOT
BRANCH   6  11
HETATM   11  C3  UNL     1     -37.192  15.653  -3.975  1.00 20.00    -0.020 C 
HETATM   12  C2  UNL     1     -38.006  16.173  -4.899  1.00 20.00     0.008 C 
ENDBRANCH   6  11
TORSDOF 1
ENDMDL
