MODEL 1
REMARK VINA RESULT:      -6.5      0.000      0.000
REMARK  2 active torsions:
REMARK  status: ('A' for Active; 'I' for Inactive)
REMARK    1  A    between atoms: C7_7  and  C9_9 
REMARK    2  A    between atoms: C8_8  and  C9_9 
ROOT
HETATM    1  C1  UNL     1     -32.523   9.420   0.635  1.00 20.00     0.012 C 
HETATM    2  C2  UNL     1     -32.166   8.952   1.681  1.00 20.00    -0.117 C 
HETATM    3  C8  UNL     1     -31.727   8.382   2.962  1.00 20.00     0.093 C 
ENDROOT
BRANCH   3   4
HETATM    4  C9  UNL     1     -32.413   7.050   3.214  1.00 20.00     0.017 C 
BRANCH   4   5
HETATM    5  C7  UNL     1     -33.845   7.255   3.711  1.00 20.00    -0.006 C 
HETATM    6  C5  UNL     1     -34.742   6.059   3.379  1.00 20.00     0.082 C 
HETATM    7  C3  UNL     1     -34.600   5.196   4.607  1.00 20.00     0.127 C 
HETATM    8  C4  UNL     1     -33.919   5.917   5.740  1.00 20.00     0.079 C 
HETATM    9  O10 UNL     1     -34.995   4.038   4.675  1.00 20.00    -0.298 OA
HETATM   10  C6  UNL     1     -33.915   7.356   5.237  1.00 20.00     0.012 C 
ENDBRANCH   4   5
ENDBRANCH   3   4
TORSDOF 2
ENDMDL
MODEL 2
REMARK VINA RESULT:      -5.3      1.286      2.014
REMARK  2 active torsions:
REMARK  status: ('A' for Active; 'I' for Inactive)
REMARK    1  A    between atoms: C7_7  and  C9_9 
REMARK    2  A    between atoms: C8_8  and  C9_9 
ROOT
HETATM    1  C1  UNL     1     -33.134   9.512  -0.753  1.00 20.00     0.012 C 
HETATM    2  C2  UNL     1     -32.717   9.336   0.360  1.00 20.00    -0.117 C 
HETATM    3  C8  UNL     1     -32.205   9.125   1.720  1.00 20.00     0.093 C 
ENDROOT
BRANCH   3   4
HETATM    4  C9  UNL     1     -33.225   8.374   2.561  1.00 20.00     0.017 C 
BRANCH   4   5
HETATM    5  C7  UNL     1     -32.572   7.210   3.307  1.00 20.00    -0.006 C 
HETATM    6  C5  UNL     1     -32.862   7.261   4.810  1.00 20.00     0.082 C 
HETATM    7  C3  UNL     1     -34.118   6.434   4.927  1.00 20.00     0.127 C 
HETATM    8  C4  UNL     1     -34.426   5.676   3.662  1.00 20.00     0.079 C 
HETATM    9  O10 UNL     1     -34.808   6.384   5.937  1.00 20.00    -0.298 OA
HETATM   10  C6  UNL     1     -33.137   5.857   2.868  1.00 20.00     0.012 C 
ENDBRANCH   4   5
ENDBRANCH   3   4
TORSDOF 2
ENDMDL
MODEL 3
REMARK VINA RESULT:      -5.2      2.355      4.564
REMARK  2 active torsions:
REMARK  status: ('A' for Active; 'I' for Inactive)
REMARK    1  A    between atoms: C7_7  and  C9_9 
REMARK    2  A    between atoms: C8_8  and  C9_9 
ROOT
HETATM    1  C1  UNL     1     -34.754   4.429   4.856  1.00 20.00     0.012 C 
HETATM    2  C2  UNL     1     -34.427   5.521   5.233  1.00 20.00    -0.117 C 
HETATM    3  C8  UNL     1     -34.026   6.856   5.698  1.00 20.00     0.093 C 
ENDROOT
BRANCH   3   4
HETATM    4  C9  UNL     1     -33.759   7.772   4.515  1.00 20.00     0.017 C 
BRANCH   4   5
HETATM    5  C7  UNL     1     -32.629   7.225   3.641  1.00 20.00    -0.006 C 
HETATM    6  C5  UNL     1     -33.022   7.180   2.162  1.00 20.00     0.082 C 
HETATM    7  C3  UNL     1     -32.555   8.524   1.661  1.00 20.00     0.127 C 
HETATM    8  C4  UNL     1     -31.675   9.233   2.656  1.00 20.00     0.079 C 
HETATM    9  O10 UNL     1     -32.857   8.985   0.567  1.00 20.00    -0.298 OA
HETATM   10  C6  UNL     1     -31.393   8.128   3.667  1.00 20.00     0.012 C 
ENDBRANCH   4   5
ENDBRANCH   3   4
TORSDOF 2
ENDMDL
MODEL 4
REMARK VINA RESULT:      -5.0      2.735      5.033
REMARK  2 active torsions:
REMARK  status: ('A' for Active; 'I' for Inactive)
REMARK    1  A    between atoms: C7_7  and  C9_9 
REMARK    2  A    between atoms: C8_8  and  C9_9 
ROOT
HETATM    1  C1  UNL     1     -34.787   5.525   4.888  1.00 20.00     0.012 C 
HETATM    2  C2  UNL     1     -34.048   6.400   4.527  1.00 20.00    -0.117 C 
HETATM    3  C8  UNL     1     -33.143   7.470   4.089  1.00 20.00     0.093 C 
ENDROOT
BRANCH   3   4
HETATM    4  C9  UNL     1     -32.806   7.311   2.615  1.00 20.00     0.017 C 
BRANCH   4   5
HETATM    5  C7  UNL     1     -31.783   8.356   2.169  1.00 20.00    -0.006 C 
HETATM    6  C5  UNL     1     -31.595   8.359   0.649  1.00 20.00     0.082 C 
HETATM    7  C3  UNL     1     -32.608   9.380   0.198  1.00 20.00     0.127 C 
HETATM    8  C4  UNL     1     -33.175  10.173   1.346  1.00 20.00     0.079 C 
HETATM    9  O10 UNL     1     -32.934   9.546  -0.971  1.00 20.00    -0.298 OA
HETATM   10  C6  UNL     1     -32.241   9.782   2.486  1.00 20.00     0.012 C 
ENDBRANCH   4   5
ENDBRANCH   3   4
TORSDOF 2
ENDMDL
MODEL 5
REMARK VINA RESULT:      -4.7      1.779      2.590
REMARK  2 active torsions:
REMARK  status: ('A' for Active; 'I' for Inactive)
REMARK    1  A    between atoms: C7_7  and  C9_9 
REMARK    2  A    between atoms: C8_8  and  C9_9 
ROOT
HETATM    1  C1  UNL     1     -31.498   8.076   3.441  1.00 20.00     0.012 C 
HETATM    2  C2  UNL     1     -32.378   8.087   4.259  1.00 20.00    -0.117 C 
HETATM    3  C8  UNL     1     -33.454   8.103   5.259  1.00 20.00     0.093 C 
ENDROOT
BRANCH   3   4
HETATM    4  C9  UNL     1     -33.719   6.699   5.777  1.00 20.00     0.017 C 
BRANCH   4   5
HETATM    5  C7  UNL     1     -34.785   5.995   4.936  1.00 20.00    -0.006 C 
HETATM    6  C5  UNL     1     -34.459   6.047   3.441  1.00 20.00     0.082 C 
HETATM    7  C3  UNL     1     -33.674   4.777   3.234  1.00 20.00     0.127 C 
HETATM    8  C4  UNL     1     -33.754   3.854   4.422  1.00 20.00     0.079 C 
HETATM    9  O10 UNL     1     -33.043   4.524   2.216  1.00 20.00    -0.298 OA
HETATM   10  C6  UNL     1     -34.864   4.498   5.244  1.00 20.00     0.012 C 
ENDBRANCH   4   5
ENDBRANCH   3   4
TORSDOF 2
ENDMDL
MODEL 6
REMARK VINA RESULT:      -4.6     10.788     11.795
REMARK  2 active torsions:
REMARK  status: ('A' for Active; 'I' for Inactive)
REMARK    1  A    between atoms: C7_7  and  C9_9 
REMARK    2  A    between atoms: C8_8  and  C9_9 
ROOT
HETATM    1  C1  UNL     1     -35.463  17.628   0.337  1.00 20.00     0.012 C 
HETATM    2  C2  UNL     1     -34.876  17.352  -0.674  1.00 20.00    -0.117 C 
HETATM    3  C8  UNL     1     -34.153  17.015  -1.908  1.00 20.00     0.093 C 
ENDROOT
BRANCH   3   4
HETATM    4  C9  UNL     1     -35.016  16.144  -2.806  1.00 20.00     0.017 C 
BRANCH   4   5
HETATM    5  C7  UNL     1     -34.218  15.634  -4.007  1.00 20.00    -0.006 C 
HETATM    6  C5  UNL     1     -34.259  14.107  -4.114  1.00 20.00     0.082 C 
HETATM    7  C3  UNL     1     -35.455  13.874  -5.001  1.00 20.00     0.127 C 
HETATM    8  C4  UNL     1     -35.946  15.144  -5.647  1.00 20.00     0.079 C 
HETATM    9  O10 UNL     1     -35.969  12.777  -5.178  1.00 20.00    -0.298 OA
HETATM   10  C6  UNL     1     -34.811  16.112  -5.336  1.00 20.00     0.012 C 
ENDBRANCH   4   5
ENDBRANCH   3   4
TORSDOF 2
ENDMDL
MODEL 7
REMARK VINA RESULT:      -4.5     10.955     12.084
REMARK  2 active torsions:
REMARK  status: ('A' for Active; 'I' for Inactive)
REMARK    1  A    between atoms: C7_7  and  C9_9 
REMARK    2  A    between atoms: C8_8  and  C9_9 
ROOT
HETATM    1  C1  UNL     1     -32.864  18.042  -1.312  1.00 20.00     0.012 C 
HETATM    2  C2  UNL     1     -33.859  17.428  -1.582  1.00 20.00    -0.117 C 
HETATM    3  C8  UNL     1     -35.079  16.677  -1.909  1.00 20.00     0.093 C 
ENDROOT
BRANCH   3   4
HETATM    4  C9  UNL     1     -35.108  16.329  -3.388  1.00 20.00     0.017 C 
BRANCH   4   5
HETATM    5  C7  UNL     1     -33.867  15.530  -3.788  1.00 20.00    -0.006 C 
HETATM    6  C5  UNL     1     -34.214  14.085  -4.161  1.00 20.00     0.082 C 
HETATM    7  C3  UNL     1     -34.446  14.181  -5.648  1.00 20.00     0.127 C 
HETATM    8  C4  UNL     1     -33.992  15.500  -6.217  1.00 20.00     0.079 C 
HETATM    9  O10 UNL     1     -34.947  13.286  -6.318  1.00 20.00    -0.298 OA
HETATM   10  C6  UNL     1     -33.206  16.088  -5.051  1.00 20.00     0.012 C 
ENDBRANCH   4   5
ENDBRANCH   3   4
TORSDOF 2
ENDMDL
MODEL 8
REMARK VINA RESULT:      -4.5      2.502      3.791
REMARK  2 active torsions:
REMARK  status: ('A' for Active; 'I' for Inactive)
REMARK    1  A    between atoms: C7_7  and  C9_9 
REMARK    2  A    between atoms: C8_8  and  C9_9 
ROOT
HETATM    1  C1  UNL     1     -32.796   8.147   5.650  1.00 20.00     0.012 C 
HETATM    2  C2  UNL     1     -33.642   7.333   5.904  1.00 20.00    -0.117 C 
HETATM    3  C8  UNL     1     -34.680   6.341   6.214  1.00 20.00     0.093 C 
ENDROOT
BRANCH   3   4
HETATM    4  C9  UNL     1     -34.252   4.961   5.743  1.00 20.00     0.017 C 
BRANCH   4   5
HETATM    5  C7  UNL     1     -34.808   4.659   4.351  1.00 20.00    -0.006 C 
HETATM    6  C5  UNL     1     -35.025   5.936   3.534  1.00 20.00     0.082 C 
HETATM    7  C3  UNL     1     -33.711   6.087   2.811  1.00 20.00     0.127 C 
HETATM    8  C4  UNL     1     -32.849   4.856   2.923  1.00 20.00     0.079 C 
HETATM    9  O10 UNL     1     -33.381   7.097   2.201  1.00 20.00    -0.298 OA
HETATM   10  C6  UNL     1     -33.828   3.842   3.505  1.00 20.00     0.012 C 
ENDBRANCH   4   5
ENDBRANCH   3   4
TORSDOF 2
ENDMDL
MODEL 9
REMARK VINA RESULT:      -4.4     11.254     11.842
REMARK  2 active torsions:
REMARK  status: ('A' for Active; 'I' for Inactive)
REMARK    1  A    between atoms: C7_7  and  C9_9 
REMARK    2  A    between atoms: C8_8  and  C9_9 
ROOT
HETATM    1  C1  UNL     1     -32.603  18.160  -1.057  1.00 20.00     0.012 C 
HETATM    2  C2  UNL     1     -33.427  17.548  -1.681  1.00 20.00    -0.117 C 
HETATM    3  C8  UNL     1     -34.438  16.803  -2.443  1.00 20.00     0.093 C 
ENDROOT
BRANCH   3   4
HETATM    4  C9  UNL     1     -33.777  15.736  -3.300  1.00 20.00     0.017 C 
BRANCH   4   5
HETATM    5  C7  UNL     1     -34.301  15.781  -4.736  1.00 20.00    -0.006 C 
HETATM    6  C5  UNL     1     -34.246  14.405  -5.407  1.00 20.00     0.082 C 
HETATM    7  C3  UNL     1     -35.604  13.833  -5.090  1.00 20.00     0.127 C 
HETATM    8  C4  UNL     1     -36.546  14.867  -4.530  1.00 20.00     0.079 C 
HETATM    9  O10 UNL     1     -35.907  12.660  -5.268  1.00 20.00    -0.298 OA
HETATM   10  C6  UNL     1     -35.783  16.160  -4.795  1.00 20.00     0.012 C 
ENDBRANCH   4   5
ENDBRANCH   3   4
TORSDOF 2
ENDMDL
