MODEL 1
REMARK VINA RESULT:      -4.6      0.000      0.000
REMARK  3 active torsions:
REMARK  status: ('A' for Active; 'I' for Inactive)
REMARK    1  A    between atoms: C3_3  and  C7_7 
REMARK    2  A    between atoms: C6_6  and  N9_9 
REMARK    3  A    between atoms: C7_7  and  N9_9 
ROOT
HETATM    1  C1  UNL     1     -34.732   5.433   4.889  1.00 20.00     0.089 C 
HETATM    2  C6  UNL     1     -34.954   6.044   3.581  1.00 20.00     0.395 C 
HETATM    3  N8  UNL     1     -34.559   4.947   5.929  1.00 20.00    -0.195 NA
ENDROOT
BRANCH   2   4
HETATM    4  N9  UNL     1     -33.679   6.245   2.873  1.00 20.00     0.100 N 
HETATM    5  C5  UNL     1     -33.004   4.949   2.704  1.00 20.00     0.311 C 
BRANCH   4   6
HETATM    6  C7  UNL     1     -32.841   7.188   3.560  1.00 20.00     0.300 C 
BRANCH   6   7
HETATM    7  C3  UNL     1     -32.126   8.034   2.557  1.00 20.00    -0.002 C 
HETATM    8  C2  UNL     1     -32.748   8.756   1.615  1.00 20.00    -0.033 C 
HETATM    9  C4  UNL     1     -32.040   9.608   0.616  1.00 20.00     0.036 C 
ENDBRANCH   6   7
ENDBRANCH   4   6
ENDBRANCH   2   4
TORSDOF 3
ENDMDL
MODEL 2
REMARK VINA RESULT:      -4.6      1.317      1.733
REMARK  3 active torsions:
REMARK  status: ('A' for Active; 'I' for Inactive)
REMARK    1  A    between atoms: C3_3  and  C7_7 
REMARK    2  A    between atoms: C6_6  and  N9_9 
REMARK    3  A    between atoms: C7_7  and  N9_9 
ROOT
HETATM    1  C1  UNL     1     -34.229   5.181   3.889  1.00 20.00     0.089 C 
HETATM    2  C6  UNL     1     -33.718   6.399   3.264  1.00 20.00     0.395 C 
HETATM    3  N8  UNL     1     -34.637   4.213   4.383  1.00 20.00    -0.195 NA
ENDROOT
BRANCH   2   4
HETATM    4  N9  UNL     1     -32.719   7.052   4.125  1.00 20.00     0.100 N 
HETATM    5  C5  UNL     1     -33.382   7.582   5.327  1.00 20.00     0.311 C 
BRANCH   4   6
HETATM    6  C7  UNL     1     -32.012   8.083   3.419  1.00 20.00     0.300 C 
BRANCH   6   7
HETATM    7  C3  UNL     1     -32.590   8.228   2.049  1.00 20.00    -0.002 C 
HETATM    8  C2  UNL     1     -32.347   9.274   1.246  1.00 20.00    -0.033 C 
HETATM    9  C4  UNL     1     -32.916   9.420  -0.125  1.00 20.00     0.036 C 
ENDBRANCH   6   7
ENDBRANCH   4   6
ENDBRANCH   2   4
TORSDOF 3
ENDMDL
MODEL 3
REMARK VINA RESULT:      -4.5      1.022      1.146
REMARK  3 active torsions:
REMARK  status: ('A' for Active; 'I' for Inactive)
REMARK    1  A    between atoms: C3_3  and  C7_7 
REMARK    2  A    between atoms: C6_6  and  N9_9 
REMARK    3  A    between atoms: C7_7  and  N9_9 
ROOT
HETATM    1  C1  UNL     1     -34.283   5.976   5.318  1.00 20.00     0.089 C 
HETATM    2  C6  UNL     1     -33.633   7.239   4.977  1.00 20.00     0.395 C 
HETATM    3  N8  UNL     1     -34.801   4.973   5.592  1.00 20.00    -0.195 NA
ENDROOT
BRANCH   2   4
HETATM    4  N9  UNL     1     -33.310   7.292   3.543  1.00 20.00     0.100 N 
HETATM    5  C5  UNL     1     -33.434   5.946   2.963  1.00 20.00     0.311 C 
BRANCH   4   6
HETATM    6  C7  UNL     1     -32.000   7.839   3.320  1.00 20.00     0.300 C 
BRANCH   6   7
HETATM    7  C3  UNL     1     -31.930   8.401   1.938  1.00 20.00    -0.002 C 
HETATM    8  C2  UNL     1     -32.669   9.438   1.518  1.00 20.00    -0.033 C 
HETATM    9  C4  UNL     1     -32.598  10.008   0.141  1.00 20.00     0.036 C 
ENDBRANCH   6   7
ENDBRANCH   4   6
ENDBRANCH   2   4
TORSDOF 3
ENDMDL
MODEL 4
REMARK VINA RESULT:      -4.4      2.186      4.968
REMARK  3 active torsions:
REMARK  status: ('A' for Active; 'I' for Inactive)
REMARK    1  A    between atoms: C3_3  and  C7_7 
REMARK    2  A    between atoms: C6_6  and  N9_9 
REMARK    3  A    between atoms: C7_7  and  N9_9 
ROOT
HETATM    1  C1  UNL     1     -32.619   9.127   0.247  1.00 20.00     0.089 C 
HETATM    2  C6  UNL     1     -31.695   8.654   1.275  1.00 20.00     0.395 C 
HETATM    3  N8  UNL     1     -33.351   9.503  -0.572  1.00 20.00    -0.195 NA
ENDROOT
BRANCH   2   4
HETATM    4  N9  UNL     1     -32.414   8.331   2.518  1.00 20.00     0.100 N 
HETATM    5  C5  UNL     1     -31.454   8.246   3.630  1.00 20.00     0.311 C 
BRANCH   4   6
HETATM    6  C7  UNL     1     -33.170   7.117   2.386  1.00 20.00     0.300 C 
BRANCH   6   7
HETATM    7  C3  UNL     1     -33.552   6.624   3.743  1.00 20.00    -0.002 C 
HETATM    8  C2  UNL     1     -34.347   5.565   3.953  1.00 20.00    -0.033 C 
HETATM    9  C4  UNL     1     -34.727   5.064   5.306  1.00 20.00     0.036 C 
ENDBRANCH   6   7
ENDBRANCH   4   6
ENDBRANCH   2   4
TORSDOF 3
ENDMDL
MODEL 5
REMARK VINA RESULT:      -4.4      1.092      1.095
REMARK  3 active torsions:
REMARK  status: ('A' for Active; 'I' for Inactive)
REMARK    1  A    between atoms: C3_3  and  C7_7 
REMARK    2  A    between atoms: C6_6  and  N9_9 
REMARK    3  A    between atoms: C7_7  and  N9_9 
ROOT
HETATM    1  C1  UNL     1     -34.111   6.787   5.091  1.00 20.00     0.089 C 
HETATM    2  C6  UNL     1     -34.627   6.135   3.889  1.00 20.00     0.395 C 
HETATM    3  N8  UNL     1     -33.703   7.304   6.047  1.00 20.00    -0.195 NA
ENDROOT
BRANCH   2   4
HETATM    4  N9  UNL     1     -33.620   6.136   2.817  1.00 20.00     0.100 N 
HETATM    5  C5  UNL     1     -33.008   4.802   2.719  1.00 20.00     0.311 C 
BRANCH   4   6
HETATM    6  C7  UNL     1     -32.627   7.152   3.031  1.00 20.00     0.300 C 
BRANCH   6   7
HETATM    7  C3  UNL     1     -32.523   8.005   1.808  1.00 20.00    -0.002 C 
HETATM    8  C2  UNL     1     -32.544   9.345   1.832  1.00 20.00    -0.033 C 
HETATM    9  C4  UNL     1     -32.433  10.201   0.615  1.00 20.00     0.036 C 
ENDBRANCH   6   7
ENDBRANCH   4   6
ENDBRANCH   2   4
TORSDOF 3
ENDMDL
MODEL 6
REMARK VINA RESULT:      -3.8     11.154     11.651
REMARK  3 active torsions:
REMARK  status: ('A' for Active; 'I' for Inactive)
REMARK    1  A    between atoms: C3_3  and  C7_7 
REMARK    2  A    between atoms: C6_6  and  N9_9 
REMARK    3  A    between atoms: C7_7  and  N9_9 
ROOT
HETATM    1  C1  UNL     1     -35.530  13.916  -5.455  1.00 20.00     0.089 C 
HETATM    2  C6  UNL     1     -35.090  15.294  -5.659  1.00 20.00     0.395 C 
HETATM    3  N8  UNL     1     -35.882  12.821  -5.296  1.00 20.00    -0.195 NA
ENDROOT
BRANCH   2   4
HETATM    4  N9  UNL     1     -34.243  15.745  -4.543  1.00 20.00     0.100 N 
HETATM    5  C5  UNL     1     -33.053  14.884  -4.453  1.00 20.00     0.311 C 
BRANCH   4   6
HETATM    6  C7  UNL     1     -34.972  15.763  -3.306  1.00 20.00     0.300 C 
BRANCH   6   7
HETATM    7  C3  UNL     1     -34.251  16.625  -2.321  1.00 20.00    -0.002 C 
HETATM    8  C2  UNL     1     -34.828  17.155  -1.234  1.00 20.00    -0.033 C 
HETATM    9  C4  UNL     1     -34.112  18.011  -0.244  1.00 20.00     0.036 C 
ENDBRANCH   6   7
ENDBRANCH   4   6
ENDBRANCH   2   4
TORSDOF 3
ENDMDL
MODEL 7
REMARK VINA RESULT:      -3.8     10.799     11.591
REMARK  3 active torsions:
REMARK  status: ('A' for Active; 'I' for Inactive)
REMARK    1  A    between atoms: C3_3  and  C7_7 
REMARK    2  A    between atoms: C6_6  and  N9_9 
REMARK    3  A    between atoms: C7_7  and  N9_9 
ROOT
HETATM    1  C1  UNL     1     -35.210  13.614  -4.742  1.00 20.00     0.089 C 
HETATM    2  C6  UNL     1     -34.179  14.435  -4.111  1.00 20.00     0.395 C 
HETATM    3  N8  UNL     1     -36.027  12.959  -5.243  1.00 20.00    -0.195 NA
ENDROOT
BRANCH   2   4
HETATM    4  N9  UNL     1     -34.695  15.776  -3.797  1.00 20.00     0.100 N 
HETATM    5  C5  UNL     1     -35.311  16.358  -4.999  1.00 20.00     0.311 C 
BRANCH   4   6
HETATM    6  C7  UNL     1     -33.662  16.626  -3.274  1.00 20.00     0.300 C 
BRANCH   6   7
HETATM    7  C3  UNL     1     -34.001  17.008  -1.870  1.00 20.00    -0.002 C 
HETATM    8  C2  UNL     1     -35.248  17.005  -1.379  1.00 20.00    -0.033 C 
HETATM    9  C4  UNL     1     -35.592  17.378   0.024  1.00 20.00     0.036 C 
ENDBRANCH   6   7
ENDBRANCH   4   6
ENDBRANCH   2   4
TORSDOF 3
ENDMDL
MODEL 8
REMARK VINA RESULT:      -3.8     11.250     12.157
REMARK  3 active torsions:
REMARK  status: ('A' for Active; 'I' for Inactive)
REMARK    1  A    between atoms: C3_3  and  C7_7 
REMARK    2  A    between atoms: C6_6  and  N9_9 
REMARK    3  A    between atoms: C7_7  and  N9_9 
ROOT
HETATM    1  C1  UNL     1     -35.307  13.704  -5.773  1.00 20.00     0.089 C 
HETATM    2  C6  UNL     1     -34.524  14.730  -6.457  1.00 20.00     0.395 C 
HETATM    3  N8  UNL     1     -35.929  12.887  -5.232  1.00 20.00    -0.195 NA
ENDROOT
BRANCH   2   4
HETATM    4  N9  UNL     1     -34.285  15.884  -5.575  1.00 20.00     0.100 N 
HETATM    5  C5  UNL     1     -33.889  17.046  -6.386  1.00 20.00     0.311 C 
BRANCH   4   6
HETATM    6  C7  UNL     1     -33.299  15.584  -4.575  1.00 20.00     0.300 C 
BRANCH   6   7
HETATM    7  C3  UNL     1     -33.651  16.294  -3.308  1.00 20.00    -0.002 C 
HETATM    8  C2  UNL     1     -34.844  16.194  -2.706  1.00 20.00    -0.033 C 
HETATM    9  C4  UNL     1     -35.198  16.895  -1.438  1.00 20.00     0.036 C 
ENDBRANCH   6   7
ENDBRANCH   4   6
ENDBRANCH   2   4
TORSDOF 3
ENDMDL
MODEL 9
REMARK VINA RESULT:      -3.5     11.312     11.880
REMARK  3 active torsions:
REMARK  status: ('A' for Active; 'I' for Inactive)
REMARK    1  A    between atoms: C3_3  and  C7_7 
REMARK    2  A    between atoms: C6_6  and  N9_9 
REMARK    3  A    between atoms: C7_7  and  N9_9 
ROOT
HETATM    1  C1  UNL     1     -36.681  13.953  -5.413  1.00 20.00     0.089 C 
HETATM    2  C6  UNL     1     -35.349  13.967  -6.013  1.00 20.00     0.395 C 
HETATM    3  N8  UNL     1     -37.741  13.939  -4.938  1.00 20.00    -0.195 NA
ENDROOT
BRANCH   2   4
HETATM    4  N9  UNL     1     -34.569  15.117  -5.530  1.00 20.00     0.100 N 
HETATM    5  C5  UNL     1     -33.734  15.636  -6.625  1.00 20.00     0.311 C 
BRANCH   4   6
HETATM    6  C7  UNL     1     -33.774  14.769  -4.385  1.00 20.00     0.300 C 
BRANCH   6   7
HETATM    7  C3  UNL     1     -33.789  15.901  -3.411  1.00 20.00    -0.002 C 
HETATM    8  C2  UNL     1     -34.833  16.189  -2.621  1.00 20.00    -0.033 C 
HETATM    9  C4  UNL     1     -34.851  17.314  -1.642  1.00 20.00     0.036 C 
ENDBRANCH   6   7
ENDBRANCH   4   6
ENDBRANCH   2   4
TORSDOF 3
ENDMDL
