MODEL 1
REMARK VINA RESULT:      -6.0      0.000      0.000
REMARK  2 active torsions:
REMARK  status: ('A' for Active; 'I' for Inactive)
REMARK    1  A    between atoms: C7_7  and  C9_9 
REMARK    2  A    between atoms: C8_8  and  C9_9 
ROOT
HETATM    1  C1  UNL     1     -32.488   9.500   0.720  1.00 20.00     0.012 C 
HETATM    2  C2  UNL     1     -32.141   8.947   1.727  1.00 20.00    -0.117 C 
HETATM    3  C8  UNL     1     -31.714   8.274   2.961  1.00 20.00     0.093 C 
ENDROOT
BRANCH   3   4
HETATM    4  C9  UNL     1     -32.492   6.985   3.160  1.00 20.00     0.017 C 
BRANCH   4   5
HETATM    5  C7  UNL     1     -33.886   7.266   3.726  1.00 20.00    -0.006 C 
HETATM    6  C5  UNL     1     -33.944   7.039   5.239  1.00 20.00     0.082 C 
HETATM    7  C3  UNL     1     -34.363   5.592   5.334  1.00 20.00     0.127 C 
HETATM    8  C4  UNL     1     -34.824   5.042   4.011  1.00 20.00     0.079 C 
HETATM    9  O10 UNL     1     -34.332   4.941   6.369  1.00 20.00    -0.298 OA
HETATM   10  C6  UNL     1     -34.938   6.306   3.167  1.00 20.00     0.012 C 
ENDBRANCH   4   5
ENDBRANCH   3   4
TORSDOF 2
ENDMDL
MODEL 2
REMARK VINA RESULT:      -5.5      0.951      1.280
REMARK  2 active torsions:
REMARK  status: ('A' for Active; 'I' for Inactive)
REMARK    1  A    between atoms: C7_7  and  C9_9 
REMARK    2  A    between atoms: C8_8  and  C9_9 
ROOT
HETATM    1  C1  UNL     1     -32.207   9.077   0.861  1.00 20.00     0.012 C 
HETATM    2  C2  UNL     1     -32.171   8.393   1.847  1.00 20.00    -0.117 C 
HETATM    3  C8  UNL     1     -32.125   7.560   3.056  1.00 20.00     0.093 C 
ENDROOT
BRANCH   3   4
HETATM    4  C9  UNL     1     -32.782   6.214   2.799  1.00 20.00     0.017 C 
BRANCH   4   5
HETATM    5  C7  UNL     1     -34.236   6.212   3.273  1.00 20.00    -0.006 C 
HETATM    6  C5  UNL     1     -34.501   7.313   4.303  1.00 20.00     0.082 C 
HETATM    7  C3  UNL     1     -34.233   6.608   5.610  1.00 20.00     0.127 C 
HETATM    8  C4  UNL     1     -34.108   5.117   5.439  1.00 20.00     0.079 C 
HETATM    9  O10 UNL     1     -34.130   7.181   6.685  1.00 20.00    -0.298 OA
HETATM   10  C6  UNL     1     -34.599   4.921   4.010  1.00 20.00     0.012 C 
ENDBRANCH   4   5
ENDBRANCH   3   4
TORSDOF 2
ENDMDL
MODEL 3
REMARK VINA RESULT:      -5.4      1.284      2.075
REMARK  2 active torsions:
REMARK  status: ('A' for Active; 'I' for Inactive)
REMARK    1  A    between atoms: C7_7  and  C9_9 
REMARK    2  A    between atoms: C8_8  and  C9_9 
ROOT
HETATM    1  C1  UNL     1     -33.183   9.647  -0.737  1.00 20.00     0.012 C 
HETATM    2  C2  UNL     1     -32.620   9.242   0.243  1.00 20.00    -0.117 C 
HETATM    3  C8  UNL     1     -31.925   8.747   1.439  1.00 20.00     0.093 C 
ENDROOT
BRANCH   3   4
HETATM    4  C9  UNL     1     -32.919   8.474   2.555  1.00 20.00     0.017 C 
BRANCH   4   5
HETATM    5  C7  UNL     1     -32.494   7.261   3.384  1.00 20.00    -0.006 C 
HETATM    6  C5  UNL     1     -33.333   6.023   3.056  1.00 20.00     0.082 C 
HETATM    7  C3  UNL     1     -34.461   6.120   4.054  1.00 20.00     0.127 C 
HETATM    8  C4  UNL     1     -34.197   7.154   5.116  1.00 20.00     0.079 C 
HETATM    9  O10 UNL     1     -35.474   5.437   4.006  1.00 20.00    -0.298 OA
HETATM   10  C6  UNL     1     -32.725   7.477   4.881  1.00 20.00     0.012 C 
ENDBRANCH   4   5
ENDBRANCH   3   4
TORSDOF 2
ENDMDL
MODEL 4
REMARK VINA RESULT:      -5.2      2.555      4.608
REMARK  2 active torsions:
REMARK  status: ('A' for Active; 'I' for Inactive)
REMARK    1  A    between atoms: C7_7  and  C9_9 
REMARK    2  A    between atoms: C8_8  and  C9_9 
ROOT
HETATM    1  C1  UNL     1     -34.734   4.593   5.403  1.00 20.00     0.012 C 
HETATM    2  C2  UNL     1     -34.356   5.704   5.657  1.00 20.00    -0.117 C 
HETATM    3  C8  UNL     1     -33.893   7.062   5.975  1.00 20.00     0.093 C 
ENDROOT
BRANCH   3   4
HETATM    4  C9  UNL     1     -33.663   7.855   4.700  1.00 20.00     0.017 C 
BRANCH   4   5
HETATM    5  C7  UNL     1     -32.475   7.299   3.913  1.00 20.00    -0.006 C 
HETATM    6  C5  UNL     1     -31.604   8.415   3.329  1.00 20.00     0.082 C 
HETATM    7  C3  UNL     1     -32.215   8.623   1.965  1.00 20.00     0.127 C 
HETATM    8  C4  UNL     1     -33.186   7.532   1.601  1.00 20.00     0.079 C 
HETATM    9  O10 UNL     1     -31.950   9.570   1.237  1.00 20.00    -0.298 OA
HETATM   10  C6  UNL     1     -32.920   6.497   2.688  1.00 20.00     0.012 C 
ENDBRANCH   4   5
ENDBRANCH   3   4
TORSDOF 2
ENDMDL
MODEL 5
REMARK VINA RESULT:      -5.1      2.619      4.799
REMARK  2 active torsions:
REMARK  status: ('A' for Active; 'I' for Inactive)
REMARK    1  A    between atoms: C7_7  and  C9_9 
REMARK    2  A    between atoms: C8_8  and  C9_9 
ROOT
HETATM    1  C1  UNL     1     -34.726   5.341   5.923  1.00 20.00     0.012 C 
HETATM    2  C2  UNL     1     -34.440   5.110   4.781  1.00 20.00    -0.117 C 
HETATM    3  C8  UNL     1     -34.094   4.822   3.382  1.00 20.00     0.093 C 
ENDROOT
BRANCH   3   4
HETATM    4  C9  UNL     1     -32.986   5.747   2.908  1.00 20.00     0.017 C 
BRANCH   4   5
HETATM    5  C7  UNL     1     -33.327   7.209   3.201  1.00 20.00    -0.006 C 
HETATM    6  C5  UNL     1     -33.419   8.041   1.919  1.00 20.00     0.082 C 
HETATM    7  C3  UNL     1     -32.010   8.559   1.766  1.00 20.00     0.127 C 
HETATM    8  C4  UNL     1     -31.178   8.328   3.000  1.00 20.00     0.079 C 
HETATM    9  O10 UNL     1     -31.591   9.105   0.755  1.00 20.00    -0.298 OA
HETATM   10  C6  UNL     1     -32.234   7.903   4.015  1.00 20.00     0.012 C 
ENDBRANCH   4   5
ENDBRANCH   3   4
TORSDOF 2
ENDMDL
MODEL 6
REMARK VINA RESULT:      -4.9      2.770      4.917
REMARK  2 active torsions:
REMARK  status: ('A' for Active; 'I' for Inactive)
REMARK    1  A    between atoms: C7_7  and  C9_9 
REMARK    2  A    between atoms: C8_8  and  C9_9 
ROOT
HETATM    1  C1  UNL     1     -33.995   6.905   5.931  1.00 20.00     0.012 C 
HETATM    2  C2  UNL     1     -34.119   6.540   4.794  1.00 20.00    -0.117 C 
HETATM    3  C8  UNL     1     -34.276   6.092   3.404  1.00 20.00     0.093 C 
ENDROOT
BRANCH   3   4
HETATM    4  C9  UNL     1     -33.105   6.565   2.559  1.00 20.00     0.017 C 
BRANCH   4   5
HETATM    5  C7  UNL     1     -32.773   8.029   2.850  1.00 20.00    -0.006 C 
HETATM    6  C5  UNL     1     -33.588   8.985   1.975  1.00 20.00     0.082 C 
HETATM    7  C3  UNL     1     -32.689   9.177   0.779  1.00 20.00     0.127 C 
HETATM    8  C4  UNL     1     -31.303   8.638   1.012  1.00 20.00     0.079 C 
HETATM    9  O10 UNL     1     -33.046   9.711  -0.263  1.00 20.00    -0.298 OA
HETATM   10  C6  UNL     1     -31.319   8.368   2.512  1.00 20.00     0.012 C 
ENDBRANCH   4   5
ENDBRANCH   3   4
TORSDOF 2
ENDMDL
MODEL 7
REMARK VINA RESULT:      -4.7      2.676      4.984
REMARK  2 active torsions:
REMARK  status: ('A' for Active; 'I' for Inactive)
REMARK    1  A    between atoms: C7_7  and  C9_9 
REMARK    2  A    between atoms: C8_8  and  C9_9 
ROOT
HETATM    1  C1  UNL     1     -34.799   5.260   4.894  1.00 20.00     0.012 C 
HETATM    2  C2  UNL     1     -34.213   6.214   4.463  1.00 20.00    -0.117 C 
HETATM    3  C8  UNL     1     -33.495   7.385   3.941  1.00 20.00     0.093 C 
ENDROOT
BRANCH   3   4
HETATM    4  C9  UNL     1     -32.998   7.118   2.531  1.00 20.00     0.017 C 
BRANCH   4   5
HETATM    5  C7  UNL     1     -31.762   7.962   2.214  1.00 20.00    -0.006 C 
HETATM    6  C5  UNL     1     -31.886   9.385   2.766  1.00 20.00     0.082 C 
HETATM    7  C3  UNL     1     -32.504  10.129   1.608  1.00 20.00     0.127 C 
HETATM    8  C4  UNL     1     -32.490   9.323   0.336  1.00 20.00     0.079 C 
HETATM    9  O10 UNL     1     -32.964  11.260   1.692  1.00 20.00    -0.298 OA
HETATM   10  C6  UNL     1     -31.573   8.164   0.709  1.00 20.00     0.012 C 
ENDBRANCH   4   5
ENDBRANCH   3   4
TORSDOF 2
ENDMDL
MODEL 8
REMARK VINA RESULT:      -4.7      2.965      5.261
REMARK  2 active torsions:
REMARK  status: ('A' for Active; 'I' for Inactive)
REMARK    1  A    between atoms: C7_7  and  C9_9 
REMARK    2  A    between atoms: C8_8  and  C9_9 
ROOT
HETATM    1  C1  UNL     1     -34.750   5.738   4.812  1.00 20.00     0.012 C 
HETATM    2  C2  UNL     1     -33.938   6.545   4.451  1.00 20.00    -0.117 C 
HETATM    3  C8  UNL     1     -32.941   7.533   4.016  1.00 20.00     0.093 C 
ENDROOT
BRANCH   3   4
HETATM    4  C9  UNL     1     -32.920   7.631   2.500  1.00 20.00     0.017 C 
BRANCH   4   5
HETATM    5  C7  UNL     1     -32.205   8.904   2.042  1.00 20.00    -0.006 C 
HETATM    6  C5  UNL     1     -33.173   9.903   1.402  1.00 20.00     0.082 C 
HETATM    7  C3  UNL     1     -33.112   9.525  -0.058  1.00 20.00     0.127 C 
HETATM    8  C4  UNL     1     -31.981   8.577  -0.357  1.00 20.00     0.079 C 
HETATM    9  O10 UNL     1     -33.893   9.942  -0.902  1.00 20.00    -0.298 OA
HETATM   10  C6  UNL     1     -31.181   8.624   0.940  1.00 20.00     0.012 C 
ENDBRANCH   4   5
ENDBRANCH   3   4
TORSDOF 2
ENDMDL
MODEL 9
REMARK VINA RESULT:      -4.6     11.305     11.944
REMARK  2 active torsions:
REMARK  status: ('A' for Active; 'I' for Inactive)
REMARK    1  A    between atoms: C7_7  and  C9_9 
REMARK    2  A    between atoms: C8_8  and  C9_9 
ROOT
HETATM    1  C1  UNL     1     -35.504  17.102  -0.771  1.00 20.00     0.012 C 
HETATM    2  C2  UNL     1     -34.633  17.064  -1.596  1.00 20.00    -0.117 C 
HETATM    3  C8  UNL     1     -33.563  17.023  -2.603  1.00 20.00     0.093 C 
ENDROOT
BRANCH   3   4
HETATM    4  C9  UNL     1     -33.702  15.785  -3.473  1.00 20.00     0.017 C 
BRANCH   4   5
HETATM    5  C7  UNL     1     -34.816  15.961  -4.506  1.00 20.00    -0.006 C 
HETATM    6  C5  UNL     1     -35.920  14.914  -4.337  1.00 20.00     0.082 C 
HETATM    7  C3  UNL     1     -35.458  13.804  -5.249  1.00 20.00     0.127 C 
HETATM    8  C4  UNL     1     -34.327  14.234  -6.145  1.00 20.00     0.079 C 
HETATM    9  O10 UNL     1     -35.948  12.683  -5.260  1.00 20.00    -0.298 OA
HETATM   10  C6  UNL     1     -34.315  15.744  -5.935  1.00 20.00     0.012 C 
ENDBRANCH   4   5
ENDBRANCH   3   4
TORSDOF 2
ENDMDL
