MODEL 1
REMARK VINA RESULT:      -4.7      0.000      0.000
REMARK  0 active torsions:
REMARK  status: ('A' for Active; 'I' for Inactive)
ROOT
HETATM    1  C1  UNL     1     -34.217  17.654  -0.836  1.00 20.00    -0.010 C 
HETATM    2  C2  UNL     1     -33.002  18.084  -1.587  1.00 20.00     0.155 C 
HETATM    3  C3  UNL     1     -34.402  18.137   0.400  1.00 20.00    -0.078 C 
HETATM    4  C4  UNL     1     -35.167  16.723  -1.528  1.00 20.00     0.051 C 
HETATM    5  C5  UNL     1     -33.155  18.292  -3.078  1.00 20.00     0.084 C 
HETATM    6  C6  UNL     1     -34.093  17.281  -3.730  1.00 20.00     0.017 C 
HETATM    7  C7  UNL     1     -35.442  17.121  -2.996  1.00 20.00    -0.043 C 
HETATM    8  C8  UNL     1     -35.595  17.762   1.231  1.00 20.00     0.043 C 
HETATM    9  C9  UNL     1     -33.430  19.088   1.035  1.00 20.00     0.043 C 
HETATM   10  C10 UNL     1     -36.267  18.421  -3.066  1.00 20.00     0.015 C 
HETATM   11  C11 UNL     1     -36.253  16.002  -3.676  1.00 20.00     0.015 C 
HETATM   12  O12 UNL     1     -31.945  18.333  -1.011  1.00 20.00    -0.293 OA
ENDROOT
TORSDOF 0
ENDMDL
MODEL 2
REMARK VINA RESULT:      -4.7      3.531      5.115
REMARK  0 active torsions:
REMARK  status: ('A' for Active; 'I' for Inactive)
ROOT
HETATM    1  C1  UNL     1     -35.605  15.141  -4.126  1.00 20.00    -0.010 C 
HETATM    2  C2  UNL     1     -36.024  13.993  -4.980  1.00 20.00     0.155 C 
HETATM    3  C3  UNL     1     -34.298  15.303  -3.878  1.00 20.00    -0.078 C 
HETATM    4  C4  UNL     1     -36.680  16.055  -3.617  1.00 20.00     0.051 C 
HETATM    5  C5  UNL     1     -37.187  14.225  -5.921  1.00 20.00     0.084 C 
HETATM    6  C6  UNL     1     -38.268  15.120  -5.324  1.00 20.00     0.017 C 
HETATM    7  C7  UNL     1     -37.722  16.421  -4.697  1.00 20.00    -0.043 C 
HETATM    8  C8  UNL     1     -33.783  16.430  -3.030  1.00 20.00     0.043 C 
HETATM    9  C9  UNL     1     -33.262  14.371  -4.435  1.00 20.00     0.043 C 
HETATM   10  C10 UNL     1     -37.102  17.335  -5.772  1.00 20.00     0.015 C 
HETATM   11  C11 UNL     1     -38.885  17.184  -4.034  1.00 20.00     0.015 C 
HETATM   12  O12 UNL     1     -35.405  12.931  -4.978  1.00 20.00    -0.293 OA
ENDROOT
TORSDOF 0
ENDMDL
MODEL 3
REMARK VINA RESULT:      -4.5      2.233      3.662
REMARK  0 active torsions:
REMARK  status: ('A' for Active; 'I' for Inactive)
ROOT
HETATM    1  C1  UNL     1     -34.737  17.015  -2.926  1.00 20.00    -0.010 C 
HETATM    2  C2  UNL     1     -36.176  16.685  -3.137  1.00 20.00     0.155 C 
HETATM    3  C3  UNL     1     -34.341  17.361  -1.694  1.00 20.00    -0.078 C 
HETATM    4  C4  UNL     1     -33.822  16.914  -4.109  1.00 20.00     0.051 C 
HETATM    5  C5  UNL     1     -36.489  15.574  -4.116  1.00 20.00     0.084 C 
HETATM    6  C6  UNL     1     -35.555  15.559  -5.322  1.00 20.00     0.017 C 
HETATM    7  C7  UNL     1     -34.059  15.639  -4.950  1.00 20.00    -0.043 C 
HETATM    8  C8  UNL     1     -32.913  17.709  -1.386  1.00 20.00     0.043 C 
HETATM    9  C9  UNL     1     -35.297  17.420  -0.539  1.00 20.00     0.043 C 
HETATM   10  C10 UNL     1     -33.612  14.382  -4.178  1.00 20.00     0.015 C 
HETATM   11  C11 UNL     1     -33.224  15.728  -6.243  1.00 20.00     0.015 C 
HETATM   12  O12 UNL     1     -37.064  17.236  -2.490  1.00 20.00    -0.293 OA
ENDROOT
TORSDOF 0
ENDMDL
MODEL 4
REMARK VINA RESULT:      -4.5      2.364      4.486
REMARK  0 active torsions:
REMARK  status: ('A' for Active; 'I' for Inactive)
ROOT
HETATM    1  C1  UNL     1     -34.394  16.506  -4.072  1.00 20.00    -0.010 C 
HETATM    2  C2  UNL     1     -34.781  17.796  -4.712  1.00 20.00     0.155 C 
HETATM    3  C3  UNL     1     -33.681  15.630  -4.792  1.00 20.00    -0.078 C 
HETATM    4  C4  UNL     1     -34.814  16.285  -2.649  1.00 20.00     0.051 C 
HETATM    5  C5  UNL     1     -34.785  19.026  -3.831  1.00 20.00     0.084 C 
HETATM    6  C6  UNL     1     -35.271  18.744  -2.412  1.00 20.00     0.017 C 
HETATM    7  C7  UNL     1     -34.590  17.524  -1.754  1.00 20.00    -0.043 C 
HETATM    8  C8  UNL     1     -33.245  14.307  -4.232  1.00 20.00     0.043 C 
HETATM    9  C9  UNL     1     -33.266  15.915  -6.206  1.00 20.00     0.043 C 
HETATM   10  C10 UNL     1     -33.086  17.780  -1.536  1.00 20.00     0.015 C 
HETATM   11  C11 UNL     1     -35.236  17.272  -0.377  1.00 20.00     0.015 C 
HETATM   12  O12 UNL     1     -35.012  17.872  -5.917  1.00 20.00    -0.293 OA
ENDROOT
TORSDOF 0
ENDMDL
MODEL 5
REMARK VINA RESULT:      -4.4      3.048      5.598
REMARK  0 active torsions:
REMARK  status: ('A' for Active; 'I' for Inactive)
ROOT
HETATM    1  C1  UNL     1     -34.083  15.591  -5.429  1.00 20.00    -0.010 C 
HETATM    2  C2  UNL     1     -34.449  14.917  -4.150  1.00 20.00     0.155 C 
HETATM    3  C3  UNL     1     -34.402  14.982  -6.579  1.00 20.00    -0.078 C 
HETATM    4  C4  UNL     1     -33.398  16.922  -5.340  1.00 20.00     0.051 C 
HETATM    5  C5  UNL     1     -34.889  15.806  -3.007  1.00 20.00     0.084 C 
HETATM    6  C6  UNL     1     -34.118  17.121  -2.942  1.00 20.00     0.017 C 
HETATM    7  C7  UNL     1     -34.037  17.862  -4.294  1.00 20.00    -0.043 C 
HETATM    8  C8  UNL     1     -34.075  15.584  -7.915  1.00 20.00     0.043 C 
HETATM    9  C9  UNL     1     -35.112  13.660  -6.608  1.00 20.00     0.043 C 
HETATM   10  C10 UNL     1     -35.433  18.326  -4.755  1.00 20.00     0.015 C 
HETATM   11  C11 UNL     1     -33.148  19.110  -4.131  1.00 20.00     0.015 C 
HETATM   12  O12 UNL     1     -34.467  13.692  -4.050  1.00 20.00    -0.293 OA
ENDROOT
TORSDOF 0
ENDMDL
MODEL 6
REMARK VINA RESULT:      -4.3      3.482      6.207
REMARK  0 active torsions:
REMARK  status: ('A' for Active; 'I' for Inactive)
ROOT
HETATM    1  C1  UNL     1     -35.324  14.795  -5.568  1.00 20.00    -0.010 C 
HETATM    2  C2  UNL     1     -36.684  14.666  -4.969  1.00 20.00     0.155 C 
HETATM    3  C3  UNL     1     -35.170  14.487  -6.863  1.00 20.00    -0.078 C 
HETATM    4  C4  UNL     1     -34.220  15.287  -4.680  1.00 20.00     0.051 C 
HETATM    5  C5  UNL     1     -37.083  15.700  -3.939  1.00 20.00     0.084 C 
HETATM    6  C6  UNL     1     -35.927  16.119  -3.035  1.00 20.00     0.017 C 
HETATM    7  C7  UNL     1     -34.639  16.488  -3.803  1.00 20.00    -0.043 C 
HETATM    8  C8  UNL     1     -33.840  14.588  -7.551  1.00 20.00     0.043 C 
HETATM    9  C9  UNL     1     -36.318  14.023  -7.711  1.00 20.00     0.043 C 
HETATM   10  C10 UNL     1     -34.851  17.749  -4.664  1.00 20.00     0.015 C 
HETATM   11  C11 UNL     1     -33.518  16.784  -2.789  1.00 20.00     0.015 C 
HETATM   12  O12 UNL     1     -37.475  13.805  -5.350  1.00 20.00    -0.293 OA
ENDROOT
TORSDOF 0
ENDMDL
MODEL 7
REMARK VINA RESULT:      -4.2      2.501      5.058
REMARK  0 active torsions:
REMARK  status: ('A' for Active; 'I' for Inactive)
ROOT
HETATM    1  C1  UNL     1     -34.738  16.006  -4.170  1.00 20.00    -0.010 C 
HETATM    2  C2  UNL     1     -36.124  15.977  -3.621  1.00 20.00     0.155 C 
HETATM    3  C3  UNL     1     -34.563  15.707  -5.464  1.00 20.00    -0.078 C 
HETATM    4  C4  UNL     1     -33.630  16.392  -3.236  1.00 20.00     0.051 C 
HETATM    5  C5  UNL     1     -36.475  17.023  -2.585  1.00 20.00     0.084 C 
HETATM    6  C6  UNL     1     -35.322  17.333  -1.635  1.00 20.00     0.017 C 
HETATM    7  C7  UNL     1     -33.983  17.609  -2.351  1.00 20.00    -0.043 C 
HETATM    8  C8  UNL     1     -33.205  15.711  -6.105  1.00 20.00     0.043 C 
HETATM    9  C9  UNL     1     -35.713  15.351  -6.360  1.00 20.00     0.043 C 
HETATM   10  C10 UNL     1     -34.062  18.897  -3.195  1.00 20.00     0.015 C 
HETATM   11  C11 UNL     1     -32.878  17.798  -1.294  1.00 20.00     0.015 C 
HETATM   12  O12 UNL     1     -36.967  15.189  -4.045  1.00 20.00    -0.293 OA
ENDROOT
TORSDOF 0
ENDMDL
MODEL 8
REMARK VINA RESULT:      -4.2      3.258      5.440
REMARK  0 active torsions:
REMARK  status: ('A' for Active; 'I' for Inactive)
ROOT
HETATM    1  C1  UNL     1     -36.516  15.669  -4.842  1.00 20.00    -0.010 C 
HETATM    2  C2  UNL     1     -35.916  14.306  -4.909  1.00 20.00     0.155 C 
HETATM    3  C3  UNL     1     -37.850  15.778  -4.902  1.00 20.00    -0.078 C 
HETATM    4  C4  UNL     1     -35.581  16.832  -4.689  1.00 20.00     0.051 C 
HETATM    5  C5  UNL     1     -34.689  14.053  -4.059  1.00 20.00     0.084 C 
HETATM    6  C6  UNL     1     -33.754  15.257  -3.987  1.00 20.00     0.017 C 
HETATM    7  C7  UNL     1     -34.471  16.580  -3.644  1.00 20.00    -0.043 C 
HETATM    8  C8  UNL     1     -38.543  17.107  -4.842  1.00 20.00     0.043 C 
HETATM    9  C9  UNL     1     -38.740  14.576  -5.031  1.00 20.00     0.043 C 
HETATM   10  C10 UNL     1     -35.058  16.539  -2.219  1.00 20.00     0.015 C 
HETATM   11  C11 UNL     1     -33.451  17.734  -3.708  1.00 20.00     0.015 C 
HETATM   12  O12 UNL     1     -36.436  13.405  -5.564  1.00 20.00    -0.293 OA
ENDROOT
TORSDOF 0
ENDMDL
MODEL 9
REMARK VINA RESULT:      -4.2      2.386      3.664
REMARK  0 active torsions:
REMARK  status: ('A' for Active; 'I' for Inactive)
ROOT
HETATM    1  C1  UNL     1     -35.150  15.801  -3.596  1.00 20.00    -0.010 C 
HETATM    2  C2  UNL     1     -34.096  15.318  -4.533  1.00 20.00     0.155 C 
HETATM    3  C3  UNL     1     -34.779  16.585  -2.575  1.00 20.00    -0.078 C 
HETATM    4  C4  UNL     1     -36.566  15.392  -3.874  1.00 20.00     0.051 C 
HETATM    5  C5  UNL     1     -34.473  15.213  -5.996  1.00 20.00     0.084 C 
HETATM    6  C6  UNL     1     -35.908  14.743  -6.210  1.00 20.00     0.017 C 
HETATM    7  C7  UNL     1     -36.947  15.512  -5.366  1.00 20.00    -0.043 C 
HETATM    8  C8  UNL     1     -35.769  17.120  -1.581  1.00 20.00     0.043 C 
HETATM    9  C9  UNL     1     -33.348  16.985  -2.359  1.00 20.00     0.043 C 
HETATM   10  C10 UNL     1     -37.023  16.991  -5.796  1.00 20.00     0.015 C 
HETATM   11  C11 UNL     1     -38.336  14.880  -5.582  1.00 20.00     0.015 C 
HETATM   12  O12 UNL     1     -32.950  15.089  -4.150  1.00 20.00    -0.293 OA
ENDROOT
TORSDOF 0
ENDMDL
