MODEL 1
REMARK VINA RESULT:      -5.3      0.000      0.000
REMARK  0 active torsions:
REMARK  status: ('A' for Active; 'I' for Inactive)
ROOT
HETATM    1  C1  UNL     1     -37.914  15.162  -6.034  1.00 20.00    -0.017 C 
HETATM    2  C2  UNL     1     -37.705  16.492  -5.779  1.00 20.00    -0.019 C 
HETATM    3  C3  UNL     1     -35.564  13.828  -5.690  1.00 20.00     0.136 C 
HETATM    4  C4  UNL     1     -34.089  14.266  -5.650  1.00 20.00     0.083 C 
HETATM    5  C5  UNL     1     -34.943  16.925  -1.922  1.00 20.00     0.000 C 
HETATM    6  C6  UNL     1     -33.644  16.873  -2.733  1.00 20.00     0.000 C 
HETATM    7  C7  UNL     1     -36.255  17.056  -2.700  1.00 20.00     0.001 C 
HETATM    8  C8  UNL     1     -33.478  15.614  -3.585  1.00 20.00     0.005 C 
HETATM    9  C9  UNL     1     -36.589  15.850  -3.583  1.00 20.00     0.014 C 
HETATM   10  C10 UNL     1     -35.006  16.735  -5.434  1.00 20.00     0.019 C 
HETATM   11  C11 UNL     1     -36.427  14.985  -6.164  1.00 20.00     0.090 C 
HETATM   12  C12 UNL     1     -33.872  15.714  -5.080  1.00 20.00    -0.007 C 
HETATM   13  C13 UNL     1     -36.369  16.138  -5.095  1.00 20.00    -0.009 C 
HETATM   14  O14 UNL     1     -35.925  12.685  -5.427  1.00 20.00    -0.297 OA
ENDROOT
TORSDOF 0
ENDMDL
MODEL 2
REMARK VINA RESULT:      -5.2      1.489      2.446
REMARK  0 active torsions:
REMARK  status: ('A' for Active; 'I' for Inactive)
ROOT
HETATM    1  C1  UNL     1     -34.728  14.475  -7.847  1.00 20.00    -0.017 C 
HETATM    2  C2  UNL     1     -34.089  15.687  -7.864  1.00 20.00    -0.019 C 
HETATM    3  C3  UNL     1     -34.947  13.638  -5.264  1.00 20.00     0.136 C 
HETATM    4  C4  UNL     1     -34.226  14.018  -3.959  1.00 20.00     0.083 C 
HETATM    5  C5  UNL     1     -35.790  18.390  -4.328  1.00 20.00     0.000 C 
HETATM    6  C6  UNL     1     -34.771  17.864  -3.313  1.00 20.00     0.000 C 
HETATM    7  C7  UNL     1     -35.579  18.014  -5.798  1.00 20.00     0.001 C 
HETATM    8  C8  UNL     1     -34.795  16.347  -3.118  1.00 20.00     0.005 C 
HETATM    9  C9  UNL     1     -35.719  16.519  -6.093  1.00 20.00     0.014 C 
HETATM   10  C10 UNL     1     -33.292  16.105  -5.284  1.00 20.00     0.019 C 
HETATM   11  C11 UNL     1     -34.226  14.264  -6.447  1.00 20.00     0.090 C 
HETATM   12  C12 UNL     1     -33.753  15.516  -3.908  1.00 20.00    -0.007 C 
HETATM   13  C13 UNL     1     -34.350  15.829  -6.350  1.00 20.00    -0.009 C 
HETATM   14  O14 UNL     1     -35.917  12.888  -5.293  1.00 20.00    -0.297 OA
ENDROOT
TORSDOF 0
ENDMDL
MODEL 3
REMARK VINA RESULT:      -5.2      1.980      3.912
REMARK  0 active torsions:
REMARK  status: ('A' for Active; 'I' for Inactive)
ROOT
HETATM    1  C1  UNL     1     -34.483  17.624  -2.418  1.00 20.00    -0.017 C 
HETATM    2  C2  UNL     1     -35.086  16.476  -1.975  1.00 20.00    -0.019 C 
HETATM    3  C3  UNL     1     -33.462  17.173  -4.903  1.00 20.00     0.136 C 
HETATM    4  C4  UNL     1     -33.110  15.901  -5.693  1.00 20.00     0.083 C 
HETATM    5  C5  UNL     1     -37.563  14.541  -5.556  1.00 20.00     0.000 C 
HETATM    6  C6  UNL     1     -36.370  13.724  -6.061  1.00 20.00     0.000 C 
HETATM    7  C7  UNL     1     -37.414  15.243  -4.202  1.00 20.00     0.001 C 
HETATM    8  C8  UNL     1     -35.139  14.556  -6.421  1.00 20.00     0.005 C 
HETATM    9  C9  UNL     1     -36.357  16.349  -4.178  1.00 20.00     0.014 C 
HETATM   10  C10 UNL     1     -34.484  14.588  -3.856  1.00 20.00     0.019 C 
HETATM   11  C11 UNL     1     -33.767  16.811  -3.459  1.00 20.00     0.090 C 
HETATM   12  C12 UNL     1     -34.024  14.669  -5.351  1.00 20.00    -0.007 C 
HETATM   13  C13 UNL     1     -35.068  15.928  -3.417  1.00 20.00    -0.009 C 
HETATM   14  O14 UNL     1     -33.427  18.295  -5.399  1.00 20.00    -0.297 OA
ENDROOT
TORSDOF 0
ENDMDL
MODEL 4
REMARK VINA RESULT:      -5.0      1.416      3.868
REMARK  0 active torsions:
REMARK  status: ('A' for Active; 'I' for Inactive)
ROOT
HETATM    1  C1  UNL     1     -33.334  14.298  -4.162  1.00 20.00    -0.017 C 
HETATM    2  C2  UNL     1     -33.283  15.663  -4.044  1.00 20.00    -0.019 C 
HETATM    3  C3  UNL     1     -35.771  13.598  -5.156  1.00 20.00     0.136 C 
HETATM    4  C4  UNL     1     -37.129  14.316  -5.246  1.00 20.00     0.083 C 
HETATM    5  C5  UNL     1     -35.240  17.632  -7.916  1.00 20.00     0.000 C 
HETATM    6  C6  UNL     1     -36.649  17.630  -7.317  1.00 20.00     0.000 C 
HETATM    7  C7  UNL     1     -34.076  17.290  -6.981  1.00 20.00     0.001 C 
HETATM    8  C8  UNL     1     -37.156  16.251  -6.892  1.00 20.00     0.005 C 
HETATM    9  C9  UNL     1     -34.093  15.854  -6.450  1.00 20.00     0.014 C 
HETATM   10  C10 UNL     1     -35.810  16.521  -4.628  1.00 20.00     0.019 C 
HETATM   11  C11 UNL     1     -34.830  14.394  -4.268  1.00 20.00     0.090 C 
HETATM   12  C12 UNL     1     -37.014  15.876  -5.395  1.00 20.00    -0.007 C 
HETATM   13  C13 UNL     1     -34.520  15.774  -4.958  1.00 20.00    -0.009 C 
HETATM   14  O14 UNL     1     -35.555  12.515  -5.692  1.00 20.00    -0.297 OA
ENDROOT
TORSDOF 0
ENDMDL
MODEL 5
REMARK VINA RESULT:      -4.9      1.322      1.530
REMARK  0 active torsions:
REMARK  status: ('A' for Active; 'I' for Inactive)
ROOT
HETATM    1  C1  UNL     1     -37.126  13.923  -5.251  1.00 20.00    -0.017 C 
HETATM    2  C2  UNL     1     -37.567  15.040  -4.592  1.00 20.00    -0.019 C 
HETATM    3  C3  UNL     1     -34.780  14.515  -6.502  1.00 20.00     0.136 C 
HETATM    4  C4  UNL     1     -34.096  15.831  -6.911  1.00 20.00     0.083 C 
HETATM    5  C5  UNL     1     -33.868  17.142  -2.447  1.00 20.00     0.000 C 
HETATM    6  C6  UNL     1     -33.526  17.996  -3.673  1.00 20.00     0.000 C 
HETATM    7  C7  UNL     1     -35.191  16.370  -2.474  1.00 20.00     0.001 C 
HETATM    8  C8  UNL     1     -33.244  17.195  -4.945  1.00 20.00     0.005 C 
HETATM    9  C9  UNL     1     -35.261  15.273  -3.539  1.00 20.00     0.014 C 
HETATM   10  C10 UNL     1     -35.856  17.032  -5.348  1.00 20.00     0.019 C 
HETATM   11  C11 UNL     1     -36.204  14.796  -6.053  1.00 20.00     0.090 C 
HETATM   12  C12 UNL     1     -34.411  17.035  -5.952  1.00 20.00    -0.007 C 
HETATM   13  C13 UNL     1     -36.165  15.665  -4.742  1.00 20.00    -0.009 C 
HETATM   14  O14 UNL     1     -34.231  13.422  -6.601  1.00 20.00    -0.297 OA
ENDROOT
TORSDOF 0
ENDMDL
MODEL 6
REMARK VINA RESULT:      -4.8      2.082      3.543
REMARK  0 active torsions:
REMARK  status: ('A' for Active; 'I' for Inactive)
ROOT
HETATM    1  C1  UNL     1     -33.404  16.319  -6.258  1.00 20.00    -0.017 C 
HETATM    2  C2  UNL     1     -33.002  15.533  -5.210  1.00 20.00    -0.019 C 
HETATM    3  C3  UNL     1     -35.864  17.341  -5.690  1.00 20.00     0.136 C 
HETATM    4  C4  UNL     1     -36.974  16.951  -4.697  1.00 20.00     0.083 C 
HETATM    5  C5  UNL     1     -34.092  17.718  -1.119  1.00 20.00     0.000 C 
HETATM    6  C6  UNL     1     -35.491  17.096  -1.053  1.00 20.00     0.000 C 
HETATM    7  C7  UNL     1     -33.129  17.176  -2.179  1.00 20.00     0.001 C 
HETATM    8  C8  UNL     1     -36.373  17.388  -2.268  1.00 20.00     0.005 C 
HETATM    9  C9  UNL     1     -33.562  17.443  -3.622  1.00 20.00     0.014 C 
HETATM   10  C10 UNL     1     -35.165  15.408  -3.545  1.00 20.00     0.019 C 
HETATM   11  C11 UNL     1     -34.810  16.248  -5.732  1.00 20.00     0.090 C 
HETATM   12  C12 UNL     1     -36.439  16.301  -3.370  1.00 20.00    -0.007 C 
HETATM   13  C13 UNL     1     -34.099  16.168  -4.331  1.00 20.00    -0.009 C 
HETATM   14  O14 UNL     1     -35.906  18.365  -6.365  1.00 20.00    -0.297 OA
ENDROOT
TORSDOF 0
ENDMDL
MODEL 7
REMARK VINA RESULT:      -4.8      1.456      3.144
REMARK  0 active torsions:
REMARK  status: ('A' for Active; 'I' for Inactive)
ROOT
HETATM    1  C1  UNL     1     -34.427  13.472  -7.311  1.00 20.00    -0.017 C 
HETATM    2  C2  UNL     1     -35.459  14.201  -7.840  1.00 20.00    -0.019 C 
HETATM    3  C3  UNL     1     -33.694  14.589  -4.937  1.00 20.00     0.136 C 
HETATM    4  C4  UNL     1     -33.914  15.972  -4.300  1.00 20.00     0.083 C 
HETATM    5  C5  UNL     1     -38.523  15.308  -4.364  1.00 20.00     0.000 C 
HETATM    6  C6  UNL     1     -37.788  16.603  -4.003  1.00 20.00     0.000 C 
HETATM    7  C7  UNL     1     -38.091  14.585  -5.643  1.00 20.00     0.001 C 
HETATM    8  C8  UNL     1     -36.321  16.413  -3.618  1.00 20.00     0.005 C 
HETATM    9  C9  UNL     1     -36.665  14.031  -5.604  1.00 20.00     0.014 C 
HETATM   10  C10 UNL     1     -35.713  16.368  -6.195  1.00 20.00     0.019 C 
HETATM   11  C11 UNL     1     -34.122  14.623  -6.395  1.00 20.00     0.090 C 
HETATM   12  C12 UNL     1     -35.262  16.658  -4.723  1.00 20.00    -0.007 C 
HETATM   13  C13 UNL     1     -35.675  14.866  -6.465  1.00 20.00    -0.009 C 
HETATM   14  O14 UNL     1     -33.187  13.650  -4.330  1.00 20.00    -0.297 OA
ENDROOT
TORSDOF 0
ENDMDL
MODEL 8
REMARK VINA RESULT:      -4.8      1.266      1.719
REMARK  0 active torsions:
REMARK  status: ('A' for Active; 'I' for Inactive)
ROOT
HETATM    1  C1  UNL     1     -38.109  16.822  -6.333  1.00 20.00    -0.017 C 
HETATM    2  C2  UNL     1     -36.969  17.556  -6.531  1.00 20.00    -0.019 C 
HETATM    3  C3  UNL     1     -37.405  14.299  -5.586  1.00 20.00     0.136 C 
HETATM    4  C4  UNL     1     -36.108  13.479  -5.701  1.00 20.00     0.083 C 
HETATM    5  C5  UNL     1     -33.867  16.583  -3.049  1.00 20.00     0.000 C 
HETATM    6  C6  UNL     1     -33.245  15.406  -3.807  1.00 20.00     0.000 C 
HETATM    7  C7  UNL     1     -34.840  17.482  -3.818  1.00 20.00     0.001 C 
HETATM    8  C8  UNL     1     -34.236  14.309  -4.198  1.00 20.00     0.005 C 
HETATM    9  C9  UNL     1     -36.132  16.787  -4.253  1.00 20.00     0.014 C 
HETATM   10  C10 UNL     1     -34.921  15.762  -6.303  1.00 20.00     0.019 C 
HETATM   11  C11 UNL     1     -37.281  15.571  -6.408  1.00 20.00     0.090 C 
HETATM   12  C12 UNL     1     -34.800  14.348  -5.641  1.00 20.00    -0.007 C 
HETATM   13  C13 UNL     1     -36.162  16.480  -5.777  1.00 20.00    -0.009 C 
HETATM   14  O14 UNL     1     -38.385  13.908  -4.959  1.00 20.00    -0.297 OA
ENDROOT
TORSDOF 0
ENDMDL
MODEL 9
REMARK VINA RESULT:      -4.8      1.671      3.167
REMARK  0 active torsions:
REMARK  status: ('A' for Active; 'I' for Inactive)
ROOT
HETATM    1  C1  UNL     1     -35.239  14.209  -7.918  1.00 20.00    -0.017 C 
HETATM    2  C2  UNL     1     -34.565  13.531  -6.936  1.00 20.00    -0.019 C 
HETATM    3  C3  UNL     1     -37.105  15.812  -6.748  1.00 20.00     0.136 C 
HETATM    4  C4  UNL     1     -37.772  15.831  -5.361  1.00 20.00     0.083 C 
HETATM    5  C5  UNL     1     -33.630  16.516  -3.342  1.00 20.00     0.000 C 
HETATM    6  C6  UNL     1     -34.958  16.227  -2.636  1.00 20.00     0.000 C 
HETATM    7  C7  UNL     1     -33.251  15.619  -4.525  1.00 20.00     0.001 C 
HETATM    8  C8  UNL     1     -36.201  16.506  -3.482  1.00 20.00     0.005 C 
HETATM    9  C9  UNL     1     -34.181  15.742  -5.734  1.00 20.00     0.014 C 
HETATM   10  C10 UNL     1     -35.884  14.137  -4.621  1.00 20.00     0.019 C 
HETATM   11  C11 UNL     1     -36.315  14.525  -6.918  1.00 20.00     0.090 C 
HETATM   12  C12 UNL     1     -36.849  15.299  -4.206  1.00 20.00    -0.007 C 
HETATM   13  C13 UNL     1     -35.125  14.516  -5.890  1.00 20.00    -0.009 C 
HETATM   14  O14 UNL     1     -37.271  16.701  -7.577  1.00 20.00    -0.297 OA
ENDROOT
TORSDOF 0
ENDMDL
