MODEL 1
REMARK VINA RESULT:      -6.4      0.000      0.000
REMARK  1 active torsions:
REMARK  status: ('A' for Active; 'I' for Inactive)
REMARK    1  A    between atoms: C10_10  and  O11_11 
ROOT
HETATM    1  C1  UNL     1     -34.738   5.205   5.870  1.00 20.00    -0.021 C 
HETATM    2  C2  UNL     1     -33.605   4.124   3.777  1.00 20.00    -0.021 C 
HETATM    3  C3  UNL     1     -34.251   6.453   6.050  1.00 20.00    -0.025 C 
HETATM    4  C4  UNL     1     -33.104   4.842   2.749  1.00 20.00    -0.022 C 
HETATM    5  C5  UNL     1     -33.444   8.151   3.981  1.00 20.00     0.041 C 
HETATM    6  C6  UNL     1     -34.791   4.796   4.412  1.00 20.00     0.035 C 
HETATM    7  C7  UNL     1     -33.650   6.880   4.767  1.00 20.00     0.016 C 
HETATM    8  C8  UNL     1     -33.850   6.140   2.516  1.00 20.00     0.042 C 
HETATM    9  C9  UNL     1     -34.629   6.171   3.809  1.00 20.00     0.015 C 
HETATM   10  C10 UNL     1     -33.149   7.536   2.568  1.00 20.00     0.127 C 
ENDROOT
BRANCH  10  11
HETATM   11  O11 UNL     1     -31.748   7.412   2.373  1.00 20.00    -0.395 OA
HETATM   12  H23 UNL     1     -31.607   7.279   1.421  1.00 20.00     0.210 HD
ENDBRANCH  10  11
TORSDOF 1
ENDMDL
MODEL 2
REMARK VINA RESULT:      -6.2      1.205      2.031
REMARK  1 active torsions:
REMARK  status: ('A' for Active; 'I' for Inactive)
REMARK    1  A    between atoms: C10_10  and  O11_11 
ROOT
HETATM    1  C1  UNL     1     -33.736   7.421   6.291  1.00 20.00    -0.021 C 
HETATM    2  C2  UNL     1     -34.342   4.917   5.847  1.00 20.00    -0.021 C 
HETATM    3  C3  UNL     1     -32.918   7.865   5.312  1.00 20.00    -0.025 C 
HETATM    4  C4  UNL     1     -34.343   4.359   4.617  1.00 20.00    -0.022 C 
HETATM    5  C5  UNL     1     -33.007   6.996   2.657  1.00 20.00     0.041 C 
HETATM    6  C6  UNL     1     -34.718   6.372   5.809  1.00 20.00     0.035 C 
HETATM    7  C7  UNL     1     -33.065   6.945   4.163  1.00 20.00     0.016 C 
HETATM    8  C8  UNL     1     -34.703   5.343   3.523  1.00 20.00     0.042 C 
HETATM    9  C9  UNL     1     -34.563   6.613   4.327  1.00 20.00     0.015 C 
HETATM   10  C10 UNL     1     -33.749   5.654   2.324  1.00 20.00     0.127 C 
ENDROOT
BRANCH  10  11
HETATM   11  O11 UNL     1     -32.807   4.609   2.135  1.00 20.00    -0.395 OA
HETATM   12  H23 UNL     1     -32.147   4.936   1.501  1.00 20.00     0.210 HD
ENDBRANCH  10  11
TORSDOF 1
ENDMDL
MODEL 3
REMARK VINA RESULT:      -6.1      1.758      3.503
REMARK  1 active torsions:
REMARK  status: ('A' for Active; 'I' for Inactive)
REMARK    1  A    between atoms: C10_10  and  O11_11 
ROOT
HETATM    1  C1  UNL     1     -32.402   8.194   3.620  1.00 20.00    -0.021 C 
HETATM    2  C2  UNL     1     -33.559   7.312   5.793  1.00 20.00    -0.021 C 
HETATM    3  C3  UNL     1     -32.062   7.147   2.836  1.00 20.00    -0.025 C 
HETATM    4  C4  UNL     1     -34.218   6.136   5.858  1.00 20.00    -0.022 C 
HETATM    5  C5  UNL     1     -33.506   4.760   2.667  1.00 20.00     0.041 C 
HETATM    6  C6  UNL     1     -33.657   7.941   4.430  1.00 20.00     0.035 C 
HETATM    7  C7  UNL     1     -32.874   5.989   3.271  1.00 20.00     0.016 C 
HETATM    8  C8  UNL     1     -34.868   5.749   4.545  1.00 20.00     0.042 C 
HETATM    9  C9  UNL     1     -34.161   6.746   3.659  1.00 20.00     0.015 C 
HETATM   10  C10 UNL     1     -34.533   4.415   3.802  1.00 20.00     0.127 C 
ENDROOT
BRANCH  10  11
HETATM   11  O11 UNL     1     -33.975   3.459   4.692  1.00 20.00    -0.395 OA
HETATM   12  H23 UNL     1     -34.178   2.582   4.326  1.00 20.00     0.210 HD
ENDBRANCH  10  11
TORSDOF 1
ENDMDL
MODEL 4
REMARK VINA RESULT:      -5.9      0.968      1.299
REMARK  1 active torsions:
REMARK  status: ('A' for Active; 'I' for Inactive)
REMARK    1  A    between atoms: C10_10  and  O11_11 
ROOT
HETATM    1  C1  UNL     1     -34.935   4.607   4.999  1.00 20.00    -0.021 C 
HETATM    2  C2  UNL     1     -33.403   4.900   2.901  1.00 20.00    -0.021 C 
HETATM    3  C3  UNL     1     -34.500   5.417   5.989  1.00 20.00    -0.025 C 
HETATM    4  C4  UNL     1     -32.711   6.030   2.638  1.00 20.00    -0.022 C 
HETATM    5  C5  UNL     1     -33.305   7.912   5.586  1.00 20.00     0.041 C 
HETATM    6  C6  UNL     1     -34.694   5.182   3.618  1.00 20.00     0.035 C 
HETATM    7  C7  UNL     1     -33.657   6.462   5.366  1.00 20.00     0.016 C 
HETATM    8  C8  UNL     1     -33.402   7.278   3.147  1.00 20.00     0.042 C 
HETATM    9  C9  UNL     1     -34.423   6.607   4.034  1.00 20.00     0.015 C 
HETATM   10  C10 UNL     1     -32.732   8.256   4.166  1.00 20.00     0.127 C 
ENDROOT
BRANCH  10  11
HETATM   11  O11 UNL     1     -31.320   8.111   4.162  1.00 20.00    -0.395 OA
HETATM   12  H23 UNL     1     -30.957   8.872   4.642  1.00 20.00     0.210 HD
ENDBRANCH  10  11
TORSDOF 1
ENDMDL
MODEL 5
REMARK VINA RESULT:      -5.5      1.505      2.928
REMARK  1 active torsions:
REMARK  status: ('A' for Active; 'I' for Inactive)
REMARK    1  A    between atoms: C10_10  and  O11_11 
ROOT
HETATM    1  C1  UNL     1     -33.641   4.356   2.643  1.00 20.00    -0.021 C 
HETATM    2  C2  UNL     1     -32.397   6.655   2.599  1.00 20.00    -0.021 C 
HETATM    3  C3  UNL     1     -33.919   4.020   3.922  1.00 20.00    -0.025 C 
HETATM    4  C4  UNL     1     -32.532   7.592   3.563  1.00 20.00    -0.022 C 
HETATM    5  C5  UNL     1     -34.496   5.854   5.952  1.00 20.00     0.041 C 
HETATM    6  C6  UNL     1     -33.655   5.853   2.409  1.00 20.00     0.035 C 
HETATM    7  C7  UNL     1     -33.844   5.258   4.729  1.00 20.00     0.016 C 
HETATM    8  C8  UNL     1     -33.901   7.579   4.211  1.00 20.00     0.042 C 
HETATM    9  C9  UNL     1     -34.376   6.251   3.675  1.00 20.00     0.015 C 
HETATM   10  C10 UNL     1     -34.104   7.360   5.745  1.00 20.00     0.127 C 
ENDROOT
BRANCH  10  11
HETATM   11  O11 UNL     1     -32.918   7.658   6.466  1.00 20.00    -0.395 OA
HETATM   12  H23 UNL     1     -32.172   7.382   5.909  1.00 20.00     0.210 HD
ENDBRANCH  10  11
TORSDOF 1
ENDMDL
MODEL 6
REMARK VINA RESULT:      -4.8     11.852     13.639
REMARK  1 active torsions:
REMARK  status: ('A' for Active; 'I' for Inactive)
REMARK    1  A    between atoms: C10_10  and  O11_11 
ROOT
HETATM    1  C1  UNL     1     -33.666  16.660  -7.091  1.00 20.00    -0.021 C 
HETATM    2  C2  UNL     1     -33.024  15.354  -4.919  1.00 20.00    -0.021 C 
HETATM    3  C3  UNL     1     -34.612  15.970  -7.766  1.00 20.00    -0.025 C 
HETATM    4  C4  UNL     1     -33.860  14.499  -4.291  1.00 20.00    -0.022 C 
HETATM    5  C5  UNL     1     -36.580  14.388  -6.566  1.00 20.00     0.041 C 
HETATM    6  C6  UNL     1     -33.763  16.479  -5.590  1.00 20.00     0.035 C 
HETATM    7  C7  UNL     1     -35.235  15.027  -6.812  1.00 20.00     0.016 C 
HETATM    8  C8  UNL     1     -35.318  14.883  -4.439  1.00 20.00     0.042 C 
HETATM    9  C9  UNL     1     -35.157  15.900  -5.543  1.00 20.00     0.015 C 
HETATM   10  C10 UNL     1     -36.379  13.930  -5.079  1.00 20.00     0.127 C 
ENDROOT
BRANCH  10  11
HETATM   11  O11 UNL     1     -35.943  12.579  -5.039  1.00 20.00    -0.395 OA
HETATM   12  H23 UNL     1     -34.975  12.597  -4.959  1.00 20.00     0.210 HD
ENDBRANCH  10  11
TORSDOF 1
ENDMDL
MODEL 7
REMARK VINA RESULT:      -4.6     11.956     12.960
REMARK  1 active torsions:
REMARK  status: ('A' for Active; 'I' for Inactive)
REMARK    1  A    between atoms: C10_10  and  O11_11 
ROOT
HETATM    1  C1  UNL     1     -37.547  14.615  -5.959  1.00 20.00    -0.021 C 
HETATM    2  C2  UNL     1     -35.614  13.590  -7.391  1.00 20.00    -0.021 C 
HETATM    3  C3  UNL     1     -37.160  14.684  -4.667  1.00 20.00    -0.025 C 
HETATM    4  C4  UNL     1     -34.311  13.670  -7.046  1.00 20.00    -0.022 C 
HETATM    5  C5  UNL     1     -34.533  15.129  -3.820  1.00 20.00     0.041 C 
HETATM    6  C6  UNL     1     -36.396  14.789  -6.930  1.00 20.00     0.035 C 
HETATM    7  C7  UNL     1     -35.682  14.603  -4.644  1.00 20.00     0.016 C 
HETATM    8  C8  UNL     1     -33.980  14.930  -6.273  1.00 20.00     0.042 C 
HETATM    9  C9  UNL     1     -35.393  15.360  -5.957  1.00 20.00     0.015 C 
HETATM   10  C10 UNL     1     -33.361  14.899  -4.838  1.00 20.00     0.127 C 
ENDROOT
BRANCH  10  11
HETATM   11  O11 UNL     1     -32.728  13.654  -4.580  1.00 20.00    -0.395 OA
HETATM   12  H23 UNL     1     -32.052  13.535  -5.267  1.00 20.00     0.210 HD
ENDBRANCH  10  11
TORSDOF 1
ENDMDL
MODEL 8
REMARK VINA RESULT:      -4.6     12.144     13.061
REMARK  1 active torsions:
REMARK  status: ('A' for Active; 'I' for Inactive)
REMARK    1  A    between atoms: C10_10  and  O11_11 
ROOT
HETATM    1  C1  UNL     1     -33.866  17.220  -2.440  1.00 20.00    -0.021 C 
HETATM    2  C2  UNL     1     -32.258  18.269  -0.665  1.00 20.00    -0.021 C 
HETATM    3  C3  UNL     1     -34.934  16.678  -1.813  1.00 20.00    -0.025 C 
HETATM    4  C4  UNL     1     -32.672  18.714   0.541  1.00 20.00    -0.022 C 
HETATM    5  C5  UNL     1     -36.064  17.675   0.541  1.00 20.00     0.041 C 
HETATM    6  C6  UNL     1     -33.315  18.435  -1.722  1.00 20.00     0.035 C 
HETATM    7  C7  UNL     1     -35.011  17.287  -0.467  1.00 20.00     0.016 C 
HETATM    8  C8  UNL     1     -34.091  19.245   0.520  1.00 20.00     0.042 C 
HETATM    9  C9  UNL     1     -34.501  18.698  -0.825  1.00 20.00     0.015 C 
HETATM   10  C10 UNL     1     -35.222  18.660   1.426  1.00 20.00     0.127 C 
ENDROOT
BRANCH  10  11
HETATM   11  O11 UNL     1     -34.679  17.971   2.542  1.00 20.00    -0.395 OA
HETATM   12  H23 UNL     1     -34.873  17.028   2.413  1.00 20.00     0.210 HD
ENDBRANCH  10  11
TORSDOF 1
ENDMDL
MODEL 9
REMARK VINA RESULT:      -4.5     12.154     12.881
REMARK  1 active torsions:
REMARK  status: ('A' for Active; 'I' for Inactive)
REMARK    1  A    between atoms: C10_10  and  O11_11 
ROOT
HETATM    1  C1  UNL     1     -33.880  16.164  -3.121  1.00 20.00    -0.021 C 
HETATM    2  C2  UNL     1     -33.180  15.673  -5.592  1.00 20.00    -0.021 C 
HETATM    3  C3  UNL     1     -35.228  16.210  -3.038  1.00 20.00    -0.025 C 
HETATM    4  C4  UNL     1     -33.966  15.014  -6.471  1.00 20.00    -0.022 C 
HETATM    5  C5  UNL     1     -36.966  14.683  -4.607  1.00 20.00     0.041 C 
HETATM    6  C6  UNL     1     -33.387  15.199  -4.180  1.00 20.00     0.035 C 
HETATM    7  C7  UNL     1     -35.768  15.517  -4.229  1.00 20.00     0.016 C 
HETATM    8  C8  UNL     1     -34.861  13.987  -5.808  1.00 20.00     0.042 C 
HETATM    9  C9  UNL     1     -34.676  14.437  -4.379  1.00 20.00     0.015 C 
HETATM   10  C10 UNL     1     -36.419  14.028  -5.924  1.00 20.00     0.127 C 
ENDROOT
BRANCH  10  11
HETATM   11  O11 UNL     1     -36.829  14.785  -7.053  1.00 20.00    -0.395 OA
HETATM   12  H23 UNL     1     -36.245  15.560  -7.099  1.00 20.00     0.210 HD
ENDBRANCH  10  11
TORSDOF 1
ENDMDL
