MODEL 1
REMARK VINA RESULT:      -5.7      0.000      0.000
REMARK  3 active torsions:
REMARK  status: ('A' for Active; 'I' for Inactive)
REMARK    1  A    between atoms: C6_6  and  C7_7 
REMARK    2  A    between atoms: C8_8  and  C10_10 
REMARK    3  A    between atoms: C9_9  and  C11_11 
ROOT
HETATM    1  C1  UNL     1     -32.947  15.997  -5.703  1.00 20.00    -0.021 C 
HETATM    2  C2  UNL     1     -33.004  15.109  -4.686  1.00 20.00    -0.020 C 
HETATM    3  C5  UNL     1     -35.363  15.699  -6.104  1.00 20.00    -0.003 C 
HETATM    4  C6  UNL     1     -35.412  14.820  -5.086  1.00 20.00     0.024 C 
HETATM    5  C8  UNL     1     -34.259  16.746  -5.957  1.00 20.00     0.039 C 
HETATM    6  C9  UNL     1     -34.370  15.034  -3.997  1.00 20.00     0.056 C 
ENDROOT
BRANCH   4   7
HETATM    7  C7  UNL     1     -36.436  13.717  -5.032  1.00 20.00     0.205 C 
HETATM    8  O12 UNL     1     -35.991  12.552  -5.256  1.00 20.00    -0.644 OA
HETATM    9  O13 UNL     1     -37.618  14.085  -4.767  1.00 20.00    -0.644 OA
ENDBRANCH   4   7
BRANCH   6  10
HETATM   10  C11 UNL     1     -34.568  16.478  -3.432  1.00 20.00     0.029 A 
HETATM   11  C4  UNL     1     -33.803  16.930  -2.200  1.00 20.00    -0.024 A 
HETATM   12  C3  UNL     1     -34.893  16.948  -1.406  1.00 20.00    -0.024 A 
HETATM   13  C10 UNL     1     -35.842  16.503  -2.505  1.00 20.00     0.028 A 
ENDBRANCH   6  10
TORSDOF 3
ENDMDL
MODEL 2
REMARK VINA RESULT:      -4.9      1.422      2.907
REMARK  3 active torsions:
REMARK  status: ('A' for Active; 'I' for Inactive)
REMARK    1  A    between atoms: C6_6  and  C7_7 
REMARK    2  A    between atoms: C8_8  and  C10_10 
REMARK    3  A    between atoms: C9_9  and  C11_11 
ROOT
HETATM    1  C1  UNL     1     -34.548  16.447  -2.344  1.00 20.00    -0.021 C 
HETATM    2  C2  UNL     1     -35.866  16.575  -2.613  1.00 20.00    -0.020 C 
HETATM    3  C5  UNL     1     -34.354  14.722  -4.097  1.00 20.00    -0.003 C 
HETATM    4  C6  UNL     1     -35.667  14.859  -4.362  1.00 20.00     0.024 C 
HETATM    5  C8  UNL     1     -33.706  15.988  -3.539  1.00 20.00     0.039 C 
HETATM    6  C9  UNL     1     -36.247  16.233  -4.057  1.00 20.00     0.056 C 
ENDROOT
BRANCH   4   7
HETATM    7  C7  UNL     1     -36.488  13.733  -4.930  1.00 20.00     0.205 C 
HETATM    8  O12 UNL     1     -35.831  12.719  -5.312  1.00 20.00    -0.644 OA
HETATM    9  O13 UNL     1     -37.738  13.932  -4.959  1.00 20.00    -0.644 OA
ENDBRANCH   4   7
BRANCH   6  10
HETATM   10  C11 UNL     1     -35.446  17.280  -4.897  1.00 20.00     0.029 A 
HETATM   11  C4  UNL     1     -35.904  18.727  -4.955  1.00 20.00    -0.024 A 
HETATM   12  C3  UNL     1     -36.299  18.657  -6.242  1.00 20.00    -0.024 A 
HETATM   13  C10 UNL     1     -35.905  17.198  -6.402  1.00 20.00     0.028 A 
ENDBRANCH   6  10
TORSDOF 3
ENDMDL
MODEL 3
REMARK VINA RESULT:      -4.9      1.042      3.320
REMARK  3 active torsions:
REMARK  status: ('A' for Active; 'I' for Inactive)
REMARK    1  A    between atoms: C6_6  and  C7_7 
REMARK    2  A    between atoms: C8_8  and  C10_10 
REMARK    3  A    between atoms: C9_9  and  C11_11 
ROOT
HETATM    1  C1  UNL     1     -34.104  16.423  -3.090  1.00 20.00    -0.021 C 
HETATM    2  C2  UNL     1     -35.214  16.714  -3.803  1.00 20.00    -0.020 C 
HETATM    3  C5  UNL     1     -34.000  14.198  -4.152  1.00 20.00    -0.003 C 
HETATM    4  C6  UNL     1     -35.103  14.499  -4.862  1.00 20.00     0.024 C 
HETATM    5  C8  UNL     1     -33.166  15.420  -3.770  1.00 20.00     0.039 C 
HETATM    6  C9  UNL     1     -35.306  15.981  -5.145  1.00 20.00     0.056 C 
ENDROOT
BRANCH   4   7
HETATM    7  C7  UNL     1     -36.053  13.437  -5.349  1.00 20.00     0.205 C 
HETATM    8  O12 UNL     1     -37.261  13.586  -4.997  1.00 20.00    -0.644 OA
HETATM    9  O13 UNL     1     -35.533  12.522  -6.053  1.00 20.00    -0.644 OA
ENDBRANCH   4   7
BRANCH   6  10
HETATM   10  C11 UNL     1     -34.047  16.490  -5.920  1.00 20.00     0.029 A 
HETATM   11  C4  UNL     1     -34.061  17.852  -6.592  1.00 20.00    -0.024 A 
HETATM   12  C3  UNL     1     -34.078  17.347  -7.842  1.00 20.00    -0.024 A 
HETATM   13  C10 UNL     1     -34.064  15.900  -7.381  1.00 20.00     0.028 A 
ENDBRANCH   6  10
TORSDOF 3
ENDMDL
MODEL 4
REMARK VINA RESULT:      -4.6      1.188      1.543
REMARK  3 active torsions:
REMARK  status: ('A' for Active; 'I' for Inactive)
REMARK    1  A    between atoms: C6_6  and  C7_7 
REMARK    2  A    between atoms: C8_8  and  C10_10 
REMARK    3  A    between atoms: C9_9  and  C11_11 
ROOT
HETATM    1  C1  UNL     1     -34.069  17.083  -7.108  1.00 20.00    -0.021 C 
HETATM    2  C2  UNL     1     -33.297  16.241  -6.386  1.00 20.00    -0.020 C 
HETATM    3  C5  UNL     1     -35.984  15.546  -6.858  1.00 20.00    -0.003 C 
HETATM    4  C6  UNL     1     -35.209  14.716  -6.135  1.00 20.00     0.024 C 
HETATM    5  C8  UNL     1     -35.562  17.012  -6.768  1.00 20.00     0.039 C 
HETATM    6  C9  UNL     1     -34.074  15.390  -5.376  1.00 20.00     0.056 C 
ENDROOT
BRANCH   4   7
HETATM    7  C7  UNL     1     -35.464  13.234  -6.077  1.00 20.00     0.205 C 
HETATM    8  O12 UNL     1     -35.004  12.565  -7.050  1.00 20.00    -0.644 OA
HETATM    9  O13 UNL     1     -36.106  12.831  -5.062  1.00 20.00    -0.644 OA
ENDBRANCH   4   7
BRANCH   6  10
HETATM   10  C11 UNL     1     -34.709  16.453  -4.423  1.00 20.00     0.029 A 
HETATM   11  C4  UNL     1     -33.843  17.202  -3.425  1.00 20.00    -0.024 A 
HETATM   12  C3  UNL     1     -34.363  16.576  -2.350  1.00 20.00    -0.024 A 
HETATM   13  C10 UNL     1     -35.320  15.724  -3.166  1.00 20.00     0.028 A 
ENDBRANCH   6  10
TORSDOF 3
ENDMDL
MODEL 5
REMARK VINA RESULT:      -4.6      2.516      3.353
REMARK  3 active torsions:
REMARK  status: ('A' for Active; 'I' for Inactive)
REMARK    1  A    between atoms: C6_6  and  C7_7 
REMARK    2  A    between atoms: C8_8  and  C10_10 
REMARK    3  A    between atoms: C9_9  and  C11_11 
ROOT
HETATM    1  C1  UNL     1     -34.678  14.180  -4.282  1.00 20.00    -0.021 C 
HETATM    2  C2  UNL     1     -35.553  15.207  -4.205  1.00 20.00    -0.020 C 
HETATM    3  C5  UNL     1     -33.045  15.652  -5.403  1.00 20.00    -0.003 C 
HETATM    4  C6  UNL     1     -33.921  16.670  -5.317  1.00 20.00     0.024 C 
HETATM    5  C8  UNL     1     -33.207  14.609  -4.297  1.00 20.00     0.039 C 
HETATM    6  C9  UNL     1     -34.894  16.588  -4.149  1.00 20.00     0.056 C 
ENDROOT
BRANCH   4   7
HETATM    7  C7  UNL     1     -33.920  17.808  -6.302  1.00 20.00     0.205 C 
HETATM    8  O12 UNL     1     -33.768  17.477  -7.515  1.00 20.00    -0.644 OA
HETATM    9  O13 UNL     1     -34.072  18.961  -5.801  1.00 20.00    -0.644 OA
ENDBRANCH   4   7
BRANCH   6  10
HETATM   10  C11 UNL     1     -34.050  16.531  -2.835  1.00 20.00     0.029 A 
HETATM   11  C4  UNL     1     -34.709  16.782  -1.490  1.00 20.00    -0.024 A 
HETATM   12  C3  UNL     1     -34.104  17.972  -1.301  1.00 20.00    -0.024 A 
HETATM   13  C10 UNL     1     -33.340  17.920  -2.613  1.00 20.00     0.028 A 
ENDBRANCH   6  10
TORSDOF 3
ENDMDL
MODEL 6
REMARK VINA RESULT:      -4.5      1.814      3.227
REMARK  3 active torsions:
REMARK  status: ('A' for Active; 'I' for Inactive)
REMARK    1  A    between atoms: C6_6  and  C7_7 
REMARK    2  A    between atoms: C8_8  and  C10_10 
REMARK    3  A    between atoms: C9_9  and  C11_11 
ROOT
HETATM    1  C1  UNL     1     -34.106  17.376  -1.201  1.00 20.00    -0.021 C 
HETATM    2  C2  UNL     1     -35.362  16.888  -1.304  1.00 20.00    -0.020 C 
HETATM    3  C5  UNL     1     -33.492  16.245  -3.307  1.00 20.00    -0.003 C 
HETATM    4  C6  UNL     1     -34.746  15.768  -3.403  1.00 20.00     0.024 C 
HETATM    5  C8  UNL     1     -33.395  17.567  -2.546  1.00 20.00     0.039 C 
HETATM    6  C9  UNL     1     -35.816  16.626  -2.743  1.00 20.00     0.056 C 
ENDROOT
BRANCH   4   7
HETATM    7  C7  UNL     1     -35.059  14.485  -4.126  1.00 20.00     0.205 C 
HETATM    8  O12 UNL     1     -34.118  13.636  -4.158  1.00 20.00    -0.644 OA
HETATM    9  O13 UNL     1     -36.225  14.405  -4.614  1.00 20.00    -0.644 OA
ENDBRANCH   4   7
BRANCH   6  10
HETATM   10  C11 UNL     1     -35.758  18.042  -3.402  1.00 20.00     0.029 A 
HETATM   11  C4  UNL     1     -36.836  19.071  -3.104  1.00 20.00    -0.024 A 
HETATM   12  C3  UNL     1     -37.379  19.007  -4.336  1.00 20.00    -0.024 A 
HETATM   13  C10 UNL     1     -36.391  17.971  -4.843  1.00 20.00     0.028 A 
ENDBRANCH   6  10
TORSDOF 3
ENDMDL
MODEL 7
REMARK VINA RESULT:      -4.5      1.612      2.513
REMARK  3 active torsions:
REMARK  status: ('A' for Active; 'I' for Inactive)
REMARK    1  A    between atoms: C6_6  and  C7_7 
REMARK    2  A    between atoms: C8_8  and  C10_10 
REMARK    3  A    between atoms: C9_9  and  C11_11 
ROOT
HETATM    1  C1  UNL     1     -37.038  17.441  -5.482  1.00 20.00    -0.021 C 
HETATM    2  C2  UNL     1     -35.744  17.218  -5.803  1.00 20.00    -0.020 C 
HETATM    3  C5  UNL     1     -37.094  15.320  -4.221  1.00 20.00    -0.003 C 
HETATM    4  C6  UNL     1     -35.804  15.109  -4.541  1.00 20.00     0.024 C 
HETATM    5  C8  UNL     1     -37.477  16.799  -4.162  1.00 20.00     0.039 C 
HETATM    6  C9  UNL     1     -34.983  16.369  -4.780  1.00 20.00     0.056 C 
ENDROOT
BRANCH   4   7
HETATM    7  C7  UNL     1     -35.223  13.724  -4.639  1.00 20.00     0.205 C 
HETATM    8  O12 UNL     1     -35.968  12.859  -5.188  1.00 20.00    -0.644 OA
HETATM    9  O13 UNL     1     -34.057  13.588  -4.162  1.00 20.00    -0.644 OA
ENDBRANCH   4   7
BRANCH   6  10
HETATM   10  C11 UNL     1     -35.051  17.230  -3.476  1.00 20.00     0.029 A 
HETATM   11  C4  UNL     1     -34.156  18.446  -3.315  1.00 20.00    -0.024 A 
HETATM   12  C3  UNL     1     -33.381  17.878  -2.369  1.00 20.00    -0.024 A 
HETATM   13  C10 UNL     1     -34.148  16.566  -2.369  1.00 20.00     0.028 A 
ENDBRANCH   6  10
TORSDOF 3
ENDMDL
MODEL 8
REMARK VINA RESULT:      -4.5      2.907      4.468
REMARK  3 active torsions:
REMARK  status: ('A' for Active; 'I' for Inactive)
REMARK    1  A    between atoms: C6_6  and  C7_7 
REMARK    2  A    between atoms: C8_8  and  C10_10 
REMARK    3  A    between atoms: C9_9  and  C11_11 
ROOT
HETATM    1  C1  UNL     1     -34.394  14.167  -4.142  1.00 20.00    -0.021 C 
HETATM    2  C2  UNL     1     -33.214  14.745  -4.459  1.00 20.00    -0.020 C 
HETATM    3  C5  UNL     1     -35.074  16.209  -2.935  1.00 20.00    -0.003 C 
HETATM    4  C6  UNL     1     -33.898  16.778  -3.259  1.00 20.00     0.024 C 
HETATM    5  C8  UNL     1     -35.544  15.159  -3.940  1.00 20.00     0.039 C 
HETATM    6  C9  UNL     1     -33.271  16.272  -4.551  1.00 20.00     0.056 C 
ENDROOT
BRANCH   4   7
HETATM    7  C7  UNL     1     -33.267  17.847  -2.408  1.00 20.00     0.205 C 
HETATM    8  O12 UNL     1     -32.800  18.841  -3.040  1.00 20.00    -0.644 OA
HETATM    9  O13 UNL     1     -33.278  17.626  -1.161  1.00 20.00    -0.644 OA
ENDBRANCH   4   7
BRANCH   6  10
HETATM   10  C11 UNL     1     -34.295  16.526  -5.704  1.00 20.00     0.029 A 
HETATM   11  C4  UNL     1     -33.927  16.200  -7.141  1.00 20.00    -0.024 A 
HETATM   12  C3  UNL     1     -33.853  17.492  -7.522  1.00 20.00    -0.024 A 
HETATM   13  C10 UNL     1     -34.213  18.035  -6.149  1.00 20.00     0.028 A 
ENDBRANCH   6  10
TORSDOF 3
ENDMDL
MODEL 9
REMARK VINA RESULT:      -4.4      1.727      2.702
REMARK  3 active torsions:
REMARK  status: ('A' for Active; 'I' for Inactive)
REMARK    1  A    between atoms: C6_6  and  C7_7 
REMARK    2  A    between atoms: C8_8  and  C10_10 
REMARK    3  A    between atoms: C9_9  and  C11_11 
ROOT
HETATM    1  C1  UNL     1     -33.645  16.619  -3.381  1.00 20.00    -0.021 C 
HETATM    2  C2  UNL     1     -34.747  15.923  -3.024  1.00 20.00    -0.020 C 
HETATM    3  C5  UNL     1     -33.652  15.506  -5.583  1.00 20.00    -0.003 C 
HETATM    4  C6  UNL     1     -34.753  14.821  -5.221  1.00 20.00     0.024 C 
HETATM    5  C8  UNL     1     -33.517  16.861  -4.889  1.00 20.00     0.039 C 
HETATM    6  C9  UNL     1     -35.641  15.519  -4.200  1.00 20.00     0.056 C 
ENDROOT
BRANCH   4   7
HETATM    7  C7  UNL     1     -35.079  13.471  -5.801  1.00 20.00     0.205 C 
HETATM    8  O12 UNL     1     -35.987  12.826  -5.196  1.00 20.00    -0.644 OA
HETATM    9  O13 UNL     1     -34.410  13.141  -6.824  1.00 20.00    -0.644 OA
ENDBRANCH   4   7
BRANCH   6  10
HETATM   10  C11 UNL     1     -36.073  16.892  -4.811  1.00 20.00     0.029 A 
HETATM   11  C4  UNL     1     -37.125  17.741  -4.118  1.00 20.00    -0.024 A 
HETATM   12  C3  UNL     1     -38.064  17.528  -5.061  1.00 20.00    -0.024 A 
HETATM   13  C10 UNL     1     -37.170  16.646  -5.916  1.00 20.00     0.028 A 
ENDBRANCH   6  10
TORSDOF 3
ENDMDL
