MODEL 1
REMARK VINA RESULT:      -4.5      0.000      0.000
REMARK  3 active torsions:
REMARK  status: ('A' for Active; 'I' for Inactive)
REMARK    1  A    between atoms: C6_6  and  N10_10 
REMARK    2  A    between atoms: C7_7  and  C8_8 
REMARK    3  A    between atoms: C7_7  and  N10_10 
ROOT
HETATM    1  C1  UNL     1     -32.663   9.471   1.375  1.00 20.00     0.086 C 
HETATM    2  C6  UNL     1     -32.714   8.018   1.515  1.00 20.00     0.357 C 
HETATM    3  N9  UNL     1     -32.621  10.625   1.260  1.00 20.00    -0.196 NA
ENDROOT
BRANCH   2   4
HETATM    4  N10 UNL     1     -32.771   7.650   2.978  1.00 20.00    -0.062 N 
HETATM    5  C5  UNL     1     -31.567   8.179   3.719  1.00 20.00     0.270 C 
HETATM    6  H27 UNL     1     -33.588   8.151   3.366  1.00 20.00     0.280 HD
BRANCH   4   7
HETATM    7  C7  UNL     1     -32.983   6.199   3.193  1.00 20.00     0.243 C 
BRANCH   7   8
HETATM    8  C8  UNL     1     -34.189   5.906   4.110  1.00 20.00    -0.027 C 
HETATM    9  C2  UNL     1     -35.515   6.296   3.435  1.00 20.00     0.016 C 
HETATM   10  C3  UNL     1     -34.211   4.392   4.394  1.00 20.00     0.016 C 
HETATM   11  C4  UNL     1     -34.067   6.652   5.451  1.00 20.00     0.016 C 
ENDBRANCH   7   8
ENDBRANCH   4   7
ENDBRANCH   2   4
TORSDOF 3
ENDMDL
MODEL 2
REMARK VINA RESULT:      -4.3      1.565      4.573
REMARK  3 active torsions:
REMARK  status: ('A' for Active; 'I' for Inactive)
REMARK    1  A    between atoms: C6_6  and  N10_10 
REMARK    2  A    between atoms: C7_7  and  C8_8 
REMARK    3  A    between atoms: C7_7  and  N10_10 
ROOT
HETATM    1  C1  UNL     1     -34.157   5.971   3.404  1.00 20.00     0.086 C 
HETATM    2  C6  UNL     1     -32.909   6.043   2.649  1.00 20.00     0.357 C 
HETATM    3  N9  UNL     1     -35.150   5.910   4.002  1.00 20.00    -0.196 NA
ENDROOT
BRANCH   2   4
HETATM    4  N10 UNL     1     -32.412   7.468   2.624  1.00 20.00    -0.062 N 
HETATM    5  C5  UNL     1     -32.131   7.971   4.019  1.00 20.00     0.270 C 
HETATM    6  H27 UNL     1     -31.499   7.443   2.140  1.00 20.00     0.280 HD
BRANCH   4   7
HETATM    7  C7  UNL     1     -33.307   8.371   1.861  1.00 20.00     0.243 C 
BRANCH   7   8
HETATM    8  C8  UNL     1     -32.542   9.237   0.839  1.00 20.00    -0.027 C 
HETATM    9  C2  UNL     1     -33.258   9.264  -0.522  1.00 20.00     0.016 C 
HETATM   10  C3  UNL     1     -32.482  10.675   1.388  1.00 20.00     0.016 C 
HETATM   11  C4  UNL     1     -31.102   8.730   0.642  1.00 20.00     0.016 C 
ENDBRANCH   7   8
ENDBRANCH   4   7
ENDBRANCH   2   4
TORSDOF 3
ENDMDL
MODEL 3
REMARK VINA RESULT:      -4.3      1.560      4.578
REMARK  3 active torsions:
REMARK  status: ('A' for Active; 'I' for Inactive)
REMARK    1  A    between atoms: C6_6  and  N10_10 
REMARK    2  A    between atoms: C7_7  and  C8_8 
REMARK    3  A    between atoms: C7_7  and  N10_10 
ROOT
HETATM    1  C1  UNL     1     -34.159   5.962   3.406  1.00 20.00     0.086 C 
HETATM    2  C6  UNL     1     -32.908   6.048   2.658  1.00 20.00     0.357 C 
HETATM    3  N9  UNL     1     -35.154   5.889   4.000  1.00 20.00    -0.196 NA
ENDROOT
BRANCH   2   4
HETATM    4  N10 UNL     1     -32.429   7.480   2.633  1.00 20.00    -0.062 N 
HETATM    5  C5  UNL     1     -32.154   7.986   4.028  1.00 20.00     0.270 C 
HETATM    6  H27 UNL     1     -31.516   7.466   2.148  1.00 20.00     0.280 HD
BRANCH   4   7
HETATM    7  C7  UNL     1     -33.336   8.371   1.870  1.00 20.00     0.243 C 
BRANCH   7   8
HETATM    8  C8  UNL     1     -32.577   9.285   0.886  1.00 20.00    -0.027 C 
HETATM    9  C2  UNL     1     -32.490  10.728   1.413  1.00 20.00     0.016 C 
HETATM   10  C3  UNL     1     -31.147   8.732   0.735  1.00 20.00     0.016 C 
HETATM   11  C4  UNL     1     -33.246   9.293  -0.500  1.00 20.00     0.016 C 
ENDBRANCH   7   8
ENDBRANCH   4   7
ENDBRANCH   2   4
TORSDOF 3
ENDMDL
MODEL 4
REMARK VINA RESULT:      -4.3      1.558      4.572
REMARK  3 active torsions:
REMARK  status: ('A' for Active; 'I' for Inactive)
REMARK    1  A    between atoms: C6_6  and  N10_10 
REMARK    2  A    between atoms: C7_7  and  C8_8 
REMARK    3  A    between atoms: C7_7  and  N10_10 
ROOT
HETATM    1  C1  UNL     1     -34.164   5.961   3.428  1.00 20.00     0.086 C 
HETATM    2  C6  UNL     1     -32.920   6.031   2.666  1.00 20.00     0.357 C 
HETATM    3  N9  UNL     1     -35.153   5.901   4.031  1.00 20.00    -0.196 NA
ENDROOT
BRANCH   2   4
HETATM    4  N10 UNL     1     -32.428   7.458   2.627  1.00 20.00    -0.062 N 
HETATM    5  C5  UNL     1     -32.159   7.978   4.019  1.00 20.00     0.270 C 
HETATM    6  H27 UNL     1     -31.511   7.430   2.151  1.00 20.00     0.280 HD
BRANCH   4   7
HETATM    7  C7  UNL     1     -33.320   8.348   1.847  1.00 20.00     0.243 C 
BRANCH   7   8
HETATM    8  C8  UNL     1     -32.542   9.271   0.886  1.00 20.00    -0.027 C 
HETATM    9  C2  UNL     1     -31.109   8.759   0.654  1.00 20.00     0.016 C 
HETATM   10  C3  UNL     1     -33.282   9.281  -0.465  1.00 20.00     0.016 C 
HETATM   11  C4  UNL     1     -32.482  10.713   1.420  1.00 20.00     0.016 C 
ENDBRANCH   7   8
ENDBRANCH   4   7
ENDBRANCH   2   4
TORSDOF 3
ENDMDL
MODEL 5
REMARK VINA RESULT:      -4.0     10.901     11.693
REMARK  3 active torsions:
REMARK  status: ('A' for Active; 'I' for Inactive)
REMARK    1  A    between atoms: C6_6  and  N10_10 
REMARK    2  A    between atoms: C7_7  and  C8_8 
REMARK    3  A    between atoms: C7_7  and  N10_10 
ROOT
HETATM    1  C1  UNL     1     -35.776  14.019  -5.291  1.00 20.00     0.086 C 
HETATM    2  C6  UNL     1     -35.746  15.472  -5.430  1.00 20.00     0.357 C 
HETATM    3  N9  UNL     1     -35.804  12.864  -5.183  1.00 20.00    -0.196 NA
ENDROOT
BRANCH   2   4
HETATM    4  N10 UNL     1     -34.575  16.032  -4.659  1.00 20.00    -0.062 N 
HETATM    5  C5  UNL     1     -33.266  15.531  -5.220  1.00 20.00     0.270 C 
HETATM    6  H27 UNL     1     -34.585  17.052  -4.826  1.00 20.00     0.280 HD
BRANCH   4   7
HETATM    7  C7  UNL     1     -34.694  15.808  -3.198  1.00 20.00     0.243 C 
BRANCH   7   8
HETATM    8  C8  UNL     1     -34.607  17.119  -2.390  1.00 20.00    -0.027 C 
HETATM    9  C2  UNL     1     -35.149  18.313  -3.195  1.00 20.00     0.016 C 
HETATM   10  C3  UNL     1     -35.468  16.952  -1.124  1.00 20.00     0.016 C 
HETATM   11  C4  UNL     1     -33.160  17.417  -1.960  1.00 20.00     0.016 C 
ENDBRANCH   7   8
ENDBRANCH   4   7
ENDBRANCH   2   4
TORSDOF 3
ENDMDL
MODEL 6
REMARK VINA RESULT:      -4.0     10.915     11.748
REMARK  3 active torsions:
REMARK  status: ('A' for Active; 'I' for Inactive)
REMARK    1  A    between atoms: C6_6  and  N10_10 
REMARK    2  A    between atoms: C7_7  and  C8_8 
REMARK    3  A    between atoms: C7_7  and  N10_10 
ROOT
HETATM    1  C1  UNL     1     -35.811  14.023  -5.300  1.00 20.00     0.086 C 
HETATM    2  C6  UNL     1     -35.815  15.478  -5.422  1.00 20.00     0.357 C 
HETATM    3  N9  UNL     1     -35.813  12.866  -5.205  1.00 20.00    -0.196 NA
ENDROOT
BRANCH   2   4
HETATM    4  N10 UNL     1     -34.624  16.051  -4.693  1.00 20.00    -0.062 N 
HETATM    5  C5  UNL     1     -33.330  15.592  -5.319  1.00 20.00     0.270 C 
HETATM    6  H27 UNL     1     -34.665  17.074  -4.840  1.00 20.00     0.280 HD
BRANCH   4   7
HETATM    7  C7  UNL     1     -34.674  15.799  -3.233  1.00 20.00     0.243 C 
BRANCH   7   8
HETATM    8  C8  UNL     1     -34.658  17.102  -2.406  1.00 20.00    -0.027 C 
HETATM    9  C2  UNL     1     -35.505  16.966  -1.129  1.00 20.00     0.016 C 
HETATM   10  C3  UNL     1     -33.200  17.386  -1.998  1.00 20.00     0.016 C 
HETATM   11  C4  UNL     1     -35.176  18.294  -3.230  1.00 20.00     0.016 C 
ENDBRANCH   7   8
ENDBRANCH   4   7
ENDBRANCH   2   4
TORSDOF 3
ENDMDL
MODEL 7
REMARK VINA RESULT:      -4.0     10.912     11.755
REMARK  3 active torsions:
REMARK  status: ('A' for Active; 'I' for Inactive)
REMARK    1  A    between atoms: C6_6  and  N10_10 
REMARK    2  A    between atoms: C7_7  and  C8_8 
REMARK    3  A    between atoms: C7_7  and  N10_10 
ROOT
HETATM    1  C1  UNL     1     -35.797  14.022  -5.295  1.00 20.00     0.086 C 
HETATM    2  C6  UNL     1     -35.802  15.476  -5.429  1.00 20.00     0.357 C 
HETATM    3  N9  UNL     1     -35.797  12.866  -5.190  1.00 20.00    -0.196 NA
ENDROOT
BRANCH   2   4
HETATM    4  N10 UNL     1     -34.634  16.060  -4.670  1.00 20.00    -0.062 N 
HETATM    5  C5  UNL     1     -33.321  15.619  -5.269  1.00 20.00     0.270 C 
HETATM    6  H27 UNL     1     -34.684  17.083  -4.812  1.00 20.00     0.280 HD
BRANCH   4   7
HETATM    7  C7  UNL     1     -34.714  15.799  -3.212  1.00 20.00     0.243 C 
BRANCH   7   8
HETATM    8  C8  UNL     1     -34.623  17.091  -2.374  1.00 20.00    -0.027 C 
HETATM    9  C2  UNL     1     -33.168  17.409  -1.988  1.00 20.00     0.016 C 
HETATM   10  C3  UNL     1     -35.165  18.250  -3.233  1.00 20.00     0.016 C 
HETATM   11  C4  UNL     1     -35.475  16.991  -1.097  1.00 20.00     0.016 C 
ENDBRANCH   7   8
ENDBRANCH   4   7
ENDBRANCH   2   4
TORSDOF 3
ENDMDL
MODEL 8
REMARK VINA RESULT:      -3.8      1.927      4.511
REMARK  3 active torsions:
REMARK  status: ('A' for Active; 'I' for Inactive)
REMARK    1  A    between atoms: C6_6  and  N10_10 
REMARK    2  A    between atoms: C7_7  and  C8_8 
REMARK    3  A    between atoms: C7_7  and  N10_10 
ROOT
HETATM    1  C1  UNL     1     -34.513   4.525   4.375  1.00 20.00     0.086 C 
HETATM    2  C6  UNL     1     -34.993   5.904   4.379  1.00 20.00     0.357 C 
HETATM    3  N9  UNL     1     -34.136   3.428   4.373  1.00 20.00    -0.196 NA
ENDROOT
BRANCH   2   4
HETATM    4  N10 UNL     1     -33.834   6.845   4.605  1.00 20.00    -0.062 N 
HETATM    5  C5  UNL     1     -33.810   7.345   6.029  1.00 20.00     0.270 C 
HETATM    6  H27 UNL     1     -32.978   6.277   4.488  1.00 20.00     0.280 HD
BRANCH   4   7
HETATM    7  C7  UNL     1     -33.789   7.945   3.612  1.00 20.00     0.243 C 
BRANCH   7   8
HETATM    8  C8  UNL     1     -32.505   7.918   2.757  1.00 20.00    -0.027 C 
HETATM    9  C2  UNL     1     -31.264   8.271   3.595  1.00 20.00     0.016 C 
HETATM   10  C3  UNL     1     -32.333   6.488   2.208  1.00 20.00     0.016 C 
HETATM   11  C4  UNL     1     -32.604   8.888   1.567  1.00 20.00     0.016 C 
ENDBRANCH   7   8
ENDBRANCH   4   7
ENDBRANCH   2   4
TORSDOF 3
ENDMDL
MODEL 9
REMARK VINA RESULT:      -3.7     10.677     12.242
REMARK  3 active torsions:
REMARK  status: ('A' for Active; 'I' for Inactive)
REMARK    1  A    between atoms: C6_6  and  N10_10 
REMARK    2  A    between atoms: C7_7  and  C8_8 
REMARK    3  A    between atoms: C7_7  and  N10_10 
ROOT
HETATM    1  C1  UNL     1     -34.661  13.434  -7.226  1.00 20.00     0.086 C 
HETATM    2  C6  UNL     1     -34.157  14.748  -7.615  1.00 20.00     0.357 C 
HETATM    3  N9  UNL     1     -35.060  12.388  -6.921  1.00 20.00    -0.196 NA
ENDROOT
BRANCH   2   4
HETATM    4  N10 UNL     1     -34.662  15.792  -6.648  1.00 20.00    -0.062 N 
HETATM    5  C5  UNL     1     -35.246  16.975  -7.382  1.00 20.00     0.270 C 
HETATM    6  H27 UNL     1     -35.450  15.354  -6.141  1.00 20.00     0.280 HD
BRANCH   4   7
HETATM    7  C7  UNL     1     -33.640  16.186  -5.649  1.00 20.00     0.243 C 
BRANCH   7   8
HETATM    8  C8  UNL     1     -33.905  15.572  -4.259  1.00 20.00    -0.027 C 
HETATM    9  C2  UNL     1     -35.369  15.122  -4.113  1.00 20.00     0.016 C 
HETATM   10  C3  UNL     1     -32.996  14.337  -4.107  1.00 20.00     0.016 C 
HETATM   11  C4  UNL     1     -33.568  16.566  -3.134  1.00 20.00     0.016 C 
ENDBRANCH   7   8
ENDBRANCH   4   7
ENDBRANCH   2   4
TORSDOF 3
ENDMDL
