MODEL 1
REMARK VINA RESULT:      -5.9      0.000      0.000
REMARK  0 active torsions:
REMARK  status: ('A' for Active; 'I' for Inactive)
ROOT
HETATM    1  C1  UNL     1     -33.297   7.531   5.598  1.00 20.00    -0.029 C 
HETATM    2  C2  UNL     1     -34.193   6.555   5.385  1.00 20.00    -0.014 C 
HETATM    3  C3  UNL     1     -33.385   5.853   3.058  1.00 20.00     0.143 C 
HETATM    4  C4  UNL     1     -32.277   8.074   4.643  1.00 20.00     0.032 C 
HETATM    5  C5  UNL     1     -31.978   7.811   2.079  1.00 20.00     0.018 A 
HETATM    6  C6  UNL     1     -33.308   7.193   2.424  1.00 20.00     0.061 A 
HETATM    7  C7  UNL     1     -32.765   8.330   3.250  1.00 20.00     0.001 A 
HETATM    8  C8  UNL     1     -34.441   5.683   4.167  1.00 20.00     0.031 C 
HETATM    9  C9  UNL     1     -34.425   4.211   4.627  1.00 20.00     0.027 C 
HETATM   10  C10 UNL     1     -35.834   5.997   3.596  1.00 20.00     0.027 C 
HETATM   11  O11 UNL     1     -32.632   4.961   2.686  1.00 20.00    -0.296 OA
ENDROOT
TORSDOF 0
ENDMDL
MODEL 2
REMARK VINA RESULT:      -5.0      1.579      3.785
REMARK  0 active torsions:
REMARK  status: ('A' for Active; 'I' for Inactive)
ROOT
HETATM    1  C1  UNL     1     -32.961   4.859   2.747  1.00 20.00    -0.029 C 
HETATM    2  C2  UNL     1     -32.687   6.136   2.432  1.00 20.00    -0.014 C 
HETATM    3  C3  UNL     1     -33.400   7.194   4.653  1.00 20.00     0.143 C 
HETATM    4  C4  UNL     1     -33.624   4.334   3.984  1.00 20.00     0.032 C 
HETATM    5  C5  UNL     1     -34.959   5.505   5.876  1.00 20.00     0.018 A 
HETATM    6  C6  UNL     1     -34.725   6.542   4.807  1.00 20.00     0.061 A 
HETATM    7  C7  UNL     1     -34.838   5.085   4.438  1.00 20.00     0.001 A 
HETATM    8  C8  UNL     1     -32.916   7.420   3.209  1.00 20.00     0.031 C 
HETATM    9  C9  UNL     1     -31.578   8.185   3.263  1.00 20.00     0.027 C 
HETATM   10  C10 UNL     1     -33.940   8.288   2.459  1.00 20.00     0.027 C 
HETATM   11  O11 UNL     1     -32.764   7.518   5.649  1.00 20.00    -0.296 OA
ENDROOT
TORSDOF 0
ENDMDL
MODEL 3
REMARK VINA RESULT:      -4.6      1.456      3.189
REMARK  0 active torsions:
REMARK  status: ('A' for Active; 'I' for Inactive)
ROOT
HETATM    1  C1  UNL     1     -32.568   7.814   4.168  1.00 20.00    -0.029 C 
HETATM    2  C2  UNL     1     -32.697   7.069   3.058  1.00 20.00    -0.014 C 
HETATM    3  C3  UNL     1     -34.798   5.781   3.756  1.00 20.00     0.143 C 
HETATM    4  C4  UNL     1     -33.365   7.733   5.435  1.00 20.00     0.032 C 
HETATM    5  C5  UNL     1     -35.008   5.942   6.346  1.00 20.00     0.018 A 
HETATM    6  C6  UNL     1     -34.370   5.355   5.113  1.00 20.00     0.061 A 
HETATM    7  C7  UNL     1     -33.615   6.350   5.956  1.00 20.00     0.001 A 
HETATM    8  C8  UNL     1     -33.678   5.962   2.715  1.00 20.00     0.031 C 
HETATM    9  C9  UNL     1     -34.330   6.312   1.362  1.00 20.00     0.027 C 
HETATM   10  C10 UNL     1     -32.912   4.639   2.555  1.00 20.00     0.027 C 
HETATM   11  O11 UNL     1     -35.987   5.964   3.524  1.00 20.00    -0.296 OA
ENDROOT
TORSDOF 0
ENDMDL
MODEL 4
REMARK VINA RESULT:      -4.5     11.442     12.335
REMARK  0 active torsions:
REMARK  status: ('A' for Active; 'I' for Inactive)
ROOT
HETATM    1  C1  UNL     1     -35.843  16.583  -3.294  1.00 20.00    -0.029 C 
HETATM    2  C2  UNL     1     -36.705  16.248  -4.267  1.00 20.00    -0.014 C 
HETATM    3  C3  UNL     1     -35.445  14.200  -5.148  1.00 20.00     0.143 C 
HETATM    4  C4  UNL     1     -34.505  15.977  -2.995  1.00 20.00     0.032 C 
HETATM    5  C5  UNL     1     -32.973  14.383  -4.354  1.00 20.00     0.018 A 
HETATM    6  C6  UNL     1     -34.091  14.797  -5.276  1.00 20.00     0.061 A 
HETATM    7  C7  UNL     1     -33.628  15.725  -4.184  1.00 20.00     0.001 A 
HETATM    8  C8  UNL     1     -36.633  15.163  -5.326  1.00 20.00     0.031 C 
HETATM    9  C9  UNL     1     -37.936  14.342  -5.251  1.00 20.00     0.027 C 
HETATM   10  C10 UNL     1     -36.554  15.818  -6.715  1.00 20.00     0.027 C 
HETATM   11  O11 UNL     1     -35.561  13.002  -4.915  1.00 20.00    -0.296 OA
ENDROOT
TORSDOF 0
ENDMDL
MODEL 5
REMARK VINA RESULT:      -4.3     11.695     13.034
REMARK  0 active torsions:
REMARK  status: ('A' for Active; 'I' for Inactive)
ROOT
HETATM    1  C1  UNL     1     -33.693  16.366  -6.677  1.00 20.00    -0.029 C 
HETATM    2  C2  UNL     1     -34.267  16.667  -5.501  1.00 20.00    -0.014 C 
HETATM    3  C3  UNL     1     -35.153  14.328  -4.947  1.00 20.00     0.143 C 
HETATM    4  C4  UNL     1     -33.744  15.068  -7.426  1.00 20.00     0.032 C 
HETATM    5  C5  UNL     1     -35.238  12.963  -7.162  1.00 20.00     0.018 A 
HETATM    6  C6  UNL     1     -35.807  14.014  -6.243  1.00 20.00     0.061 A 
HETATM    7  C7  UNL     1     -35.093  14.419  -7.506  1.00 20.00     0.001 A 
HETATM    8  C8  UNL     1     -35.097  15.816  -4.556  1.00 20.00     0.031 C 
HETATM    9  C9  UNL     1     -34.470  15.923  -3.151  1.00 20.00     0.027 C 
HETATM   10  C10 UNL     1     -36.526  16.380  -4.492  1.00 20.00     0.027 C 
HETATM   11  O11 UNL     1     -34.699  13.420  -4.260  1.00 20.00    -0.296 OA
ENDROOT
TORSDOF 0
ENDMDL
MODEL 6
REMARK VINA RESULT:      -4.3     11.213     12.977
REMARK  0 active torsions:
REMARK  status: ('A' for Active; 'I' for Inactive)
ROOT
HETATM    1  C1  UNL     1     -33.835  16.183  -6.865  1.00 20.00    -0.029 C 
HETATM    2  C2  UNL     1     -33.324  15.900  -5.656  1.00 20.00    -0.014 C 
HETATM    3  C3  UNL     1     -35.159  14.290  -4.880  1.00 20.00     0.143 C 
HETATM    4  C4  UNL     1     -35.156  15.759  -7.433  1.00 20.00     0.032 C 
HETATM    5  C5  UNL     1     -37.269  14.722  -6.341  1.00 20.00     0.018 A 
HETATM    6  C6  UNL     1     -36.348  15.113  -5.214  1.00 20.00     0.061 A 
HETATM    7  C7  UNL     1     -36.329  15.883  -6.509  1.00 20.00     0.001 A 
HETATM    8  C8  UNL     1     -33.876  15.061  -4.518  1.00 20.00     0.031 C 
HETATM    9  C9  UNL     1     -32.794  14.037  -4.118  1.00 20.00     0.027 C 
HETATM   10  C10 UNL     1     -34.153  15.969  -3.308  1.00 20.00     0.027 C 
HETATM   11  O11 UNL     1     -35.240  13.067  -4.904  1.00 20.00    -0.296 OA
ENDROOT
TORSDOF 0
ENDMDL
MODEL 7
REMARK VINA RESULT:      -4.2     11.826     12.936
REMARK  0 active torsions:
REMARK  status: ('A' for Active; 'I' for Inactive)
ROOT
HETATM    1  C1  UNL     1     -33.571  15.841  -6.270  1.00 20.00    -0.029 C 
HETATM    2  C2  UNL     1     -34.667  15.119  -6.555  1.00 20.00    -0.014 C 
HETATM    3  C3  UNL     1     -36.004  15.682  -4.443  1.00 20.00     0.143 C 
HETATM    4  C4  UNL     1     -33.258  16.587  -5.008  1.00 20.00     0.032 C 
HETATM    5  C5  UNL     1     -34.329  16.539  -2.645  1.00 20.00     0.018 A 
HETATM    6  C6  UNL     1     -34.956  15.413  -3.426  1.00 20.00     0.061 A 
HETATM    7  C7  UNL     1     -33.549  15.856  -3.733  1.00 20.00     0.001 A 
HETATM    8  C8  UNL     1     -35.921  14.856  -5.741  1.00 20.00     0.031 C 
HETATM    9  C9  UNL     1     -37.138  15.213  -6.618  1.00 20.00     0.027 C 
HETATM   10  C10 UNL     1     -35.995  13.359  -5.397  1.00 20.00     0.027 C 
HETATM   11  O11 UNL     1     -36.867  16.523  -4.219  1.00 20.00    -0.296 OA
ENDROOT
TORSDOF 0
ENDMDL
MODEL 8
REMARK VINA RESULT:      -4.2     11.942     12.723
REMARK  0 active torsions:
REMARK  status: ('A' for Active; 'I' for Inactive)
ROOT
HETATM    1  C1  UNL     1     -33.181  15.186  -4.164  1.00 20.00    -0.029 C 
HETATM    2  C2  UNL     1     -33.838  14.502  -5.116  1.00 20.00    -0.014 C 
HETATM    3  C3  UNL     1     -35.980  15.906  -5.126  1.00 20.00     0.143 C 
HETATM    4  C4  UNL     1     -33.691  16.313  -3.317  1.00 20.00     0.032 C 
HETATM    5  C5  UNL     1     -36.082  17.219  -2.881  1.00 20.00     0.018 A 
HETATM    6  C6  UNL     1     -36.242  15.942  -3.664  1.00 20.00     0.061 A 
HETATM    7  C7  UNL     1     -35.063  16.124  -2.744  1.00 20.00     0.001 A 
HETATM    8  C8  UNL     1     -35.248  14.659  -5.656  1.00 20.00     0.031 C 
HETATM    9  C9  UNL     1     -35.156  14.770  -7.191  1.00 20.00     0.027 C 
HETATM   10  C10 UNL     1     -36.064  13.403  -5.309  1.00 20.00     0.027 C 
HETATM   11  O11 UNL     1     -36.346  16.839  -5.831  1.00 20.00    -0.296 OA
ENDROOT
TORSDOF 0
ENDMDL
MODEL 9
REMARK VINA RESULT:      -4.2     11.821     13.073
REMARK  0 active torsions:
REMARK  status: ('A' for Active; 'I' for Inactive)
ROOT
HETATM    1  C1  UNL     1     -36.450  14.877  -4.509  1.00 20.00    -0.029 C 
HETATM    2  C2  UNL     1     -35.243  15.310  -4.110  1.00 20.00    -0.014 C 
HETATM    3  C3  UNL     1     -34.072  15.203  -6.385  1.00 20.00     0.143 C 
HETATM    4  C4  UNL     1     -36.847  14.363  -5.861  1.00 20.00     0.032 C 
HETATM    5  C5  UNL     1     -35.453  13.615  -7.918  1.00 20.00     0.018 A 
HETATM    6  C6  UNL     1     -34.476  13.833  -6.791  1.00 20.00     0.061 A 
HETATM    7  C7  UNL     1     -35.889  13.401  -6.495  1.00 20.00     0.001 A 
HETATM    8  C8  UNL     1     -33.938  15.454  -4.872  1.00 20.00     0.031 C 
HETATM    9  C9  UNL     1     -33.425  16.893  -4.665  1.00 20.00     0.027 C 
HETATM   10  C10 UNL     1     -32.901  14.482  -4.285  1.00 20.00     0.027 C 
HETATM   11  O11 UNL     1     -33.867  16.054  -7.243  1.00 20.00    -0.296 OA
ENDROOT
TORSDOF 0
ENDMDL
