MODEL 1
REMARK VINA RESULT:      -6.2      0.000      0.000
REMARK  1 active torsions:
REMARK  status: ('A' for Active; 'I' for Inactive)
REMARK    1  A    between atoms: C4_4  and  C11_11 
ROOT
HETATM    1  C1  UNL     1     -32.243   7.330   3.642  1.00 20.00     0.027 A 
HETATM    2  C2  UNL     1     -33.330   8.047   1.621  1.00 20.00     0.034 A 
HETATM    3  C3  UNL     1     -31.395   8.418   3.509  1.00 20.00     0.117 A 
HETATM    4  C4  UNL     1     -33.226   7.149   2.676  1.00 20.00    -0.047 A 
HETATM    5  C5  UNL     1     -32.434   9.104   1.578  1.00 20.00     0.030 A 
HETATM    6  C12 UNL     1     -32.515  10.089   0.460  1.00 20.00     0.070 C 
HETATM    7  N13 UNL     1     -31.466   9.313   2.498  1.00 20.00    -0.266 NA
ENDROOT
BRANCH   4   8
HETATM    8  C11 UNL     1     -34.184   5.969   2.772  1.00 20.00     0.041 C 
HETATM    9  C7  UNL     1     -33.477   4.649   2.960  1.00 20.00    -0.021 C 
HETATM   10  C6  UNL     1     -33.611   3.887   4.056  1.00 20.00    -0.030 C 
HETATM   11  C8  UNL     1     -34.449   4.277   5.235  1.00 20.00     0.027 C 
HETATM   12  C9  UNL     1     -34.865   5.748   5.229  1.00 20.00     0.005 C 
HETATM   13  C10 UNL     1     -35.280   6.211   3.833  1.00 20.00     0.013 C 
ENDBRANCH   4   8
TORSDOF 1
ENDMDL
MODEL 2
REMARK VINA RESULT:      -5.6      1.925      4.983
REMARK  1 active torsions:
REMARK  status: ('A' for Active; 'I' for Inactive)
REMARK    1  A    between atoms: C4_4  and  C11_11 
ROOT
HETATM    1  C1  UNL     1     -33.126   6.301   2.343  1.00 20.00     0.027 A 
HETATM    2  C2  UNL     1     -32.956   7.731   4.268  1.00 20.00     0.034 A 
HETATM    3  C3  UNL     1     -33.916   5.456   3.107  1.00 20.00     0.117 A 
HETATM    4  C4  UNL     1     -32.642   7.458   2.942  1.00 20.00    -0.047 A 
HETATM    5  C5  UNL     1     -33.753   6.822   4.946  1.00 20.00     0.030 A 
HETATM    6  C12 UNL     1     -34.110   7.083   6.372  1.00 20.00     0.070 C 
HETATM    7  N13 UNL     1     -34.242   5.688   4.398  1.00 20.00    -0.266 NA
ENDROOT
BRANCH   4   8
HETATM    8  C11 UNL     1     -31.770   8.422   2.149  1.00 20.00     0.041 C 
HETATM    9  C7  UNL     1     -31.689   8.072   0.682  1.00 20.00    -0.021 C 
HETATM   10  C6  UNL     1     -32.154   8.865  -0.294  1.00 20.00    -0.030 C 
HETATM   11  C8  UNL     1     -32.842  10.171  -0.040  1.00 20.00     0.027 C 
HETATM   12  C9  UNL     1     -33.265  10.366   1.417  1.00 20.00     0.005 C 
HETATM   13  C10 UNL     1     -32.182   9.891   2.386  1.00 20.00     0.013 C 
ENDBRANCH   4   8
TORSDOF 1
ENDMDL
MODEL 3
REMARK VINA RESULT:      -5.4     11.308     12.176
REMARK  1 active torsions:
REMARK  status: ('A' for Active; 'I' for Inactive)
REMARK    1  A    between atoms: C4_4  and  C11_11 
ROOT
HETATM    1  C1  UNL     1     -31.374  18.877   0.719  1.00 20.00     0.027 A 
HETATM    2  C2  UNL     1     -33.465  18.844   1.907  1.00 20.00     0.034 A 
HETATM    3  C3  UNL     1     -30.736  18.809   1.947  1.00 20.00     0.117 A 
HETATM    4  C4  UNL     1     -32.765  18.894   0.708  1.00 20.00    -0.047 A 
HETATM    5  C5  UNL     1     -32.734  18.778   3.082  1.00 20.00     0.030 A 
HETATM    6  C12 UNL     1     -33.452  18.723   4.389  1.00 20.00     0.070 C 
HETATM    7  N13 UNL     1     -31.383  18.759   3.134  1.00 20.00    -0.266 NA
ENDROOT
BRANCH   4   8
HETATM    8  C11 UNL     1     -33.517  18.968  -0.614  1.00 20.00     0.041 C 
HETATM    9  C7  UNL     1     -32.936  18.064  -1.675  1.00 20.00    -0.021 C 
HETATM   10  C6  UNL     1     -33.602  17.030  -2.211  1.00 20.00    -0.030 C 
HETATM   11  C8  UNL     1     -34.985  16.632  -1.793  1.00 20.00     0.027 C 
HETATM   12  C9  UNL     1     -35.439  17.285  -0.486  1.00 20.00     0.005 C 
HETATM   13  C10 UNL     1     -35.034  18.757  -0.420  1.00 20.00     0.013 C 
ENDBRANCH   4   8
TORSDOF 1
ENDMDL
MODEL 4
REMARK VINA RESULT:      -5.2     10.895     12.136
REMARK  1 active torsions:
REMARK  status: ('A' for Active; 'I' for Inactive)
REMARK    1  A    between atoms: C4_4  and  C11_11 
ROOT
HETATM    1  C1  UNL     1     -33.326  17.502  -2.333  1.00 20.00     0.027 A 
HETATM    2  C2  UNL     1     -35.425  16.936  -1.303  1.00 20.00     0.034 A 
HETATM    3  C3  UNL     1     -32.969  18.118  -1.143  1.00 20.00     0.117 A 
HETATM    4  C4  UNL     1     -34.578  16.903  -2.405  1.00 20.00    -0.047 A 
HETATM    5  C5  UNL     1     -34.974  17.577  -0.160  1.00 20.00     0.030 A 
HETATM    6  C12 UNL     1     -35.856  17.634   1.043  1.00 20.00     0.070 C 
HETATM    7  N13 UNL     1     -33.765  18.171  -0.051  1.00 20.00    -0.266 NA
ENDROOT
BRANCH   4   8
HETATM    8  C11 UNL     1     -35.021  16.212  -3.688  1.00 20.00     0.041 C 
HETATM    9  C7  UNL     1     -34.844  17.076  -4.914  1.00 20.00    -0.021 C 
HETATM   10  C6  UNL     1     -34.012  16.770  -5.920  1.00 20.00    -0.030 C 
HETATM   11  C8  UNL     1     -33.134  15.556  -5.926  1.00 20.00     0.027 C 
HETATM   12  C9  UNL     1     -33.019  14.879  -4.560  1.00 20.00     0.005 C 
HETATM   13  C10 UNL     1     -34.367  14.822  -3.843  1.00 20.00     0.013 C 
ENDBRANCH   4   8
TORSDOF 1
ENDMDL
MODEL 5
REMARK VINA RESULT:      -5.2     10.896     12.095
REMARK  1 active torsions:
REMARK  status: ('A' for Active; 'I' for Inactive)
REMARK    1  A    between atoms: C4_4  and  C11_11 
ROOT
HETATM    1  C1  UNL     1     -35.296  16.637  -1.948  1.00 20.00     0.027 A 
HETATM    2  C2  UNL     1     -33.054  17.494  -1.792  1.00 20.00     0.034 A 
HETATM    3  C3  UNL     1     -35.584  17.326  -0.781  1.00 20.00     0.117 A 
HETATM    4  C4  UNL     1     -34.005  16.728  -2.457  1.00 20.00    -0.047 A 
HETATM    5  C5  UNL     1     -33.443  18.146  -0.632  1.00 20.00     0.030 A 
HETATM    6  C12 UNL     1     -32.449  18.977   0.108  1.00 20.00     0.070 C 
HETATM    7  N13 UNL     1     -34.687  18.081  -0.107  1.00 20.00    -0.266 NA
ENDROOT
BRANCH   4   8
HETATM    8  C11 UNL     1     -33.634  15.991  -3.736  1.00 20.00     0.041 C 
HETATM    9  C7  UNL     1     -34.404  14.705  -3.920  1.00 20.00    -0.021 C 
HETATM   10  C6  UNL     1     -35.259  14.494  -4.932  1.00 20.00    -0.030 C 
HETATM   11  C8  UNL     1     -35.576  15.522  -5.974  1.00 20.00     0.027 C 
HETATM   12  C9  UNL     1     -35.108  16.931  -5.605  1.00 20.00     0.005 C 
HETATM   13  C10 UNL     1     -33.717  16.914  -4.971  1.00 20.00     0.013 C 
ENDBRANCH   4   8
TORSDOF 1
ENDMDL
MODEL 6
REMARK VINA RESULT:      -5.2     11.015     11.852
REMARK  1 active torsions:
REMARK  status: ('A' for Active; 'I' for Inactive)
REMARK    1  A    between atoms: C4_4  and  C11_11 
ROOT
HETATM    1  C1  UNL     1     -33.274  15.864  -3.732  1.00 20.00     0.027 A 
HETATM    2  C2  UNL     1     -35.611  15.405  -4.067  1.00 20.00     0.034 A 
HETATM    3  C3  UNL     1     -33.000  14.706  -4.444  1.00 20.00     0.117 A 
HETATM    4  C4  UNL     1     -34.607  16.212  -3.545  1.00 20.00    -0.047 A 
HETATM    5  C5  UNL     1     -35.232  14.268  -4.763  1.00 20.00     0.030 A 
HETATM    6  C12 UNL     1     -36.283  13.378  -5.337  1.00 20.00     0.070 C 
HETATM    7  N13 UNL     1     -33.948  13.897  -4.965  1.00 20.00    -0.266 NA
ENDROOT
BRANCH   4   8
HETATM    8  C11 UNL     1     -34.965  17.473  -2.771  1.00 20.00     0.041 C 
HETATM    9  C7  UNL     1     -35.676  17.185  -1.471  1.00 20.00    -0.021 C 
HETATM   10  C6  UNL     1     -35.169  17.488  -0.267  1.00 20.00    -0.030 C 
HETATM   11  C8  UNL     1     -33.822  18.114  -0.072  1.00 20.00     0.027 C 
HETATM   12  C9  UNL     1     -32.942  18.072  -1.323  1.00 20.00     0.005 C 
HETATM   13  C10 UNL     1     -33.740  18.395  -2.585  1.00 20.00     0.013 C 
ENDBRANCH   4   8
TORSDOF 1
ENDMDL
MODEL 7
REMARK VINA RESULT:      -5.2     10.945     12.011
REMARK  1 active torsions:
REMARK  status: ('A' for Active; 'I' for Inactive)
REMARK    1  A    between atoms: C4_4  and  C11_11 
ROOT
HETATM    1  C1  UNL     1     -35.888  16.308  -3.168  1.00 20.00     0.027 A 
HETATM    2  C2  UNL     1     -33.668  16.638  -2.306  1.00 20.00     0.034 A 
HETATM    3  C3  UNL     1     -36.291  17.384  -2.395  1.00 20.00     0.117 A 
HETATM    4  C4  UNL     1     -34.550  15.935  -3.118  1.00 20.00    -0.047 A 
HETATM    5  C5  UNL     1     -34.170  17.700  -1.571  1.00 20.00     0.030 A 
HETATM    6  C12 UNL     1     -33.252  18.478  -0.688  1.00 20.00     0.070 C 
HETATM    7  N13 UNL     1     -35.463  18.092  -1.594  1.00 20.00    -0.266 NA
ENDROOT
BRANCH   4   8
HETATM    8  C11 UNL     1     -34.053  14.759  -3.947  1.00 20.00     0.041 C 
HETATM    9  C7  UNL     1     -35.168  14.013  -4.641  1.00 20.00    -0.021 C 
HETATM   10  C6  UNL     1     -35.291  13.939  -5.974  1.00 20.00    -0.030 C 
HETATM   11  C8  UNL     1     -34.357  14.618  -6.929  1.00 20.00     0.027 C 
HETATM   12  C9  UNL     1     -33.461  15.666  -6.266  1.00 20.00     0.005 C 
HETATM   13  C10 UNL     1     -32.928  15.181  -4.918  1.00 20.00     0.013 C 
ENDBRANCH   4   8
TORSDOF 1
ENDMDL
MODEL 8
REMARK VINA RESULT:      -5.1      1.371      2.358
REMARK  1 active torsions:
REMARK  status: ('A' for Active; 'I' for Inactive)
REMARK    1  A    between atoms: C4_4  and  C11_11 
ROOT
HETATM    1  C1  UNL     1     -32.254   9.676   2.923  1.00 20.00     0.027 A 
HETATM    2  C2  UNL     1     -32.598   8.121   1.121  1.00 20.00     0.034 A 
HETATM    3  C3  UNL     1     -32.318  10.694   1.986  1.00 20.00     0.117 A 
HETATM    4  C4  UNL     1     -32.398   8.368   2.474  1.00 20.00    -0.047 A 
HETATM    5  C5  UNL     1     -32.646   9.209   0.264  1.00 20.00     0.030 A 
HETATM    6  C12 UNL     1     -32.859   8.983  -1.196  1.00 20.00     0.070 C 
HETATM    7  N13 UNL     1     -32.510  10.494   0.662  1.00 20.00    -0.266 NA
ENDROOT
BRANCH   4   8
HETATM    8  C11 UNL     1     -32.337   7.210   3.461  1.00 20.00     0.041 C 
HETATM    9  C7  UNL     1     -32.873   7.569   4.826  1.00 20.00    -0.021 C 
HETATM   10  C6  UNL     1     -33.957   6.996   5.369  1.00 20.00    -0.030 C 
HETATM   11  C8  UNL     1     -34.782   5.960   4.668  1.00 20.00     0.027 C 
HETATM   12  C9  UNL     1     -34.488   5.854   3.171  1.00 20.00     0.005 C 
HETATM   13  C10 UNL     1     -32.988   5.934   2.885  1.00 20.00     0.013 C 
ENDBRANCH   4   8
TORSDOF 1
ENDMDL
MODEL 9
REMARK VINA RESULT:      -5.0     11.180     12.253
REMARK  1 active torsions:
REMARK  status: ('A' for Active; 'I' for Inactive)
REMARK    1  A    between atoms: C4_4  and  C11_11 
ROOT
HETATM    1  C1  UNL     1     -32.852  17.863  -1.589  1.00 20.00     0.027 A 
HETATM    2  C2  UNL     1     -35.047  16.996  -1.130  1.00 20.00     0.034 A 
HETATM    3  C3  UNL     1     -32.952  18.593  -0.416  1.00 20.00     0.117 A 
HETATM    4  C4  UNL     1     -33.923  17.052  -1.945  1.00 20.00    -0.047 A 
HETATM    5  C5  UNL     1     -35.050  17.764   0.024  1.00 20.00     0.030 A 
HETATM    6  C12 UNL     1     -36.240  17.729   0.924  1.00 20.00     0.070 C 
HETATM    7  N13 UNL     1     -34.029  18.565   0.403  1.00 20.00    -0.266 NA
ENDROOT
BRANCH   4   8
HETATM    8  C11 UNL     1     -33.866  16.228  -3.225  1.00 20.00     0.041 C 
HETATM    9  C7  UNL     1     -35.111  15.406  -3.454  1.00 20.00    -0.021 C 
HETATM   10  C6  UNL     1     -35.938  15.590  -4.494  1.00 20.00    -0.030 C 
HETATM   11  C8  UNL     1     -35.740  16.655  -5.528  1.00 20.00     0.027 C 
HETATM   12  C9  UNL     1     -34.718  17.719  -5.122  1.00 20.00     0.005 C 
HETATM   13  C10 UNL     1     -33.496  17.098  -4.446  1.00 20.00     0.013 C 
ENDBRANCH   4   8
TORSDOF 1
ENDMDL
