MODEL 1
REMARK VINA RESULT:      -4.8      0.000      0.000
REMARK  0 active torsions:
REMARK  status: ('A' for Active; 'I' for Inactive)
ROOT
HETATM    1  C1  UNL     1     -33.740   7.322   5.935  1.00 20.00    -0.029 C 
HETATM    2  C2  UNL     1     -33.086   7.862   4.885  1.00 20.00    -0.014 C 
HETATM    3  C3  UNL     1     -33.119   5.970   3.004  1.00 20.00     0.143 C 
HETATM    4  C4  UNL     1     -34.543   6.045   6.031  1.00 20.00     0.032 C 
HETATM    5  C5  UNL     1     -34.454   3.996   4.250  1.00 20.00     0.018 A 
HETATM    6  C6  UNL     1     -33.401   5.041   4.103  1.00 20.00     0.061 A 
HETATM    7  C7  UNL     1     -34.742   5.389   4.718  1.00 20.00     0.001 A 
HETATM    8  C8  UNL     1     -32.872   7.444   3.423  1.00 20.00     0.031 C 
HETATM    9  C9  UNL     1     -33.776   8.331   2.550  1.00 20.00     0.027 C 
HETATM   10  C10 UNL     1     -31.396   7.724   3.072  1.00 20.00     0.027 C 
HETATM   11  O11 UNL     1     -33.068   5.565   1.849  1.00 20.00    -0.296 OA
ENDROOT
TORSDOF 0
ENDMDL
MODEL 2
REMARK VINA RESULT:      -4.8      0.906      3.241
REMARK  0 active torsions:
REMARK  status: ('A' for Active; 'I' for Inactive)
ROOT
HETATM    1  C1  UNL     1     -33.358   7.652   5.777  1.00 20.00    -0.029 C 
HETATM    2  C2  UNL     1     -34.181   6.658   5.380  1.00 20.00    -0.014 C 
HETATM    3  C3  UNL     1     -33.727   6.391   2.764  1.00 20.00     0.143 C 
HETATM    4  C4  UNL     1     -32.237   8.344   5.035  1.00 20.00     0.032 C 
HETATM    5  C5  UNL     1     -31.855   8.275   2.347  1.00 20.00     0.018 A 
HETATM    6  C6  UNL     1     -33.156   7.739   2.840  1.00 20.00     0.061 A 
HETATM    7  C7  UNL     1     -31.930   7.711   3.732  1.00 20.00     0.001 A 
HETATM    8  C8  UNL     1     -34.342   5.852   4.084  1.00 20.00     0.031 C 
HETATM    9  C9  UNL     1     -33.751   4.453   4.331  1.00 20.00     0.027 C 
HETATM   10  C10 UNL     1     -35.854   5.720   3.804  1.00 20.00     0.027 C 
HETATM   11  O11 UNL     1     -33.722   5.774   1.705  1.00 20.00    -0.296 OA
ENDROOT
TORSDOF 0
ENDMDL
MODEL 3
REMARK VINA RESULT:      -4.6     11.446     13.337
REMARK  0 active torsions:
REMARK  status: ('A' for Active; 'I' for Inactive)
ROOT
HETATM    1  C1  UNL     1     -33.665  16.585  -6.687  1.00 20.00    -0.029 C 
HETATM    2  C2  UNL     1     -33.711  16.240  -5.384  1.00 20.00    -0.014 C 
HETATM    3  C3  UNL     1     -35.150  13.994  -5.316  1.00 20.00     0.143 C 
HETATM    4  C4  UNL     1     -34.094  15.815  -7.916  1.00 20.00     0.032 C 
HETATM    5  C5  UNL     1     -35.729  13.646  -7.918  1.00 20.00     0.018 A 
HETATM    6  C6  UNL     1     -35.640  14.401  -6.636  1.00 20.00     0.061 A 
HETATM    7  C7  UNL     1     -34.483  14.418  -7.614  1.00 20.00     0.001 A 
HETATM    8  C8  UNL     1     -34.196  15.000  -4.618  1.00 20.00     0.031 C 
HETATM    9  C9  UNL     1     -32.951  14.219  -4.164  1.00 20.00     0.027 C 
HETATM   10  C10 UNL     1     -34.965  15.494  -3.375  1.00 20.00     0.027 C 
HETATM   11  O11 UNL     1     -35.511  12.932  -4.821  1.00 20.00    -0.296 OA
ENDROOT
TORSDOF 0
ENDMDL
MODEL 4
REMARK VINA RESULT:      -4.5     11.436     12.377
REMARK  0 active torsions:
REMARK  status: ('A' for Active; 'I' for Inactive)
ROOT
HETATM    1  C1  UNL     1     -35.350  16.276  -3.105  1.00 20.00    -0.029 C 
HETATM    2  C2  UNL     1     -34.144  15.839  -3.524  1.00 20.00    -0.014 C 
HETATM    3  C3  UNL     1     -34.682  14.068  -5.445  1.00 20.00     0.143 C 
HETATM    4  C4  UNL     1     -36.726  16.051  -3.690  1.00 20.00     0.032 C 
HETATM    5  C5  UNL     1     -37.370  14.123  -5.492  1.00 20.00     0.018 A 
HETATM    6  C6  UNL     1     -36.025  14.009  -4.860  1.00 20.00     0.061 A 
HETATM    7  C7  UNL     1     -36.690  15.364  -5.001  1.00 20.00     0.001 A 
HETATM    8  C8  UNL     1     -33.666  14.969  -4.695  1.00 20.00     0.031 C 
HETATM    9  C9  UNL     1     -33.021  15.903  -5.734  1.00 20.00     0.027 C 
HETATM   10  C10 UNL     1     -32.593  14.004  -4.148  1.00 20.00     0.027 C 
HETATM   11  O11 UNL     1     -34.415  13.415  -6.447  1.00 20.00    -0.296 OA
ENDROOT
TORSDOF 0
ENDMDL
MODEL 5
REMARK VINA RESULT:      -4.4     11.493     13.037
REMARK  0 active torsions:
REMARK  status: ('A' for Active; 'I' for Inactive)
ROOT
HETATM    1  C1  UNL     1     -34.914  17.271  -5.228  1.00 20.00    -0.029 C 
HETATM    2  C2  UNL     1     -35.985  16.581  -5.674  1.00 20.00    -0.014 C 
HETATM    3  C3  UNL     1     -35.360  14.016  -5.292  1.00 20.00     0.143 C 
HETATM    4  C4  UNL     1     -33.701  16.799  -4.458  1.00 20.00     0.032 C 
HETATM    5  C5  UNL     1     -32.904  14.213  -4.216  1.00 20.00     0.018 A 
HETATM    6  C6  UNL     1     -33.971  14.480  -5.221  1.00 20.00     0.061 A 
HETATM    7  C7  UNL     1     -33.811  15.388  -4.018  1.00 20.00     0.001 A 
HETATM    8  C8  UNL     1     -36.415  15.109  -5.611  1.00 20.00     0.031 C 
HETATM    9  C9  UNL     1     -37.531  14.995  -4.559  1.00 20.00     0.027 C 
HETATM   10  C10 UNL     1     -36.983  14.732  -6.995  1.00 20.00     0.027 C 
HETATM   11  O11 UNL     1     -35.625  12.831  -5.127  1.00 20.00    -0.296 OA
ENDROOT
TORSDOF 0
ENDMDL
MODEL 6
REMARK VINA RESULT:      -4.4     11.651     13.127
REMARK  0 active torsions:
REMARK  status: ('A' for Active; 'I' for Inactive)
ROOT
HETATM    1  C1  UNL     1     -35.652  17.188  -5.395  1.00 20.00    -0.029 C 
HETATM    2  C2  UNL     1     -34.647  16.289  -5.370  1.00 20.00    -0.014 C 
HETATM    3  C3  UNL     1     -35.846  13.918  -5.127  1.00 20.00     0.143 C 
HETATM    4  C4  UNL     1     -37.146  16.977  -5.505  1.00 20.00     0.032 C 
HETATM    5  C5  UNL     1     -38.438  14.630  -5.061  1.00 20.00     0.018 A 
HETATM    6  C6  UNL     1     -37.006  14.679  -4.652  1.00 20.00     0.061 A 
HETATM    7  C7  UNL     1     -37.512  15.567  -5.772  1.00 20.00     0.001 A 
HETATM    8  C8  UNL     1     -34.575  14.756  -5.429  1.00 20.00     0.031 C 
HETATM    9  C9  UNL     1     -34.088  14.367  -6.836  1.00 20.00     0.027 C 
HETATM   10  C10 UNL     1     -33.531  14.300  -4.388  1.00 20.00     0.027 C 
HETATM   11  O11 UNL     1     -35.911  12.700  -5.242  1.00 20.00    -0.296 OA
ENDROOT
TORSDOF 0
ENDMDL
MODEL 7
REMARK VINA RESULT:      -4.3     11.919     13.284
REMARK  0 active torsions:
REMARK  status: ('A' for Active; 'I' for Inactive)
ROOT
HETATM    1  C1  UNL     1     -33.370  15.862  -6.496  1.00 20.00    -0.029 C 
HETATM    2  C2  UNL     1     -34.151  14.945  -7.105  1.00 20.00    -0.014 C 
HETATM    3  C3  UNL     1     -35.899  14.182  -5.240  1.00 20.00     0.143 C 
HETATM    4  C4  UNL     1     -33.524  16.535  -5.151  1.00 20.00     0.032 C 
HETATM    5  C5  UNL     1     -35.134  15.676  -3.140  1.00 20.00     0.018 A 
HETATM    6  C6  UNL     1     -34.941  14.731  -4.276  1.00 20.00     0.061 A 
HETATM    7  C7  UNL     1     -34.815  16.226  -4.496  1.00 20.00     0.001 A 
HETATM    8  C8  UNL     1     -35.449  14.219  -6.725  1.00 20.00     0.031 C 
HETATM    9  C9  UNL     1     -36.591  14.854  -7.538  1.00 20.00     0.027 C 
HETATM   10  C10 UNL     1     -35.293  12.741  -7.140  1.00 20.00     0.027 C 
HETATM   11  O11 UNL     1     -36.963  13.711  -4.855  1.00 20.00    -0.296 OA
ENDROOT
TORSDOF 0
ENDMDL
MODEL 8
REMARK VINA RESULT:      -4.3     11.882     12.993
REMARK  0 active torsions:
REMARK  status: ('A' for Active; 'I' for Inactive)
ROOT
HETATM    1  C1  UNL     1     -36.284  16.844  -5.485  1.00 20.00    -0.029 C 
HETATM    2  C2  UNL     1     -35.966  15.692  -6.110  1.00 20.00    -0.014 C 
HETATM    3  C3  UNL     1     -33.964  14.661  -4.679  1.00 20.00     0.143 C 
HETATM    4  C4  UNL     1     -35.831  17.385  -4.148  1.00 20.00     0.032 C 
HETATM    5  C5  UNL     1     -33.673  16.510  -2.750  1.00 20.00     0.018 A 
HETATM    6  C6  UNL     1     -33.792  16.018  -4.151  1.00 20.00     0.061 A 
HETATM    7  C7  UNL     1     -35.031  16.410  -3.372  1.00 20.00     0.001 A 
HETATM    8  C8  UNL     1     -35.055  14.503  -5.772  1.00 20.00     0.031 C 
HETATM    9  C9  UNL     1     -35.959  13.329  -5.356  1.00 20.00     0.027 C 
HETATM   10  C10 UNL     1     -34.291  14.123  -7.057  1.00 20.00     0.027 C 
HETATM   11  O11 UNL     1     -33.257  13.745  -4.276  1.00 20.00    -0.296 OA
ENDROOT
TORSDOF 0
ENDMDL
MODEL 9
REMARK VINA RESULT:      -4.3     12.121     13.539
REMARK  0 active torsions:
REMARK  status: ('A' for Active; 'I' for Inactive)
ROOT
HETATM    1  C1  UNL     1     -34.730  17.339  -6.586  1.00 20.00    -0.029 C 
HETATM    2  C2  UNL     1     -34.977  17.151  -5.273  1.00 20.00    -0.014 C 
HETATM    3  C3  UNL     1     -34.917  14.505  -4.932  1.00 20.00     0.143 C 
HETATM    4  C4  UNL     1     -34.276  16.357  -7.643  1.00 20.00     0.032 C 
HETATM    5  C5  UNL     1     -34.390  13.652  -7.426  1.00 20.00     0.018 A 
HETATM    6  C6  UNL     1     -35.119  14.426  -6.382  1.00 20.00     0.061 A 
HETATM    7  C7  UNL     1     -33.920  15.032  -7.085  1.00 20.00     0.001 A 
HETATM    8  C8  UNL     1     -34.924  15.937  -4.333  1.00 20.00     0.031 C 
HETATM    9  C9  UNL     1     -33.664  16.080  -3.462  1.00 20.00     0.027 C 
HETATM   10  C10 UNL     1     -36.173  15.994  -3.430  1.00 20.00     0.027 C 
HETATM   11  O11 UNL     1     -34.780  13.483  -4.269  1.00 20.00    -0.296 OA
ENDROOT
TORSDOF 0
ENDMDL
