MODEL 1
REMARK VINA RESULT:      -5.0      0.000      0.000
REMARK  1 active torsions:
REMARK  status: ('A' for Active; 'I' for Inactive)
REMARK    1  A    between atoms: C6_6  and  N10_10 
ROOT
HETATM    1  C1  UNL     1     -34.199   6.274   3.896  1.00 20.00     0.156 C 
HETATM    2  C2  UNL     1     -33.733   7.390   4.780  1.00 20.00     0.110 C 
HETATM    3  C3  UNL     1     -33.334   6.144   2.669  1.00 20.00     0.350 C 
HETATM    4  C5  UNL     1     -32.377   7.685   4.155  1.00 20.00     0.281 C 
HETATM    5  N10 UNL     1     -32.478   7.339   2.726  1.00 20.00     0.101 N 
HETATM    6  O11 UNL     1     -35.163   5.560   4.137  1.00 20.00    -0.296 OA
ENDROOT
BRANCH   5   7
HETATM    7  C6  UNL     1     -33.054   8.442   1.953  1.00 20.00     0.232 A 
HETATM    8  C4  UNL     1     -32.451   9.820   2.021  1.00 20.00     0.047 A 
HETATM    9  C7  UNL     1     -32.362   9.028   0.735  1.00 20.00    -0.015 A 
HETATM   10  C8  UNL     1     -31.008   8.519   0.315  1.00 20.00     0.017 C 
HETATM   11  C9  UNL     1     -33.236   9.455  -0.416  1.00 20.00     0.017 C 
ENDBRANCH   5   7
TORSDOF 1
ENDMDL
MODEL 2
REMARK VINA RESULT:      -4.5      2.257      4.443
REMARK  1 active torsions:
REMARK  status: ('A' for Active; 'I' for Inactive)
REMARK    1  A    between atoms: C6_6  and  N10_10 
ROOT
HETATM    1  C1  UNL     1     -32.630   9.390   0.481  1.00 20.00     0.156 C 
HETATM    2  C2  UNL     1     -31.432   8.517   0.687  1.00 20.00     0.110 C 
HETATM    3  C3  UNL     1     -33.417   9.558   1.754  1.00 20.00     0.350 C 
HETATM    4  C5  UNL     1     -31.400   8.452   2.207  1.00 20.00     0.281 C 
HETATM    5  N10 UNL     1     -32.792   8.593   2.672  1.00 20.00     0.101 N 
HETATM    6  O11 UNL     1     -32.935   9.900  -0.590  1.00 20.00    -0.296 OA
ENDROOT
BRANCH   5   7
HETATM    7  C6  UNL     1     -33.492   7.307   2.649  1.00 20.00     0.232 A 
HETATM    8  C4  UNL     1     -32.799   6.051   3.106  1.00 20.00     0.047 A 
HETATM    9  C7  UNL     1     -33.947   6.607   3.917  1.00 20.00    -0.015 A 
HETATM   10  C8  UNL     1     -33.632   7.203   5.265  1.00 20.00     0.017 C 
HETATM   11  C9  UNL     1     -35.264   5.877   3.868  1.00 20.00     0.017 C 
ENDBRANCH   5   7
TORSDOF 1
ENDMDL
MODEL 3
REMARK VINA RESULT:      -4.5     10.020     10.798
REMARK  1 active torsions:
REMARK  status: ('A' for Active; 'I' for Inactive)
REMARK    1  A    between atoms: C6_6  and  N10_10 
ROOT
HETATM    1  C1  UNL     1     -35.145  14.058  -4.769  1.00 20.00     0.156 C 
HETATM    2  C2  UNL     1     -33.704  14.453  -4.868  1.00 20.00     0.110 C 
HETATM    3  C3  UNL     1     -36.015  15.230  -4.397  1.00 20.00     0.350 C 
HETATM    4  C5  UNL     1     -33.835  15.969  -4.842  1.00 20.00     0.281 C 
HETATM    5  N10 UNL     1     -35.044  16.283  -4.059  1.00 20.00     0.101 N 
HETATM    6  O11 UNL     1     -35.564  12.924  -4.963  1.00 20.00    -0.296 OA
ENDROOT
BRANCH   5   7
HETATM    7  C6  UNL     1     -34.757  16.301  -2.623  1.00 20.00     0.232 A 
HETATM    8  C4  UNL     1     -33.576  17.068  -2.089  1.00 20.00     0.047 A 
HETATM    9  C7  UNL     1     -34.978  17.534  -1.766  1.00 20.00    -0.015 A 
HETATM   10  C8  UNL     1     -35.454  18.817  -2.395  1.00 20.00     0.017 C 
HETATM   11  C9  UNL     1     -35.487  17.317  -0.364  1.00 20.00     0.017 C 
ENDBRANCH   5   7
TORSDOF 1
ENDMDL
MODEL 4
REMARK VINA RESULT:      -4.2     10.282     11.101
REMARK  1 active torsions:
REMARK  status: ('A' for Active; 'I' for Inactive)
REMARK    1  A    between atoms: C6_6  and  N10_10 
ROOT
HETATM    1  C1  UNL     1     -37.320  14.455  -5.153  1.00 20.00     0.156 C 
HETATM    2  C2  UNL     1     -36.178  13.632  -5.664  1.00 20.00     0.110 C 
HETATM    3  C3  UNL     1     -36.920  15.894  -4.958  1.00 20.00     0.350 C 
HETATM    4  C5  UNL     1     -35.200  14.732  -6.049  1.00 20.00     0.281 C 
HETATM    5  N10 UNL     1     -35.461  15.872  -5.153  1.00 20.00     0.101 N 
HETATM    6  O11 UNL     1     -38.437  14.013  -4.918  1.00 20.00    -0.296 OA
ENDROOT
BRANCH   5   7
HETATM    7  C6  UNL     1     -34.758  15.718  -3.878  1.00 20.00     0.232 A 
HETATM    8  C4  UNL     1     -33.301  15.336  -3.850  1.00 20.00     0.047 A 
HETATM    9  C7  UNL     1     -33.721  16.716  -3.395  1.00 20.00    -0.015 A 
HETATM   10  C8  UNL     1     -33.338  17.888  -4.262  1.00 20.00     0.017 C 
HETATM   11  C9  UNL     1     -33.684  17.013  -1.918  1.00 20.00     0.017 C 
ENDBRANCH   5   7
TORSDOF 1
ENDMDL
MODEL 5
REMARK VINA RESULT:      -4.1      9.793     11.001
REMARK  1 active torsions:
REMARK  status: ('A' for Active; 'I' for Inactive)
REMARK    1  A    between atoms: C6_6  and  N10_10 
ROOT
HETATM    1  C1  UNL     1     -34.711  14.260  -5.612  1.00 20.00     0.156 C 
HETATM    2  C2  UNL     1     -35.640  15.372  -5.989  1.00 20.00     0.110 C 
HETATM    3  C3  UNL     1     -34.565  14.145  -4.117  1.00 20.00     0.350 C 
HETATM    4  C5  UNL     1     -36.260  15.681  -4.633  1.00 20.00     0.281 C 
HETATM    5  N10 UNL     1     -35.250  15.346  -3.613  1.00 20.00     0.101 N 
HETATM    6  O11 UNL     1     -34.138  13.537  -6.417  1.00 20.00    -0.296 OA
ENDROOT
BRANCH   5   7
HETATM    7  C6  UNL     1     -34.309  16.450  -3.415  1.00 20.00     0.232 A 
HETATM    8  C4  UNL     1     -34.788  17.878  -3.444  1.00 20.00     0.047 A 
HETATM    9  C7  UNL     1     -34.289  17.283  -2.146  1.00 20.00    -0.015 A 
HETATM   10  C8  UNL     1     -35.299  17.027  -1.057  1.00 20.00     0.017 C 
HETATM   11  C9  UNL     1     -32.944  17.732  -1.636  1.00 20.00     0.017 C 
ENDBRANCH   5   7
TORSDOF 1
ENDMDL
MODEL 6
REMARK VINA RESULT:      -3.9     10.556     11.564
REMARK  1 active torsions:
REMARK  status: ('A' for Active; 'I' for Inactive)
REMARK    1  A    between atoms: C6_6  and  N10_10 
ROOT
HETATM    1  C1  UNL     1     -35.163  13.355  -6.642  1.00 20.00     0.156 C 
HETATM    2  C2  UNL     1     -34.317  14.300  -7.437  1.00 20.00     0.110 C 
HETATM    3  C3  UNL     1     -36.021  14.086  -5.644  1.00 20.00     0.350 C 
HETATM    4  C5  UNL     1     -34.964  15.626  -7.061  1.00 20.00     0.281 C 
HETATM    5  N10 UNL     1     -35.513  15.466  -5.703  1.00 20.00     0.101 N 
HETATM    6  O11 UNL     1     -35.156  12.138  -6.783  1.00 20.00    -0.296 OA
ENDROOT
BRANCH   5   7
HETATM    7  C6  UNL     1     -34.487  15.698  -4.684  1.00 20.00     0.232 A 
HETATM    8  C4  UNL     1     -33.471  16.796  -4.859  1.00 20.00     0.047 A 
HETATM    9  C7  UNL     1     -34.511  16.908  -3.767  1.00 20.00    -0.015 A 
HETATM   10  C8  UNL     1     -35.584  17.955  -3.924  1.00 20.00     0.017 C 
HETATM   11  C9  UNL     1     -34.063  16.704  -2.343  1.00 20.00     0.017 C 
ENDBRANCH   5   7
TORSDOF 1
ENDMDL
MODEL 7
REMARK VINA RESULT:      -3.9     10.146     11.324
REMARK  1 active torsions:
REMARK  status: ('A' for Active; 'I' for Inactive)
REMARK    1  A    between atoms: C6_6  and  N10_10 
ROOT
HETATM    1  C1  UNL     1     -33.517  18.172  -3.209  1.00 20.00     0.156 C 
HETATM    2  C2  UNL     1     -33.537  17.131  -2.133  1.00 20.00     0.110 C 
HETATM    3  C3  UNL     1     -34.576  17.913  -4.248  1.00 20.00     0.350 C 
HETATM    4  C5  UNL     1     -34.859  16.444  -2.442  1.00 20.00     0.281 C 
HETATM    5  N10 UNL     1     -35.084  16.579  -3.893  1.00 20.00     0.101 N 
HETATM    6  O11 UNL     1     -32.736  19.114  -3.242  1.00 20.00    -0.296 OA
ENDROOT
BRANCH   5   7
HETATM    7  C6  UNL     1     -34.386  15.529  -4.638  1.00 20.00     0.232 A 
HETATM    8  C4  UNL     1     -34.264  14.140  -4.069  1.00 20.00     0.047 A 
HETATM    9  C7  UNL     1     -35.119  14.373  -5.294  1.00 20.00    -0.015 A 
HETATM   10  C8  UNL     1     -36.613  14.242  -5.144  1.00 20.00     0.017 C 
HETATM   11  C9  UNL     1     -34.596  13.888  -6.621  1.00 20.00     0.017 C 
ENDBRANCH   5   7
TORSDOF 1
ENDMDL
MODEL 8
REMARK VINA RESULT:      -3.7     10.585     12.021
REMARK  1 active torsions:
REMARK  status: ('A' for Active; 'I' for Inactive)
REMARK    1  A    between atoms: C6_6  and  N10_10 
ROOT
HETATM    1  C1  UNL     1     -37.235  14.208  -5.525  1.00 20.00     0.156 C 
HETATM    2  C2  UNL     1     -36.012  13.360  -5.364  1.00 20.00     0.110 C 
HETATM    3  C3  UNL     1     -37.009  15.321  -6.514  1.00 20.00     0.350 C 
HETATM    4  C5  UNL     1     -35.181  13.853  -6.540  1.00 20.00     0.281 C 
HETATM    5  N10 UNL     1     -35.563  15.257  -6.776  1.00 20.00     0.101 N 
HETATM    6  O11 UNL     1     -38.286  14.023  -4.925  1.00 20.00    -0.296 OA
ENDROOT
BRANCH   5   7
HETATM    7  C6  UNL     1     -34.822  16.163  -5.896  1.00 20.00     0.232 A 
HETATM    8  C4  UNL     1     -33.319  16.096  -5.820  1.00 20.00     0.047 A 
HETATM    9  C7  UNL     1     -33.982  17.309  -6.432  1.00 20.00    -0.015 A 
HETATM   10  C8  UNL     1     -33.840  17.513  -7.918  1.00 20.00     0.017 C 
HETATM   11  C9  UNL     1     -33.977  18.591  -5.638  1.00 20.00     0.017 C 
ENDBRANCH   5   7
TORSDOF 1
ENDMDL
MODEL 9
REMARK VINA RESULT:      -3.7     10.503     11.146
REMARK  1 active torsions:
REMARK  status: ('A' for Active; 'I' for Inactive)
REMARK    1  A    between atoms: C6_6  and  N10_10 
ROOT
HETATM    1  C1  UNL     1     -32.747  18.691   1.533  1.00 20.00     0.156 C 
HETATM    2  C2  UNL     1     -34.196  18.482   1.846  1.00 20.00     0.110 C 
HETATM    3  C3  UNL     1     -32.540  19.051   0.086  1.00 20.00     0.350 C 
HETATM    4  C5  UNL     1     -34.831  19.046   0.583  1.00 20.00     0.281 C 
HETATM    5  N10 UNL     1     -33.868  18.838  -0.512  1.00 20.00     0.101 N 
HETATM    6  O11 UNL     1     -31.842  18.580   2.351  1.00 20.00    -0.296 OA
ENDROOT
BRANCH   5   7
HETATM    7  C6  UNL     1     -33.987  17.491  -1.075  1.00 20.00     0.232 A 
HETATM    8  C4  UNL     1     -35.342  16.896  -1.352  1.00 20.00     0.047 A 
HETATM    9  C7  UNL     1     -34.430  17.245  -2.506  1.00 20.00    -0.015 A 
HETATM   10  C8  UNL     1     -34.823  18.404  -3.387  1.00 20.00     0.017 C 
HETATM   11  C9  UNL     1     -33.768  16.114  -3.249  1.00 20.00     0.017 C 
ENDBRANCH   5   7
TORSDOF 1
ENDMDL
