MODEL 1
REMARK VINA RESULT:      -5.6      0.000      0.000
REMARK  2 active torsions:
REMARK  status: ('A' for Active; 'I' for Inactive)
REMARK    1  A    between atoms: C3_3  and  N10_10 
REMARK    2  A    between atoms: C8_8  and  N10_10 
ROOT
HETATM    1  C1  UNL     1     -33.664   7.209   4.883  1.00 20.00     0.094 C 
HETATM    2  C7  UNL     1     -33.350   5.774   2.902  1.00 20.00     0.059 C 
HETATM    3  C8  UNL     1     -33.556   7.192   3.418  1.00 20.00     0.322 C 
HETATM    4  N9  UNL     1     -33.755   7.222   6.040  1.00 20.00    -0.195 NA
ENDROOT
BRANCH   3   5
HETATM    5  N10 UNL     1     -32.467   8.055   2.994  1.00 20.00     0.106 N 
HETATM    6  H24 UNL     1     -32.615   8.995   3.352  1.00 20.00     0.318 HD
BRANCH   5   7
HETATM    7  C3  UNL     1     -32.397   8.117   1.530  1.00 20.00     0.230 A 
HETATM    8  C2  UNL     1     -31.201   8.739   0.859  1.00 20.00     0.047 A 
HETATM    9  C4  UNL     1     -32.544   9.430   0.782  1.00 20.00    -0.015 A 
HETATM   10  C5  UNL     1     -33.278   9.398  -0.534  1.00 20.00     0.017 C 
HETATM   11  C6  UNL     1     -32.718  10.714   1.550  1.00 20.00     0.017 C 
ENDBRANCH   5   7
ENDBRANCH   3   5
TORSDOF 2
ENDMDL
MODEL 2
REMARK VINA RESULT:      -5.2      1.428      1.639
REMARK  2 active torsions:
REMARK  status: ('A' for Active; 'I' for Inactive)
REMARK    1  A    between atoms: C3_3  and  N10_10 
REMARK    2  A    between atoms: C8_8  and  N10_10 
ROOT
HETATM    1  C1  UNL     1     -34.484   5.655   4.728  1.00 20.00     0.094 C 
HETATM    2  C7  UNL     1     -33.189   5.132   2.696  1.00 20.00     0.059 C 
HETATM    3  C8  UNL     1     -34.215   6.055   3.340  1.00 20.00     0.322 C 
HETATM    4  N9  UNL     1     -34.700   5.337   5.823  1.00 20.00    -0.195 NA
ENDROOT
BRANCH   3   5
HETATM    5  N10 UNL     1     -33.759   7.434   3.303  1.00 20.00     0.106 N 
HETATM    6  H24 UNL     1     -34.440   8.006   2.810  1.00 20.00     0.318 HD
BRANCH   5   7
HETATM    7  C3  UNL     1     -32.471   7.534   2.609  1.00 20.00     0.230 A 
HETATM    8  C2  UNL     1     -31.414   8.478   3.117  1.00 20.00     0.047 A 
HETATM    9  C4  UNL     1     -32.098   8.763   1.799  1.00 20.00    -0.015 A 
HETATM   10  C5  UNL     1     -31.309   8.545   0.534  1.00 20.00     0.017 C 
HETATM   11  C6  UNL     1     -33.043   9.935   1.738  1.00 20.00     0.017 C 
ENDBRANCH   5   7
ENDBRANCH   3   5
TORSDOF 2
ENDMDL
MODEL 3
REMARK VINA RESULT:      -4.9      1.621      2.149
REMARK  2 active torsions:
REMARK  status: ('A' for Active; 'I' for Inactive)
REMARK    1  A    between atoms: C3_3  and  N10_10 
REMARK    2  A    between atoms: C8_8  and  N10_10 
ROOT
HETATM    1  C1  UNL     1     -34.239   5.312   4.502  1.00 20.00     0.094 C 
HETATM    2  C7  UNL     1     -33.882   7.359   5.829  1.00 20.00     0.059 C 
HETATM    3  C8  UNL     1     -33.485   6.569   4.589  1.00 20.00     0.322 C 
HETATM    4  N9  UNL     1     -34.832   4.315   4.435  1.00 20.00    -0.195 NA
ENDROOT
BRANCH   3   5
HETATM    5  N10 UNL     1     -33.701   7.358   3.388  1.00 20.00     0.106 N 
HETATM    6  H24 UNL     1     -34.390   6.900   2.796  1.00 20.00     0.318 HD
BRANCH   5   7
HETATM    7  C3  UNL     1     -32.453   7.499   2.631  1.00 20.00     0.230 A 
HETATM    8  C2  UNL     1     -31.386   8.448   3.110  1.00 20.00     0.047 A 
HETATM    9  C4  UNL     1     -32.142   8.756   1.837  1.00 20.00    -0.015 A 
HETATM   10  C5  UNL     1     -31.416   8.585   0.527  1.00 20.00     0.017 C 
HETATM   11  C6  UNL     1     -33.107   9.912   1.856  1.00 20.00     0.017 C 
ENDBRANCH   5   7
ENDBRANCH   3   5
TORSDOF 2
ENDMDL
MODEL 4
REMARK VINA RESULT:      -4.7      1.808      4.765
REMARK  2 active torsions:
REMARK  status: ('A' for Active; 'I' for Inactive)
REMARK    1  A    between atoms: C3_3  and  N10_10 
REMARK    2  A    between atoms: C8_8  and  N10_10 
ROOT
HETATM    1  C1  UNL     1     -32.425   9.059   1.386  1.00 20.00     0.094 C 
HETATM    2  C7  UNL     1     -31.400   8.203   3.459  1.00 20.00     0.059 C 
HETATM    3  C8  UNL     1     -32.665   8.294   2.617  1.00 20.00     0.322 C 
HETATM    4  N9  UNL     1     -32.236   9.668   0.416  1.00 20.00    -0.195 NA
ENDROOT
BRANCH   3   5
HETATM    5  N10 UNL     1     -33.158   6.968   2.285  1.00 20.00     0.106 N 
HETATM    6  H24 UNL     1     -34.113   7.033   1.944  1.00 20.00     0.318 HD
BRANCH   5   7
HETATM    7  C3  UNL     1     -33.140   6.100   3.468  1.00 20.00     0.230 A 
HETATM    8  C2  UNL     1     -33.608   4.673   3.360  1.00 20.00     0.047 A 
HETATM    9  C4  UNL     1     -34.422   5.667   4.156  1.00 20.00    -0.015 A 
HETATM   10  C5  UNL     1     -34.397   5.557   5.659  1.00 20.00     0.017 C 
HETATM   11  C6  UNL     1     -35.754   6.093   3.595  1.00 20.00     0.017 C 
ENDBRANCH   5   7
ENDBRANCH   3   5
TORSDOF 2
ENDMDL
MODEL 5
REMARK VINA RESULT:      -4.4      1.861      4.803
REMARK  2 active torsions:
REMARK  status: ('A' for Active; 'I' for Inactive)
REMARK    1  A    between atoms: C3_3  and  N10_10 
REMARK    2  A    between atoms: C8_8  and  N10_10 
ROOT
HETATM    1  C1  UNL     1     -32.583   9.017   1.921  1.00 20.00     0.094 C 
HETATM    2  C7  UNL     1     -31.917   6.679   2.328  1.00 20.00     0.059 C 
HETATM    3  C8  UNL     1     -32.424   7.976   2.944  1.00 20.00     0.322 C 
HETATM    4  N9  UNL     1     -32.705   9.843   1.113  1.00 20.00    -0.195 NA
ENDROOT
BRANCH   3   5
HETATM    5  N10 UNL     1     -33.687   7.760   3.629  1.00 20.00     0.106 N 
HETATM    6  H24 UNL     1     -33.566   7.918   4.626  1.00 20.00     0.318 HD
BRANCH   5   7
HETATM    7  C3  UNL     1     -34.157   6.386   3.425  1.00 20.00     0.230 A 
HETATM    8  C2  UNL     1     -35.601   6.039   3.675  1.00 20.00     0.047 A 
HETATM    9  C4  UNL     1     -34.532   5.492   4.594  1.00 20.00    -0.015 A 
HETATM   10  C5  UNL     1     -34.190   4.028   4.483  1.00 20.00     0.017 C 
HETATM   11  C6  UNL     1     -34.471   6.031   5.999  1.00 20.00     0.017 C 
ENDBRANCH   5   7
ENDBRANCH   3   5
TORSDOF 2
ENDMDL
MODEL 6
REMARK VINA RESULT:      -4.3      9.734     10.568
REMARK  2 active torsions:
REMARK  status: ('A' for Active; 'I' for Inactive)
REMARK    1  A    between atoms: C3_3  and  N10_10 
REMARK    2  A    between atoms: C8_8  and  N10_10 
ROOT
HETATM    1  C1  UNL     1     -35.295  13.846  -5.097  1.00 20.00     0.094 C 
HETATM    2  C7  UNL     1     -33.106  14.723  -4.376  1.00 20.00     0.059 C 
HETATM    3  C8  UNL     1     -34.464  15.052  -4.983  1.00 20.00     0.322 C 
HETATM    4  N9  UNL     1     -35.950  12.892  -5.192  1.00 20.00    -0.195 NA
ENDROOT
BRANCH   3   5
HETATM    5  N10 UNL     1     -35.153  16.053  -4.187  1.00 20.00     0.106 N 
HETATM    6  H24 UNL     1     -35.149  16.943  -4.678  1.00 20.00     0.318 HD
BRANCH   5   7
HETATM    7  C3  UNL     1     -34.490  16.228  -2.891  1.00 20.00     0.230 A 
HETATM    8  C2  UNL     1     -35.282  16.692  -1.697  1.00 20.00     0.047 A 
HETATM    9  C4  UNL     1     -34.243  17.607  -2.304  1.00 20.00    -0.015 A 
HETATM   10  C5  UNL     1     -32.958  17.816  -1.545  1.00 20.00     0.017 C 
HETATM   11  C6  UNL     1     -34.727  18.831  -3.037  1.00 20.00     0.017 C 
ENDBRANCH   5   7
ENDBRANCH   3   5
TORSDOF 2
ENDMDL
MODEL 7
REMARK VINA RESULT:      -4.0      1.675      4.748
REMARK  2 active torsions:
REMARK  status: ('A' for Active; 'I' for Inactive)
REMARK    1  A    between atoms: C3_3  and  N10_10 
REMARK    2  A    between atoms: C8_8  and  N10_10 
ROOT
HETATM    1  C1  UNL     1     -32.998   9.119  -0.094  1.00 20.00     0.094 C 
HETATM    2  C7  UNL     1     -32.409  10.731   1.677  1.00 20.00     0.059 C 
HETATM    3  C8  UNL     1     -33.109   9.421   1.339  1.00 20.00     0.322 C 
HETATM    4  N9  UNL     1     -32.914   8.882  -1.227  1.00 20.00    -0.195 NA
ENDROOT
BRANCH   3   5
HETATM    5  N10 UNL     1     -32.556   8.327   2.119  1.00 20.00     0.106 N 
HETATM    6  H24 UNL     1     -32.347   7.542   1.507  1.00 20.00     0.318 HD
BRANCH   5   7
HETATM    7  C3  UNL     1     -33.511   7.885   3.140  1.00 20.00     0.230 A 
HETATM    8  C2  UNL     1     -33.013   7.277   4.424  1.00 20.00     0.047 A 
HETATM    9  C4  UNL     1     -33.747   6.412   3.424  1.00 20.00    -0.015 A 
HETATM   10  C5  UNL     1     -35.153   5.987   3.758  1.00 20.00     0.017 C 
HETATM   11  C6  UNL     1     -32.952   5.369   2.681  1.00 20.00     0.017 C 
ENDBRANCH   5   7
ENDBRANCH   3   5
TORSDOF 2
ENDMDL
MODEL 8
REMARK VINA RESULT:      -4.0      2.116      2.815
REMARK  2 active torsions:
REMARK  status: ('A' for Active; 'I' for Inactive)
REMARK    1  A    between atoms: C3_3  and  N10_10 
REMARK    2  A    between atoms: C8_8  and  N10_10 
ROOT
HETATM    1  C1  UNL     1     -34.386   4.540   4.527  1.00 20.00     0.094 C 
HETATM    2  C7  UNL     1     -35.905   6.207   3.531  1.00 20.00     0.059 C 
HETATM    3  C8  UNL     1     -34.879   5.920   4.619  1.00 20.00     0.322 C 
HETATM    4  N9  UNL     1     -33.999   3.447   4.457  1.00 20.00    -0.195 NA
ENDROOT
BRANCH   3   5
HETATM    5  N10 UNL     1     -33.765   6.849   4.532  1.00 20.00     0.106 N 
HETATM    6  H24 UNL     1     -33.977   7.689   5.065  1.00 20.00     0.318 HD
BRANCH   5   7
HETATM    7  C3  UNL     1     -33.517   7.229   3.137  1.00 20.00     0.230 A 
HETATM    8  C2  UNL     1     -32.423   6.551   2.355  1.00 20.00     0.047 A 
HETATM    9  C4  UNL     1     -32.278   8.008   2.733  1.00 20.00    -0.015 A 
HETATM   10  C5  UNL     1     -32.432   9.037   1.644  1.00 20.00     0.017 C 
HETATM   11  C6  UNL     1     -31.246   8.364   3.772  1.00 20.00     0.017 C 
ENDBRANCH   5   7
ENDBRANCH   3   5
TORSDOF 2
ENDMDL
MODEL 9
REMARK VINA RESULT:      -4.0      1.920      4.231
REMARK  2 active torsions:
REMARK  status: ('A' for Active; 'I' for Inactive)
REMARK    1  A    between atoms: C3_3  and  N10_10 
REMARK    2  A    between atoms: C8_8  and  N10_10 
ROOT
HETATM    1  C1  UNL     1     -32.473  10.518   1.266  1.00 20.00     0.094 C 
HETATM    2  C7  UNL     1     -33.199   9.139  -0.644  1.00 20.00     0.059 C 
HETATM    3  C8  UNL     1     -32.107   9.402   0.384  1.00 20.00     0.322 C 
HETATM    4  N9  UNL     1     -32.759  11.403   1.961  1.00 20.00    -0.195 NA
ENDROOT
BRANCH   3   5
HETATM    5  N10 UNL     1     -31.849   8.211   1.175  1.00 20.00     0.106 N 
HETATM    6  H24 UNL     1     -32.230   7.396   0.701  1.00 20.00     0.318 HD
BRANCH   5   7
HETATM    7  C3  UNL     1     -32.478   8.322   2.496  1.00 20.00     0.230 A 
HETATM    8  C2  UNL     1     -31.747   7.841   3.721  1.00 20.00     0.047 A 
HETATM    9  C4  UNL     1     -32.975   7.098   3.246  1.00 20.00    -0.015 A 
HETATM   10  C5  UNL     1     -34.242   7.245   4.048  1.00 20.00     0.017 C 
HETATM   11  C6  UNL     1     -32.780   5.727   2.653  1.00 20.00     0.017 C 
ENDBRANCH   5   7
ENDBRANCH   3   5
TORSDOF 2
ENDMDL
