MODEL 1
REMARK VINA RESULT:      -4.9      0.000      0.000
REMARK  2 active torsions:
REMARK  status: ('A' for Active; 'I' for Inactive)
REMARK    1  A    between atoms: C6_6  and  N9_9 
REMARK    2  A    between atoms: C7_7  and  N9_9 
ROOT
HETATM    1  C1  UNL     1     -32.544   9.615   1.158  1.00 20.00     0.013 C 
HETATM    2  C2  UNL     1     -32.437   8.662   1.879  1.00 20.00    -0.087 C 
HETATM    3  C6  UNL     1     -32.302   7.499   2.759  1.00 20.00     0.366 C 
ENDROOT
BRANCH   3   4
HETATM    4  N9  UNL     1     -33.513   7.311   3.558  1.00 20.00     0.112 N 
HETATM    5  C5  UNL     1     -33.221   7.499   4.979  1.00 20.00     0.312 C 
BRANCH   4   6
HETATM    6  C7  UNL     1     -34.080   5.984   3.323  1.00 20.00     0.325 C 
HETATM    7  C3  UNL     1     -34.508   5.391   4.596  1.00 20.00     0.095 C 
HETATM    8  N8  UNL     1     -34.850   4.921   5.601  1.00 20.00    -0.195 NA
HETATM    9  C4  UNL     1     -33.074   5.087   2.614  1.00 20.00     0.059 C 
ENDBRANCH   4   6
ENDBRANCH   3   4
TORSDOF 2
ENDMDL
MODEL 2
REMARK VINA RESULT:      -4.4      1.354      2.105
REMARK  2 active torsions:
REMARK  status: ('A' for Active; 'I' for Inactive)
REMARK    1  A    between atoms: C6_6  and  N9_9 
REMARK    2  A    between atoms: C7_7  and  N9_9 
ROOT
HETATM    1  C1  UNL     1     -31.714   8.787   2.149  1.00 20.00     0.013 C 
HETATM    2  C2  UNL     1     -32.582   7.960   2.214  1.00 20.00    -0.087 C 
HETATM    3  C6  UNL     1     -33.643   6.953   2.289  1.00 20.00     0.366 C 
ENDROOT
BRANCH   3   4
HETATM    4  N9  UNL     1     -33.303   5.916   3.263  1.00 20.00     0.112 N 
HETATM    5  C5  UNL     1     -33.098   4.633   2.592  1.00 20.00     0.312 C 
BRANCH   4   6
HETATM    6  C7  UNL     1     -34.352   5.802   4.275  1.00 20.00     0.325 C 
HETATM    7  C3  UNL     1     -34.084   6.732   5.379  1.00 20.00     0.095 C 
HETATM    8  N8  UNL     1     -33.876   7.468   6.252  1.00 20.00    -0.195 NA
HETATM    9  C4  UNL     1     -34.457   4.370   4.781  1.00 20.00     0.059 C 
ENDBRANCH   4   6
ENDBRANCH   3   4
TORSDOF 2
ENDMDL
MODEL 3
REMARK VINA RESULT:      -4.4     11.146     11.674
REMARK  2 active torsions:
REMARK  status: ('A' for Active; 'I' for Inactive)
REMARK    1  A    between atoms: C6_6  and  N9_9 
REMARK    2  A    between atoms: C7_7  and  N9_9 
ROOT
HETATM    1  C1  UNL     1     -35.320  16.987  -1.015  1.00 20.00     0.013 C 
HETATM    2  C2  UNL     1     -34.632  16.803  -1.982  1.00 20.00    -0.087 C 
HETATM    3  C6  UNL     1     -33.790  16.581  -3.159  1.00 20.00     0.366 C 
ENDROOT
BRANCH   3   4
HETATM    4  N9  UNL     1     -34.051  15.264  -3.740  1.00 20.00     0.112 N 
HETATM    5  C5  UNL     1     -32.998  14.907  -4.690  1.00 20.00     0.312 C 
BRANCH   4   6
HETATM    6  C7  UNL     1     -35.358  15.244  -4.396  1.00 20.00     0.325 C 
HETATM    7  C3  UNL     1     -35.651  13.892  -4.888  1.00 20.00     0.095 C 
HETATM    8  N8  UNL     1     -35.885  12.824  -5.275  1.00 20.00    -0.195 NA
HETATM    9  C4  UNL     1     -35.407  16.260  -5.529  1.00 20.00     0.059 C 
ENDBRANCH   4   6
ENDBRANCH   3   4
TORSDOF 2
ENDMDL
MODEL 4
REMARK VINA RESULT:      -4.3      1.488      4.396
REMARK  2 active torsions:
REMARK  status: ('A' for Active; 'I' for Inactive)
REMARK    1  A    between atoms: C6_6  and  N9_9 
REMARK    2  A    between atoms: C7_7  and  N9_9 
ROOT
HETATM    1  C1  UNL     1     -34.816   4.869   5.293  1.00 20.00     0.013 C 
HETATM    2  C2  UNL     1     -34.343   5.940   5.026  1.00 20.00    -0.087 C 
HETATM    3  C6  UNL     1     -33.765   7.246   4.705  1.00 20.00     0.366 C 
ENDROOT
BRANCH   3   4
HETATM    4  N9  UNL     1     -33.498   7.356   3.271  1.00 20.00     0.112 N 
HETATM    5  C5  UNL     1     -32.944   6.103   2.758  1.00 20.00     0.312 C 
BRANCH   4   6
HETATM    6  C7  UNL     1     -32.585   8.466   3.004  1.00 20.00     0.325 C 
HETATM    7  C3  UNL     1     -32.581   8.776   1.569  1.00 20.00     0.095 C 
HETATM    8  N8  UNL     1     -32.578   9.024   0.435  1.00 20.00    -0.195 NA
HETATM    9  C4  UNL     1     -31.182   8.139   3.496  1.00 20.00     0.059 C 
ENDBRANCH   4   6
ENDBRANCH   3   4
TORSDOF 2
ENDMDL
MODEL 5
REMARK VINA RESULT:      -4.2      1.325      1.917
REMARK  2 active torsions:
REMARK  status: ('A' for Active; 'I' for Inactive)
REMARK    1  A    between atoms: C6_6  and  N9_9 
REMARK    2  A    between atoms: C7_7  and  N9_9 
ROOT
HETATM    1  C1  UNL     1     -32.265   9.656   0.683  1.00 20.00     0.013 C 
HETATM    2  C2  UNL     1     -32.540   8.727   1.391  1.00 20.00    -0.087 C 
HETATM    3  C6  UNL     1     -32.874   7.590   2.252  1.00 20.00     0.366 C 
ENDROOT
BRANCH   3   4
HETATM    4  N9  UNL     1     -32.814   7.974   3.662  1.00 20.00     0.112 N 
HETATM    5  C5  UNL     1     -31.450   8.350   4.031  1.00 20.00     0.312 C 
BRANCH   4   6
HETATM    6  C7  UNL     1     -33.292   6.882   4.510  1.00 20.00     0.325 C 
HETATM    7  C3  UNL     1     -34.527   6.319   3.951  1.00 20.00     0.095 C 
HETATM    8  N8  UNL     1     -35.502   5.870   3.510  1.00 20.00    -0.195 NA
HETATM    9  C4  UNL     1     -33.509   7.366   5.937  1.00 20.00     0.059 C 
ENDBRANCH   4   6
ENDBRANCH   3   4
TORSDOF 2
ENDMDL
MODEL 6
REMARK VINA RESULT:      -4.1      1.580      3.602
REMARK  2 active torsions:
REMARK  status: ('A' for Active; 'I' for Inactive)
REMARK    1  A    between atoms: C6_6  and  N9_9 
REMARK    2  A    between atoms: C7_7  and  N9_9 
ROOT
HETATM    1  C1  UNL     1     -34.716   5.045   5.844  1.00 20.00     0.013 C 
HETATM    2  C2  UNL     1     -34.240   6.129   5.649  1.00 20.00    -0.087 C 
HETATM    3  C6  UNL     1     -33.661   7.454   5.416  1.00 20.00     0.366 C 
ENDROOT
BRANCH   3   4
HETATM    4  N9  UNL     1     -32.621   7.391   4.389  1.00 20.00     0.112 N 
HETATM    5  C5  UNL     1     -31.823   8.616   4.395  1.00 20.00     0.312 C 
BRANCH   4   6
HETATM    6  C7  UNL     1     -33.217   7.174   3.071  1.00 20.00     0.325 C 
HETATM    7  C3  UNL     1     -33.090   5.761   2.691  1.00 20.00     0.095 C 
HETATM    8  N8  UNL     1     -32.993   4.645   2.390  1.00 20.00    -0.195 NA
HETATM    9  C4  UNL     1     -32.568   8.079   2.033  1.00 20.00     0.059 C 
ENDBRANCH   4   6
ENDBRANCH   3   4
TORSDOF 2
ENDMDL
MODEL 7
REMARK VINA RESULT:      -4.1     11.242     11.955
REMARK  2 active torsions:
REMARK  status: ('A' for Active; 'I' for Inactive)
REMARK    1  A    between atoms: C6_6  and  N9_9 
REMARK    2  A    between atoms: C7_7  and  N9_9 
ROOT
HETATM    1  C1  UNL     1     -33.343  17.487  -1.910  1.00 20.00     0.013 C 
HETATM    2  C2  UNL     1     -33.755  16.620  -2.631  1.00 20.00    -0.087 C 
HETATM    3  C6  UNL     1     -34.257  15.559  -3.508  1.00 20.00     0.366 C 
ENDROOT
BRANCH   3   4
HETATM    4  N9  UNL     1     -35.271  16.081  -4.423  1.00 20.00     0.112 N 
HETATM    5  C5  UNL     1     -36.598  16.005  -3.813  1.00 20.00     0.312 C 
BRANCH   4   6
HETATM    6  C7  UNL     1     -35.246  15.346  -5.687  1.00 20.00     0.325 C 
HETATM    7  C3  UNL     1     -35.583  13.936  -5.452  1.00 20.00     0.095 C 
HETATM    8  N8  UNL     1     -35.852  12.823  -5.269  1.00 20.00    -0.195 NA
HETATM    9  C4  UNL     1     -33.886  15.477  -6.359  1.00 20.00     0.059 C 
ENDBRANCH   4   6
ENDBRANCH   3   4
TORSDOF 2
ENDMDL
MODEL 8
REMARK VINA RESULT:      -4.1     11.070     11.779
REMARK  2 active torsions:
REMARK  status: ('A' for Active; 'I' for Inactive)
REMARK    1  A    between atoms: C6_6  and  N9_9 
REMARK    2  A    between atoms: C7_7  and  N9_9 
ROOT
HETATM    1  C1  UNL     1     -33.878  17.394  -1.482  1.00 20.00     0.013 C 
HETATM    2  C2  UNL     1     -34.463  16.683  -2.253  1.00 20.00    -0.087 C 
HETATM    3  C6  UNL     1     -35.180  15.815  -3.189  1.00 20.00     0.366 C 
ENDROOT
BRANCH   3   4
HETATM    4  N9  UNL     1     -34.772  16.092  -4.567  1.00 20.00     0.112 N 
HETATM    5  C5  UNL     1     -35.907  16.585  -5.346  1.00 20.00     0.312 C 
BRANCH   4   6
HETATM    6  C7  UNL     1     -34.210  14.892  -5.185  1.00 20.00     0.325 C 
HETATM    7  C3  UNL     1     -35.213  13.819  -5.198  1.00 20.00     0.095 C 
HETATM    8  N8  UNL     1     -36.005  12.972  -5.212  1.00 20.00    -0.195 NA
HETATM    9  C4  UNL     1     -32.949  14.451  -4.455  1.00 20.00     0.059 C 
ENDBRANCH   4   6
ENDBRANCH   3   4
TORSDOF 2
ENDMDL
MODEL 9
REMARK VINA RESULT:      -4.0      1.477      4.329
REMARK  2 active torsions:
REMARK  status: ('A' for Active; 'I' for Inactive)
REMARK    1  A    between atoms: C6_6  and  N9_9 
REMARK    2  A    between atoms: C7_7  and  N9_9 
ROOT
HETATM    1  C1  UNL     1     -34.556   4.673   5.579  1.00 20.00     0.013 C 
HETATM    2  C2  UNL     1     -34.781   5.318   4.591  1.00 20.00    -0.087 C 
HETATM    3  C6  UNL     1     -35.060   6.106   3.388  1.00 20.00     0.366 C 
ENDROOT
BRANCH   3   4
HETATM    4  N9  UNL     1     -33.823   6.399   2.665  1.00 20.00     0.112 N 
HETATM    5  C5  UNL     1     -32.826   5.360   2.915  1.00 20.00     0.312 C 
BRANCH   4   6
HETATM    6  C7  UNL     1     -33.303   7.710   3.051  1.00 20.00     0.325 C 
HETATM    7  C3  UNL     1     -32.433   8.235   1.991  1.00 20.00     0.095 C 
HETATM    8  N8  UNL     1     -31.746   8.653   1.154  1.00 20.00    -0.195 NA
HETATM    9  C4  UNL     1     -32.559   7.624   4.377  1.00 20.00     0.059 C 
ENDBRANCH   4   6
ENDBRANCH   3   4
TORSDOF 2
ENDMDL
