MODEL 1
REMARK VINA RESULT:      -5.5      0.000      0.000
REMARK  3 active torsions:
REMARK  status: ('A' for Active; 'I' for Inactive)
REMARK    1  A    between atoms: C2_2  and  C8_8 
REMARK    2  A    between atoms: C4_4  and  N9_9 
REMARK    3  A    between atoms: C8_8  and  N9_9 
ROOT
HETATM    1  N9  UNL     1     -32.253   8.086   2.851  1.00 20.00     0.093 N 
HETATM    2  H24 UNL     1     -32.705   8.888   3.280  1.00 20.00     0.316 HD
ENDROOT
BRANCH   1   3
HETATM    3  C4  UNL     1     -33.241   7.012   2.707  1.00 20.00     0.229 A 
HETATM    4  C3  UNL     1     -32.933   5.619   3.189  1.00 20.00     0.047 A 
HETATM    5  C5  UNL     1     -33.993   6.434   3.893  1.00 20.00    -0.015 A 
HETATM    6  C6  UNL     1     -33.693   6.921   5.287  1.00 20.00     0.017 C 
HETATM    7  C7  UNL     1     -35.435   6.053   3.677  1.00 20.00     0.017 C 
ENDBRANCH   1   3
BRANCH   1   8
HETATM    8  C8  UNL     1     -31.717   8.462   1.554  1.00 20.00     0.320 C 
BRANCH   8   9
HETATM    9  C2  UNL     1     -32.501   9.564   0.905  1.00 20.00     0.030 C 
HETATM   10  C1  UNL     1     -32.746  10.748   1.478  1.00 20.00     0.034 C 
HETATM   11 CL10 UNL     1     -33.164   9.211  -0.657  1.00 20.00    -0.088 Cl
ENDBRANCH   8   9
ENDBRANCH   1   8
TORSDOF 3
ENDMDL
MODEL 2
REMARK VINA RESULT:      -5.3      2.238      4.792
REMARK  3 active torsions:
REMARK  status: ('A' for Active; 'I' for Inactive)
REMARK    1  A    between atoms: C2_2  and  C8_8 
REMARK    2  A    between atoms: C4_4  and  N9_9 
REMARK    3  A    between atoms: C8_8  and  N9_9 
ROOT
HETATM    1  N9  UNL     1     -33.263   7.251   2.016  1.00 20.00     0.093 N 
HETATM    2  H24 UNL     1     -34.247   7.496   2.059  1.00 20.00     0.316 HD
ENDROOT
BRANCH   1   3
HETATM    3  C4  UNL     1     -32.471   8.485   2.059  1.00 20.00     0.229 A 
HETATM    4  C3  UNL     1     -31.280   8.663   1.154  1.00 20.00     0.047 A 
HETATM    5  C5  UNL     1     -32.510   9.517   0.946  1.00 20.00    -0.015 A 
HETATM    6  C6  UNL     1     -33.339   9.266  -0.287  1.00 20.00     0.017 C 
HETATM    7  C7  UNL     1     -32.437  10.968   1.347  1.00 20.00     0.017 C 
ENDBRANCH   1   3
BRANCH   1   8
HETATM    8  C8  UNL     1     -32.923   6.387   3.134  1.00 20.00     0.320 C 
BRANCH   8   9
HETATM    9  C2  UNL     1     -33.982   6.379   4.197  1.00 20.00     0.030 C 
HETATM   10  C1  UNL     1     -35.149   5.734   4.086  1.00 20.00     0.034 C 
HETATM   11 CL10 UNL     1     -33.653   7.329   5.609  1.00 20.00    -0.088 Cl
ENDBRANCH   8   9
ENDBRANCH   1   8
TORSDOF 3
ENDMDL
MODEL 3
REMARK VINA RESULT:      -5.3      2.487      4.859
REMARK  3 active torsions:
REMARK  status: ('A' for Active; 'I' for Inactive)
REMARK    1  A    between atoms: C2_2  and  C8_8 
REMARK    2  A    between atoms: C4_4  and  N9_9 
REMARK    3  A    between atoms: C8_8  and  N9_9 
ROOT
HETATM    1  N9  UNL     1     -32.935   6.598   2.605  1.00 20.00     0.093 N 
HETATM    2  H24 UNL     1     -32.764   6.348   1.636  1.00 20.00     0.316 HD
ENDROOT
BRANCH   1   3
HETATM    3  C4  UNL     1     -32.839   8.056   2.737  1.00 20.00     0.229 A 
HETATM    4  C3  UNL     1     -31.525   8.709   3.075  1.00 20.00     0.047 A 
HETATM    5  C5  UNL     1     -32.134   8.922   1.708  1.00 20.00    -0.015 A 
HETATM    6  C6  UNL     1     -31.450   8.284   0.527  1.00 20.00     0.017 C 
HETATM    7  C7  UNL     1     -32.739  10.269   1.408  1.00 20.00     0.017 C 
ENDBRANCH   1   3
BRANCH   1   8
HETATM    8  C8  UNL     1     -34.254   6.136   3.004  1.00 20.00     0.320 C 
BRANCH   8   9
HETATM    9  C2  UNL     1     -34.279   5.615   4.411  1.00 20.00     0.030 C 
HETATM   10  C1  UNL     1     -34.479   4.331   4.731  1.00 20.00     0.034 C 
HETATM   11 CL10 UNL     1     -34.095   6.797   5.666  1.00 20.00    -0.088 Cl
ENDBRANCH   8   9
ENDBRANCH   1   8
TORSDOF 3
ENDMDL
MODEL 4
REMARK VINA RESULT:      -5.2      1.404      2.080
REMARK  3 active torsions:
REMARK  status: ('A' for Active; 'I' for Inactive)
REMARK    1  A    between atoms: C2_2  and  C8_8 
REMARK    2  A    between atoms: C4_4  and  N9_9 
REMARK    3  A    between atoms: C8_8  and  N9_9 
ROOT
HETATM    1  N9  UNL     1     -32.915   6.889   2.734  1.00 20.00     0.093 N 
HETATM    2  H24 UNL     1     -32.262   6.114   2.806  1.00 20.00     0.316 HD
ENDROOT
BRANCH   1   3
HETATM    3  C4  UNL     1     -33.912   6.763   3.802  1.00 20.00     0.229 A 
HETATM    4  C3  UNL     1     -35.291   6.237   3.504  1.00 20.00     0.047 A 
HETATM    5  C5  UNL     1     -34.348   5.417   4.355  1.00 20.00    -0.015 A 
HETATM    6  C6  UNL     1     -33.796   4.145   3.765  1.00 20.00     0.017 C 
HETATM    7  C7  UNL     1     -34.623   5.335   5.834  1.00 20.00     0.017 C 
ENDBRANCH   1   3
BRANCH   1   8
HETATM    8  C8  UNL     1     -32.198   8.147   2.850  1.00 20.00     0.320 C 
BRANCH   8   9
HETATM    9  C2  UNL     1     -32.140   8.899   1.553  1.00 20.00     0.030 C 
HETATM   10  C1  UNL     1     -31.362   8.553   0.521  1.00 20.00     0.034 C 
HETATM   11 CL10 UNL     1     -33.112  10.331   1.458  1.00 20.00    -0.088 Cl
ENDBRANCH   8   9
ENDBRANCH   1   8
TORSDOF 3
ENDMDL
MODEL 5
REMARK VINA RESULT:      -5.1      2.591      4.787
REMARK  3 active torsions:
REMARK  status: ('A' for Active; 'I' for Inactive)
REMARK    1  A    between atoms: C2_2  and  C8_8 
REMARK    2  A    between atoms: C4_4  and  N9_9 
REMARK    3  A    between atoms: C8_8  and  N9_9 
ROOT
HETATM    1  N9  UNL     1     -32.961   6.628   2.571  1.00 20.00     0.093 N 
HETATM    2  H24 UNL     1     -32.806   6.382   1.598  1.00 20.00     0.316 HD
ENDROOT
BRANCH   1   3
HETATM    3  C4  UNL     1     -32.840   8.083   2.711  1.00 20.00     0.229 A 
HETATM    4  C3  UNL     1     -31.514   8.712   3.048  1.00 20.00     0.047 A 
HETATM    5  C5  UNL     1     -32.124   8.943   1.685  1.00 20.00    -0.015 A 
HETATM    6  C6  UNL     1     -31.454   8.301   0.497  1.00 20.00     0.017 C 
HETATM    7  C7  UNL     1     -32.708  10.302   1.395  1.00 20.00     0.017 C 
ENDBRANCH   1   3
BRANCH   1   8
HETATM    8  C8  UNL     1     -34.280   6.183   2.986  1.00 20.00     0.320 C 
BRANCH   8   9
HETATM    9  C2  UNL     1     -34.286   5.617   4.375  1.00 20.00     0.030 C 
HETATM   10  C1  UNL     1     -34.297   6.362   5.487  1.00 20.00     0.034 C 
HETATM   11 CL10 UNL     1     -34.210   3.890   4.496  1.00 20.00    -0.088 Cl
ENDBRANCH   8   9
ENDBRANCH   1   8
TORSDOF 3
ENDMDL
MODEL 6
REMARK VINA RESULT:      -5.1      1.382      1.919
REMARK  3 active torsions:
REMARK  status: ('A' for Active; 'I' for Inactive)
REMARK    1  A    between atoms: C2_2  and  C8_8 
REMARK    2  A    between atoms: C4_4  and  N9_9 
REMARK    3  A    between atoms: C8_8  and  N9_9 
ROOT
HETATM    1  N9  UNL     1     -33.089   6.911   2.652  1.00 20.00     0.093 N 
HETATM    2  H24 UNL     1     -32.541   6.058   2.600  1.00 20.00     0.316 HD
ENDROOT
BRANCH   1   3
HETATM    3  C4  UNL     1     -34.034   6.795   3.768  1.00 20.00     0.229 A 
HETATM    4  C3  UNL     1     -35.403   6.206   3.553  1.00 20.00     0.047 A 
HETATM    5  C5  UNL     1     -34.393   5.459   4.394  1.00 20.00    -0.015 A 
HETATM    6  C6  UNL     1     -33.818   4.184   3.833  1.00 20.00     0.017 C 
HETATM    7  C7  UNL     1     -34.602   5.429   5.886  1.00 20.00     0.017 C 
ENDBRANCH   1   3
BRANCH   1   8
HETATM    8  C8  UNL     1     -32.206   8.049   2.848  1.00 20.00     0.320 C 
BRANCH   8   9
HETATM    9  C2  UNL     1     -32.158   8.952   1.651  1.00 20.00     0.030 C 
HETATM   10  C1  UNL     1     -32.887  10.068   1.525  1.00 20.00     0.034 C 
HETATM   11 CL10 UNL     1     -31.129   8.444   0.352  1.00 20.00    -0.088 Cl
ENDBRANCH   8   9
ENDBRANCH   1   8
TORSDOF 3
ENDMDL
MODEL 7
REMARK VINA RESULT:      -4.5      2.601      4.729
REMARK  3 active torsions:
REMARK  status: ('A' for Active; 'I' for Inactive)
REMARK    1  A    between atoms: C2_2  and  C8_8 
REMARK    2  A    between atoms: C4_4  and  N9_9 
REMARK    3  A    between atoms: C8_8  and  N9_9 
ROOT
HETATM    1  N9  UNL     1     -33.124   5.948   2.996  1.00 20.00     0.093 N 
HETATM    2  H24 UNL     1     -32.997   5.060   2.519  1.00 20.00     0.316 HD
ENDROOT
BRANCH   1   3
HETATM    3  C4  UNL     1     -33.005   7.029   2.012  1.00 20.00     0.229 A 
HETATM    4  C3  UNL     1     -33.567   8.395   2.304  1.00 20.00     0.047 A 
HETATM    5  C5  UNL     1     -32.070   8.210   2.210  1.00 20.00    -0.015 A 
HETATM    6  C6  UNL     1     -31.266   8.332   3.478  1.00 20.00     0.017 C 
HETATM    7  C7  UNL     1     -31.369   8.747   0.989  1.00 20.00     0.017 C 
ENDBRANCH   1   3
BRANCH   1   8
HETATM    8  C8  UNL     1     -34.429   5.979   3.633  1.00 20.00     0.320 C 
BRANCH   8   9
HETATM    9  C2  UNL     1     -34.340   5.923   5.130  1.00 20.00     0.030 C 
HETATM   10  C1  UNL     1     -34.692   4.859   5.861  1.00 20.00     0.034 C 
HETATM   11 CL10 UNL     1     -33.802   7.370   5.918  1.00 20.00    -0.088 Cl
ENDBRANCH   8   9
ENDBRANCH   1   8
TORSDOF 3
ENDMDL
MODEL 8
REMARK VINA RESULT:      -3.9     10.511     11.248
REMARK  3 active torsions:
REMARK  status: ('A' for Active; 'I' for Inactive)
REMARK    1  A    between atoms: C2_2  and  C8_8 
REMARK    2  A    between atoms: C4_4  and  N9_9 
REMARK    3  A    between atoms: C8_8  and  N9_9 
ROOT
HETATM    1  N9  UNL     1     -33.581  13.989  -5.344  1.00 20.00     0.093 N 
HETATM    2  H24 UNL     1     -34.211  13.769  -4.579  1.00 20.00     0.316 HD
ENDROOT
BRANCH   1   3
HETATM    3  C4  UNL     1     -34.377  14.218  -6.555  1.00 20.00     0.229 A 
HETATM    4  C3  UNL     1     -35.097  13.077  -7.225  1.00 20.00     0.047 A 
HETATM    5  C5  UNL     1     -35.895  14.171  -6.553  1.00 20.00    -0.015 A 
HETATM    6  C6  UNL     1     -36.637  13.824  -5.288  1.00 20.00     0.017 C 
HETATM    7  C7  UNL     1     -36.617  15.159  -7.432  1.00 20.00     0.017 C 
ENDBRANCH   1   3
BRANCH   1   8
HETATM    8  C8  UNL     1     -32.804  15.171  -5.014  1.00 20.00     0.320 C 
BRANCH   8   9
HETATM    9  C2  UNL     1     -33.649  16.280  -4.460  1.00 20.00     0.030 C 
HETATM   10  C1  UNL     1     -33.664  17.526  -4.949  1.00 20.00     0.034 C 
HETATM   11 CL10 UNL     1     -34.600  15.891  -3.064  1.00 20.00    -0.088 Cl
ENDBRANCH   8   9
ENDBRANCH   1   8
TORSDOF 3
ENDMDL
MODEL 9
REMARK VINA RESULT:      -3.8      2.516      4.540
REMARK  3 active torsions:
REMARK  status: ('A' for Active; 'I' for Inactive)
REMARK    1  A    between atoms: C2_2  and  C8_8 
REMARK    2  A    between atoms: C4_4  and  N9_9 
REMARK    3  A    between atoms: C8_8  and  N9_9 
ROOT
HETATM    1  N9  UNL     1     -32.733   7.339   5.394  1.00 20.00     0.093 N 
HETATM    2  H24 UNL     1     -32.328   6.434   5.179  1.00 20.00     0.316 HD
ENDROOT
BRANCH   1   3
HETATM    3  C4  UNL     1     -32.523   8.231   4.249  1.00 20.00     0.229 A 
HETATM    4  C3  UNL     1     -31.197   8.261   3.535  1.00 20.00     0.047 A 
HETATM    5  C5  UNL     1     -32.415   7.716   2.825  1.00 20.00    -0.015 A 
HETATM    6  C6  UNL     1     -32.465   6.234   2.553  1.00 20.00     0.017 C 
HETATM    7  C7  UNL     1     -33.033   8.557   1.738  1.00 20.00     0.017 C 
ENDBRANCH   1   3
BRANCH   1   8
HETATM    8  C8  UNL     1     -34.152   7.189   5.670  1.00 20.00     0.320 C 
BRANCH   8   9
HETATM    9  C2  UNL     1     -34.703   5.893   5.154  1.00 20.00     0.030 C 
HETATM   10  C1  UNL     1     -34.478   4.703   5.724  1.00 20.00     0.034 C 
HETATM   11 CL10 UNL     1     -35.631   5.986   3.693  1.00 20.00    -0.088 Cl
ENDBRANCH   8   9
ENDBRANCH   1   8
TORSDOF 3
ENDMDL
