MODEL 1
REMARK VINA RESULT:      -5.9      0.000      0.000
REMARK  3 active torsions:
REMARK  status: ('A' for Active; 'I' for Inactive)
REMARK    1  A    between atoms: C2_2  and  N8_8 
REMARK    2  A    between atoms: C6_6  and  C7_7 
REMARK    3  A    between atoms: C6_6  and  N8_8 
ROOT
HETATM    1  N8  UNL     1     -33.140   7.611   3.488  1.00 20.00     0.097 N 
HETATM    2  H23 UNL     1     -32.930   7.742   4.475  1.00 20.00     0.316 HD
ENDROOT
BRANCH   1   3
HETATM    3  C2  UNL     1     -33.763   6.294   3.313  1.00 20.00     0.229 A 
HETATM    4  C1  UNL     1     -35.258   6.151   3.414  1.00 20.00     0.047 A 
HETATM    5  C3  UNL     1     -34.376   5.543   4.481  1.00 20.00    -0.015 A 
HETATM    6  C4  UNL     1     -34.221   4.045   4.498  1.00 20.00     0.017 C 
HETATM    7  C5  UNL     1     -34.396   6.174   5.849  1.00 20.00     0.017 C 
ENDBRANCH   1   3
BRANCH   1   8
HETATM    8  C6  UNL     1     -31.915   7.705   2.711  1.00 20.00     0.386 C 
BRANCH   8   9
HETATM    9  C7  UNL     1     -32.054   8.680   1.569  1.00 20.00     0.413 C 
HETATM   10  F9  UNL     1     -31.038   8.527   0.692  1.00 20.00    -0.169 F 
HETATM   11  F10 UNL     1     -33.208   8.487   0.895  1.00 20.00    -0.169 F 
HETATM   12  F11 UNL     1     -32.030   9.957   2.005  1.00 20.00    -0.169 F 
ENDBRANCH   8   9
ENDBRANCH   1   8
TORSDOF 3
ENDMDL
MODEL 2
REMARK VINA RESULT:      -5.7      3.065      4.939
REMARK  3 active torsions:
REMARK  status: ('A' for Active; 'I' for Inactive)
REMARK    1  A    between atoms: C2_2  and  N8_8 
REMARK    2  A    between atoms: C6_6  and  C7_7 
REMARK    3  A    between atoms: C6_6  and  N8_8 
ROOT
HETATM    1  N8  UNL     1     -33.895   7.567   3.317  1.00 20.00     0.097 N 
HETATM    2  H23 UNL     1     -34.588   7.128   2.716  1.00 20.00     0.316 HD
ENDROOT
BRANCH   1   3
HETATM    3  C2  UNL     1     -32.601   7.558   2.625  1.00 20.00     0.229 A 
HETATM    4  C1  UNL     1     -31.466   8.399   3.144  1.00 20.00     0.047 A 
HETATM    5  C3  UNL     1     -32.118   8.756   1.827  1.00 20.00    -0.015 A 
HETATM    6  C4  UNL     1     -31.348   8.480   0.562  1.00 20.00     0.017 C 
HETATM    7  C5  UNL     1     -32.954  10.008   1.776  1.00 20.00     0.017 C 
ENDBRANCH   1   3
BRANCH   1   8
HETATM    8  C6  UNL     1     -33.807   6.844   4.575  1.00 20.00     0.386 C 
BRANCH   8   9
HETATM    9  C7  UNL     1     -34.655   5.596   4.559  1.00 20.00     0.413 C 
HETATM   10  F9  UNL     1     -34.959   5.217   5.820  1.00 20.00    -0.169 F 
HETATM   11  F10 UNL     1     -35.817   5.799   3.901  1.00 20.00    -0.169 F 
HETATM   12  F11 UNL     1     -34.010   4.569   3.966  1.00 20.00    -0.169 F 
ENDBRANCH   8   9
ENDBRANCH   1   8
TORSDOF 3
ENDMDL
MODEL 3
REMARK VINA RESULT:      -5.7      3.069      4.932
REMARK  3 active torsions:
REMARK  status: ('A' for Active; 'I' for Inactive)
REMARK    1  A    between atoms: C2_2  and  N8_8 
REMARK    2  A    between atoms: C6_6  and  C7_7 
REMARK    3  A    between atoms: C6_6  and  N8_8 
ROOT
HETATM    1  N8  UNL     1     -33.898   7.539   3.313  1.00 20.00     0.097 N 
HETATM    2  H23 UNL     1     -34.580   7.080   2.715  1.00 20.00     0.316 HD
ENDROOT
BRANCH   1   3
HETATM    3  C2  UNL     1     -32.600   7.542   2.628  1.00 20.00     0.229 A 
HETATM    4  C1  UNL     1     -31.477   8.398   3.150  1.00 20.00     0.047 A 
HETATM    5  C3  UNL     1     -32.126   8.743   1.828  1.00 20.00    -0.015 A 
HETATM    6  C4  UNL     1     -31.347   8.472   0.568  1.00 20.00     0.017 C 
HETATM    7  C5  UNL     1     -32.977   9.985   1.769  1.00 20.00     0.017 C 
ENDBRANCH   1   3
BRANCH   1   8
HETATM    8  C6  UNL     1     -33.805   6.834   4.581  1.00 20.00     0.386 C 
BRANCH   8   9
HETATM    9  C7  UNL     1     -34.642   5.580   4.582  1.00 20.00     0.413 C 
HETATM   10  F9  UNL     1     -35.803   5.787   3.922  1.00 20.00    -0.169 F 
HETATM   11  F10 UNL     1     -34.002   4.559   3.973  1.00 20.00    -0.169 F 
HETATM   12  F11 UNL     1     -34.949   5.193   5.839  1.00 20.00    -0.169 F 
ENDBRANCH   8   9
ENDBRANCH   1   8
TORSDOF 3
ENDMDL
MODEL 4
REMARK VINA RESULT:      -5.5      2.763      4.965
REMARK  3 active torsions:
REMARK  status: ('A' for Active; 'I' for Inactive)
REMARK    1  A    between atoms: C2_2  and  N8_8 
REMARK    2  A    between atoms: C6_6  and  C7_7 
REMARK    3  A    between atoms: C6_6  and  N8_8 
ROOT
HETATM    1  N8  UNL     1     -32.874   7.885   2.890  1.00 20.00     0.097 N 
HETATM    2  H23 UNL     1     -33.703   8.428   3.118  1.00 20.00     0.316 HD
ENDROOT
BRANCH   1   3
HETATM    3  C2  UNL     1     -32.589   8.043   1.459  1.00 20.00     0.229 A 
HETATM    4  C1  UNL     1     -31.304   8.688   1.015  1.00 20.00     0.047 A 
HETATM    5  C3  UNL     1     -32.616   9.405   0.789  1.00 20.00    -0.015 A 
HETATM    6  C4  UNL     1     -33.148   9.473  -0.619  1.00 20.00     0.017 C 
HETATM    7  C5  UNL     1     -32.892  10.638   1.609  1.00 20.00     0.017 C 
ENDBRANCH   1   3
BRANCH   1   8
HETATM    8  C6  UNL     1     -33.101   6.487   3.215  1.00 20.00     0.386 C 
BRANCH   8   9
HETATM    9  C7  UNL     1     -34.214   6.322   4.219  1.00 20.00     0.413 C 
HETATM   10  F9  UNL     1     -34.071   5.161   4.896  1.00 20.00    -0.169 F 
HETATM   11  F10 UNL     1     -34.214   7.325   5.123  1.00 20.00    -0.169 F 
HETATM   12  F11 UNL     1     -35.422   6.299   3.616  1.00 20.00    -0.169 F 
ENDBRANCH   8   9
ENDBRANCH   1   8
TORSDOF 3
ENDMDL
MODEL 5
REMARK VINA RESULT:      -5.4      1.221      1.745
REMARK  3 active torsions:
REMARK  status: ('A' for Active; 'I' for Inactive)
REMARK    1  A    between atoms: C2_2  and  N8_8 
REMARK    2  A    between atoms: C6_6  and  C7_7 
REMARK    3  A    between atoms: C6_6  and  N8_8 
ROOT
HETATM    1  N8  UNL     1     -32.360   7.718   2.547  1.00 20.00     0.097 N 
HETATM    2  H23 UNL     1     -32.463   7.167   1.698  1.00 20.00     0.316 HD
ENDROOT
BRANCH   1   3
HETATM    3  C2  UNL     1     -33.528   7.481   3.403  1.00 20.00     0.229 A 
HETATM    4  C1  UNL     1     -33.347   6.883   4.773  1.00 20.00     0.047 A 
HETATM    5  C3  UNL     1     -34.031   6.077   3.692  1.00 20.00    -0.015 A 
HETATM    6  C4  UNL     1     -35.521   5.883   3.793  1.00 20.00     0.017 C 
HETATM    7  C5  UNL     1     -33.294   4.888   3.132  1.00 20.00     0.017 C 
ENDBRANCH   1   3
BRANCH   1   8
HETATM    8  C6  UNL     1     -32.254   9.127   2.207  1.00 20.00     0.386 C 
BRANCH   8   9
HETATM    9  C7  UNL     1     -32.158   9.333   0.716  1.00 20.00     0.413 C 
HETATM   10  F9  UNL     1     -31.051   8.732   0.227  1.00 20.00    -0.169 F 
HETATM   11  F10 UNL     1     -33.225   8.809   0.077  1.00 20.00    -0.169 F 
HETATM   12  F11 UNL     1     -32.083  10.645   0.404  1.00 20.00    -0.169 F 
ENDBRANCH   8   9
ENDBRANCH   1   8
TORSDOF 3
ENDMDL
MODEL 6
REMARK VINA RESULT:      -4.1     10.902     11.797
REMARK  3 active torsions:
REMARK  status: ('A' for Active; 'I' for Inactive)
REMARK    1  A    between atoms: C2_2  and  N8_8 
REMARK    2  A    between atoms: C6_6  and  C7_7 
REMARK    3  A    between atoms: C6_6  and  N8_8 
ROOT
HETATM    1  N8  UNL     1     -34.673  13.578  -4.658  1.00 20.00     0.097 N 
HETATM    2  H23 UNL     1     -34.549  12.746  -4.086  1.00 20.00     0.316 HD
ENDROOT
BRANCH   1   3
HETATM    3  C2  UNL     1     -34.896  14.727  -3.773  1.00 20.00     0.229 A 
HETATM    4  C1  UNL     1     -35.590  15.956  -4.297  1.00 20.00     0.047 A 
HETATM    5  C3  UNL     1     -34.122  16.022  -3.941  1.00 20.00    -0.015 A 
HETATM    6  C4  UNL     1     -33.734  16.763  -2.688  1.00 20.00     0.017 C 
HETATM    7  C5  UNL     1     -33.132  16.162  -5.068  1.00 20.00     0.017 C 
ENDBRANCH   1   3
BRANCH   1   8
HETATM    8  C6  UNL     1     -35.804  13.394  -5.552  1.00 20.00     0.386 C 
BRANCH   8   9
HETATM    9  C7  UNL     1     -35.363  13.264  -6.988  1.00 20.00     0.413 C 
HETATM   10  F9  UNL     1     -35.265  11.962  -7.335  1.00 20.00    -0.169 F 
HETATM   11  F10 UNL     1     -36.244  13.847  -7.829  1.00 20.00    -0.169 F 
HETATM   12  F11 UNL     1     -34.154  13.832  -7.186  1.00 20.00    -0.169 F 
ENDBRANCH   8   9
ENDBRANCH   1   8
TORSDOF 3
ENDMDL
MODEL 7
REMARK VINA RESULT:      -4.1     11.033     11.890
REMARK  3 active torsions:
REMARK  status: ('A' for Active; 'I' for Inactive)
REMARK    1  A    between atoms: C2_2  and  N8_8 
REMARK    2  A    between atoms: C6_6  and  C7_7 
REMARK    3  A    between atoms: C6_6  and  N8_8 
ROOT
HETATM    1  N8  UNL     1     -35.094  13.604  -4.499  1.00 20.00     0.097 N 
HETATM    2  H23 UNL     1     -35.401  13.948  -3.592  1.00 20.00     0.316 HD
ENDROOT
BRANCH   1   3
HETATM    3  C2  UNL     1     -34.117  14.548  -5.052  1.00 20.00     0.229 A 
HETATM    4  C1  UNL     1     -32.760  14.685  -4.415  1.00 20.00     0.047 A 
HETATM    5  C3  UNL     1     -33.746  15.827  -4.322  1.00 20.00    -0.015 A 
HETATM    6  C4  UNL     1     -33.487  17.052  -5.159  1.00 20.00     0.017 C 
HETATM    7  C5  UNL     1     -34.352  16.122  -2.974  1.00 20.00     0.017 C 
ENDBRANCH   1   3
BRANCH   1   8
HETATM    8  C6  UNL     1     -36.237  13.473  -5.387  1.00 20.00     0.386 C 
BRANCH   8   9
HETATM    9  C7  UNL     1     -37.256  14.558  -5.144  1.00 20.00     0.413 C 
HETATM   10  F9  UNL     1     -38.503  14.097  -5.387  1.00 20.00    -0.169 F 
HETATM   11  F10 UNL     1     -37.221  14.990  -3.866  1.00 20.00    -0.169 F 
HETATM   12  F11 UNL     1     -37.048  15.619  -5.953  1.00 20.00    -0.169 F 
ENDBRANCH   8   9
ENDBRANCH   1   8
TORSDOF 3
ENDMDL
MODEL 8
REMARK VINA RESULT:      -4.0     10.529     11.204
REMARK  3 active torsions:
REMARK  status: ('A' for Active; 'I' for Inactive)
REMARK    1  A    between atoms: C2_2  and  N8_8 
REMARK    2  A    between atoms: C6_6  and  C7_7 
REMARK    3  A    between atoms: C6_6  and  N8_8 
ROOT
HETATM    1  N8  UNL     1     -33.511  16.308  -2.969  1.00 20.00     0.097 N 
HETATM    2  H23 UNL     1     -33.057  15.541  -2.478  1.00 20.00     0.316 HD
ENDROOT
BRANCH   1   3
HETATM    3  C2  UNL     1     -34.707  16.704  -2.215  1.00 20.00     0.229 A 
HETATM    4  C1  UNL     1     -35.242  18.105  -2.339  1.00 20.00     0.047 A 
HETATM    5  C3  UNL     1     -34.623  17.655  -1.035  1.00 20.00    -0.015 A 
HETATM    6  C4  UNL     1     -35.543  17.396   0.129  1.00 20.00     0.017 C 
HETATM    7  C5  UNL     1     -33.295  18.252  -0.647  1.00 20.00     0.017 C 
ENDBRANCH   1   3
BRANCH   1   8
HETATM    8  C6  UNL     1     -33.871  15.884  -4.312  1.00 20.00     0.386 C 
BRANCH   8   9
HETATM    9  C7  UNL     1     -33.624  14.410  -4.515  1.00 20.00     0.413 C 
HETATM   10  F9  UNL     1     -34.488  13.681  -3.774  1.00 20.00    -0.169 F 
HETATM   11  F10 UNL     1     -33.794  14.056  -5.807  1.00 20.00    -0.169 F 
HETATM   12  F11 UNL     1     -32.373  14.064  -4.145  1.00 20.00    -0.169 F 
ENDBRANCH   8   9
ENDBRANCH   1   8
TORSDOF 3
ENDMDL
MODEL 9
REMARK VINA RESULT:      -4.0     11.017     11.866
REMARK  3 active torsions:
REMARK  status: ('A' for Active; 'I' for Inactive)
REMARK    1  A    between atoms: C2_2  and  N8_8 
REMARK    2  A    between atoms: C6_6  and  C7_7 
REMARK    3  A    between atoms: C6_6  and  N8_8 
ROOT
HETATM    1  N8  UNL     1     -34.480  15.580  -6.172  1.00 20.00     0.097 N 
HETATM    2  H23 UNL     1     -34.313  16.265  -6.906  1.00 20.00     0.316 HD
ENDROOT
BRANCH   1   3
HETATM    3  C2  UNL     1     -33.600  15.885  -5.039  1.00 20.00     0.229 A 
HETATM    4  C1  UNL     1     -33.273  14.815  -4.032  1.00 20.00     0.047 A 
HETATM    5  C3  UNL     1     -34.135  15.987  -3.621  1.00 20.00    -0.015 A 
HETATM    6  C4  UNL     1     -33.524  17.031  -2.724  1.00 20.00     0.017 C 
HETATM    7  C5  UNL     1     -35.594  15.723  -3.351  1.00 20.00     0.017 C 
ENDBRANCH   1   3
BRANCH   1   8
HETATM    8  C6  UNL     1     -34.216  14.244  -6.679  1.00 20.00     0.386 C 
BRANCH   8   9
HETATM    9  C7  UNL     1     -35.451  13.379  -6.637  1.00 20.00     0.413 C 
HETATM   10  F9  UNL     1     -35.251  12.238  -7.332  1.00 20.00    -0.169 F 
HETATM   11  F10 UNL     1     -35.770  13.037  -5.371  1.00 20.00    -0.169 F 
HETATM   12  F11 UNL     1     -36.514  14.010  -7.182  1.00 20.00    -0.169 F 
ENDBRANCH   8   9
ENDBRANCH   1   8
TORSDOF 3
ENDMDL
