MODEL 1
REMARK VINA RESULT:      -5.3      0.000      0.000
REMARK  0 active torsions:
REMARK  status: ('A' for Active; 'I' for Inactive)
ROOT
HETATM    1  C1  UNL     1     -32.063   8.390   4.540  1.00 20.00     0.035 A 
HETATM    2  C2  UNL     1     -31.583   8.800   3.293  1.00 20.00     0.026 A 
HETATM    3  C3  UNL     1     -33.039   7.219   2.172  1.00 20.00     0.045 A 
HETATM    4  C4  UNL     1     -33.046   7.380   4.616  1.00 20.00     0.077 A 
HETATM    5  C5  UNL     1     -33.518   6.812   3.428  1.00 20.00     0.039 A 
HETATM    6  C6  UNL     1     -32.066   8.220   2.126  1.00 20.00     0.035 A 
HETATM    7  C7  UNL     1     -34.491   5.948   5.471  1.00 20.00     0.253 A 
HETATM    8  N8  UNL     1     -33.613   6.875   5.778  1.00 20.00    -0.213 NA
HETATM    9  F9  UNL     1     -35.186   5.296   6.414  1.00 20.00    -0.176 F 
HETATM   10  S10 UNL     1     -34.701   5.617   3.806  1.00 20.00    -0.037 SA
HETATM   11 CL11 UNL     1     -31.462   8.743   0.599  1.00 20.00    -0.084 Cl
ENDROOT
TORSDOF 0
ENDMDL
MODEL 2
REMARK VINA RESULT:      -4.5     11.884     12.105
REMARK  0 active torsions:
REMARK  status: ('A' for Active; 'I' for Inactive)
ROOT
HETATM    1  C1  UNL     1     -33.400  15.364  -4.097  1.00 20.00     0.035 A 
HETATM    2  C2  UNL     1     -33.782  16.173  -3.024  1.00 20.00     0.026 A 
HETATM    3  C3  UNL     1     -36.122  15.731  -3.476  1.00 20.00     0.045 A 
HETATM    4  C4  UNL     1     -34.385  14.724  -4.879  1.00 20.00     0.077 A 
HETATM    5  C5  UNL     1     -35.731  14.919  -4.553  1.00 20.00     0.039 A 
HETATM    6  C6  UNL     1     -35.126  16.353  -2.719  1.00 20.00     0.035 A 
HETATM    7  C7  UNL     1     -35.303  13.478  -6.452  1.00 20.00     0.253 A 
HETATM    8  N8  UNL     1     -34.156  13.895  -5.968  1.00 20.00    -0.213 NA
HETATM    9  F9  UNL     1     -35.364  12.660  -7.512  1.00 20.00    -0.176 F 
HETATM   10  S10 UNL     1     -36.713  14.031  -5.657  1.00 20.00    -0.037 SA
HETATM   11 CL11 UNL     1     -35.574  17.354  -1.389  1.00 20.00    -0.084 Cl
ENDROOT
TORSDOF 0
ENDMDL
MODEL 3
REMARK VINA RESULT:      -4.3      3.882      4.797
REMARK  0 active torsions:
REMARK  status: ('A' for Active; 'I' for Inactive)
ROOT
HETATM    1  C1  UNL     1     -34.331   6.032   2.548  1.00 20.00     0.035 A 
HETATM    2  C2  UNL     1     -34.827   5.552   3.763  1.00 20.00     0.026 A 
HETATM    3  C3  UNL     1     -33.329   7.008   4.993  1.00 20.00     0.045 A 
HETATM    4  C4  UNL     1     -33.318   7.014   2.544  1.00 20.00     0.077 A 
HETATM    5  C5  UNL     1     -32.835   7.486   3.769  1.00 20.00     0.039 A 
HETATM    6  C6  UNL     1     -34.331   6.035   4.969  1.00 20.00     0.035 A 
HETATM    7  C7  UNL     1     -31.829   8.459   1.792  1.00 20.00     0.253 A 
HETATM    8  N8  UNL     1     -32.732   7.582   1.421  1.00 20.00    -0.213 NA
HETATM    9  F9  UNL     1     -31.112   9.154   0.897  1.00 20.00    -0.176 F 
HETATM   10  S10 UNL     1     -31.616   8.669   3.476  1.00 20.00    -0.037 SA
HETATM   11 CL11 UNL     1     -34.960   5.430   6.455  1.00 20.00    -0.084 Cl
ENDROOT
TORSDOF 0
ENDMDL
MODEL 4
REMARK VINA RESULT:      -4.3     11.960     12.727
REMARK  0 active torsions:
REMARK  status: ('A' for Active; 'I' for Inactive)
ROOT
HETATM    1  C1  UNL     1     -34.543  15.120  -3.658  1.00 20.00     0.035 A 
HETATM    2  C2  UNL     1     -34.081  16.397  -3.330  1.00 20.00     0.026 A 
HETATM    3  C3  UNL     1     -33.633  16.875  -5.664  1.00 20.00     0.045 A 
HETATM    4  C4  UNL     1     -34.555  14.704  -5.006  1.00 20.00     0.077 A 
HETATM    5  C5  UNL     1     -34.099  15.591  -5.987  1.00 20.00     0.039 A 
HETATM    6  C6  UNL     1     -33.632  17.262  -4.321  1.00 20.00     0.035 A 
HETATM    7  C7  UNL     1     -34.853  13.432  -6.785  1.00 20.00     0.253 A 
HETATM    8  N8  UNL     1     -34.984  13.471  -5.480  1.00 20.00    -0.213 NA
HETATM    9  F9  UNL     1     -35.197  12.348  -7.495  1.00 20.00    -0.176 F 
HETATM   10  S10 UNL     1     -34.221  14.836  -7.531  1.00 20.00    -0.037 SA
HETATM   11 CL11 UNL     1     -33.069  18.833  -3.893  1.00 20.00    -0.084 Cl
ENDROOT
TORSDOF 0
ENDMDL
MODEL 5
REMARK VINA RESULT:      -4.3      1.361      2.038
REMARK  0 active torsions:
REMARK  status: ('A' for Active; 'I' for Inactive)
ROOT
HETATM    1  C1  UNL     1     -33.702   5.860   2.192  1.00 20.00     0.035 A 
HETATM    2  C2  UNL     1     -33.020   6.863   1.497  1.00 20.00     0.026 A 
HETATM    3  C3  UNL     1     -32.753   8.145   3.538  1.00 20.00     0.045 A 
HETATM    4  C4  UNL     1     -33.918   5.991   3.580  1.00 20.00     0.077 A 
HETATM    5  C5  UNL     1     -33.438   7.133   4.229  1.00 20.00     0.039 A 
HETATM    6  C6  UNL     1     -32.553   7.990   2.164  1.00 20.00     0.035 A 
HETATM    7  C7  UNL     1     -34.589   5.528   5.630  1.00 20.00     0.253 A 
HETATM    8  N8  UNL     1     -34.574   5.080   4.396  1.00 20.00    -0.213 NA
HETATM    9  F9  UNL     1     -35.165   4.835   6.624  1.00 20.00    -0.176 F 
HETATM   10  S10 UNL     1     -33.834   7.038   5.904  1.00 20.00    -0.037 SA
HETATM   11 CL11 UNL     1     -31.712   9.213   1.287  1.00 20.00    -0.084 Cl
ENDROOT
TORSDOF 0
ENDMDL
MODEL 6
REMARK VINA RESULT:      -4.2     11.802     12.365
REMARK  0 active torsions:
REMARK  status: ('A' for Active; 'I' for Inactive)
ROOT
HETATM    1  C1  UNL     1     -35.461  14.070  -4.656  1.00 20.00     0.035 A 
HETATM    2  C2  UNL     1     -34.457  14.748  -3.959  1.00 20.00     0.026 A 
HETATM    3  C3  UNL     1     -36.015  16.502  -3.348  1.00 20.00     0.045 A 
HETATM    4  C4  UNL     1     -36.765  14.607  -4.706  1.00 20.00     0.077 A 
HETATM    5  C5  UNL     1     -37.019  15.815  -4.049  1.00 20.00     0.039 A 
HETATM    6  C6  UNL     1     -34.733  15.948  -3.314  1.00 20.00     0.035 A 
HETATM    7  C7  UNL     1     -38.907  14.818  -5.193  1.00 20.00     0.253 A 
HETATM    8  N8  UNL     1     -37.856  14.048  -5.356  1.00 20.00    -0.213 NA
HETATM    9  F9  UNL     1     -40.098  14.506  -5.723  1.00 20.00    -0.176 F 
HETATM   10  S10 UNL     1     -38.675  16.239  -4.269  1.00 20.00    -0.037 SA
HETATM   11 CL11 UNL     1     -33.480  16.766  -2.458  1.00 20.00    -0.084 Cl
ENDROOT
TORSDOF 0
ENDMDL
MODEL 7
REMARK VINA RESULT:      -4.2     11.552     12.295
REMARK  0 active torsions:
REMARK  status: ('A' for Active; 'I' for Inactive)
ROOT
HETATM    1  C1  UNL     1     -36.628  13.752  -5.380  1.00 20.00     0.035 A 
HETATM    2  C2  UNL     1     -37.839  14.416  -5.173  1.00 20.00     0.026 A 
HETATM    3  C3  UNL     1     -36.724  16.114  -3.850  1.00 20.00     0.045 A 
HETATM    4  C4  UNL     1     -35.440  14.267  -4.817  1.00 20.00     0.077 A 
HETATM    5  C5  UNL     1     -35.510  15.442  -4.061  1.00 20.00     0.039 A 
HETATM    6  C6  UNL     1     -37.885  15.583  -4.418  1.00 20.00     0.035 A 
HETATM    7  C7  UNL     1     -33.307  14.461  -4.287  1.00 20.00     0.253 A 
HETATM    8  N8  UNL     1     -34.171  13.718  -4.938  1.00 20.00    -0.213 NA
HETATM    9  F9  UNL     1     -32.003  14.152  -4.244  1.00 20.00    -0.176 F 
HETATM   10  S10 UNL     1     -33.932  15.845  -3.499  1.00 20.00    -0.037 SA
HETATM   11 CL11 UNL     1     -39.390  16.387  -4.178  1.00 20.00    -0.084 Cl
ENDROOT
TORSDOF 0
ENDMDL
MODEL 8
REMARK VINA RESULT:      -4.2     11.888     12.124
REMARK  0 active torsions:
REMARK  status: ('A' for Active; 'I' for Inactive)
ROOT
HETATM    1  C1  UNL     1     -35.577  17.085  -1.009  1.00 20.00     0.035 A 
HETATM    2  C2  UNL     1     -34.695  17.779  -0.177  1.00 20.00     0.026 A 
HETATM    3  C3  UNL     1     -32.960  17.677  -1.868  1.00 20.00     0.045 A 
HETATM    4  C4  UNL     1     -35.154  16.675  -2.292  1.00 20.00     0.077 A 
HETATM    5  C5  UNL     1     -33.852  16.980  -2.699  1.00 20.00     0.039 A 
HETATM    6  C6  UNL     1     -33.403  18.071  -0.603  1.00 20.00     0.035 A 
HETATM    7  C7  UNL     1     -35.203  15.770  -4.304  1.00 20.00     0.253 A 
HETATM    8  N8  UNL     1     -35.917  15.982  -3.222  1.00 20.00    -0.213 NA
HETATM    9  F9  UNL     1     -35.706  15.117  -5.362  1.00 20.00    -0.176 F 
HETATM   10  S10 UNL     1     -33.602  16.370  -4.292  1.00 20.00    -0.037 SA
HETATM   11 CL11 UNL     1     -32.334  18.931   0.439  1.00 20.00    -0.084 Cl
ENDROOT
TORSDOF 0
ENDMDL
MODEL 9
REMARK VINA RESULT:      -4.1     12.089     12.353
REMARK  0 active torsions:
REMARK  status: ('A' for Active; 'I' for Inactive)
ROOT
HETATM    1  C1  UNL     1     -36.176  16.261  -2.989  1.00 20.00     0.035 A 
HETATM    2  C2  UNL     1     -35.712  16.942  -1.860  1.00 20.00     0.026 A 
HETATM    3  C3  UNL     1     -33.426  16.770  -2.649  1.00 20.00     0.045 A 
HETATM    4  C4  UNL     1     -35.260  15.823  -3.969  1.00 20.00     0.077 A 
HETATM    5  C5  UNL     1     -33.899  16.087  -3.781  1.00 20.00     0.039 A 
HETATM    6  C6  UNL     1     -34.354  17.192  -1.694  1.00 20.00     0.035 A 
HETATM    7  C7  UNL     1     -34.473  14.894  -5.809  1.00 20.00     0.253 A 
HETATM    8  N8  UNL     1     -35.573  15.140  -5.136  1.00 20.00    -0.213 NA
HETATM    9  F9  UNL     1     -34.496  14.242  -6.980  1.00 20.00    -0.176 F 
HETATM   10  S10 UNL     1     -33.012  15.450  -5.115  1.00 20.00    -0.037 SA
HETATM   11 CL11 UNL     1     -33.806  18.035  -0.295  1.00 20.00    -0.084 Cl
ENDROOT
TORSDOF 0
ENDMDL
