MODEL 1
REMARK VINA RESULT:      -4.8      0.000      0.000
REMARK  0 active torsions:
REMARK  status: ('A' for Active; 'I' for Inactive)
ROOT
HETATM    1  C1  UNL     1     -34.771  14.750  -4.088  1.00 20.00     0.060 A 
HETATM    2  C2  UNL     1     -33.548  16.216  -6.159  1.00 20.00     0.065 A 
HETATM    3  C3  UNL     1     -35.152  12.878  -7.098  1.00 20.00     0.167 A 
HETATM    4  C4  UNL     1     -34.774  14.236  -5.401  1.00 20.00     0.076 A 
HETATM    5  C5  UNL     1     -33.558  16.703  -4.850  1.00 20.00     0.139 A 
HETATM    6  C6  UNL     1     -34.162  14.979  -6.415  1.00 20.00     0.038 A 
HETATM    7  C7  UNL     1     -34.162  15.981  -3.825  1.00 20.00     0.074 A 
HETATM    8  N8  UNL     1     -35.337  13.035  -5.809  1.00 20.00    -0.253 NA
HETATM    9  F9  UNL     1     -32.974  17.883  -4.595  1.00 20.00    -0.204 F 
HETATM   10  S10 UNL     1     -34.309  14.128  -7.907  1.00 20.00    -0.080 SA
HETATM   11 CL11 UNL     1     -34.163  16.600  -2.217  1.00 20.00    -0.081 Cl
ENDROOT
TORSDOF 0
ENDMDL
MODEL 2
REMARK VINA RESULT:      -4.4      2.831      3.246
REMARK  0 active torsions:
REMARK  status: ('A' for Active; 'I' for Inactive)
ROOT
HETATM    1  C1  UNL     1     -35.219  13.971  -4.802  1.00 20.00     0.060 A 
HETATM    2  C2  UNL     1     -35.795  16.300  -3.325  1.00 20.00     0.065 A 
HETATM    3  C3  UNL     1     -38.689  14.677  -5.220  1.00 20.00     0.167 A 
HETATM    4  C4  UNL     1     -36.534  14.482  -4.790  1.00 20.00     0.076 A 
HETATM    5  C5  UNL     1     -34.501  15.774  -3.353  1.00 20.00     0.139 A 
HETATM    6  C6  UNL     1     -36.799  15.638  -4.050  1.00 20.00     0.038 A 
HETATM    7  C7  UNL     1     -34.214  14.624  -4.081  1.00 20.00     0.074 A 
HETATM    8  N8  UNL     1     -37.627  13.944  -5.454  1.00 20.00    -0.253 NA
HETATM    9  F9  UNL     1     -33.535  16.399  -2.663  1.00 20.00    -0.204 F 
HETATM   10  S10 UNL     1     -38.468  16.040  -4.208  1.00 20.00    -0.080 SA
HETATM   11 CL11 UNL     1     -32.611  13.993  -4.103  1.00 20.00    -0.081 Cl
ENDROOT
TORSDOF 0
ENDMDL
MODEL 3
REMARK VINA RESULT:      -4.2      2.308      2.693
REMARK  0 active torsions:
REMARK  status: ('A' for Active; 'I' for Inactive)
ROOT
HETATM    1  C1  UNL     1     -34.056  15.494  -3.421  1.00 20.00     0.060 A 
HETATM    2  C2  UNL     1     -36.677  16.523  -3.498  1.00 20.00     0.065 A 
HETATM    3  C3  UNL     1     -35.982  13.369  -5.539  1.00 20.00     0.167 A 
HETATM    4  C4  UNL     1     -35.039  14.841  -4.193  1.00 20.00     0.076 A 
HETATM    5  C5  UNL     1     -35.686  17.152  -2.741  1.00 20.00     0.139 A 
HETATM    6  C6  UNL     1     -36.333  15.367  -4.217  1.00 20.00     0.038 A 
HETATM    7  C7  UNL     1     -34.391  16.645  -2.701  1.00 20.00     0.074 A 
HETATM    8  N8  UNL     1     -34.854  13.696  -4.954  1.00 20.00    -0.253 NA
HETATM    9  F9  UNL     1     -36.003  18.257  -2.050  1.00 20.00    -0.204 F 
HETATM   10  S10 UNL     1     -37.325  14.384  -5.229  1.00 20.00    -0.080 SA
HETATM   11 CL11 UNL     1     -33.182  17.437  -1.761  1.00 20.00    -0.081 Cl
ENDROOT
TORSDOF 0
ENDMDL
MODEL 4
REMARK VINA RESULT:      -4.1     11.747     12.487
REMARK  0 active torsions:
REMARK  status: ('A' for Active; 'I' for Inactive)
ROOT
HETATM    1  C1  UNL     1     -33.017   6.628   2.260  1.00 20.00     0.060 A 
HETATM    2  C2  UNL     1     -32.731   7.979   4.715  1.00 20.00     0.065 A 
HETATM    3  C3  UNL     1     -34.863   4.809   4.708  1.00 20.00     0.167 A 
HETATM    4  C4  UNL     1     -33.651   6.121   3.413  1.00 20.00     0.076 A 
HETATM    5  C5  UNL     1     -32.113   8.462   3.559  1.00 20.00     0.139 A 
HETATM    6  C6  UNL     1     -33.496   6.806   4.621  1.00 20.00     0.038 A 
HETATM    7  C7  UNL     1     -32.252   7.796   2.346  1.00 20.00     0.074 A 
HETATM    8  N8  UNL     1     -34.436   4.978   3.479  1.00 20.00    -0.253 NA
HETATM    9  F9  UNL     1     -31.380   9.582   3.638  1.00 20.00    -0.204 F 
HETATM   10  S10 UNL     1     -34.369   5.976   5.857  1.00 20.00    -0.080 SA
HETATM   11 CL11 UNL     1     -31.482   8.409   0.931  1.00 20.00    -0.081 Cl
ENDROOT
TORSDOF 0
ENDMDL
MODEL 5
REMARK VINA RESULT:      -4.1      6.836      8.107
REMARK  0 active torsions:
REMARK  status: ('A' for Active; 'I' for Inactive)
ROOT
HETATM    1  C1  UNL     1     -32.127  18.297  -0.517  1.00 20.00     0.060 A 
HETATM    2  C2  UNL     1     -34.282  18.386   1.296  1.00 20.00     0.065 A 
HETATM    3  C3  UNL     1     -30.818  19.242   2.662  1.00 20.00     0.167 A 
HETATM    4  C4  UNL     1     -31.892  18.648   0.829  1.00 20.00     0.076 A 
HETATM    5  C5  UNL     1     -34.488  18.041  -0.042  1.00 20.00     0.139 A 
HETATM    6  C6  UNL     1     -32.975  18.687   1.712  1.00 20.00     0.038 A 
HETATM    7  C7  UNL     1     -33.426  17.997  -0.939  1.00 20.00     0.074 A 
HETATM    8  N8  UNL     1     -30.663  18.969   1.388  1.00 20.00    -0.253 NA
HETATM    9  F9  UNL     1     -35.733  17.752  -0.451  1.00 20.00    -0.204 F 
HETATM   10  S10 UNL     1     -32.411  19.139   3.278  1.00 20.00    -0.080 SA
HETATM   11 CL11 UNL     1     -33.702  17.568  -2.586  1.00 20.00    -0.081 Cl
ENDROOT
TORSDOF 0
ENDMDL
MODEL 6
REMARK VINA RESULT:      -4.0      1.804      2.295
REMARK  0 active torsions:
REMARK  status: ('A' for Active; 'I' for Inactive)
ROOT
HETATM    1  C1  UNL     1     -33.486  16.532  -5.489  1.00 20.00     0.060 A 
HETATM    2  C2  UNL     1     -35.174  14.645  -4.255  1.00 20.00     0.065 A 
HETATM    3  C3  UNL     1     -34.272  14.043  -7.918  1.00 20.00     0.167 A 
HETATM    4  C4  UNL     1     -33.955  15.427  -6.229  1.00 20.00     0.076 A 
HETATM    5  C5  UNL     1     -34.697  15.748  -3.543  1.00 20.00     0.139 A 
HETATM    6  C6  UNL     1     -34.791  14.502  -5.598  1.00 20.00     0.038 A 
HETATM    7  C7  UNL     1     -33.862  16.681  -4.151  1.00 20.00     0.074 A 
HETATM    8  N8  UNL     1     -33.667  15.150  -7.558  1.00 20.00    -0.253 NA
HETATM    9  F9  UNL     1     -35.056  15.895  -2.259  1.00 20.00    -0.204 F 
HETATM   10  S10 UNL     1     -35.214  13.263  -6.721  1.00 20.00    -0.080 SA
HETATM   11 CL11 UNL     1     -33.285  18.036  -3.255  1.00 20.00    -0.081 Cl
ENDROOT
TORSDOF 0
ENDMDL
MODEL 7
REMARK VINA RESULT:      -4.0      5.130      6.297
REMARK  0 active torsions:
REMARK  status: ('A' for Active; 'I' for Inactive)
ROOT
HETATM    1  C1  UNL     1     -35.543  17.040  -0.994  1.00 20.00     0.060 A 
HETATM    2  C2  UNL     1     -32.920  17.816  -1.670  1.00 20.00     0.065 A 
HETATM    3  C3  UNL     1     -34.193  18.808   1.793  1.00 20.00     0.167 A 
HETATM    4  C4  UNL     1     -34.767  17.763  -0.063  1.00 20.00     0.076 A 
HETATM    5  C5  UNL     1     -33.708  17.100  -2.574  1.00 20.00     0.139 A 
HETATM    6  C6  UNL     1     -33.468  18.138  -0.418  1.00 20.00     0.038 A 
HETATM    7  C7  UNL     1     -35.003  16.715  -2.243  1.00 20.00     0.074 A 
HETATM    8  N8  UNL     1     -35.167  18.154   1.207  1.00 20.00    -0.253 NA
HETATM    9  F9  UNL     1     -33.194  16.788  -3.773  1.00 20.00    -0.204 F 
HETATM   10  S10 UNL     1     -32.752  19.002   0.891  1.00 20.00    -0.080 SA
HETATM   11 CL11 UNL     1     -35.959  15.833  -3.373  1.00 20.00    -0.081 Cl
ENDROOT
TORSDOF 0
ENDMDL
MODEL 8
REMARK VINA RESULT:      -4.0      1.613      1.834
REMARK  0 active torsions:
REMARK  status: ('A' for Active; 'I' for Inactive)
ROOT
HETATM    1  C1  UNL     1     -36.237  15.737  -3.441  1.00 20.00     0.060 A 
HETATM    2  C2  UNL     1     -33.530  15.641  -4.216  1.00 20.00     0.065 A 
HETATM    3  C3  UNL     1     -36.062  13.938  -6.515  1.00 20.00     0.167 A 
HETATM    4  C4  UNL     1     -35.876  15.078  -4.635  1.00 20.00     0.076 A 
HETATM    5  C5  UNL     1     -33.913  16.287  -3.038  1.00 20.00     0.139 A 
HETATM    6  C6  UNL     1     -34.528  15.042  -5.001  1.00 20.00     0.038 A 
HETATM    7  C7  UNL     1     -35.249  16.336  -2.654  1.00 20.00     0.074 A 
HETATM    8  N8  UNL     1     -36.742  14.441  -5.513  1.00 20.00    -0.253 NA
HETATM    9  F9  UNL     1     -32.968  16.863  -2.280  1.00 20.00    -0.204 F 
HETATM   10  S10 UNL     1     -34.369  14.182  -6.488  1.00 20.00    -0.080 SA
HETATM   11 CL11 UNL     1     -35.701  17.138  -1.196  1.00 20.00    -0.081 Cl
ENDROOT
TORSDOF 0
ENDMDL
MODEL 9
REMARK VINA RESULT:      -4.0      3.530      4.287
REMARK  0 active torsions:
REMARK  status: ('A' for Active; 'I' for Inactive)
ROOT
HETATM    1  C1  UNL     1     -35.513  17.040  -0.941  1.00 20.00     0.060 A 
HETATM    2  C2  UNL     1     -32.967  17.811  -1.869  1.00 20.00     0.065 A 
HETATM    3  C3  UNL     1     -35.179  15.843  -4.283  1.00 20.00     0.167 A 
HETATM    4  C4  UNL     1     -35.112  16.693  -2.249  1.00 20.00     0.076 A 
HETATM    5  C5  UNL     1     -33.387  18.142  -0.578  1.00 20.00     0.139 A 
HETATM    6  C6  UNL     1     -33.846  17.086  -2.690  1.00 20.00     0.038 A 
HETATM    7  C7  UNL     1     -34.644  17.763  -0.118  1.00 20.00     0.074 A 
HETATM    8  N8  UNL     1     -35.864  15.982  -3.173  1.00 20.00    -0.253 NA
HETATM    9  F9  UNL     1     -32.556  18.835   0.214  1.00 20.00    -0.204 F 
HETATM   10  S10 UNL     1     -33.615  16.536  -4.308  1.00 20.00    -0.080 SA
HETATM   11 CL11 UNL     1     -35.142  18.181   1.478  1.00 20.00    -0.081 Cl
ENDROOT
TORSDOF 0
ENDMDL
