MODEL 1
REMARK VINA RESULT:      -5.4      0.000      0.000
REMARK  0 active torsions:
REMARK  status: ('A' for Active; 'I' for Inactive)
ROOT
HETATM    1  C1  UNL     1     -36.460  15.758  -3.752  1.00 20.00     0.042 C 
HETATM    2  C2  UNL     1     -35.287  18.182  -1.005  1.00 20.00    -0.026 A 
HETATM    3  C3  UNL     1     -33.958  18.036  -1.080  1.00 20.00    -0.026 A 
HETATM    4  C4  UNL     1     -35.585  16.473  -2.837  1.00 20.00    -0.050 A 
HETATM    5  C5  UNL     1     -34.242  16.321  -2.916  1.00 20.00    -0.067 A 
HETATM    6  C6  UNL     1     -35.981  14.727  -4.459  1.00 20.00     0.079 C 
HETATM    7  C7  UNL     1     -36.248  17.424  -1.873  1.00 20.00     0.065 A 
HETATM    8  C8  UNL     1     -33.288  17.095  -2.039  1.00 20.00     0.061 A 
HETATM    9  C9  UNL     1     -33.612  15.362  -3.909  1.00 20.00     0.074 C 
HETATM   10  C10 UNL     1     -35.602  13.407  -6.161  1.00 20.00     0.345 C 
HETATM   11  C11 UNL     1     -34.578  14.262  -4.353  1.00 20.00     0.184 C 
HETATM   12  O12 UNL     1     -36.657  14.104  -5.482  1.00 20.00    -0.328 OA
HETATM   13  O13 UNL     1     -34.313  13.808  -5.675  1.00 20.00    -0.354 OA
ENDROOT
TORSDOF 0
ENDMDL
MODEL 2
REMARK VINA RESULT:      -5.4     10.883     11.643
REMARK  0 active torsions:
REMARK  status: ('A' for Active; 'I' for Inactive)
ROOT
HETATM    1  C1  UNL     1     -33.381   6.607   2.063  1.00 20.00     0.042 C 
HETATM    2  C2  UNL     1     -34.708   4.645   5.094  1.00 20.00    -0.026 A 
HETATM    3  C3  UNL     1     -34.472   5.511   6.087  1.00 20.00    -0.026 A 
HETATM    4  C4  UNL     1     -33.691   6.255   3.440  1.00 20.00    -0.050 A 
HETATM    5  C5  UNL     1     -33.449   7.133   4.441  1.00 20.00    -0.067 A 
HETATM    6  C6  UNL     1     -32.582   7.651   1.810  1.00 20.00     0.079 C 
HETATM    7  C7  UNL     1     -34.350   4.918   3.662  1.00 20.00     0.065 A 
HETATM    8  C8  UNL     1     -33.820   6.846   5.875  1.00 20.00     0.061 A 
HETATM    9  C9  UNL     1     -32.794   8.476   4.175  1.00 20.00     0.074 C 
HETATM   10  C10 UNL     1     -31.829   9.476   0.869  1.00 20.00     0.345 C 
HETATM   11  C11 UNL     1     -31.980   8.482   2.878  1.00 20.00     0.184 C 
HETATM   12  O12 UNL     1     -32.373   8.185   0.560  1.00 20.00    -0.328 OA
HETATM   13  O13 UNL     1     -31.939   9.768   2.270  1.00 20.00    -0.354 OA
ENDROOT
TORSDOF 0
ENDMDL
MODEL 3
REMARK VINA RESULT:      -5.3      4.396      6.420
REMARK  0 active torsions:
REMARK  status: ('A' for Active; 'I' for Inactive)
ROOT
HETATM    1  C1  UNL     1     -34.087  18.270   1.206  1.00 20.00     0.042 C 
HETATM    2  C2  UNL     1     -35.884  17.043  -1.966  1.00 20.00    -0.026 A 
HETATM    3  C3  UNL     1     -34.859  16.941  -2.822  1.00 20.00    -0.026 A 
HETATM    4  C4  UNL     1     -34.313  17.871  -0.175  1.00 20.00    -0.050 A 
HETATM    5  C5  UNL     1     -33.275  17.771  -1.037  1.00 20.00    -0.067 A 
HETATM    6  C6  UNL     1     -32.922  18.833   1.550  1.00 20.00     0.079 C 
HETATM    7  C7  UNL     1     -35.729  17.513  -0.550  1.00 20.00     0.065 A 
HETATM    8  C8  UNL     1     -33.446  17.291  -2.457  1.00 20.00     0.061 A 
HETATM    9  C9  UNL     1     -31.860  18.129  -0.617  1.00 20.00     0.074 C 
HETATM   10  C10 UNL     1     -31.113  19.263   2.702  1.00 20.00     0.345 C 
HETATM   11  C11 UNL     1     -31.830  19.082   0.580  1.00 20.00     0.184 C 
HETATM   12  O12 UNL     1     -32.528  19.076   2.846  1.00 20.00    -0.328 OA
HETATM   13  O13 UNL     1     -30.670  18.906   1.384  1.00 20.00    -0.354 OA
ENDROOT
TORSDOF 0
ENDMDL
MODEL 4
REMARK VINA RESULT:      -5.3      2.208      3.275
REMARK  0 active torsions:
REMARK  status: ('A' for Active; 'I' for Inactive)
ROOT
HETATM    1  C1  UNL     1     -35.577  17.104  -0.998  1.00 20.00     0.042 C 
HETATM    2  C2  UNL     1     -34.182  18.684   2.220  1.00 20.00    -0.026 A 
HETATM    3  C3  UNL     1     -32.978  19.097   1.806  1.00 20.00    -0.026 A 
HETATM    4  C4  UNL     1     -34.653  17.738  -0.070  1.00 20.00    -0.050 A 
HETATM    5  C5  UNL     1     -33.436  18.153  -0.493  1.00 20.00    -0.067 A 
HETATM    6  C6  UNL     1     -35.128  16.649  -2.174  1.00 20.00     0.079 C 
HETATM    7  C7  UNL     1     -35.155  17.963   1.333  1.00 20.00     0.065 A 
HETATM    8  C8  UNL     1     -32.472  18.881   0.410  1.00 20.00     0.061 A 
HETATM    9  C9  UNL     1     -32.972  17.917  -1.919  1.00 20.00     0.074 C 
HETATM   10  C10 UNL     1     -35.046  16.252  -4.324  1.00 20.00     0.345 C 
HETATM   11  C11 UNL     1     -33.709  16.755  -2.589  1.00 20.00     0.184 C 
HETATM   12  O12 UNL     1     -35.934  16.208  -3.197  1.00 20.00    -0.328 OA
HETATM   13  O13 UNL     1     -33.822  16.926  -3.998  1.00 20.00    -0.354 OA
ENDROOT
TORSDOF 0
ENDMDL
MODEL 5
REMARK VINA RESULT:      -5.2      1.591      1.919
REMARK  0 active torsions:
REMARK  status: ('A' for Active; 'I' for Inactive)
ROOT
HETATM    1  C1  UNL     1     -35.119  14.640  -4.102  1.00 20.00     0.042 C 
HETATM    2  C2  UNL     1     -34.012  17.745  -2.121  1.00 20.00    -0.026 A 
HETATM    3  C3  UNL     1     -33.442  18.479  -3.085  1.00 20.00    -0.026 A 
HETATM    4  C4  UNL     1     -34.501  15.919  -3.790  1.00 20.00    -0.050 A 
HETATM    5  C5  UNL     1     -33.924  16.656  -4.768  1.00 20.00    -0.067 A 
HETATM    6  C6  UNL     1     -34.857  14.044  -5.272  1.00 20.00     0.079 C 
HETATM    7  C7  UNL     1     -34.607  16.389  -2.362  1.00 20.00     0.065 A 
HETATM    8  C8  UNL     1     -33.335  18.021  -4.510  1.00 20.00     0.061 A 
HETATM    9  C9  UNL     1     -33.847  16.152  -6.197  1.00 20.00     0.074 C 
HETATM   10  C10 UNL     1     -35.192  12.966  -7.145  1.00 20.00     0.345 C 
HETATM   11  C11 UNL     1     -33.947  14.627  -6.286  1.00 20.00     0.184 C 
HETATM   12  O12 UNL     1     -35.522  12.939  -5.749  1.00 20.00    -0.328 OA
HETATM   13  O13 UNL     1     -34.539  14.193  -7.504  1.00 20.00    -0.354 OA
ENDROOT
TORSDOF 0
ENDMDL
MODEL 6
REMARK VINA RESULT:      -5.2      1.737      2.384
REMARK  0 active torsions:
REMARK  status: ('A' for Active; 'I' for Inactive)
ROOT
HETATM    1  C1  UNL     1     -33.643  16.570  -6.088  1.00 20.00     0.042 C 
HETATM    2  C2  UNL     1     -33.247  18.896  -3.049  1.00 20.00    -0.026 A 
HETATM    3  C3  UNL     1     -33.575  18.071  -2.047  1.00 20.00    -0.026 A 
HETATM    4  C4  UNL     1     -33.678  17.052  -4.716  1.00 20.00    -0.050 A 
HETATM    5  C5  UNL     1     -34.011  16.215  -3.706  1.00 20.00    -0.067 A 
HETATM    6  C6  UNL     1     -34.230  15.407  -6.397  1.00 20.00     0.079 C 
HETATM    7  C7  UNL     1     -33.257  18.482  -4.492  1.00 20.00     0.065 A 
HETATM    8  C8  UNL     1     -33.991  16.645  -2.259  1.00 20.00     0.061 A 
HETATM    9  C9  UNL     1     -34.418  14.777  -3.971  1.00 20.00     0.074 C 
HETATM   10  C10 UNL     1     -34.527  13.435  -7.294  1.00 20.00     0.345 C 
HETATM   11  C11 UNL     1     -34.932  14.569  -5.398  1.00 20.00     0.184 C 
HETATM   12  O12 UNL     1     -34.100  14.768  -7.608  1.00 20.00    -0.328 OA
HETATM   13  O13 UNL     1     -34.679  13.254  -5.879  1.00 20.00    -0.354 OA
ENDROOT
TORSDOF 0
ENDMDL
MODEL 7
REMARK VINA RESULT:      -5.1      5.256      7.592
REMARK  0 active torsions:
REMARK  status: ('A' for Active; 'I' for Inactive)
ROOT
HETATM    1  C1  UNL     1     -32.085  18.800   1.403  1.00 20.00     0.042 C 
HETATM    2  C2  UNL     1     -33.617  17.824  -1.989  1.00 20.00    -0.026 A 
HETATM    3  C3  UNL     1     -34.894  17.614  -1.645  1.00 20.00    -0.026 A 
HETATM    4  C4  UNL     1     -33.053  18.353   0.412  1.00 20.00    -0.050 A 
HETATM    5  C5  UNL     1     -34.342  18.140   0.764  1.00 20.00    -0.067 A 
HETATM    6  C6  UNL     1     -32.378  18.705   2.705  1.00 20.00     0.079 C 
HETATM    7  C7  UNL     1     -32.556  18.220  -1.004  1.00 20.00     0.065 A 
HETATM    8  C8  UNL     1     -35.399  17.748  -0.239  1.00 20.00     0.061 A 
HETATM    9  C9  UNL     1     -34.807  18.296   2.201  1.00 20.00     0.074 C 
HETATM   10  C10 UNL     1     -32.549  19.259   4.814  1.00 20.00     0.345 C 
HETATM   11  C11 UNL     1     -33.660  18.153   3.204  1.00 20.00     0.184 C 
HETATM   12  O12 UNL     1     -31.628  19.263   3.714  1.00 20.00    -0.328 OA
HETATM   13  O13 UNL     1     -33.875  18.918   4.385  1.00 20.00    -0.354 OA
ENDROOT
TORSDOF 0
ENDMDL
MODEL 8
REMARK VINA RESULT:      -5.1      0.345      2.126
REMARK  0 active torsions:
REMARK  status: ('A' for Active; 'I' for Inactive)
ROOT
HETATM    1  C1  UNL     1     -33.790  15.303  -3.982  1.00 20.00     0.042 C 
HETATM    2  C2  UNL     1     -33.921  17.914  -1.160  1.00 20.00    -0.026 A 
HETATM    3  C3  UNL     1     -35.242  18.093  -1.034  1.00 20.00    -0.026 A 
HETATM    4  C4  UNL     1     -34.317  16.270  -3.032  1.00 20.00    -0.050 A 
HETATM    5  C5  UNL     1     -35.653  16.449  -2.909  1.00 20.00    -0.067 A 
HETATM    6  C6  UNL     1     -34.584  14.818  -4.944  1.00 20.00     0.079 C 
HETATM    7  C7  UNL     1     -33.310  16.984  -2.167  1.00 20.00     0.065 A 
HETATM    8  C8  UNL     1     -36.252  17.385  -1.888  1.00 20.00     0.061 A 
HETATM    9  C9  UNL     1     -36.636  15.702  -3.791  1.00 20.00     0.074 C 
HETATM   10  C10 UNL     1     -35.533  13.375  -6.287  1.00 20.00     0.345 C 
HETATM   11  C11 UNL     1     -36.001  15.225  -5.100  1.00 20.00     0.184 C 
HETATM   12  O12 UNL     1     -34.253  13.771  -5.772  1.00 20.00    -0.328 OA
HETATM   13  O13 UNL     1     -36.602  14.033  -5.591  1.00 20.00    -0.354 OA
ENDROOT
TORSDOF 0
ENDMDL
MODEL 9
REMARK VINA RESULT:      -5.0      2.158      3.814
REMARK  0 active torsions:
REMARK  status: ('A' for Active; 'I' for Inactive)
ROOT
HETATM    1  C1  UNL     1     -32.918  17.724  -1.916  1.00 20.00     0.042 C 
HETATM    2  C2  UNL     1     -32.782  19.228   1.622  1.00 20.00    -0.026 A 
HETATM    3  C3  UNL     1     -33.985  18.882   2.097  1.00 20.00    -0.026 A 
HETATM    4  C4  UNL     1     -33.333  18.137  -0.584  1.00 20.00    -0.050 A 
HETATM    5  C5  UNL     1     -34.551  17.786  -0.109  1.00 20.00    -0.067 A 
HETATM    6  C6  UNL     1     -33.830  17.274  -2.785  1.00 20.00     0.079 C 
HETATM    7  C7  UNL     1     -32.318  18.893   0.234  1.00 20.00     0.065 A 
HETATM    8  C8  UNL     1     -35.000  18.126   1.291  1.00 20.00     0.061 A 
HETATM    9  C9  UNL     1     -35.541  17.013  -0.961  1.00 20.00     0.074 C 
HETATM   10  C10 UNL     1     -34.761  16.019  -4.317  1.00 20.00     0.345 C 
HETATM   11  C11 UNL     1     -35.273  17.175  -2.460  1.00 20.00     0.184 C 
HETATM   12  O12 UNL     1     -33.532  16.686  -3.993  1.00 20.00    -0.328 OA
HETATM   13  O13 UNL     1     -35.671  16.032  -3.208  1.00 20.00    -0.354 OA
ENDROOT
TORSDOF 0
ENDMDL
