MODEL 1
REMARK VINA RESULT:      -4.9      0.000      0.000
REMARK  1 active torsions:
REMARK  status: ('A' for Active; 'I' for Inactive)
REMARK    1  A    between atoms: C6_6  and  N7_7 
ROOT
HETATM    1  C1  UNL     1     -33.649   7.407   6.082  1.00 20.00     0.015 C 
HETATM    2  C2  UNL     1     -33.938   6.654   5.193  1.00 20.00    -0.084 C 
HETATM    3  C4  UNL     1     -34.380   4.296   4.614  1.00 20.00     0.055 C 
HETATM    4  C5  UNL     1     -35.599   6.152   3.431  1.00 20.00     0.055 C 
HETATM    5  C6  UNL     1     -34.295   5.731   4.104  1.00 20.00     0.112 C 
ENDROOT
BRANCH   5   6
HETATM    6  N7  UNL     1     -33.207   5.804   3.121  1.00 20.00    -0.224 NA
HETATM    7  C3  UNL     1     -32.994   6.885   2.718  1.00 20.00     0.333 C 
HETATM    8  O8  UNL     1     -32.777   7.966   2.311  1.00 20.00    -0.260 OA
ENDBRANCH   5   6
TORSDOF 1
ENDMDL
MODEL 2
REMARK VINA RESULT:      -4.3      1.333      1.566
REMARK  1 active torsions:
REMARK  status: ('A' for Active; 'I' for Inactive)
REMARK    1  A    between atoms: C6_6  and  N7_7 
ROOT
HETATM    1  C1  UNL     1     -34.674   4.962   5.871  1.00 20.00     0.015 C 
HETATM    2  C2  UNL     1     -34.318   5.408   4.815  1.00 20.00    -0.084 C 
HETATM    3  C4  UNL     1     -33.035   4.938   2.760  1.00 20.00     0.055 C 
HETATM    4  C5  UNL     1     -35.081   6.400   2.682  1.00 20.00     0.055 C 
HETATM    5  C6  UNL     1     -33.885   5.953   3.518  1.00 20.00     0.112 C 
ENDROOT
BRANCH   5   6
HETATM    6  N7  UNL     1     -33.047   7.121   3.815  1.00 20.00    -0.224 NA
HETATM    7  C3  UNL     1     -32.606   7.650   2.865  1.00 20.00     0.333 C 
HETATM    8  O8  UNL     1     -32.160   8.183   1.917  1.00 20.00    -0.260 OA
ENDBRANCH   5   6
TORSDOF 1
ENDMDL
MODEL 3
REMARK VINA RESULT:      -4.2      1.959      2.640
REMARK  1 active torsions:
REMARK  status: ('A' for Active; 'I' for Inactive)
REMARK    1  A    between atoms: C6_6  and  N7_7 
ROOT
HETATM    1  C1  UNL     1     -33.719   7.323   5.929  1.00 20.00     0.015 C 
HETATM    2  C2  UNL     1     -33.707   6.993   4.775  1.00 20.00    -0.084 C 
HETATM    3  C4  UNL     1     -35.109   6.535   2.795  1.00 20.00     0.055 C 
HETATM    4  C5  UNL     1     -32.810   7.523   2.532  1.00 20.00     0.055 C 
HETATM    5  C6  UNL     1     -33.692   6.591   3.359  1.00 20.00     0.112 C 
ENDROOT
BRANCH   5   6
HETATM    6  N7  UNL     1     -33.128   5.237   3.315  1.00 20.00    -0.224 NA
HETATM    7  C3  UNL     1     -33.787   4.424   3.845  1.00 20.00     0.333 C 
HETATM    8  O8  UNL     1     -34.443   3.605   4.375  1.00 20.00    -0.260 OA
ENDBRANCH   5   6
TORSDOF 1
ENDMDL
MODEL 4
REMARK VINA RESULT:      -4.0      1.341      2.438
REMARK  1 active torsions:
REMARK  status: ('A' for Active; 'I' for Inactive)
REMARK    1  A    between atoms: C6_6  and  N7_7 
ROOT
HETATM    1  C1  UNL     1     -32.898   4.286   2.479  1.00 20.00     0.015 C 
HETATM    2  C2  UNL     1     -33.533   4.950   3.253  1.00 20.00    -0.084 C 
HETATM    3  C4  UNL     1     -35.643   6.186   3.587  1.00 20.00     0.055 C 
HETATM    4  C5  UNL     1     -34.530   5.013   5.515  1.00 20.00     0.055 C 
HETATM    5  C6  UNL     1     -34.313   5.760   4.202  1.00 20.00     0.112 C 
ENDROOT
BRANCH   5   6
HETATM    6  N7  UNL     1     -33.523   6.969   4.466  1.00 20.00    -0.224 NA
HETATM    7  C3  UNL     1     -33.169   7.532   3.500  1.00 20.00     0.333 C 
HETATM    8  O8  UNL     1     -32.810   8.102   2.536  1.00 20.00    -0.260 OA
ENDBRANCH   5   6
TORSDOF 1
ENDMDL
MODEL 5
REMARK VINA RESULT:      -4.0      2.217      3.238
REMARK  1 active torsions:
REMARK  status: ('A' for Active; 'I' for Inactive)
REMARK    1  A    between atoms: C6_6  and  N7_7 
ROOT
HETATM    1  C1  UNL     1     -32.165   8.332   2.194  1.00 20.00     0.015 C 
HETATM    2  C2  UNL     1     -32.822   7.443   2.662  1.00 20.00    -0.084 C 
HETATM    3  C4  UNL     1     -35.057   6.396   2.703  1.00 20.00     0.055 C 
HETATM    4  C5  UNL     1     -32.984   4.994   2.962  1.00 20.00     0.055 C 
HETATM    5  C6  UNL     1     -33.626   6.351   3.233  1.00 20.00     0.112 C 
ENDROOT
BRANCH   5   6
HETATM    6  N7  UNL     1     -33.669   6.578   4.683  1.00 20.00    -0.224 NA
HETATM    7  C3  UNL     1     -34.269   5.765   5.279  1.00 20.00     0.333 C 
HETATM    8  O8  UNL     1     -34.870   4.954   5.882  1.00 20.00    -0.260 OA
ENDBRANCH   5   6
TORSDOF 1
ENDMDL
MODEL 6
REMARK VINA RESULT:      -3.8     11.710     12.264
REMARK  1 active torsions:
REMARK  status: ('A' for Active; 'I' for Inactive)
REMARK    1  A    between atoms: C6_6  and  N7_7 
ROOT
HETATM    1  C1  UNL     1     -33.964  16.947  -2.101  1.00 20.00     0.015 C 
HETATM    2  C2  UNL     1     -34.055  16.250  -3.074  1.00 20.00    -0.084 C 
HETATM    3  C4  UNL     1     -34.215  16.241  -5.537  1.00 20.00     0.055 C 
HETATM    4  C5  UNL     1     -33.020  14.387  -4.327  1.00 20.00     0.055 C 
HETATM    5  C6  UNL     1     -34.163  15.396  -4.267  1.00 20.00     0.112 C 
ENDROOT
BRANCH   5   6
HETATM    6  N7  UNL     1     -35.433  14.670  -4.148  1.00 20.00    -0.224 NA
HETATM    7  C3  UNL     1     -35.524  13.740  -4.857  1.00 20.00     0.333 C 
HETATM    8  O8  UNL     1     -35.621  12.806  -5.565  1.00 20.00    -0.260 OA
ENDBRANCH   5   6
TORSDOF 1
ENDMDL
MODEL 7
REMARK VINA RESULT:      -3.8      2.035      2.971
REMARK  1 active torsions:
REMARK  status: ('A' for Active; 'I' for Inactive)
REMARK    1  A    between atoms: C6_6  and  N7_7 
ROOT
HETATM    1  C1  UNL     1     -32.208   8.280   2.173  1.00 20.00     0.015 C 
HETATM    2  C2  UNL     1     -32.907   7.535   2.803  1.00 20.00    -0.084 C 
HETATM    3  C4  UNL     1     -33.759   6.994   5.056  1.00 20.00     0.055 C 
HETATM    4  C5  UNL     1     -35.189   6.606   3.022  1.00 20.00     0.055 C 
HETATM    5  C6  UNL     1     -33.766   6.623   3.575  1.00 20.00     0.112 C 
ENDROOT
BRANCH   5   6
HETATM    6  N7  UNL     1     -33.185   5.283   3.436  1.00 20.00    -0.224 NA
HETATM    7  C3  UNL     1     -33.820   4.430   3.932  1.00 20.00     0.333 C 
HETATM    8  O8  UNL     1     -34.452   3.570   4.427  1.00 20.00    -0.260 OA
ENDBRANCH   5   6
TORSDOF 1
ENDMDL
MODEL 8
REMARK VINA RESULT:      -3.7      2.252      3.477
REMARK  1 active torsions:
REMARK  status: ('A' for Active; 'I' for Inactive)
REMARK    1  A    between atoms: C6_6  and  N7_7 
ROOT
HETATM    1  C1  UNL     1     -32.950   4.893   2.590  1.00 20.00     0.015 C 
HETATM    2  C2  UNL     1     -32.897   6.076   2.789  1.00 20.00    -0.084 C 
HETATM    3  C4  UNL     1     -31.529   7.901   3.732  1.00 20.00     0.055 C 
HETATM    4  C5  UNL     1     -32.995   8.309   1.729  1.00 20.00     0.055 C 
HETATM    5  C6  UNL     1     -32.831   7.527   3.029  1.00 20.00     0.112 C 
ENDROOT
BRANCH   5   6
HETATM    6  N7  UNL     1     -33.945   7.853   3.926  1.00 20.00    -0.224 NA
HETATM    7  C3  UNL     1     -33.896   7.318   4.969  1.00 20.00     0.333 C 
HETATM    8  O8  UNL     1     -33.852   6.785   6.016  1.00 20.00    -0.260 OA
ENDBRANCH   5   6
TORSDOF 1
ENDMDL
MODEL 9
REMARK VINA RESULT:      -3.7      2.254      3.789
REMARK  1 active torsions:
REMARK  status: ('A' for Active; 'I' for Inactive)
REMARK    1  A    between atoms: C6_6  and  N7_7 
ROOT
HETATM    1  C1  UNL     1     -32.701   9.223   0.763  1.00 20.00     0.015 C 
HETATM    2  C2  UNL     1     -32.647   8.525   1.739  1.00 20.00    -0.084 C 
HETATM    3  C4  UNL     1     -32.517   6.196   2.545  1.00 20.00     0.055 C 
HETATM    4  C5  UNL     1     -31.392   8.053   3.817  1.00 20.00     0.055 C 
HETATM    5  C6  UNL     1     -32.577   7.671   2.935  1.00 20.00     0.112 C 
ENDROOT
BRANCH   5   6
HETATM    6  N7  UNL     1     -33.820   7.896   3.682  1.00 20.00    -0.224 NA
HETATM    7  C3  UNL     1     -33.904   7.275   4.674  1.00 20.00     0.333 C 
HETATM    8  O8  UNL     1     -33.993   6.656   5.670  1.00 20.00    -0.260 OA
ENDBRANCH   5   6
TORSDOF 1
ENDMDL
