MODEL 1
REMARK VINA RESULT:      -4.9      0.000      0.000
REMARK  1 active torsions:
REMARK  status: ('A' for Active; 'I' for Inactive)
REMARK    1  A    between atoms: C1_1  and  C2_2 
ROOT
HETATM    1  C2  UNL     1     -34.662   5.540   4.653  1.00 20.00     0.447 C 
HETATM    2  F5  UNL     1     -33.985   4.567   4.008  1.00 20.00    -0.166 F 
HETATM    3  F6  UNL     1     -35.023   5.064   5.864  1.00 20.00    -0.166 F 
HETATM    4  F7  UNL     1     -35.790   5.796   3.958  1.00 20.00    -0.166 F 
ENDROOT
BRANCH   1   5
HETATM    5  C1  UNL     1     -33.826   6.778   4.793  1.00 20.00     0.459 C 
HETATM    6  F3  UNL     1     -34.124   7.399   5.959  1.00 20.00    -0.205 F 
HETATM    7  F4  UNL     1     -34.127   7.645   3.795  1.00 20.00    -0.205 F 
ENDBRANCH   1   5
TORSDOF 1
ENDMDL
MODEL 2
REMARK VINA RESULT:      -4.9      0.014      1.425
REMARK  1 active torsions:
REMARK  status: ('A' for Active; 'I' for Inactive)
REMARK    1  A    between atoms: C1_1  and  C2_2 
ROOT
HETATM    1  C2  UNL     1     -34.667   5.540   4.665  1.00 20.00     0.447 C 
HETATM    2  F5  UNL     1     -35.790   5.790   3.960  1.00 20.00    -0.166 F 
HETATM    3  F6  UNL     1     -33.987   4.560   4.032  1.00 20.00    -0.166 F 
HETATM    4  F7  UNL     1     -35.030   5.074   5.878  1.00 20.00    -0.166 F 
ENDROOT
BRANCH   1   5
HETATM    5  C1  UNL     1     -33.825   6.775   4.795  1.00 20.00     0.459 C 
HETATM    6  F3  UNL     1     -34.114   7.401   5.961  1.00 20.00    -0.205 F 
HETATM    7  F4  UNL     1     -34.128   7.640   3.797  1.00 20.00    -0.205 F 
ENDBRANCH   1   5
TORSDOF 1
ENDMDL
MODEL 3
REMARK VINA RESULT:      -4.9      0.045      1.439
REMARK  1 active torsions:
REMARK  status: ('A' for Active; 'I' for Inactive)
REMARK    1  A    between atoms: C1_1  and  C2_2 
ROOT
HETATM    1  C2  UNL     1     -34.658   5.535   4.695  1.00 20.00     0.447 C 
HETATM    2  F5  UNL     1     -35.031   5.090   5.913  1.00 20.00    -0.166 F 
HETATM    3  F6  UNL     1     -35.777   5.773   3.977  1.00 20.00    -0.166 F 
HETATM    4  F7  UNL     1     -33.976   4.547   4.079  1.00 20.00    -0.166 F 
ENDROOT
BRANCH   1   5
HETATM    5  C1  UNL     1     -33.821   6.775   4.806  1.00 20.00     0.459 C 
HETATM    6  F3  UNL     1     -34.089   7.402   5.976  1.00 20.00    -0.205 F 
HETATM    7  F4  UNL     1     -34.150   7.637   3.812  1.00 20.00    -0.205 F 
ENDBRANCH   1   5
TORSDOF 1
ENDMDL
MODEL 4
REMARK VINA RESULT:      -4.9      1.115      2.428
REMARK  1 active torsions:
REMARK  status: ('A' for Active; 'I' for Inactive)
REMARK    1  A    between atoms: C1_1  and  C2_2 
ROOT
HETATM    1  C2  UNL     1     -34.675   5.776   3.951  1.00 20.00     0.447 C 
HETATM    2  F5  UNL     1     -33.886   5.431   2.912  1.00 20.00    -0.166 F 
HETATM    3  F6  UNL     1     -35.909   6.038   3.468  1.00 20.00    -0.166 F 
HETATM    4  F7  UNL     1     -34.190   6.917   4.483  1.00 20.00    -0.166 F 
ENDROOT
BRANCH   1   5
HETATM    5  C1  UNL     1     -34.725   4.684   4.979  1.00 20.00     0.459 C 
HETATM    6  F3  UNL     1     -34.166   5.120   6.133  1.00 20.00    -0.205 F 
HETATM    7  F4  UNL     1     -33.987   3.628   4.557  1.00 20.00    -0.205 F 
ENDBRANCH   1   5
TORSDOF 1
ENDMDL
MODEL 5
REMARK VINA RESULT:      -4.9      1.121      2.516
REMARK  1 active torsions:
REMARK  status: ('A' for Active; 'I' for Inactive)
REMARK    1  A    between atoms: C1_1  and  C2_2 
ROOT
HETATM    1  C2  UNL     1     -34.607   5.769   3.920  1.00 20.00     0.447 C 
HETATM    2  F5  UNL     1     -34.102   6.896   4.463  1.00 20.00    -0.166 F 
HETATM    3  F6  UNL     1     -33.798   5.396   2.905  1.00 20.00    -0.166 F 
HETATM    4  F7  UNL     1     -35.816   6.063   3.396  1.00 20.00    -0.166 F 
ENDROOT
BRANCH   1   5
HETATM    5  C1  UNL     1     -34.718   4.678   4.944  1.00 20.00     0.459 C 
HETATM    6  F3  UNL     1     -34.222   5.112   6.127  1.00 20.00    -0.205 F 
HETATM    7  F4  UNL     1     -33.962   3.619   4.564  1.00 20.00    -0.205 F 
ENDBRANCH   1   5
TORSDOF 1
ENDMDL
MODEL 6
REMARK VINA RESULT:      -4.8      0.606      1.910
REMARK  1 active torsions:
REMARK  status: ('A' for Active; 'I' for Inactive)
REMARK    1  A    between atoms: C1_1  and  C2_2 
ROOT
HETATM    1  C2  UNL     1     -34.663   5.669   4.618  1.00 20.00     0.447 C 
HETATM    2  F5  UNL     1     -34.954   5.127   5.819  1.00 20.00    -0.166 F 
HETATM    3  F6  UNL     1     -35.817   5.815   3.934  1.00 20.00    -0.166 F 
HETATM    4  F7  UNL     1     -33.890   4.794   3.941  1.00 20.00    -0.166 F 
ENDROOT
BRANCH   1   5
HETATM    5  C1  UNL     1     -33.966   6.988   4.777  1.00 20.00     0.459 C 
HETATM    6  F3  UNL     1     -32.886   7.034   3.960  1.00 20.00    -0.205 F 
HETATM    7  F4  UNL     1     -33.506   7.110   6.046  1.00 20.00    -0.205 F 
ENDBRANCH   1   5
TORSDOF 1
ENDMDL
MODEL 7
REMARK VINA RESULT:      -4.8      1.119      2.572
REMARK  1 active torsions:
REMARK  status: ('A' for Active; 'I' for Inactive)
REMARK    1  A    between atoms: C1_1  and  C2_2 
ROOT
HETATM    1  C2  UNL     1     -34.606   5.776   3.894  1.00 20.00     0.447 C 
HETATM    2  F5  UNL     1     -35.780   6.137   3.335  1.00 20.00    -0.166 F 
HETATM    3  F6  UNL     1     -34.093   6.856   4.522  1.00 20.00    -0.166 F 
HETATM    4  F7  UNL     1     -33.758   5.435   2.902  1.00 20.00    -0.166 F 
ENDROOT
BRANCH   1   5
HETATM    5  C1  UNL     1     -34.792   4.638   4.855  1.00 20.00     0.459 C 
HETATM    6  F3  UNL     1     -34.347   5.001   6.082  1.00 20.00    -0.205 F 
HETATM    7  F4  UNL     1     -34.043   3.581   4.459  1.00 20.00    -0.205 F 
ENDBRANCH   1   5
TORSDOF 1
ENDMDL
MODEL 8
REMARK VINA RESULT:      -4.8      0.724      1.960
REMARK  1 active torsions:
REMARK  status: ('A' for Active; 'I' for Inactive)
REMARK    1  A    between atoms: C1_1  and  C2_2 
ROOT
HETATM    1  C2  UNL     1     -34.482   6.124   4.049  1.00 20.00     0.447 C 
HETATM    2  F5  UNL     1     -33.762   5.300   3.259  1.00 20.00    -0.166 F 
HETATM    3  F6  UNL     1     -35.790   5.912   3.791  1.00 20.00    -0.166 F 
HETATM    4  F7  UNL     1     -34.193   7.395   3.699  1.00 20.00    -0.166 F 
ENDROOT
BRANCH   1   5
HETATM    5  C1  UNL     1     -34.178   5.885   5.498  1.00 20.00     0.459 C 
HETATM    6  F3  UNL     1     -35.065   4.998   6.009  1.00 20.00    -0.205 F 
HETATM    7  F4  UNL     1     -34.331   7.040   6.192  1.00 20.00    -0.205 F 
ENDBRANCH   1   5
TORSDOF 1
ENDMDL
MODEL 9
REMARK VINA RESULT:      -4.8      1.336      2.435
REMARK  1 active torsions:
REMARK  status: ('A' for Active; 'I' for Inactive)
REMARK    1  A    between atoms: C1_1  and  C2_2 
ROOT
HETATM    1  C2  UNL     1     -34.647   5.532   4.111  1.00 20.00     0.447 C 
HETATM    2  F5  UNL     1     -34.306   6.265   5.191  1.00 20.00    -0.166 F 
HETATM    3  F6  UNL     1     -35.904   5.873   3.755  1.00 20.00    -0.166 F 
HETATM    4  F7  UNL     1     -34.659   4.233   4.473  1.00 20.00    -0.166 F 
ENDROOT
BRANCH   1   5
HETATM    5  C1  UNL     1     -33.690   5.763   2.978  1.00 20.00     0.459 C 
HETATM    6  F3  UNL     1     -33.031   4.614   2.697  1.00 20.00    -0.205 F 
HETATM    7  F4  UNL     1     -32.756   6.673   3.350  1.00 20.00    -0.205 F 
ENDBRANCH   1   5
TORSDOF 1
ENDMDL
