MODEL 1
REMARK VINA RESULT:      -4.4      0.000      0.000
REMARK  0 active torsions:
REMARK  status: ('A' for Active; 'I' for Inactive)
ROOT
HETATM    1  C1  UNL     1     -34.552   5.041   4.860  1.00 20.00     0.317 C 
HETATM    2  C2  UNL     1     -34.145   6.181   4.299  1.00 20.00     0.253 C 
HETATM    3  F3  UNL     1     -34.524   3.881   4.170  1.00 20.00    -0.169 F 
HETATM    4  F4  UNL     1     -34.996   5.048   6.133  1.00 20.00    -0.169 F 
HETATM    5  F5  UNL     1     -34.188   7.320   5.022  1.00 20.00    -0.187 F 
HETATM    6 CL6  UNL     1     -33.567   6.241   2.678  1.00 20.00    -0.046 Cl
ENDROOT
TORSDOF 0
ENDMDL
MODEL 2
REMARK VINA RESULT:      -4.4      0.574      2.143
REMARK  0 active torsions:
REMARK  status: ('A' for Active; 'I' for Inactive)
ROOT
HETATM    1  C1  UNL     1     -34.433   5.949   5.180  1.00 20.00     0.317 C 
HETATM    2  C2  UNL     1     -34.274   5.220   4.074  1.00 20.00     0.253 C 
HETATM    3  F3  UNL     1     -34.208   7.280   5.171  1.00 20.00    -0.169 F 
HETATM    4  F4  UNL     1     -34.824   5.348   6.323  1.00 20.00    -0.169 F 
HETATM    5  F5  UNL     1     -34.509   3.892   4.125  1.00 20.00    -0.187 F 
HETATM    6 CL6  UNL     1     -33.777   5.925   2.584  1.00 20.00    -0.046 Cl
ENDROOT
TORSDOF 0
ENDMDL
MODEL 3
REMARK VINA RESULT:      -4.4      1.429      2.252
REMARK  0 active torsions:
REMARK  status: ('A' for Active; 'I' for Inactive)
ROOT
HETATM    1  C1  UNL     1     -34.015   6.677   5.422  1.00 20.00     0.317 C 
HETATM    2  C2  UNL     1     -34.064   6.582   4.092  1.00 20.00     0.253 C 
HETATM    3  F3  UNL     1     -33.174   7.545   6.024  1.00 20.00    -0.169 F 
HETATM    4  F4  UNL     1     -34.818   5.896   6.174  1.00 20.00    -0.169 F 
HETATM    5  F5  UNL     1     -34.919   5.703   3.528  1.00 20.00    -0.187 F 
HETATM    6 CL6  UNL     1     -33.068   7.549   3.075  1.00 20.00    -0.046 Cl
ENDROOT
TORSDOF 0
ENDMDL
MODEL 4
REMARK VINA RESULT:      -4.4      2.252      2.621
REMARK  0 active torsions:
REMARK  status: ('A' for Active; 'I' for Inactive)
ROOT
HETATM    1  C1  UNL     1     -34.426   6.193   3.580  1.00 20.00     0.317 C 
HETATM    2  C2  UNL     1     -33.561   6.934   4.275  1.00 20.00     0.253 C 
HETATM    3  F3  UNL     1     -35.543   5.705   4.161  1.00 20.00    -0.169 F 
HETATM    4  F4  UNL     1     -34.181   5.929   2.280  1.00 20.00    -0.169 F 
HETATM    5  F5  UNL     1     -32.456   7.404   3.658  1.00 20.00    -0.187 F 
HETATM    6 CL6  UNL     1     -33.814   7.308   5.937  1.00 20.00    -0.046 Cl
ENDROOT
TORSDOF 0
ENDMDL
MODEL 5
REMARK VINA RESULT:      -4.4      2.254      3.002
REMARK  0 active torsions:
REMARK  status: ('A' for Active; 'I' for Inactive)
ROOT
HETATM    1  C1  UNL     1     -33.525   6.472   3.339  1.00 20.00     0.317 C 
HETATM    2  C2  UNL     1     -34.241   6.435   4.464  1.00 20.00     0.253 C 
HETATM    3  F3  UNL     1     -32.355   7.144   3.284  1.00 20.00    -0.169 F 
HETATM    4  F4  UNL     1     -33.975   5.829   2.242  1.00 20.00    -0.169 F 
HETATM    5  F5  UNL     1     -35.406   5.752   4.478  1.00 20.00    -0.187 F 
HETATM    6 CL6  UNL     1     -33.723   7.234   5.898  1.00 20.00    -0.046 Cl
ENDROOT
TORSDOF 0
ENDMDL
MODEL 6
REMARK VINA RESULT:      -4.4      2.151      2.618
REMARK  0 active torsions:
REMARK  status: ('A' for Active; 'I' for Inactive)
ROOT
HETATM    1  C1  UNL     1     -33.808   6.661   3.735  1.00 20.00     0.317 C 
HETATM    2  C2  UNL     1     -34.116   6.500   5.023  1.00 20.00     0.253 C 
HETATM    3  F3  UNL     1     -33.883   5.627   2.870  1.00 20.00    -0.169 F 
HETATM    4  F4  UNL     1     -33.415   7.873   3.292  1.00 20.00    -0.169 F 
HETATM    5  F5  UNL     1     -34.029   7.559   5.856  1.00 20.00    -0.187 F 
HETATM    6 CL6  UNL     1     -34.624   4.981   5.653  1.00 20.00    -0.046 Cl
ENDROOT
TORSDOF 0
ENDMDL
MODEL 7
REMARK VINA RESULT:      -4.3      1.354      1.761
REMARK  0 active torsions:
REMARK  status: ('A' for Active; 'I' for Inactive)
ROOT
HETATM    1  C1  UNL     1     -34.161   6.539   5.398  1.00 20.00     0.317 C 
HETATM    2  C2  UNL     1     -33.604   6.734   4.201  1.00 20.00     0.253 C 
HETATM    3  F3  UNL     1     -34.952   5.470   5.628  1.00 20.00    -0.169 F 
HETATM    4  F4  UNL     1     -33.929   7.423   6.391  1.00 20.00    -0.169 F 
HETATM    5  F5  UNL     1     -32.818   7.815   4.011  1.00 20.00    -0.187 F 
HETATM    6 CL6  UNL     1     -33.859   5.645   2.892  1.00 20.00    -0.046 Cl
ENDROOT
TORSDOF 0
ENDMDL
MODEL 8
REMARK VINA RESULT:      -4.3      2.200      3.150
REMARK  0 active torsions:
REMARK  status: ('A' for Active; 'I' for Inactive)
ROOT
HETATM    1  C1  UNL     1     -33.635   7.136   4.441  1.00 20.00     0.317 C 
HETATM    2  C2  UNL     1     -34.424   6.063   4.369  1.00 20.00     0.253 C 
HETATM    3  F3  UNL     1     -33.029   7.473   5.599  1.00 20.00    -0.169 F 
HETATM    4  F4  UNL     1     -33.441   7.894   3.342  1.00 20.00    -0.169 F 
HETATM    5  F5  UNL     1     -35.012   5.758   3.192  1.00 20.00    -0.187 F 
HETATM    6 CL6  UNL     1     -34.713   5.054   5.733  1.00 20.00    -0.046 Cl
ENDROOT
TORSDOF 0
ENDMDL
MODEL 9
REMARK VINA RESULT:      -4.2      1.742      1.858
REMARK  0 active torsions:
REMARK  status: ('A' for Active; 'I' for Inactive)
ROOT
HETATM    1  C1  UNL     1     -34.422   6.199   3.599  1.00 20.00     0.317 C 
HETATM    2  C2  UNL     1     -33.654   7.068   4.258  1.00 20.00     0.253 C 
HETATM    3  F3  UNL     1     -34.099   5.794   2.352  1.00 20.00    -0.169 F 
HETATM    4  F4  UNL     1     -35.537   5.718   4.188  1.00 20.00    -0.169 F 
HETATM    5  F5  UNL     1     -34.010   7.447   5.503  1.00 20.00    -0.187 F 
HETATM    6 CL6  UNL     1     -32.219   7.719   3.564  1.00 20.00    -0.046 Cl
ENDROOT
TORSDOF 0
ENDMDL
