MODEL 1
REMARK VINA RESULT:      -4.3      0.000      0.000
REMARK  0 active torsions:
REMARK  status: ('A' for Active; 'I' for Inactive)
ROOT
HETATM    1  C1  UNL     1     -34.382   4.235   4.572  1.00 20.00     0.089 C 
HETATM    2  C2  UNL     1     -34.520   5.703   4.211  1.00 20.00     0.251 C 
HETATM    3  F3  UNL     1     -35.806   5.936   3.835  1.00 20.00    -0.208 F 
HETATM    4 CL4  UNL     1     -33.444   6.111   2.857  1.00 20.00    -0.066 Cl
HETATM    5 CL5  UNL     1     -34.143   6.723   5.618  1.00 20.00    -0.066 Cl
ENDROOT
TORSDOF 0
ENDMDL
MODEL 2
REMARK VINA RESULT:      -4.3      1.429      2.181
REMARK  0 active torsions:
REMARK  status: ('A' for Active; 'I' for Inactive)
ROOT
HETATM    1  C1  UNL     1     -33.612   6.191   2.920  1.00 20.00     0.089 C 
HETATM    2  C2  UNL     1     -34.493   5.765   4.080  1.00 20.00     0.251 C 
HETATM    3  F3  UNL     1     -35.792   5.971   3.732  1.00 20.00    -0.208 F 
HETATM    4 CL4  UNL     1     -34.126   6.732   5.524  1.00 20.00    -0.066 Cl
HETATM    5 CL5  UNL     1     -34.263   4.037   4.428  1.00 20.00    -0.066 Cl
ENDROOT
TORSDOF 0
ENDMDL
MODEL 3
REMARK VINA RESULT:      -4.2      1.509      2.117
REMARK  0 active torsions:
REMARK  status: ('A' for Active; 'I' for Inactive)
ROOT
HETATM    1  C1  UNL     1     -34.228   6.593   5.334  1.00 20.00     0.089 C 
HETATM    2  C2  UNL     1     -34.430   5.771   4.074  1.00 20.00     0.251 C 
HETATM    3  F3  UNL     1     -35.696   5.980   3.622  1.00 20.00    -0.208 F 
HETATM    4 CL4  UNL     1     -34.226   4.041   4.424  1.00 20.00    -0.066 Cl
HETATM    5 CL5  UNL     1     -33.283   6.278   2.815  1.00 20.00    -0.066 Cl
ENDROOT
TORSDOF 0
ENDMDL
MODEL 4
REMARK VINA RESULT:      -3.5      1.873      2.045
REMARK  0 active torsions:
REMARK  status: ('A' for Active; 'I' for Inactive)
ROOT
HETATM    1  C1  UNL     1     -35.534   6.114   3.602  1.00 20.00     0.089 C 
HETATM    2  C2  UNL     1     -34.230   5.758   4.293  1.00 20.00     0.251 C 
HETATM    3  F3  UNL     1     -33.200   6.092   3.470  1.00 20.00    -0.208 F 
HETATM    4 CL4  UNL     1     -34.159   4.013   4.621  1.00 20.00    -0.066 Cl
HETATM    5 CL5  UNL     1     -34.067   6.670   5.810  1.00 20.00    -0.066 Cl
ENDROOT
TORSDOF 0
ENDMDL
MODEL 5
REMARK VINA RESULT:      -3.5      1.325      2.384
REMARK  0 active torsions:
REMARK  status: ('A' for Active; 'I' for Inactive)
ROOT
HETATM    1  C1  UNL     1     -35.577   6.002   3.698  1.00 20.00     0.089 C 
HETATM    2  C2  UNL     1     -34.181   5.789   4.255  1.00 20.00     0.251 C 
HETATM    3  F3  UNL     1     -34.065   4.489   4.640  1.00 20.00    -0.208 F 
HETATM    4 CL4  UNL     1     -33.912   6.832   5.668  1.00 20.00    -0.066 Cl
HETATM    5 CL5  UNL     1     -32.961   6.125   3.007  1.00 20.00    -0.066 Cl
ENDROOT
TORSDOF 0
ENDMDL
MODEL 6
REMARK VINA RESULT:      -3.4      1.602      2.159
REMARK  0 active torsions:
REMARK  status: ('A' for Active; 'I' for Inactive)
ROOT
HETATM    1  C1  UNL     1     -34.350   4.290   4.855  1.00 20.00     0.089 C 
HETATM    2  C2  UNL     1     -34.292   5.725   4.365  1.00 20.00     0.251 C 
HETATM    3  F3  UNL     1     -33.257   5.839   3.489  1.00 20.00    -0.208 F 
HETATM    4 CL4  UNL     1     -34.015   6.833   5.726  1.00 20.00    -0.066 Cl
HETATM    5 CL5  UNL     1     -35.799   6.154   3.527  1.00 20.00    -0.066 Cl
ENDROOT
TORSDOF 0
ENDMDL
MODEL 7
REMARK VINA RESULT:      -3.4      5.276      5.768
REMARK  0 active torsions:
REMARK  status: ('A' for Active; 'I' for Inactive)
ROOT
HETATM    1  C1  UNL     1     -32.525  10.687   1.395  1.00 20.00     0.089 C 
HETATM    2  C2  UNL     1     -32.304   9.293   0.836  1.00 20.00     0.251 C 
HETATM    3  F3  UNL     1     -30.987   9.159   0.521  1.00 20.00    -0.208 F 
HETATM    4 CL4  UNL     1     -33.273   9.054  -0.634  1.00 20.00    -0.066 Cl
HETATM    5 CL5  UNL     1     -32.727   8.066   2.051  1.00 20.00    -0.066 Cl
ENDROOT
TORSDOF 0
ENDMDL
MODEL 8
REMARK VINA RESULT:      -3.4      5.310      5.791
REMARK  0 active torsions:
REMARK  status: ('A' for Active; 'I' for Inactive)
ROOT
HETATM    1  C1  UNL     1     -33.163   9.165  -0.456  1.00 20.00     0.089 C 
HETATM    2  C2  UNL     1     -32.329   9.325   0.801  1.00 20.00     0.251 C 
HETATM    3  F3  UNL     1     -31.017   9.188   0.468  1.00 20.00    -0.208 F 
HETATM    4 CL4  UNL     1     -32.752   8.072   1.988  1.00 20.00    -0.066 Cl
HETATM    5 CL5  UNL     1     -32.574  10.939   1.505  1.00 20.00    -0.066 Cl
ENDROOT
TORSDOF 0
ENDMDL
MODEL 9
REMARK VINA RESULT:      -3.4      2.013      2.284
REMARK  0 active torsions:
REMARK  status: ('A' for Active; 'I' for Inactive)
ROOT
HETATM    1  C1  UNL     1     -33.719   7.159   4.939  1.00 20.00     0.089 C 
HETATM    2  C2  UNL     1     -34.246   5.865   4.348  1.00 20.00     0.251 C 
HETATM    3  F3  UNL     1     -33.332   5.396   3.455  1.00 20.00    -0.208 F 
HETATM    4 CL4  UNL     1     -35.781   6.150   3.500  1.00 20.00    -0.066 Cl
HETATM    5 CL5  UNL     1     -34.472   4.649   5.625  1.00 20.00    -0.066 Cl
ENDROOT
TORSDOF 0
ENDMDL
