MODEL 1
REMARK VINA RESULT:      -4.1      0.000      0.000
REMARK  1 active torsions:
REMARK  status: ('A' for Active; 'I' for Inactive)
REMARK    1  A    between atoms: C7_7  and  N8_8 
ROOT
HETATM    1  C1  UNL     1     -33.645   4.892   3.298  1.00 20.00     0.045 C 
HETATM    2  C2  UNL     1     -33.269   5.748   2.099  1.00 20.00     0.236 C 
HETATM    3  C3  UNL     1     -33.732   7.126   4.065  1.00 20.00     0.251 C 
HETATM    4  C4  UNL     1     -34.500   5.817   4.157  1.00 20.00     0.086 C 
HETATM    5  N8  UNL     1     -33.316   7.177   2.606  1.00 20.00    -0.066 N 
HETATM    6  S9  UNL     1     -34.631   5.237   5.864  1.00 20.00    -0.091 SA
HETATM    7  H24 UNL     1     -34.076   7.650   2.096  1.00 20.00     0.280 HD
ENDROOT
BRANCH   5   8
HETATM    8  C7  UNL     1     -32.068   7.961   2.360  1.00 20.00     0.180 C 
HETATM    9  C5  UNL     1     -31.452   8.321   3.702  1.00 20.00     0.039 C 
HETATM   10  C6  UNL     1     -32.426   9.192   1.541  1.00 20.00     0.039 C 
ENDBRANCH   5   8
TORSDOF 1
ENDMDL
MODEL 2
REMARK VINA RESULT:      -3.9      1.653      2.665
REMARK  1 active torsions:
REMARK  status: ('A' for Active; 'I' for Inactive)
REMARK    1  A    between atoms: C7_7  and  N8_8 
ROOT
HETATM    1  C1  UNL     1     -32.345   7.880   3.922  1.00 20.00     0.045 C 
HETATM    2  C2  UNL     1     -31.386   8.597   2.984  1.00 20.00     0.236 C 
HETATM    3  C3  UNL     1     -33.154   7.452   1.742  1.00 20.00     0.251 C 
HETATM    4  C4  UNL     1     -32.916   6.751   3.071  1.00 20.00     0.086 C 
HETATM    5  N8  UNL     1     -31.922   8.325   1.591  1.00 20.00    -0.066 N 
HETATM    6  S9  UNL     1     -34.449   6.085   3.760  1.00 20.00    -0.091 SA
HETATM    7  H24 UNL     1     -31.213   7.759   1.103  1.00 20.00     0.280 HD
ENDROOT
BRANCH   5   8
HETATM    8  C7  UNL     1     -32.148   9.550   0.766  1.00 20.00     0.180 C 
HETATM    9  C5  UNL     1     -32.811  10.604   1.639  1.00 20.00     0.039 C 
HETATM   10  C6  UNL     1     -33.003   9.173  -0.433  1.00 20.00     0.039 C 
ENDBRANCH   5   8
TORSDOF 1
ENDMDL
MODEL 3
REMARK VINA RESULT:      -3.9      2.442      4.018
REMARK  1 active torsions:
REMARK  status: ('A' for Active; 'I' for Inactive)
REMARK    1  A    between atoms: C7_7  and  N8_8 
ROOT
HETATM    1  C1  UNL     1     -31.787   8.042   3.632  1.00 20.00     0.045 C 
HETATM    2  C2  UNL     1     -32.852   7.518   4.583  1.00 20.00     0.236 C 
HETATM    3  C3  UNL     1     -33.594   7.383   2.257  1.00 20.00     0.251 C 
HETATM    4  C4  UNL     1     -32.578   8.504   2.414  1.00 20.00     0.086 C 
HETATM    5  N8  UNL     1     -34.000   7.088   3.690  1.00 20.00    -0.066 N 
HETATM    6  S9  UNL     1     -31.536   8.672   0.947  1.00 20.00    -0.091 SA
HETATM    7  H24 UNL     1     -34.796   7.704   3.907  1.00 20.00     0.280 HD
ENDROOT
BRANCH   5   8
HETATM    8  C7  UNL     1     -34.461   5.683   3.910  1.00 20.00     0.180 C 
HETATM    9  C5  UNL     1     -34.537   5.430   5.407  1.00 20.00     0.039 C 
HETATM   10  C6  UNL     1     -33.489   4.743   3.214  1.00 20.00     0.039 C 
ENDBRANCH   5   8
TORSDOF 1
ENDMDL
MODEL 4
REMARK VINA RESULT:      -3.8      2.497      3.831
REMARK  1 active torsions:
REMARK  status: ('A' for Active; 'I' for Inactive)
REMARK    1  A    between atoms: C7_7  and  N8_8 
ROOT
HETATM    1  C1  UNL     1     -33.305   6.619   1.754  1.00 20.00     0.045 C 
HETATM    2  C2  UNL     1     -33.555   5.616   2.869  1.00 20.00     0.236 C 
HETATM    3  C3  UNL     1     -32.825   7.773   3.761  1.00 20.00     0.251 C 
HETATM    4  C4  UNL     1     -32.287   7.585   2.350  1.00 20.00     0.086 C 
HETATM    5  N8  UNL     1     -33.257   6.371   4.151  1.00 20.00    -0.066 N 
HETATM    6  S9  UNL     1     -32.220   9.149   1.447  1.00 20.00    -0.091 SA
HETATM    7  H24 UNL     1     -32.440   5.917   4.582  1.00 20.00     0.280 HD
ENDROOT
BRANCH   5   8
HETATM    8  C7  UNL     1     -34.359   6.337   5.159  1.00 20.00     0.180 C 
HETATM    9  C5  UNL     1     -33.975   7.235   6.324  1.00 20.00     0.039 C 
HETATM   10  C6  UNL     1     -34.574   4.895   5.589  1.00 20.00     0.039 C 
ENDBRANCH   5   8
TORSDOF 1
ENDMDL
MODEL 5
REMARK VINA RESULT:      -3.7      2.534      4.156
REMARK  1 active torsions:
REMARK  status: ('A' for Active; 'I' for Inactive)
REMARK    1  A    between atoms: C7_7  and  N8_8 
ROOT
HETATM    1  C1  UNL     1     -31.558   8.471   3.295  1.00 20.00     0.045 C 
HETATM    2  C2  UNL     1     -32.424   7.830   4.369  1.00 20.00     0.236 C 
HETATM    3  C3  UNL     1     -33.305   7.385   2.132  1.00 20.00     0.251 C 
HETATM    4  C4  UNL     1     -32.516   8.685   2.129  1.00 20.00     0.086 C 
HETATM    5  N8  UNL     1     -33.533   7.126   3.609  1.00 20.00    -0.066 N 
HETATM    6  S9  UNL     1     -31.644   8.936   0.566  1.00 20.00    -0.091 SA
HETATM    7  H24 UNL     1     -34.413   7.597   3.862  1.00 20.00     0.280 HD
ENDROOT
BRANCH   5   8
HETATM    8  C7  UNL     1     -33.695   5.680   3.952  1.00 20.00     0.180 C 
HETATM    9  C5  UNL     1     -33.289   4.851   2.744  1.00 20.00     0.039 C 
HETATM   10  C6  UNL     1     -35.141   5.441   4.357  1.00 20.00     0.039 C 
ENDBRANCH   5   8
TORSDOF 1
ENDMDL
MODEL 6
REMARK VINA RESULT:      -3.7     11.217     12.252
REMARK  1 active torsions:
REMARK  status: ('A' for Active; 'I' for Inactive)
REMARK    1  A    between atoms: C7_7  and  N8_8 
ROOT
HETATM    1  C1  UNL     1     -33.435  16.532  -4.825  1.00 20.00     0.045 C 
HETATM    2  C2  UNL     1     -32.941  15.514  -5.842  1.00 20.00     0.236 C 
HETATM    3  C3  UNL     1     -34.569  14.523  -4.310  1.00 20.00     0.251 C 
HETATM    4  C4  UNL     1     -33.858  15.683  -3.632  1.00 20.00     0.086 C 
HETATM    5  N8  UNL     1     -33.685  14.234  -5.509  1.00 20.00    -0.066 N 
HETATM    6  S9  UNL     1     -34.958  16.580  -2.512  1.00 20.00    -0.091 SA
HETATM    7  H24 UNL     1     -32.980  13.550  -5.202  1.00 20.00     0.280 HD
ENDROOT
BRANCH   5   8
HETATM    8  C7  UNL     1     -34.412  13.625  -6.664  1.00 20.00     0.180 C 
HETATM    9  C5  UNL     1     -34.075  14.414  -7.918  1.00 20.00     0.039 C 
HETATM   10  C6  UNL     1     -35.902  13.639  -6.357  1.00 20.00     0.039 C 
ENDBRANCH   5   8
TORSDOF 1
ENDMDL
MODEL 7
REMARK VINA RESULT:      -3.2     11.342     12.023
REMARK  1 active torsions:
REMARK  status: ('A' for Active; 'I' for Inactive)
REMARK    1  A    between atoms: C7_7  and  N8_8 
ROOT
HETATM    1  C1  UNL     1     -35.150  16.726  -1.922  1.00 20.00     0.045 C 
HETATM    2  C2  UNL     1     -35.799  16.107  -3.151  1.00 20.00     0.236 C 
HETATM    3  C3  UNL     1     -33.567  16.968  -3.661  1.00 20.00     0.251 C 
HETATM    4  C4  UNL     1     -34.168  17.740  -2.496  1.00 20.00     0.086 C 
HETATM    5  N8  UNL     1     -34.769  16.256  -4.255  1.00 20.00    -0.066 N 
HETATM    6  S9  UNL     1     -32.908  18.226  -1.295  1.00 20.00    -0.091 SA
HETATM    7  H24 UNL     1     -35.174  16.891  -4.957  1.00 20.00     0.280 HD
ENDROOT
BRANCH   5   8
HETATM    8  C7  UNL     1     -34.430  14.983  -4.960  1.00 20.00     0.180 C 
HETATM    9  C5  UNL     1     -35.559  13.991  -4.733  1.00 20.00     0.039 C 
HETATM   10  C6  UNL     1     -33.100  14.476  -4.425  1.00 20.00     0.039 C 
ENDBRANCH   5   8
TORSDOF 1
ENDMDL
MODEL 8
REMARK VINA RESULT:      -3.2     11.677     12.034
REMARK  1 active torsions:
REMARK  status: ('A' for Active; 'I' for Inactive)
REMARK    1  A    between atoms: C7_7  and  N8_8 
ROOT
HETATM    1  C1  UNL     1     -36.296  14.893  -5.655  1.00 20.00     0.045 C 
HETATM    2  C2  UNL     1     -36.217  15.220  -4.172  1.00 20.00     0.236 C 
HETATM    3  C3  UNL     1     -34.045  14.514  -5.044  1.00 20.00     0.251 C 
HETATM    4  C4  UNL     1     -35.161  13.899  -5.874  1.00 20.00     0.086 C 
HETATM    5  N8  UNL     1     -34.767  14.985  -3.795  1.00 20.00    -0.066 N 
HETATM    6  S9  UNL     1     -34.701  13.760  -7.616  1.00 20.00    -0.091 SA
HETATM    7  H24 UNL     1     -34.755  14.199  -3.129  1.00 20.00     0.280 HD
ENDROOT
BRANCH   5   8
HETATM    8  C7  UNL     1     -34.110  16.143  -3.117  1.00 20.00     0.180 C 
HETATM    9  C5  UNL     1     -35.072  16.707  -2.084  1.00 20.00     0.039 C 
HETATM   10  C6  UNL     1     -33.732  17.169  -4.175  1.00 20.00     0.039 C 
ENDBRANCH   5   8
TORSDOF 1
ENDMDL
MODEL 9
REMARK VINA RESULT:      -3.1     11.788     12.677
REMARK  1 active torsions:
REMARK  status: ('A' for Active; 'I' for Inactive)
REMARK    1  A    between atoms: C7_7  and  N8_8 
ROOT
HETATM    1  C1  UNL     1     -37.249  14.191  -5.757  1.00 20.00     0.045 C 
HETATM    2  C2  UNL     1     -36.022  13.494  -5.191  1.00 20.00     0.236 C 
HETATM    3  C3  UNL     1     -35.410  15.089  -6.941  1.00 20.00     0.251 C 
HETATM    4  C4  UNL     1     -36.828  14.588  -7.168  1.00 20.00     0.086 C 
HETATM    5  N8  UNL     1     -34.849  14.087  -5.949  1.00 20.00    -0.066 N 
HETATM    6  S9  UNL     1     -37.890  15.877  -7.859  1.00 20.00    -0.091 SA
HETATM    7  H24 UNL     1     -34.432  13.323  -6.500  1.00 20.00     0.280 HD
ENDROOT
BRANCH   5   8
HETATM    8  C7  UNL     1     -33.767  14.639  -5.078  1.00 20.00     0.180 C 
HETATM    9  C5  UNL     1     -34.384  15.073  -3.758  1.00 20.00     0.039 C 
HETATM   10  C6  UNL     1     -33.102  15.794  -5.811  1.00 20.00     0.039 C 
ENDBRANCH   5   8
TORSDOF 1
ENDMDL
