MODEL 1
REMARK VINA RESULT:      -4.7      0.000      0.000
REMARK  1 active torsions:
REMARK  status: ('A' for Active; 'I' for Inactive)
REMARK    1  A    between atoms: C5_5  and  C6_6 
ROOT
HETATM    1  C1  UNL     1     -32.420   7.936   2.803  1.00 20.00     0.080 C 
HETATM    2  C6  UNL     1     -32.898   6.870   3.691  1.00 20.00     0.195 C 
HETATM    3  N7  UNL     1     -32.039   8.781   2.104  1.00 20.00    -0.196 NA
HETATM    4 CL9  UNL     1     -33.570   7.636   5.155  1.00 20.00    -0.109 Cl
ENDROOT
BRANCH   2   5
HETATM    5  C5  UNL     1     -33.965   6.009   3.016  1.00 20.00     0.044 C 
HETATM    6  C2  UNL     1     -33.547   4.556   2.925  1.00 20.00     0.035 C 
HETATM    7  C3  UNL     1     -33.944   4.000   4.277  1.00 20.00     0.168 C 
HETATM    8  O8  UNL     1     -35.037   4.795   4.755  1.00 20.00    -0.391 OA
HETATM    9  C4  UNL     1     -35.223   5.904   3.864  1.00 20.00     0.174 C 
ENDBRANCH   2   5
TORSDOF 1
ENDMDL
MODEL 2
REMARK VINA RESULT:      -4.3      1.757      1.954
REMARK  1 active torsions:
REMARK  status: ('A' for Active; 'I' for Inactive)
REMARK    1  A    between atoms: C5_5  and  C6_6 
ROOT
HETATM    1  C1  UNL     1     -32.265   7.546   3.241  1.00 20.00     0.080 C 
HETATM    2  C6  UNL     1     -33.426   6.721   2.887  1.00 20.00     0.195 C 
HETATM    3  N7  UNL     1     -31.345   8.197   3.518  1.00 20.00    -0.196 NA
HETATM    4 CL9  UNL     1     -32.884   5.024   2.790  1.00 20.00    -0.109 Cl
ENDROOT
BRANCH   2   5
HETATM    5  C5  UNL     1     -34.547   6.852   3.918  1.00 20.00     0.044 C 
HETATM    6  C2  UNL     1     -35.341   5.569   4.058  1.00 20.00     0.035 C 
HETATM    7  C3  UNL     1     -34.519   4.764   5.043  1.00 20.00     0.168 C 
HETATM    8  O8  UNL     1     -33.803   5.701   5.859  1.00 20.00    -0.391 OA
HETATM    9  C4  UNL     1     -34.000   7.019   5.327  1.00 20.00     0.174 C 
ENDBRANCH   2   5
TORSDOF 1
ENDMDL
MODEL 3
REMARK VINA RESULT:      -4.2      2.875      3.885
REMARK  1 active torsions:
REMARK  status: ('A' for Active; 'I' for Inactive)
REMARK    1  A    between atoms: C5_5  and  C6_6 
ROOT
HETATM    1  C1  UNL     1     -34.366   5.559   4.263  1.00 20.00     0.080 C 
HETATM    2  C6  UNL     1     -33.807   6.906   4.096  1.00 20.00     0.195 C 
HETATM    3  N7  UNL     1     -34.811   4.496   4.398  1.00 20.00    -0.196 NA
HETATM    4 CL9  UNL     1     -33.468   7.564   5.720  1.00 20.00    -0.109 Cl
ENDROOT
BRANCH   2   5
HETATM    5  C5  UNL     1     -32.525   6.886   3.264  1.00 20.00     0.044 C 
HETATM    6  C2  UNL     1     -32.787   7.224   1.811  1.00 20.00     0.035 C 
HETATM    7  C3  UNL     1     -32.776   8.738   1.805  1.00 20.00     0.168 C 
HETATM    8  O8  UNL     1     -31.939   9.158   2.891  1.00 20.00    -0.391 OA
HETATM    9  C4  UNL     1     -31.577   8.004   3.664  1.00 20.00     0.174 C 
ENDBRANCH   2   5
TORSDOF 1
ENDMDL
MODEL 4
REMARK VINA RESULT:      -4.1      2.255      2.554
REMARK  1 active torsions:
REMARK  status: ('A' for Active; 'I' for Inactive)
REMARK    1  A    between atoms: C5_5  and  C6_6 
ROOT
HETATM    1  C1  UNL     1     -32.915   5.387   2.706  1.00 20.00     0.080 C 
HETATM    2  C6  UNL     1     -32.846   6.683   3.390  1.00 20.00     0.195 C 
HETATM    3  N7  UNL     1     -32.966   4.363   2.163  1.00 20.00    -0.196 NA
HETATM    4 CL9  UNL     1     -32.449   7.925   2.173  1.00 20.00    -0.109 Cl
ENDROOT
BRANCH   2   5
HETATM    5  C5  UNL     1     -34.166   7.030   4.078  1.00 20.00     0.044 C 
HETATM    6  C2  UNL     1     -35.129   5.861   4.080  1.00 20.00     0.035 C 
HETATM    7  C3  UNL     1     -34.697   5.065   5.294  1.00 20.00     0.168 C 
HETATM    8  O8  UNL     1     -34.098   5.989   6.213  1.00 20.00    -0.391 OA
HETATM    9  C4  UNL     1     -33.979   7.266   5.568  1.00 20.00     0.174 C 
ENDBRANCH   2   5
TORSDOF 1
ENDMDL
MODEL 5
REMARK VINA RESULT:      -4.0     11.688     12.382
REMARK  1 active torsions:
REMARK  status: ('A' for Active; 'I' for Inactive)
REMARK    1  A    between atoms: C5_5  and  C6_6 
ROOT
HETATM    1  C1  UNL     1     -35.284  13.685  -4.677  1.00 20.00     0.080 C 
HETATM    2  C6  UNL     1     -34.455  14.580  -3.861  1.00 20.00     0.195 C 
HETATM    3  N7  UNL     1     -35.937  12.974  -5.321  1.00 20.00    -0.196 NA
HETATM    4 CL9  UNL     1     -32.781  14.483  -4.471  1.00 20.00    -0.109 Cl
ENDROOT
BRANCH   2   5
HETATM    5  C5  UNL     1     -34.950  16.024  -3.926  1.00 20.00     0.044 C 
HETATM    6  C2  UNL     1     -35.549  16.478  -2.610  1.00 20.00     0.035 C 
HETATM    7  C3  UNL     1     -34.337  16.921  -1.818  1.00 20.00     0.168 C 
HETATM    8  O8  UNL     1     -33.341  17.332  -2.765  1.00 20.00    -0.391 OA
HETATM    9  C4  UNL     1     -33.801  17.007  -4.085  1.00 20.00     0.174 C 
ENDBRANCH   2   5
TORSDOF 1
ENDMDL
MODEL 6
REMARK VINA RESULT:      -3.9     11.737     12.231
REMARK  1 active torsions:
REMARK  status: ('A' for Active; 'I' for Inactive)
REMARK    1  A    between atoms: C5_5  and  C6_6 
ROOT
HETATM    1  C1  UNL     1     -33.279  17.892  -2.455  1.00 20.00     0.080 C 
HETATM    2  C6  UNL     1     -33.989  16.608  -2.511  1.00 20.00     0.195 C 
HETATM    3  N7  UNL     1     -32.718  18.906  -2.406  1.00 20.00    -0.196 NA
HETATM    4 CL9  UNL     1     -35.456  16.750  -1.506  1.00 20.00    -0.109 Cl
ENDROOT
BRANCH   2   5
HETATM    5  C5  UNL     1     -34.372  16.237  -3.943  1.00 20.00     0.044 C 
HETATM    6  C2  UNL     1     -33.163  15.863  -4.775  1.00 20.00     0.035 C 
HETATM    7  C3  UNL     1     -32.958  14.399  -4.442  1.00 20.00     0.168 C 
HETATM    8  O8  UNL     1     -34.238  13.868  -4.074  1.00 20.00    -0.391 OA
HETATM    9  C4  UNL     1     -35.179  14.949  -3.994  1.00 20.00     0.174 C 
ENDBRANCH   2   5
TORSDOF 1
ENDMDL
MODEL 7
REMARK VINA RESULT:      -3.7     12.285     12.830
REMARK  1 active torsions:
REMARK  status: ('A' for Active; 'I' for Inactive)
REMARK    1  A    between atoms: C5_5  and  C6_6 
ROOT
HETATM    1  C1  UNL     1     -37.170  14.645  -4.801  1.00 20.00     0.080 C 
HETATM    2  C6  UNL     1     -35.925  15.402  -4.626  1.00 20.00     0.195 C 
HETATM    3  N7  UNL     1     -38.157  14.051  -4.939  1.00 20.00    -0.196 NA
HETATM    4 CL9  UNL     1     -35.962  16.150  -3.007  1.00 20.00    -0.109 Cl
ENDROOT
BRANCH   2   5
HETATM    5  C5  UNL     1     -34.695  14.504  -4.756  1.00 20.00     0.044 C 
HETATM    6  C2  UNL     1     -34.315  14.270  -6.204  1.00 20.00     0.035 C 
HETATM    7  C3  UNL     1     -33.473  15.484  -6.537  1.00 20.00     0.168 C 
HETATM    8  O8  UNL     1     -32.882  15.936  -5.311  1.00 20.00    -0.391 OA
HETATM    9  C4  UNL     1     -33.443  15.183  -4.226  1.00 20.00     0.174 C 
ENDBRANCH   2   5
TORSDOF 1
ENDMDL
MODEL 8
REMARK VINA RESULT:      -3.7     12.095     12.574
REMARK  1 active torsions:
REMARK  status: ('A' for Active; 'I' for Inactive)
REMARK    1  A    between atoms: C5_5  and  C6_6 
ROOT
HETATM    1  C1  UNL     1     -35.470  13.324  -6.213  1.00 20.00     0.080 C 
HETATM    2  C6  UNL     1     -35.829  14.493  -5.403  1.00 20.00     0.195 C 
HETATM    3  N7  UNL     1     -35.191  12.400  -6.857  1.00 20.00    -0.196 NA
HETATM    4 CL9  UNL     1     -37.546  14.338  -4.944  1.00 20.00    -0.109 Cl
ENDROOT
BRANCH   2   5
HETATM    5  C5  UNL     1     -34.962  14.598  -4.148  1.00 20.00     0.044 C 
HETATM    6  C2  UNL     1     -33.484  14.577  -4.477  1.00 20.00     0.035 C 
HETATM    7  C3  UNL     1     -33.187  16.025  -4.810  1.00 20.00     0.168 C 
HETATM    8  O8  UNL     1     -34.137  16.825  -4.093  1.00 20.00    -0.391 OA
HETATM    9  C4  UNL     1     -35.100  15.956  -3.480  1.00 20.00     0.174 C 
ENDBRANCH   2   5
TORSDOF 1
ENDMDL
MODEL 9
REMARK VINA RESULT:      -3.7     11.945     12.790
REMARK  1 active torsions:
REMARK  status: ('A' for Active; 'I' for Inactive)
REMARK    1  A    between atoms: C5_5  and  C6_6 
ROOT
HETATM    1  C1  UNL     1     -33.594  16.727  -5.221  1.00 20.00     0.080 C 
HETATM    2  C6  UNL     1     -33.781  15.319  -5.589  1.00 20.00     0.195 C 
HETATM    3  N7  UNL     1     -33.442  17.840  -4.929  1.00 20.00    -0.196 NA
HETATM    4 CL9  UNL     1     -33.099  14.315  -4.281  1.00 20.00    -0.109 Cl
ENDROOT
BRANCH   2   5
HETATM    5  C5  UNL     1     -35.258  14.979  -5.791  1.00 20.00     0.044 C 
HETATM    6  C2  UNL     1     -35.563  14.610  -7.228  1.00 20.00     0.035 C 
HETATM    7  C3  UNL     1     -35.209  13.139  -7.286  1.00 20.00     0.168 C 
HETATM    8  O8  UNL     1     -35.378  12.612  -5.963  1.00 20.00    -0.391 OA
HETATM    9  C4  UNL     1     -35.645  13.700  -5.066  1.00 20.00     0.174 C 
ENDBRANCH   2   5
TORSDOF 1
ENDMDL
