MODEL 1
REMARK VINA RESULT:      -3.8      0.000      0.000
REMARK  0 active torsions:
REMARK  status: ('A' for Active; 'I' for Inactive)
ROOT
HETATM    1  C1  UNL     1     -35.284  13.825  -4.932  1.00 20.00     0.085 C 
HETATM    2  C2  UNL     1     -34.410  15.990  -5.719  1.00 20.00     0.051 C 
HETATM    3  C3  UNL     1     -34.929  15.590  -3.249  1.00 20.00     0.051 C 
HETATM    4  C4  UNL     1     -33.599  17.254  -5.448  1.00 20.00     0.076 C 
HETATM    5  C5  UNL     1     -34.160  16.823  -2.784  1.00 20.00     0.076 C 
HETATM    6  C6  UNL     1     -34.428  14.970  -4.566  1.00 20.00     0.127 C 
HETATM    7  N7  UNL     1     -35.956  12.924  -5.219  1.00 20.00    -0.195 NA
HETATM    8  S8  UNL     1     -34.222  18.162  -4.006  1.00 20.00    -0.169 SA
HETATM    9 CL9  UNL     1     -32.780  14.283  -4.332  1.00 20.00    -0.103 Cl
ENDROOT
TORSDOF 0
ENDMDL
MODEL 2
REMARK VINA RESULT:      -3.8      1.822      2.184
REMARK  0 active torsions:
REMARK  status: ('A' for Active; 'I' for Inactive)
ROOT
HETATM    1  C1  UNL     1     -35.658  13.850  -5.013  1.00 20.00     0.085 C 
HETATM    2  C2  UNL     1     -36.625  15.727  -3.744  1.00 20.00     0.051 C 
HETATM    3  C3  UNL     1     -34.125  15.207  -3.641  1.00 20.00     0.051 C 
HETATM    4  C4  UNL     1     -36.465  17.113  -3.125  1.00 20.00     0.076 C 
HETATM    5  C5  UNL     1     -33.769  16.552  -3.013  1.00 20.00     0.076 C 
HETATM    6  C6  UNL     1     -35.394  15.213  -4.512  1.00 20.00     0.127 C 
HETATM    7  N7  UNL     1     -35.865  12.778  -5.407  1.00 20.00    -0.195 NA
HETATM    8  S8  UNL     1     -35.093  17.171  -1.940  1.00 20.00    -0.169 SA
HETATM    9 CL9  UNL     1     -35.125  16.220  -5.980  1.00 20.00    -0.103 Cl
ENDROOT
TORSDOF 0
ENDMDL
MODEL 3
REMARK VINA RESULT:      -3.7      2.250      2.421
REMARK  0 active torsions:
REMARK  status: ('A' for Active; 'I' for Inactive)
ROOT
HETATM    1  C1  UNL     1     -37.263  14.193  -5.289  1.00 20.00     0.085 C 
HETATM    2  C2  UNL     1     -35.665  15.790  -6.272  1.00 20.00     0.051 C 
HETATM    3  C3  UNL     1     -34.982  14.240  -4.358  1.00 20.00     0.051 C 
HETATM    4  C4  UNL     1     -34.225  16.159  -6.620  1.00 20.00     0.076 C 
HETATM    5  C5  UNL     1     -33.489  14.488  -4.556  1.00 20.00     0.076 C 
HETATM    6  C6  UNL     1     -35.842  14.404  -5.624  1.00 20.00     0.127 C 
HETATM    7  N7  UNL     1     -38.381  14.026  -5.026  1.00 20.00    -0.195 NA
HETATM    8  S8  UNL     1     -33.154  16.166  -5.157  1.00 20.00    -0.169 SA
HETATM    9 CL9  UNL     1     -35.431  13.117  -6.814  1.00 20.00    -0.103 Cl
ENDROOT
TORSDOF 0
ENDMDL
MODEL 4
REMARK VINA RESULT:      -3.6      1.723      2.362
REMARK  0 active torsions:
REMARK  status: ('A' for Active; 'I' for Inactive)
ROOT
HETATM    1  C1  UNL     1     -35.694  13.862  -5.024  1.00 20.00     0.085 C 
HETATM    2  C2  UNL     1     -34.362  15.386  -3.619  1.00 20.00     0.051 C 
HETATM    3  C3  UNL     1     -35.273  16.131  -5.888  1.00 20.00     0.051 C 
HETATM    4  C4  UNL     1     -34.036  16.808  -3.170  1.00 20.00     0.076 C 
HETATM    5  C5  UNL     1     -35.018  17.611  -5.617  1.00 20.00     0.076 C 
HETATM    6  C6  UNL     1     -35.515  15.274  -4.633  1.00 20.00     0.127 C 
HETATM    7  N7  UNL     1     -35.835  12.752  -5.332  1.00 20.00    -0.195 NA
HETATM    8  S8  UNL     1     -33.563  17.868  -4.565  1.00 20.00    -0.169 SA
HETATM    9 CL9  UNL     1     -37.064  15.756  -3.852  1.00 20.00    -0.103 Cl
ENDROOT
TORSDOF 0
ENDMDL
MODEL 5
REMARK VINA RESULT:      -3.6      2.334      2.856
REMARK  0 active torsions:
REMARK  status: ('A' for Active; 'I' for Inactive)
ROOT
HETATM    1  C1  UNL     1     -37.417  14.618  -4.838  1.00 20.00     0.085 C 
HETATM    2  C2  UNL     1     -35.019  14.180  -4.477  1.00 20.00     0.051 C 
HETATM    3  C3  UNL     1     -35.808  16.194  -5.838  1.00 20.00     0.051 C 
HETATM    4  C4  UNL     1     -33.596  14.712  -4.326  1.00 20.00     0.076 C 
HETATM    5  C5  UNL     1     -34.447  16.884  -5.793  1.00 20.00     0.076 C 
HETATM    6  C6  UNL     1     -36.102  15.261  -4.650  1.00 20.00     0.127 C 
HETATM    7  N7  UNL     1     -38.451  14.113  -4.985  1.00 20.00    -0.195 NA
HETATM    8  S8  UNL     1     -33.082  15.691  -5.764  1.00 20.00    -0.169 SA
HETATM    9 CL9  UNL     1     -36.250  16.224  -3.136  1.00 20.00    -0.103 Cl
ENDROOT
TORSDOF 0
ENDMDL
MODEL 6
REMARK VINA RESULT:      -3.6      1.239      1.239
REMARK  0 active torsions:
REMARK  status: ('A' for Active; 'I' for Inactive)
ROOT
HETATM    1  C1  UNL     1     -35.442  13.916  -5.138  1.00 20.00     0.085 C 
HETATM    2  C2  UNL     1     -35.947  16.321  -5.327  1.00 20.00     0.051 C 
HETATM    3  C3  UNL     1     -34.368  15.436  -3.522  1.00 20.00     0.051 C 
HETATM    4  C4  UNL     1     -35.511  17.771  -5.138  1.00 20.00     0.076 C 
HETATM    5  C5  UNL     1     -33.809  16.818  -3.192  1.00 20.00     0.076 C 
HETATM    6  C6  UNL     1     -34.881  15.270  -4.964  1.00 20.00     0.127 C 
HETATM    7  N7  UNL     1     -35.882  12.851  -5.275  1.00 20.00    -0.195 NA
HETATM    8  S8  UNL     1     -35.048  18.123  -3.420  1.00 20.00    -0.169 SA
HETATM    9 CL9  UNL     1     -33.504  15.373  -6.119  1.00 20.00    -0.103 Cl
ENDROOT
TORSDOF 0
ENDMDL
MODEL 7
REMARK VINA RESULT:      -3.4      1.209      1.209
REMARK  0 active torsions:
REMARK  status: ('A' for Active; 'I' for Inactive)
ROOT
HETATM    1  C1  UNL     1     -35.575  13.939  -4.991  1.00 20.00     0.085 C 
HETATM    2  C2  UNL     1     -35.116  16.160  -5.953  1.00 20.00     0.051 C 
HETATM    3  C3  UNL     1     -36.144  15.911  -3.627  1.00 20.00     0.051 C 
HETATM    4  C4  UNL     1     -34.761  17.631  -5.749  1.00 20.00     0.076 C 
HETATM    5  C5  UNL     1     -35.871  17.362  -3.240  1.00 20.00     0.076 C 
HETATM    6  C6  UNL     1     -35.172  15.320  -4.664  1.00 20.00     0.127 C 
HETATM    7  N7  UNL     1     -35.892  12.852  -5.247  1.00 20.00    -0.195 NA
HETATM    8  S8  UNL     1     -35.954  18.472  -4.671  1.00 20.00    -0.169 SA
HETATM    9 CL9  UNL     1     -33.525  15.185  -3.951  1.00 20.00    -0.103 Cl
ENDROOT
TORSDOF 0
ENDMDL
MODEL 8
REMARK VINA RESULT:      -3.4      2.603      3.600
REMARK  0 active torsions:
REMARK  status: ('A' for Active; 'I' for Inactive)
ROOT
HETATM    1  C1  UNL     1     -33.673  16.273  -3.299  1.00 20.00     0.085 C 
HETATM    2  C2  UNL     1     -35.257  14.668  -4.291  1.00 20.00     0.051 C 
HETATM    3  C3  UNL     1     -33.670  16.037  -5.752  1.00 20.00     0.051 C 
HETATM    4  C4  UNL     1     -35.607  13.691  -5.410  1.00 20.00     0.076 C 
HETATM    5  C5  UNL     1     -33.896  15.169  -6.987  1.00 20.00     0.076 C 
HETATM    6  C6  UNL     1     -33.866  15.317  -4.406  1.00 20.00     0.127 C 
HETATM    7  N7  UNL     1     -33.520  17.026  -2.429  1.00 20.00    -0.195 NA
HETATM    8  S8  UNL     1     -35.577  14.489  -7.040  1.00 20.00    -0.169 SA
HETATM    9 CL9  UNL     1     -32.588  14.067  -4.190  1.00 20.00    -0.103 Cl
ENDROOT
TORSDOF 0
ENDMDL
MODEL 9
REMARK VINA RESULT:      -3.3      3.029      3.649
REMARK  0 active torsions:
REMARK  status: ('A' for Active; 'I' for Inactive)
ROOT
HETATM    1  C1  UNL     1     -34.072  16.216  -3.544  1.00 20.00     0.085 C 
HETATM    2  C2  UNL     1     -33.739  15.823  -5.954  1.00 20.00     0.051 C 
HETATM    3  C3  UNL     1     -35.142  14.228  -4.533  1.00 20.00     0.051 C 
HETATM    4  C4  UNL     1     -34.257  15.262  -7.275  1.00 20.00     0.076 C 
HETATM    5  C5  UNL     1     -35.770  13.542  -5.743  1.00 20.00     0.076 C 
HETATM    6  C6  UNL     1     -34.709  15.687  -4.766  1.00 20.00     0.127 C 
HETATM    7  N7  UNL     1     -33.571  16.631  -2.583  1.00 20.00    -0.195 NA
HETATM    8  S8  UNL     1     -34.637  13.492  -7.158  1.00 20.00    -0.169 SA
HETATM    9 CL9  UNL     1     -36.157  16.720  -5.038  1.00 20.00    -0.103 Cl
ENDROOT
TORSDOF 0
ENDMDL
