MODEL 1
REMARK VINA RESULT:      -4.4      0.000      0.000
REMARK  1 active torsions:
REMARK  status: ('A' for Active; 'I' for Inactive)
REMARK    1  A    between atoms: C4_4  and  C5_5 
ROOT
HETATM    1  C1  UNL     1     -33.976   6.637   5.195  1.00 20.00     0.085 C 
HETATM    2  C3  UNL     1     -34.319   4.279   4.598  1.00 20.00     0.049 C 
HETATM    3  C5  UNL     1     -34.283   5.721   4.081  1.00 20.00     0.121 C 
HETATM    4  N6  UNL     1     -33.731   7.356   6.073  1.00 20.00    -0.195 NA
HETATM    5 CL7  UNL     1     -35.925   6.141   3.490  1.00 20.00    -0.103 Cl
ENDROOT
BRANCH   3   6
HETATM    6  C4  UNL     1     -33.248   5.845   2.945  1.00 20.00     0.036 C 
HETATM    7  C2  UNL     1     -32.741   7.258   2.660  1.00 20.00     0.008 C 
ENDBRANCH   3   6
TORSDOF 1
ENDMDL
MODEL 2
REMARK VINA RESULT:      -4.3      1.935      2.709
REMARK  1 active torsions:
REMARK  status: ('A' for Active; 'I' for Inactive)
REMARK    1  A    between atoms: C4_4  and  C5_5 
ROOT
HETATM    1  C1  UNL     1     -33.283   6.366   3.426  1.00 20.00     0.085 C 
HETATM    2  C3  UNL     1     -35.708   6.032   3.634  1.00 20.00     0.049 C 
HETATM    3  C5  UNL     1     -34.332   5.711   4.228  1.00 20.00     0.121 C 
HETATM    4  N6  UNL     1     -32.459   6.885   2.794  1.00 20.00    -0.195 NA
HETATM    5 CL7  UNL     1     -34.069   3.940   4.097  1.00 20.00    -0.103 Cl
ENDROOT
BRANCH   3   6
HETATM    6  C4  UNL     1     -34.280   6.161   5.703  1.00 20.00     0.036 C 
HETATM    7  C2  UNL     1     -33.588   7.497   5.964  1.00 20.00     0.008 C 
ENDBRANCH   3   6
TORSDOF 1
ENDMDL
MODEL 3
REMARK VINA RESULT:      -3.9      2.085      2.396
REMARK  1 active torsions:
REMARK  status: ('A' for Active; 'I' for Inactive)
REMARK    1  A    between atoms: C4_4  and  C5_5 
ROOT
HETATM    1  C1  UNL     1     -34.150   4.603   4.236  1.00 20.00     0.085 C 
HETATM    2  C3  UNL     1     -35.600   6.408   3.415  1.00 20.00     0.049 C 
HETATM    3  C5  UNL     1     -34.204   6.044   3.932  1.00 20.00     0.121 C 
HETATM    4  N6  UNL     1     -34.109   3.467   4.473  1.00 20.00    -0.195 NA
HETATM    5 CL7  UNL     1     -33.937   6.920   5.477  1.00 20.00    -0.103 Cl
ENDROOT
BRANCH   3   6
HETATM    6  C4  UNL     1     -33.139   6.443   2.890  1.00 20.00     0.036 C 
HETATM    7  C2  UNL     1     -32.303   7.674   3.232  1.00 20.00     0.008 C 
ENDBRANCH   3   6
TORSDOF 1
ENDMDL
MODEL 4
REMARK VINA RESULT:      -3.7      1.844      2.798
REMARK  1 active torsions:
REMARK  status: ('A' for Active; 'I' for Inactive)
REMARK    1  A    between atoms: C4_4  and  C5_5 
ROOT
HETATM    1  C1  UNL     1     -34.139   4.418   4.183  1.00 20.00     0.085 C 
HETATM    2  C3  UNL     1     -33.291   6.591   3.412  1.00 20.00     0.049 C 
HETATM    3  C5  UNL     1     -34.359   5.874   4.246  1.00 20.00     0.121 C 
HETATM    4  N6  UNL     1     -33.963   3.272   4.134  1.00 20.00    -0.195 NA
HETATM    5 CL7  UNL     1     -35.959   6.200   3.501  1.00 20.00    -0.103 Cl
ENDROOT
BRANCH   3   6
HETATM    6  C4  UNL     1     -34.321   6.389   5.700  1.00 20.00     0.036 C 
HETATM    7  C2  UNL     1     -33.445   7.617   5.946  1.00 20.00     0.008 C 
ENDBRANCH   3   6
TORSDOF 1
ENDMDL
MODEL 5
REMARK VINA RESULT:      -3.6      1.543      2.328
REMARK  1 active torsions:
REMARK  status: ('A' for Active; 'I' for Inactive)
REMARK    1  A    between atoms: C4_4  and  C5_5 
ROOT
HETATM    1  C1  UNL     1     -33.810   6.887   4.943  1.00 20.00     0.085 C 
HETATM    2  C3  UNL     1     -35.407   6.431   3.133  1.00 20.00     0.049 C 
HETATM    3  C5  UNL     1     -33.944   6.342   3.580  1.00 20.00     0.121 C 
HETATM    4  N6  UNL     1     -33.707   7.315   6.017  1.00 20.00    -0.195 NA
HETATM    5 CL7  UNL     1     -32.966   7.385   2.495  1.00 20.00    -0.103 Cl
ENDROOT
BRANCH   3   6
HETATM    6  C4  UNL     1     -33.463   4.878   3.507  1.00 20.00     0.036 C 
HETATM    7  C2  UNL     1     -34.157   3.903   4.456  1.00 20.00     0.008 C 
ENDBRANCH   3   6
TORSDOF 1
ENDMDL
MODEL 6
REMARK VINA RESULT:      -3.6      1.456      1.984
REMARK  1 active torsions:
REMARK  status: ('A' for Active; 'I' for Inactive)
REMARK    1  A    between atoms: C4_4  and  C5_5 
ROOT
HETATM    1  C1  UNL     1     -33.382   6.978   3.670  1.00 20.00     0.085 C 
HETATM    2  C3  UNL     1     -34.359   6.063   5.730  1.00 20.00     0.049 C 
HETATM    3  C5  UNL     1     -34.270   5.931   4.206  1.00 20.00     0.121 C 
HETATM    4  N6  UNL     1     -32.680   7.802   3.250  1.00 20.00    -0.195 NA
HETATM    5 CL7  UNL     1     -35.905   6.225   3.525  1.00 20.00    -0.103 Cl
ENDROOT
BRANCH   3   6
HETATM    6  C4  UNL     1     -33.771   4.520   3.831  1.00 20.00     0.036 C 
HETATM    7  C2  UNL     1     -32.985   4.419   2.525  1.00 20.00     0.008 C 
ENDBRANCH   3   6
TORSDOF 1
ENDMDL
MODEL 7
REMARK VINA RESULT:      -3.5     12.407     12.648
REMARK  1 active torsions:
REMARK  status: ('A' for Active; 'I' for Inactive)
REMARK    1  A    between atoms: C4_4  and  C5_5 
ROOT
HETATM    1  C1  UNL     1     -35.291  13.851  -4.936  1.00 20.00     0.085 C 
HETATM    2  C3  UNL     1     -33.009  14.597  -4.411  1.00 20.00     0.049 C 
HETATM    3  C5  UNL     1     -34.468  15.028  -4.601  1.00 20.00     0.121 C 
HETATM    4  N6  UNL     1     -35.937  12.923  -5.197  1.00 20.00    -0.195 NA
HETATM    5 CL7  UNL     1     -34.541  16.141  -6.008  1.00 20.00    -0.103 Cl
ENDROOT
BRANCH   3   6
HETATM    6  C4  UNL     1     -34.977  15.729  -3.325  1.00 20.00     0.036 C 
HETATM    7  C2  UNL     1     -33.966  16.626  -2.613  1.00 20.00     0.008 C 
ENDBRANCH   3   6
TORSDOF 1
ENDMDL
MODEL 8
REMARK VINA RESULT:      -3.4     12.107     12.846
REMARK  1 active torsions:
REMARK  status: ('A' for Active; 'I' for Inactive)
REMARK    1  A    between atoms: C4_4  and  C5_5 
ROOT
HETATM    1  C1  UNL     1     -35.231  13.814  -4.987  1.00 20.00     0.085 C 
HETATM    2  C3  UNL     1     -34.841  15.705  -3.468  1.00 20.00     0.049 C 
HETATM    3  C5  UNL     1     -34.318  14.931  -4.683  1.00 20.00     0.121 C 
HETATM    4  N6  UNL     1     -35.952  12.937  -5.227  1.00 20.00    -0.195 NA
HETATM    5 CL7  UNL     1     -32.732  14.213  -4.245  1.00 20.00    -0.103 Cl
ENDROOT
BRANCH   3   6
HETATM    6  C4  UNL     1     -34.170  15.885  -5.886  1.00 20.00     0.036 C 
HETATM    7  C2  UNL     1     -33.855  15.219  -7.225  1.00 20.00     0.008 C 
ENDBRANCH   3   6
TORSDOF 1
ENDMDL
MODEL 9
REMARK VINA RESULT:      -3.3     12.231     12.777
REMARK  1 active torsions:
REMARK  status: ('A' for Active; 'I' for Inactive)
REMARK    1  A    between atoms: C4_4  and  C5_5 
ROOT
HETATM    1  C1  UNL     1     -35.613  13.906  -4.974  1.00 20.00     0.085 C 
HETATM    2  C3  UNL     1     -35.177  16.146  -5.885  1.00 20.00     0.049 C 
HETATM    3  C5  UNL     1     -35.305  15.302  -4.613  1.00 20.00     0.121 C 
HETATM    4  N6  UNL     1     -35.853  12.808  -5.261  1.00 20.00    -0.195 NA
HETATM    5 CL7  UNL     1     -36.700  15.923  -3.670  1.00 20.00    -0.103 Cl
ENDROOT
BRANCH   3   6
HETATM    6  C4  UNL     1     -34.005  15.398  -3.788  1.00 20.00     0.036 C 
HETATM    7  C2  UNL     1     -33.955  16.523  -2.756  1.00 20.00     0.008 C 
ENDBRANCH   3   6
TORSDOF 1
ENDMDL
