MODEL 1
REMARK VINA RESULT:      -3.9      0.000      0.000
REMARK  1 active torsions:
REMARK  status: ('A' for Active; 'I' for Inactive)
REMARK    1  A    between atoms: C5_5  and  C6_6 
ROOT
HETATM    1  C1  UNL     1     -32.546   8.648   1.668  1.00 20.00     0.084 C 
HETATM    2  C6  UNL     1     -32.559   8.291   3.104  1.00 20.00     0.222 C 
HETATM    3  N7  UNL     1     -32.516   8.930   0.543  1.00 20.00    -0.195 NA
HETATM    4 CL9  UNL     1     -30.858   8.293   3.677  1.00 20.00    -0.104 Cl
ENDROOT
BRANCH   2   5
HETATM    5  C5  UNL     1     -33.216   6.998   3.408  1.00 20.00    -0.019 A 
HETATM    6  C2  UNL     1     -33.007   5.804   2.659  1.00 20.00     0.017 A 
HETATM    7  C3  UNL     1     -33.739   4.748   3.153  1.00 20.00     0.050 A 
HETATM    8  S8  UNL     1     -34.674   5.195   4.516  1.00 20.00    -0.113 SA
HETATM    9  C4  UNL     1     -34.101   6.807   4.448  1.00 20.00     0.059 A 
ENDBRANCH   2   5
TORSDOF 1
ENDMDL
MODEL 2
REMARK VINA RESULT:      -3.9     11.270     11.600
REMARK  1 active torsions:
REMARK  status: ('A' for Active; 'I' for Inactive)
REMARK    1  A    between atoms: C5_5  and  C6_6 
ROOT
HETATM    1  C1  UNL     1     -35.498  13.977  -5.198  1.00 20.00     0.084 C 
HETATM    2  C6  UNL     1     -35.032  15.382  -5.223  1.00 20.00     0.222 C 
HETATM    3  N7  UNL     1     -35.847  12.871  -5.188  1.00 20.00    -0.195 NA
HETATM    4 CL9  UNL     1     -33.465  15.415  -6.100  1.00 20.00    -0.104 Cl
ENDROOT
BRANCH   2   5
HETATM    5  C5  UNL     1     -34.900  16.008  -3.886  1.00 20.00    -0.019 A 
HETATM    6  C2  UNL     1     -33.655  16.377  -3.300  1.00 20.00     0.017 A 
HETATM    7  C3  UNL     1     -33.817  16.937  -2.052  1.00 20.00     0.050 A 
HETATM    8  S8  UNL     1     -35.464  17.019  -1.593  1.00 20.00    -0.113 SA
HETATM    9  C4  UNL     1     -35.967  16.302  -3.064  1.00 20.00     0.059 A 
ENDBRANCH   2   5
TORSDOF 1
ENDMDL
MODEL 3
REMARK VINA RESULT:      -3.8      3.321      4.164
REMARK  1 active torsions:
REMARK  status: ('A' for Active; 'I' for Inactive)
REMARK    1  A    between atoms: C5_5  and  C6_6 
ROOT
HETATM    1  C1  UNL     1     -34.262   6.112   4.753  1.00 20.00     0.084 C 
HETATM    2  C6  UNL     1     -34.002   6.131   3.297  1.00 20.00     0.222 C 
HETATM    3  N7  UNL     1     -34.460   6.080   5.896  1.00 20.00    -0.195 NA
HETATM    4 CL9  UNL     1     -33.303   4.538   2.853  1.00 20.00    -0.104 Cl
ENDROOT
BRANCH   2   5
HETATM    5  C5  UNL     1     -33.124   7.236   2.845  1.00 20.00    -0.019 A 
HETATM    6  C2  UNL     1     -32.032   7.745   3.606  1.00 20.00     0.017 A 
HETATM    7  C3  UNL     1     -31.383   8.771   2.955  1.00 20.00     0.050 A 
HETATM    8  S8  UNL     1     -32.088   9.116   1.434  1.00 20.00    -0.113 SA
HETATM    9  C4  UNL     1     -33.267   7.892   1.642  1.00 20.00     0.059 A 
ENDBRANCH   2   5
TORSDOF 1
ENDMDL
MODEL 4
REMARK VINA RESULT:      -3.7     11.339     11.698
REMARK  1 active torsions:
REMARK  status: ('A' for Active; 'I' for Inactive)
REMARK    1  A    between atoms: C5_5  and  C6_6 
ROOT
HETATM    1  C1  UNL     1     -35.519  13.951  -5.252  1.00 20.00     0.084 C 
HETATM    2  C6  UNL     1     -35.073  15.361  -5.307  1.00 20.00     0.222 C 
HETATM    3  N7  UNL     1     -35.853  12.840  -5.219  1.00 20.00    -0.195 NA
HETATM    4 CL9  UNL     1     -33.551  15.409  -6.259  1.00 20.00    -0.104 Cl
ENDROOT
BRANCH   2   5
HETATM    5  C5  UNL     1     -34.885  15.997  -3.982  1.00 20.00    -0.019 A 
HETATM    6  C2  UNL     1     -35.940  16.212  -3.047  1.00 20.00     0.017 A 
HETATM    7  C3  UNL     1     -35.493  16.822  -1.896  1.00 20.00     0.050 A 
HETATM    8  S8  UNL     1     -33.810  17.130  -1.942  1.00 20.00    -0.113 SA
HETATM    9  C4  UNL     1     -33.673  16.449  -3.507  1.00 20.00     0.059 A 
ENDBRANCH   2   5
TORSDOF 1
ENDMDL
MODEL 5
REMARK VINA RESULT:      -3.7     11.509     11.757
REMARK  1 active torsions:
REMARK  status: ('A' for Active; 'I' for Inactive)
REMARK    1  A    between atoms: C5_5  and  C6_6 
ROOT
HETATM    1  C1  UNL     1     -31.801  18.917   1.110  1.00 20.00     0.084 C 
HETATM    2  C6  UNL     1     -33.266  18.945   0.905  1.00 20.00     0.222 C 
HETATM    3  N7  UNL     1     -30.655  18.888   1.289  1.00 20.00    -0.195 NA
HETATM    4 CL9  UNL     1     -34.034  18.345   2.413  1.00 20.00    -0.104 Cl
ENDROOT
BRANCH   2   5
HETATM    5  C5  UNL     1     -33.735  18.171  -0.269  1.00 20.00    -0.019 A 
HETATM    6  C2  UNL     1     -32.932  17.897  -1.413  1.00 20.00     0.017 A 
HETATM    7  C3  UNL     1     -33.612  17.161  -2.358  1.00 20.00     0.050 A 
HETATM    8  S8  UNL     1     -35.211  16.802  -1.865  1.00 20.00    -0.113 SA
HETATM    9  C4  UNL     1     -34.999  17.633  -0.383  1.00 20.00     0.059 A 
ENDBRANCH   2   5
TORSDOF 1
ENDMDL
MODEL 6
REMARK VINA RESULT:      -3.7     11.290     11.900
REMARK  1 active torsions:
REMARK  status: ('A' for Active; 'I' for Inactive)
REMARK    1  A    between atoms: C5_5  and  C6_6 
ROOT
HETATM    1  C1  UNL     1     -33.028  18.030  -1.684  1.00 20.00     0.084 C 
HETATM    2  C6  UNL     1     -34.262  17.611  -2.384  1.00 20.00     0.222 C 
HETATM    3  N7  UNL     1     -32.067  18.352  -1.117  1.00 20.00    -0.195 NA
HETATM    4 CL9  UNL     1     -35.341  16.849  -1.169  1.00 20.00    -0.104 Cl
ENDROOT
BRANCH   2   5
HETATM    5  C5  UNL     1     -34.036  16.701  -3.532  1.00 20.00    -0.019 A 
HETATM    6  C2  UNL     1     -34.432  15.332  -3.551  1.00 20.00     0.017 A 
HETATM    7  C3  UNL     1     -34.101  14.715  -4.737  1.00 20.00     0.050 A 
HETATM    8  S8  UNL     1     -33.319  15.783  -5.822  1.00 20.00    -0.113 SA
HETATM    9  C4  UNL     1     -33.419  17.077  -4.705  1.00 20.00     0.059 A 
ENDBRANCH   2   5
TORSDOF 1
ENDMDL
MODEL 7
REMARK VINA RESULT:      -3.7     11.119     11.613
REMARK  1 active torsions:
REMARK  status: ('A' for Active; 'I' for Inactive)
REMARK    1  A    between atoms: C5_5  and  C6_6 
ROOT
HETATM    1  C1  UNL     1     -34.462  14.631  -4.041  1.00 20.00     0.084 C 
HETATM    2  C6  UNL     1     -35.338  15.706  -3.526  1.00 20.00     0.222 C 
HETATM    3  N7  UNL     1     -33.778  13.793  -4.463  1.00 20.00    -0.195 NA
HETATM    4 CL9  UNL     1     -35.885  16.678  -4.933  1.00 20.00    -0.104 Cl
ENDROOT
BRANCH   2   5
HETATM    5  C5  UNL     1     -34.707  16.572  -2.502  1.00 20.00    -0.019 A 
HETATM    6  C2  UNL     1     -35.323  16.916  -1.264  1.00 20.00     0.017 A 
HETATM    7  C3  UNL     1     -34.522  17.733  -0.497  1.00 20.00     0.050 A 
HETATM    8  S8  UNL     1     -33.033  18.081  -1.268  1.00 20.00    -0.113 SA
HETATM    9  C4  UNL     1     -33.458  17.139  -2.633  1.00 20.00     0.059 A 
ENDBRANCH   2   5
TORSDOF 1
ENDMDL
MODEL 8
REMARK VINA RESULT:      -3.6     10.977     11.508
REMARK  1 active torsions:
REMARK  status: ('A' for Active; 'I' for Inactive)
REMARK    1  A    between atoms: C5_5  and  C6_6 
ROOT
HETATM    1  C1  UNL     1     -34.535  14.721  -4.082  1.00 20.00     0.084 C 
HETATM    2  C6  UNL     1     -34.652  16.195  -4.044  1.00 20.00     0.222 C 
HETATM    3  N7  UNL     1     -34.429  13.566  -4.124  1.00 20.00    -0.195 NA
HETATM    4 CL9  UNL     1     -33.341  16.867  -5.071  1.00 20.00    -0.104 Cl
ENDROOT
BRANCH   2   5
HETATM    5  C5  UNL     1     -34.606  16.779  -2.682  1.00 20.00    -0.019 A 
HETATM    6  C2  UNL     1     -33.428  17.316  -2.087  1.00 20.00     0.017 A 
HETATM    7  C3  UNL     1     -33.662  17.792  -0.816  1.00 20.00     0.050 A 
HETATM    8  S8  UNL     1     -35.296  17.594  -0.346  1.00 20.00    -0.113 SA
HETATM    9  C4  UNL     1     -35.696  16.867  -1.844  1.00 20.00     0.059 A 
ENDBRANCH   2   5
TORSDOF 1
ENDMDL
MODEL 9
REMARK VINA RESULT:      -3.6     11.428     11.710
REMARK  1 active torsions:
REMARK  status: ('A' for Active; 'I' for Inactive)
REMARK    1  A    between atoms: C5_5  and  C6_6 
ROOT
HETATM    1  C1  UNL     1     -33.678  16.655  -5.037  1.00 20.00     0.084 C 
HETATM    2  C6  UNL     1     -33.567  15.885  -3.778  1.00 20.00     0.222 C 
HETATM    3  N7  UNL     1     -33.775  17.244  -6.032  1.00 20.00    -0.195 NA
HETATM    4 CL9  UNL     1     -34.485  14.357  -3.996  1.00 20.00    -0.104 Cl
ENDROOT
BRANCH   2   5
HETATM    5  C5  UNL     1     -34.031  16.611  -2.573  1.00 20.00    -0.019 A 
HETATM    6  C2  UNL     1     -35.355  16.526  -2.055  1.00 20.00     0.017 A 
HETATM    7  C3  UNL     1     -35.521  17.301  -0.928  1.00 20.00     0.050 A 
HETATM    8  S8  UNL     1     -34.083  18.125  -0.498  1.00 20.00    -0.113 SA
HETATM    9  C4  UNL     1     -33.234  17.447  -1.821  1.00 20.00     0.059 A 
ENDBRANCH   2   5
TORSDOF 1
ENDMDL
