MODEL 1
REMARK VINA RESULT:      -4.1      0.000      0.000
REMARK  0 active torsions:
REMARK  status: ('A' for Active; 'I' for Inactive)
ROOT
HETATM    1  C1  UNL     1     -32.901   7.239   2.786  1.00 20.00     0.085 C 
HETATM    2  C2  UNL     1     -33.384   4.902   3.442  1.00 20.00     0.067 C 
HETATM    3  C3  UNL     1     -33.936   6.804   4.991  1.00 20.00     0.067 C 
HETATM    4  C4  UNL     1     -34.194   4.004   4.374  1.00 20.00     0.170 C 
HETATM    5  C5  UNL     1     -34.713   5.796   5.835  1.00 20.00     0.170 C 
HETATM    6  C6  UNL     1     -33.832   6.369   3.521  1.00 20.00     0.129 C 
HETATM    7  N7  UNL     1     -32.166   7.924   2.206  1.00 20.00    -0.195 NA
HETATM    8  O8  UNL     1     -34.147   4.492   5.713  1.00 20.00    -0.391 OA
HETATM    9 CL9  UNL     1     -35.430   6.561   2.718  1.00 20.00    -0.103 Cl
ENDROOT
TORSDOF 0
ENDMDL
MODEL 2
REMARK VINA RESULT:      -4.1     12.322     13.261
REMARK  0 active torsions:
REMARK  status: ('A' for Active; 'I' for Inactive)
ROOT
HETATM    1  C1  UNL     1     -36.849  14.172  -5.233  1.00 20.00     0.085 C 
HETATM    2  C2  UNL     1     -35.220  15.856  -6.032  1.00 20.00     0.067 C 
HETATM    3  C3  UNL     1     -34.561  14.169  -4.289  1.00 20.00     0.067 C 
HETATM    4  C4  UNL     1     -33.741  16.218  -6.137  1.00 20.00     0.170 C 
HETATM    5  C5  UNL     1     -33.119  14.628  -4.494  1.00 20.00     0.170 C 
HETATM    6  C6  UNL     1     -35.429  14.420  -5.531  1.00 20.00     0.129 C 
HETATM    7  N7  UNL     1     -37.968  13.979  -4.997  1.00 20.00    -0.195 NA
HETATM    8  O8  UNL     1     -33.077  15.997  -4.895  1.00 20.00    -0.391 OA
HETATM    9 CL9  UNL     1     -34.985  13.254  -6.827  1.00 20.00    -0.103 Cl
ENDROOT
TORSDOF 0
ENDMDL
MODEL 3
REMARK VINA RESULT:      -3.9     12.330     13.207
REMARK  0 active torsions:
REMARK  status: ('A' for Active; 'I' for Inactive)
ROOT
HETATM    1  C1  UNL     1     -36.930  14.575  -4.774  1.00 20.00     0.085 C 
HETATM    2  C2  UNL     1     -34.524  14.184  -4.342  1.00 20.00     0.067 C 
HETATM    3  C3  UNL     1     -35.271  16.139  -5.733  1.00 20.00     0.067 C 
HETATM    4  C4  UNL     1     -33.134  14.815  -4.331  1.00 20.00     0.170 C 
HETATM    5  C5  UNL     1     -33.837  16.658  -5.644  1.00 20.00     0.170 C 
HETATM    6  C6  UNL     1     -35.630  15.228  -4.550  1.00 20.00     0.129 C 
HETATM    7  N7  UNL     1     -37.953  14.058  -4.950  1.00 20.00    -0.195 NA
HETATM    8  O8  UNL     1     -32.916  15.576  -5.517  1.00 20.00    -0.391 OA
HETATM    9 CL9  UNL     1     -35.822  16.216  -3.060  1.00 20.00    -0.103 Cl
ENDROOT
TORSDOF 0
ENDMDL
MODEL 4
REMARK VINA RESULT:      -3.8     12.383     13.119
REMARK  0 active torsions:
REMARK  status: ('A' for Active; 'I' for Inactive)
ROOT
HETATM    1  C1  UNL     1     -35.253  13.812  -4.929  1.00 20.00     0.085 C 
HETATM    2  C2  UNL     1     -34.289  15.966  -5.675  1.00 20.00     0.067 C 
HETATM    3  C3  UNL     1     -34.859  15.592  -3.256  1.00 20.00     0.067 C 
HETATM    4  C4  UNL     1     -33.565  17.235  -5.234  1.00 20.00     0.170 C 
HETATM    5  C5  UNL     1     -34.102  16.883  -2.953  1.00 20.00     0.170 C 
HETATM    6  C6  UNL     1     -34.368  14.925  -4.550  1.00 20.00     0.129 C 
HETATM    7  N7  UNL     1     -35.952  12.936  -5.229  1.00 20.00    -0.195 NA
HETATM    8  O8  UNL     1     -34.168  17.779  -4.062  1.00 20.00    -0.391 OA
HETATM    9 CL9  UNL     1     -32.745  14.198  -4.279  1.00 20.00    -0.103 Cl
ENDROOT
TORSDOF 0
ENDMDL
MODEL 5
REMARK VINA RESULT:      -3.7     12.434     12.862
REMARK  0 active torsions:
REMARK  status: ('A' for Active; 'I' for Inactive)
ROOT
HETATM    1  C1  UNL     1     -35.626  13.870  -4.982  1.00 20.00     0.085 C 
HETATM    2  C2  UNL     1     -36.451  15.790  -3.655  1.00 20.00     0.067 C 
HETATM    3  C3  UNL     1     -34.000  15.235  -3.709  1.00 20.00     0.067 C 
HETATM    4  C4  UNL     1     -36.065  17.099  -2.971  1.00 20.00     0.170 C 
HETATM    5  C5  UNL     1     -33.755  16.576  -3.021  1.00 20.00     0.170 C 
HETATM    6  C6  UNL     1     -35.308  15.229  -4.514  1.00 20.00     0.129 C 
HETATM    7  N7  UNL     1     -35.877  12.799  -5.349  1.00 20.00    -0.195 NA
HETATM    8  O8  UNL     1     -34.871  16.938  -2.208  1.00 20.00    -0.391 OA
HETATM    9 CL9  UNL     1     -35.114  16.231  -5.995  1.00 20.00    -0.103 Cl
ENDROOT
TORSDOF 0
ENDMDL
MODEL 6
REMARK VINA RESULT:      -3.7     12.520     13.382
REMARK  0 active torsions:
REMARK  status: ('A' for Active; 'I' for Inactive)
ROOT
HETATM    1  C1  UNL     1     -35.624  13.852  -5.007  1.00 20.00     0.085 C 
HETATM    2  C2  UNL     1     -34.129  15.306  -3.673  1.00 20.00     0.067 C 
HETATM    3  C3  UNL     1     -35.062  16.103  -5.867  1.00 20.00     0.067 C 
HETATM    4  C4  UNL     1     -33.661  16.739  -3.434  1.00 20.00     0.170 C 
HETATM    5  C5  UNL     1     -34.539  17.491  -5.503  1.00 20.00     0.170 C 
HETATM    6  C6  UNL     1     -35.333  15.243  -4.624  1.00 20.00     0.129 C 
HETATM    7  N7  UNL     1     -35.851  12.755  -5.308  1.00 20.00    -0.195 NA
HETATM    8  O8  UNL     1     -33.384  17.393  -4.671  1.00 20.00    -0.391 OA
HETATM    9 CL9  UNL     1     -36.805  15.843  -3.781  1.00 20.00    -0.103 Cl
ENDROOT
TORSDOF 0
ENDMDL
MODEL 7
REMARK VINA RESULT:      -3.7     12.262     12.711
REMARK  0 active torsions:
REMARK  status: ('A' for Active; 'I' for Inactive)
ROOT
HETATM    1  C1  UNL     1     -34.490  16.169  -3.205  1.00 20.00     0.085 C 
HETATM    2  C2  UNL     1     -35.011  14.097  -4.455  1.00 20.00     0.067 C 
HETATM    3  C3  UNL     1     -36.822  15.755  -3.921  1.00 20.00     0.067 C 
HETATM    4  C4  UNL     1     -36.013  13.408  -5.377  1.00 20.00     0.170 C 
HETATM    5  C5  UNL     1     -37.722  14.970  -4.874  1.00 20.00     0.170 C 
HETATM    6  C6  UNL     1     -35.334  15.585  -4.260  1.00 20.00     0.129 C 
HETATM    7  N7  UNL     1     -33.825  16.627  -2.372  1.00 20.00    -0.195 NA
HETATM    8  O8  UNL     1     -37.346  13.594  -4.905  1.00 20.00    -0.391 OA
HETATM    9 CL9  UNL     1     -34.946  16.493  -5.763  1.00 20.00    -0.103 Cl
ENDROOT
TORSDOF 0
ENDMDL
MODEL 8
REMARK VINA RESULT:      -3.7     12.692     13.405
REMARK  0 active torsions:
REMARK  status: ('A' for Active; 'I' for Inactive)
ROOT
HETATM    1  C1  UNL     1     -33.998  16.544  -5.186  1.00 20.00     0.085 C 
HETATM    2  C2  UNL     1     -34.047  14.666  -6.797  1.00 20.00     0.067 C 
HETATM    3  C3  UNL     1     -35.417  14.578  -4.692  1.00 20.00     0.067 C 
HETATM    4  C4  UNL     1     -34.821  13.437  -7.266  1.00 20.00     0.170 C 
HETATM    5  C5  UNL     1     -36.112  13.353  -5.281  1.00 20.00     0.170 C 
HETATM    6  C6  UNL     1     -34.843  15.497  -5.781  1.00 20.00     0.129 C 
HETATM    7  N7  UNL     1     -33.330  17.369  -4.718  1.00 20.00    -0.195 NA
HETATM    8  O8  UNL     1     -35.234  12.645  -6.154  1.00 20.00    -0.391 OA
HETATM    9 CL9  UNL     1     -36.184  16.357  -6.617  1.00 20.00    -0.103 Cl
ENDROOT
TORSDOF 0
ENDMDL
MODEL 9
REMARK VINA RESULT:      -3.6     12.539     13.287
REMARK  0 active torsions:
REMARK  status: ('A' for Active; 'I' for Inactive)
ROOT
HETATM    1  C1  UNL     1     -33.699  16.661  -4.932  1.00 20.00     0.085 C 
HETATM    2  C2  UNL     1     -35.427  14.903  -4.705  1.00 20.00     0.067 C 
HETATM    3  C3  UNL     1     -33.937  14.976  -6.728  1.00 20.00     0.067 C 
HETATM    4  C4  UNL     1     -35.885  13.528  -5.181  1.00 20.00     0.170 C 
HETATM    5  C5  UNL     1     -34.481  13.595  -7.089  1.00 20.00     0.170 C 
HETATM    6  C6  UNL     1     -34.024  15.255  -5.220  1.00 20.00     0.129 C 
HETATM    7  N7  UNL     1     -33.445  17.770  -4.705  1.00 20.00    -0.195 NA
HETATM    8  O8  UNL     1     -35.813  13.435  -6.602  1.00 20.00    -0.391 OA
HETATM    9 CL9  UNL     1     -32.793  14.274  -4.350  1.00 20.00    -0.103 Cl
ENDROOT
TORSDOF 0
ENDMDL
