MODEL 1
REMARK VINA RESULT:      -5.0      0.000      0.000
REMARK  2 active torsions:
REMARK  status: ('A' for Active; 'I' for Inactive)
REMARK    1  A    between atoms: C4_4  and  C5_5 
REMARK    2  A    between atoms: C4_4  and  C6_6 
ROOT
HETATM    1  C1  UNL     1     -32.670   7.349   2.620  1.00 20.00     0.079 C 
HETATM    2  C5  UNL     1     -33.705   6.309   2.579  1.00 20.00     0.189 C 
HETATM    3  N7  UNL     1     -31.855   8.175   2.651  1.00 20.00    -0.196 NA
HETATM    4 CL8  UNL     1     -32.862   4.730   2.539  1.00 20.00    -0.109 Cl
ENDROOT
BRANCH   2   5
HETATM    5  C4  UNL     1     -34.635   6.357   3.796  1.00 20.00     0.039 C 
BRANCH   5   6
HETATM    6  C6  UNL     1     -33.949   6.072   5.150  1.00 20.00    -0.020 C 
HETATM    7  C2  UNL     1     -33.887   7.310   6.046  1.00 20.00     0.009 C 
HETATM    8  C3  UNL     1     -34.689   4.946   5.878  1.00 20.00     0.009 C 
ENDBRANCH   5   6
ENDBRANCH   2   5
TORSDOF 2
ENDMDL
MODEL 2
REMARK VINA RESULT:      -4.8      2.651      3.953
REMARK  2 active torsions:
REMARK  status: ('A' for Active; 'I' for Inactive)
REMARK    1  A    between atoms: C4_4  and  C5_5 
REMARK    2  A    between atoms: C4_4  and  C6_6 
ROOT
HETATM    1  C1  UNL     1     -34.367   4.987   4.190  1.00 20.00     0.079 C 
HETATM    2  C5  UNL     1     -34.208   6.414   3.886  1.00 20.00     0.189 C 
HETATM    3  N7  UNL     1     -34.496   3.858   4.425  1.00 20.00    -0.196 NA
HETATM    4 CL8  UNL     1     -33.843   7.242   5.431  1.00 20.00    -0.109 Cl
ENDROOT
BRANCH   2   5
HETATM    5  C4  UNL     1     -33.076   6.680   2.888  1.00 20.00     0.039 C 
BRANCH   5   6
HETATM    6  C6  UNL     1     -32.581   8.141   2.841  1.00 20.00    -0.020 C 
HETATM    7  C2  UNL     1     -31.231   8.324   3.537  1.00 20.00     0.009 C 
HETATM    8  C3  UNL     1     -32.477   8.606   1.385  1.00 20.00     0.009 C 
ENDBRANCH   5   6
ENDBRANCH   2   5
TORSDOF 2
ENDMDL
MODEL 3
REMARK VINA RESULT:      -4.7      1.931      2.109
REMARK  2 active torsions:
REMARK  status: ('A' for Active; 'I' for Inactive)
REMARK    1  A    between atoms: C4_4  and  C5_5 
REMARK    2  A    between atoms: C4_4  and  C6_6 
ROOT
HETATM    1  C1  UNL     1     -32.524   8.746   1.533  1.00 20.00     0.079 C 
HETATM    2  C5  UNL     1     -32.467   7.728   2.588  1.00 20.00     0.189 C 
HETATM    3  N7  UNL     1     -32.572   9.548   0.695  1.00 20.00    -0.196 NA
HETATM    4 CL8  UNL     1     -31.223   8.258   3.762  1.00 20.00    -0.109 Cl
ENDROOT
BRANCH   2   5
HETATM    5  C4  UNL     1     -33.807   7.555   3.312  1.00 20.00     0.039 C 
BRANCH   5   6
HETATM    6  C6  UNL     1     -33.794   6.528   4.465  1.00 20.00    -0.020 C 
HETATM    7  C2  UNL     1     -33.857   7.193   5.841  1.00 20.00     0.009 C 
HETATM    8  C3  UNL     1     -34.970   5.559   4.307  1.00 20.00     0.009 C 
ENDBRANCH   5   6
ENDBRANCH   2   5
TORSDOF 2
ENDMDL
MODEL 4
REMARK VINA RESULT:      -4.7      2.054      2.580
REMARK  2 active torsions:
REMARK  status: ('A' for Active; 'I' for Inactive)
REMARK    1  A    between atoms: C4_4  and  C5_5 
REMARK    2  A    between atoms: C4_4  and  C6_6 
ROOT
HETATM    1  C1  UNL     1     -32.587   8.715   1.653  1.00 20.00     0.079 C 
HETATM    2  C5  UNL     1     -32.424   7.678   2.678  1.00 20.00     0.189 C 
HETATM    3  N7  UNL     1     -32.719   9.531   0.839  1.00 20.00    -0.196 NA
HETATM    4 CL8  UNL     1     -31.198   8.275   3.839  1.00 20.00    -0.109 Cl
ENDROOT
BRANCH   2   5
HETATM    5  C4  UNL     1     -33.728   7.380   3.427  1.00 20.00     0.039 C 
BRANCH   5   6
HETATM    6  C6  UNL     1     -34.234   5.927   3.298  1.00 20.00    -0.020 C 
HETATM    7  C2  UNL     1     -33.161   4.980   2.759  1.00 20.00     0.009 C 
HETATM    8  C3  UNL     1     -34.726   5.428   4.661  1.00 20.00     0.009 C 
ENDBRANCH   5   6
ENDBRANCH   2   5
TORSDOF 2
ENDMDL
MODEL 5
REMARK VINA RESULT:      -4.6      2.917      4.901
REMARK  2 active torsions:
REMARK  status: ('A' for Active; 'I' for Inactive)
REMARK    1  A    between atoms: C4_4  and  C5_5 
REMARK    2  A    between atoms: C4_4  and  C6_6 
ROOT
HETATM    1  C1  UNL     1     -33.074   6.797   2.702  1.00 20.00     0.079 C 
HETATM    2  C5  UNL     1     -32.521   8.152   2.597  1.00 20.00     0.189 C 
HETATM    3  N7  UNL     1     -33.515   5.726   2.781  1.00 20.00    -0.196 NA
HETATM    4 CL8  UNL     1     -31.387   8.364   3.967  1.00 20.00    -0.109 Cl
ENDROOT
BRANCH   2   5
HETATM    5  C4  UNL     1     -31.773   8.383   1.279  1.00 20.00     0.039 C 
BRANCH   5   6
HETATM    6  C6  UNL     1     -32.193   9.653   0.508  1.00 20.00    -0.020 C 
HETATM    7  C2  UNL     1     -33.213   9.359  -0.593  1.00 20.00     0.009 C 
HETATM    8  C3  UNL     1     -32.770  10.684   1.483  1.00 20.00     0.009 C 
ENDBRANCH   5   6
ENDBRANCH   2   5
TORSDOF 2
ENDMDL
MODEL 6
REMARK VINA RESULT:      -4.3      2.241      4.244
REMARK  2 active torsions:
REMARK  status: ('A' for Active; 'I' for Inactive)
REMARK    1  A    between atoms: C4_4  and  C5_5 
REMARK    2  A    between atoms: C4_4  and  C6_6 
ROOT
HETATM    1  C1  UNL     1     -33.291   7.237   4.581  1.00 20.00     0.079 C 
HETATM    2  C5  UNL     1     -32.675   7.085   3.257  1.00 20.00     0.189 C 
HETATM    3  N7  UNL     1     -33.774   7.362   5.628  1.00 20.00    -0.196 NA
HETATM    4 CL8  UNL     1     -33.060   5.432   2.686  1.00 20.00    -0.109 Cl
ENDROOT
BRANCH   2   5
HETATM    5  C4  UNL     1     -33.202   8.107   2.243  1.00 20.00     0.039 C 
BRANCH   5   6
HETATM    6  C6  UNL     1     -32.152   9.121   1.737  1.00 20.00    -0.020 C 
HETATM    7  C2  UNL     1     -31.320   8.571   0.578  1.00 20.00     0.009 C 
HETATM    8  C3  UNL     1     -32.849  10.414   1.304  1.00 20.00     0.009 C 
ENDBRANCH   5   6
ENDBRANCH   2   5
TORSDOF 2
ENDMDL
MODEL 7
REMARK VINA RESULT:      -4.2      2.322      3.464
REMARK  2 active torsions:
REMARK  status: ('A' for Active; 'I' for Inactive)
REMARK    1  A    between atoms: C4_4  and  C5_5 
REMARK    2  A    between atoms: C4_4  and  C6_6 
ROOT
HETATM    1  C1  UNL     1     -33.522   5.166   2.997  1.00 20.00     0.079 C 
HETATM    2  C5  UNL     1     -34.370   6.159   3.668  1.00 20.00     0.189 C 
HETATM    3  N7  UNL     1     -32.853   4.383   2.462  1.00 20.00    -0.196 NA
HETATM    4 CL8  UNL     1     -34.711   5.535   5.311  1.00 20.00    -0.109 Cl
ENDROOT
BRANCH   2   5
HETATM    5  C4  UNL     1     -33.695   7.532   3.776  1.00 20.00     0.039 C 
BRANCH   5   6
HETATM    6  C6  UNL     1     -32.440   7.710   2.895  1.00 20.00    -0.020 C 
HETATM    7  C2  UNL     1     -32.693   8.627   1.697  1.00 20.00     0.009 C 
HETATM    8  C3  UNL     1     -31.291   8.270   3.739  1.00 20.00     0.009 C 
ENDBRANCH   5   6
ENDBRANCH   2   5
TORSDOF 2
ENDMDL
MODEL 8
REMARK VINA RESULT:      -4.0      1.952      2.395
REMARK  2 active torsions:
REMARK  status: ('A' for Active; 'I' for Inactive)
REMARK    1  A    between atoms: C4_4  and  C5_5 
REMARK    2  A    between atoms: C4_4  and  C6_6 
ROOT
HETATM    1  C1  UNL     1     -32.920   5.158   2.572  1.00 20.00     0.079 C 
HETATM    2  C5  UNL     1     -33.084   6.435   3.277  1.00 20.00     0.189 C 
HETATM    3  N7  UNL     1     -32.790   4.146   2.020  1.00 20.00    -0.196 NA
HETATM    4 CL8  UNL     1     -32.713   7.735   2.103  1.00 20.00    -0.109 Cl
ENDROOT
BRANCH   2   5
HETATM    5  C4  UNL     1     -34.505   6.630   3.818  1.00 20.00     0.039 C 
BRANCH   5   6
HETATM    6  C6  UNL     1     -34.651   6.449   5.344  1.00 20.00    -0.020 C 
HETATM    7  C2  UNL     1     -34.521   4.987   5.774  1.00 20.00     0.009 C 
HETATM    8  C3  UNL     1     -33.598   7.295   6.068  1.00 20.00     0.009 C 
ENDBRANCH   5   6
ENDBRANCH   2   5
TORSDOF 2
ENDMDL
MODEL 9
REMARK VINA RESULT:      -3.9      2.312      3.038
REMARK  2 active torsions:
REMARK  status: ('A' for Active; 'I' for Inactive)
REMARK    1  A    between atoms: C4_4  and  C5_5 
REMARK    2  A    between atoms: C4_4  and  C6_6 
ROOT
HETATM    1  C1  UNL     1     -33.633   7.389   5.037  1.00 20.00     0.079 C 
HETATM    2  C5  UNL     1     -33.602   7.489   3.573  1.00 20.00     0.189 C 
HETATM    3  N7  UNL     1     -33.663   7.310   6.194  1.00 20.00    -0.196 NA
HETATM    4 CL8  UNL     1     -31.913   7.858   3.107  1.00 20.00    -0.109 Cl
ENDROOT
BRANCH   2   5
HETATM    5  C4  UNL     1     -34.046   6.192   2.885  1.00 20.00     0.039 C 
BRANCH   5   6
HETATM    6  C6  UNL     1     -33.360   4.912   3.409  1.00 20.00    -0.020 C 
HETATM    7  C2  UNL     1     -34.287   4.071   4.289  1.00 20.00     0.009 C 
HETATM    8  C3  UNL     1     -32.867   4.070   2.228  1.00 20.00     0.009 C 
ENDBRANCH   5   6
ENDBRANCH   2   5
TORSDOF 2
ENDMDL
