MODEL 1
REMARK VINA RESULT:      -4.7      0.000      0.000
REMARK  1 active torsions:
REMARK  status: ('A' for Active; 'I' for Inactive)
REMARK    1  A    between atoms: C5_5  and  C6_6 
ROOT
HETATM    1  C1  UNL     1     -32.816   7.164   2.804  1.00 20.00     0.080 C 
HETATM    2  C5  UNL     1     -32.982   5.898   3.535  1.00 20.00     0.196 C 
HETATM    3  N7  UNL     1     -32.681   8.164   2.229  1.00 20.00    -0.196 NA
HETATM    4 CL8  UNL     1     -32.966   4.597   2.300  1.00 20.00    -0.109 Cl
ENDROOT
BRANCH   2   5
HETATM    5  C6  UNL     1     -34.249   5.863   4.444  1.00 20.00    -0.022 C 
HETATM    6  C2  UNL     1     -34.406   4.466   5.086  1.00 20.00     0.017 C 
HETATM    7  C3  UNL     1     -34.094   6.883   5.594  1.00 20.00     0.017 C 
HETATM    8  C4  UNL     1     -35.544   6.192   3.674  1.00 20.00     0.017 C 
ENDBRANCH   2   5
TORSDOF 1
ENDMDL
MODEL 2
REMARK VINA RESULT:      -4.6      1.913      2.342
REMARK  1 active torsions:
REMARK  status: ('A' for Active; 'I' for Inactive)
REMARK    1  A    between atoms: C5_5  and  C6_6 
ROOT
HETATM    1  C1  UNL     1     -32.602   7.622   3.646  1.00 20.00     0.080 C 
HETATM    2  C5  UNL     1     -33.813   7.256   4.400  1.00 20.00     0.196 C 
HETATM    3  N7  UNL     1     -31.650   7.913   3.048  1.00 20.00    -0.196 NA
HETATM    4 CL8  UNL     1     -33.405   7.460   6.135  1.00 20.00    -0.109 Cl
ENDROOT
BRANCH   2   5
HETATM    5  C6  UNL     1     -34.353   5.833   4.062  1.00 20.00    -0.022 C 
HETATM    6  C2  UNL     1     -34.467   4.987   5.349  1.00 20.00     0.017 C 
HETATM    7  C3  UNL     1     -35.771   5.944   3.457  1.00 20.00     0.017 C 
HETATM    8  C4  UNL     1     -33.456   5.076   3.061  1.00 20.00     0.017 C 
ENDBRANCH   2   5
TORSDOF 1
ENDMDL
MODEL 3
REMARK VINA RESULT:      -4.2      2.065      3.020
REMARK  1 active torsions:
REMARK  status: ('A' for Active; 'I' for Inactive)
REMARK    1  A    between atoms: C5_5  and  C6_6 
ROOT
HETATM    1  C1  UNL     1     -33.996   6.824   5.335  1.00 20.00     0.080 C 
HETATM    2  C5  UNL     1     -34.499   5.933   4.276  1.00 20.00     0.196 C 
HETATM    3  N7  UNL     1     -33.604   7.529   6.169  1.00 20.00    -0.196 NA
HETATM    4 CL8  UNL     1     -34.516   4.281   4.975  1.00 20.00    -0.109 Cl
ENDROOT
BRANCH   2   5
HETATM    5  C6  UNL     1     -33.690   6.025   2.946  1.00 20.00    -0.022 C 
HETATM    6  C2  UNL     1     -32.938   4.701   2.686  1.00 20.00     0.017 C 
HETATM    7  C3  UNL     1     -34.659   6.244   1.762  1.00 20.00     0.017 C 
HETATM    8  C4  UNL     1     -32.663   7.176   2.951  1.00 20.00     0.017 C 
ENDBRANCH   2   5
TORSDOF 1
ENDMDL
MODEL 4
REMARK VINA RESULT:      -3.7     12.043     12.739
REMARK  1 active torsions:
REMARK  status: ('A' for Active; 'I' for Inactive)
REMARK    1  A    between atoms: C5_5  and  C6_6 
ROOT
HETATM    1  C1  UNL     1     -35.675  13.886  -4.901  1.00 20.00     0.080 C 
HETATM    2  C5  UNL     1     -35.456  15.239  -4.364  1.00 20.00     0.196 C 
HETATM    3  N7  UNL     1     -35.850  12.817  -5.320  1.00 20.00    -0.196 NA
HETATM    4 CL8  UNL     1     -36.417  16.351  -5.392  1.00 20.00    -0.109 Cl
ENDROOT
BRANCH   2   5
HETATM    5  C6  UNL     1     -33.951  15.639  -4.273  1.00 20.00    -0.022 C 
HETATM    6  C2  UNL     1     -33.565  16.538  -5.468  1.00 20.00     0.017 C 
HETATM    7  C3  UNL     1     -33.707  16.456  -2.984  1.00 20.00     0.017 C 
HETATM    8  C4  UNL     1     -33.009  14.417  -4.259  1.00 20.00     0.017 C 
ENDBRANCH   2   5
TORSDOF 1
ENDMDL
MODEL 5
REMARK VINA RESULT:      -3.6     12.034     12.726
REMARK  1 active torsions:
REMARK  status: ('A' for Active; 'I' for Inactive)
REMARK    1  A    between atoms: C5_5  and  C6_6 
ROOT
HETATM    1  C1  UNL     1     -35.671  13.890  -4.901  1.00 20.00     0.080 C 
HETATM    2  C5  UNL     1     -35.476  15.248  -4.367  1.00 20.00     0.196 C 
HETATM    3  N7  UNL     1     -35.826  12.817  -5.317  1.00 20.00    -0.196 NA
HETATM    4 CL8  UNL     1     -36.430  16.343  -5.420  1.00 20.00    -0.109 Cl
ENDROOT
BRANCH   2   5
HETATM    5  C6  UNL     1     -33.977  15.664  -4.251  1.00 20.00    -0.022 C 
HETATM    6  C2  UNL     1     -33.075  14.411  -4.247  1.00 20.00     0.017 C 
HETATM    7  C3  UNL     1     -33.577  16.516  -5.478  1.00 20.00     0.017 C 
HETATM    8  C4  UNL     1     -33.682  16.480  -2.976  1.00 20.00     0.017 C 
ENDBRANCH   2   5
TORSDOF 1
ENDMDL
MODEL 6
REMARK VINA RESULT:      -3.6     12.011     12.706
REMARK  1 active torsions:
REMARK  status: ('A' for Active; 'I' for Inactive)
REMARK    1  A    between atoms: C5_5  and  C6_6 
ROOT
HETATM    1  C1  UNL     1     -35.673  13.864  -4.871  1.00 20.00     0.080 C 
HETATM    2  C5  UNL     1     -35.462  15.190  -4.268  1.00 20.00     0.196 C 
HETATM    3  N7  UNL     1     -35.842  12.816  -5.343  1.00 20.00    -0.196 NA
HETATM    4 CL8  UNL     1     -36.552  16.318  -5.137  1.00 20.00    -0.109 Cl
ENDROOT
BRANCH   2   5
HETATM    5  C6  UNL     1     -33.971  15.650  -4.279  1.00 20.00    -0.022 C 
HETATM    6  C2  UNL     1     -33.664  16.491  -3.020  1.00 20.00     0.017 C 
HETATM    7  C3  UNL     1     -33.044  14.413  -4.243  1.00 20.00     0.017 C 
HETATM    8  C4  UNL     1     -33.615  16.489  -5.523  1.00 20.00     0.017 C 
ENDBRANCH   2   5
TORSDOF 1
ENDMDL
MODEL 7
REMARK VINA RESULT:      -3.6      2.144      2.920
REMARK  1 active torsions:
REMARK  status: ('A' for Active; 'I' for Inactive)
REMARK    1  A    between atoms: C5_5  and  C6_6 
ROOT
HETATM    1  C1  UNL     1     -33.505   7.234   5.361  1.00 20.00     0.080 C 
HETATM    2  C5  UNL     1     -32.990   6.627   4.122  1.00 20.00     0.196 C 
HETATM    3  N7  UNL     1     -33.907   7.710   6.340  1.00 20.00    -0.196 NA
HETATM    4 CL8  UNL     1     -32.698   7.980   2.982  1.00 20.00    -0.109 Cl
ENDROOT
BRANCH   2   5
HETATM    5  C6  UNL     1     -33.921   5.522   3.534  1.00 20.00    -0.022 C 
HETATM    6  C2  UNL     1     -35.122   6.169   2.807  1.00 20.00     0.017 C 
HETATM    7  C3  UNL     1     -33.145   4.689   2.489  1.00 20.00     0.017 C 
HETATM    8  C4  UNL     1     -34.465   4.564   4.613  1.00 20.00     0.017 C 
ENDBRANCH   2   5
TORSDOF 1
ENDMDL
MODEL 8
REMARK VINA RESULT:      -3.4     12.271     13.306
REMARK  1 active torsions:
REMARK  status: ('A' for Active; 'I' for Inactive)
REMARK    1  A    between atoms: C5_5  and  C6_6 
ROOT
HETATM    1  C1  UNL     1     -36.633  14.052  -5.073  1.00 20.00     0.080 C 
HETATM    2  C5  UNL     1     -35.178  14.274  -5.086  1.00 20.00     0.196 C 
HETATM    3  N7  UNL     1     -37.780  13.872  -5.063  1.00 20.00    -0.196 NA
HETATM    4 CL8  UNL     1     -34.813  15.300  -3.660  1.00 20.00    -0.109 Cl
ENDROOT
BRANCH   2   5
HETATM    5  C6  UNL     1     -34.649  14.876  -6.424  1.00 20.00    -0.022 C 
HETATM    6  C2  UNL     1     -33.306  15.601  -6.188  1.00 20.00     0.017 C 
HETATM    7  C3  UNL     1     -34.387  13.739  -7.438  1.00 20.00     0.017 C 
HETATM    8  C4  UNL     1     -35.637  15.876  -7.059  1.00 20.00     0.017 C 
ENDBRANCH   2   5
TORSDOF 1
ENDMDL
MODEL 9
REMARK VINA RESULT:      -3.4     11.905     12.560
REMARK  1 active torsions:
REMARK  status: ('A' for Active; 'I' for Inactive)
REMARK    1  A    between atoms: C5_5  and  C6_6 
ROOT
HETATM    1  C1  UNL     1     -35.332  13.836  -5.132  1.00 20.00     0.080 C 
HETATM    2  C5  UNL     1     -34.583  15.095  -4.985  1.00 20.00     0.196 C 
HETATM    3  N7  UNL     1     -35.923  12.844  -5.254  1.00 20.00    -0.196 NA
HETATM    4 CL8  UNL     1     -32.968  14.648  -4.345  1.00 20.00    -0.109 Cl
ENDROOT
BRANCH   2   5
HETATM    5  C6  UNL     1     -35.315  16.158  -4.109  1.00 20.00    -0.022 C 
HETATM    6  C2  UNL     1     -34.648  16.253  -2.718  1.00 20.00     0.017 C 
HETATM    7  C3  UNL     1     -35.197  17.549  -4.771  1.00 20.00     0.017 C 
HETATM    8  C4  UNL     1     -36.811  15.840  -3.910  1.00 20.00     0.017 C 
ENDBRANCH   2   5
TORSDOF 1
ENDMDL
