MODEL 1
REMARK VINA RESULT:      -4.1      0.000      0.000
REMARK  1 active torsions:
REMARK  status: ('A' for Active; 'I' for Inactive)
REMARK    1  A    between atoms: C2_2  and  C4_4 
ROOT
HETATM    1  C1  UNL     1     -33.576   7.363   4.707  1.00 20.00     0.076 A 
HETATM    2  C2  UNL     1     -33.165   7.075   3.471  1.00 20.00     0.053 A 
HETATM    3  C3  UNL     1     -34.240   4.881   4.300  1.00 20.00     0.255 A 
HETATM    4  O5  UNL     1     -34.663   3.739   4.407  1.00 20.00    -0.272 OA
HETATM    5  S7  UNL     1     -34.363   6.087   5.581  1.00 20.00    -0.051 SA
HETATM    6  S8  UNL     1     -33.443   5.493   2.853  1.00 20.00    -0.037 SA
ENDROOT
BRANCH   2   7
HETATM    7  C4  UNL     1     -32.491   8.061   2.636  1.00 20.00     0.278 C 
HETATM    8  O6  UNL     1     -31.354   8.464   2.868  1.00 20.00    -0.301 OA
ENDBRANCH   2   7
TORSDOF 1
ENDMDL
MODEL 2
REMARK VINA RESULT:      -3.6      1.356      1.832
REMARK  1 active torsions:
REMARK  status: ('A' for Active; 'I' for Inactive)
REMARK    1  A    between atoms: C2_2  and  C4_4 
ROOT
HETATM    1  C1  UNL     1     -33.407   5.610   2.860  1.00 20.00     0.076 A 
HETATM    2  C2  UNL     1     -33.222   6.835   3.356  1.00 20.00     0.053 A 
HETATM    3  C3  UNL     1     -34.388   5.555   5.269  1.00 20.00     0.255 A 
HETATM    4  O5  UNL     1     -34.915   5.227   6.322  1.00 20.00    -0.272 OA
HETATM    5  S7  UNL     1     -34.183   4.460   3.902  1.00 20.00    -0.051 SA
HETATM    6  S8  UNL     1     -33.756   7.170   4.958  1.00 20.00    -0.037 SA
ENDROOT
BRANCH   2   7
HETATM    7  C4  UNL     1     -32.583   7.890   2.579  1.00 20.00     0.278 C 
HETATM    8  O6  UNL     1     -31.498   8.380   2.886  1.00 20.00    -0.301 OA
ENDBRANCH   2   7
TORSDOF 1
ENDMDL
MODEL 3
REMARK VINA RESULT:      -3.4     11.661     11.965
REMARK  1 active torsions:
REMARK  status: ('A' for Active; 'I' for Inactive)
REMARK    1  A    between atoms: C2_2  and  C4_4 
ROOT
HETATM    1  C1  UNL     1     -35.985  16.130  -3.711  1.00 20.00     0.076 A 
HETATM    2  C2  UNL     1     -34.703  15.796  -3.552  1.00 20.00     0.053 A 
HETATM    3  C3  UNL     1     -35.721  13.793  -4.821  1.00 20.00     0.255 A 
HETATM    4  O5  UNL     1     -35.908  12.733  -5.400  1.00 20.00    -0.272 OA
HETATM    5  S7  UNL     1     -36.988  14.987  -4.545  1.00 20.00    -0.051 SA
HETATM    6  S8  UNL     1     -34.158  14.287  -4.175  1.00 20.00    -0.037 SA
ENDROOT
BRANCH   2   7
HETATM    7  C4  UNL     1     -33.760  16.671  -2.868  1.00 20.00     0.278 C 
HETATM    8  O6  UNL     1     -33.848  16.942  -1.673  1.00 20.00    -0.301 OA
ENDBRANCH   2   7
TORSDOF 1
ENDMDL
MODEL 4
REMARK VINA RESULT:      -3.3     11.930     12.406
REMARK  1 active torsions:
REMARK  status: ('A' for Active; 'I' for Inactive)
REMARK    1  A    between atoms: C2_2  and  C4_4 
ROOT
HETATM    1  C1  UNL     1     -36.539  15.670  -3.982  1.00 20.00     0.076 A 
HETATM    2  C2  UNL     1     -35.606  14.876  -4.512  1.00 20.00     0.053 A 
HETATM    3  C3  UNL     1     -34.292  16.387  -2.885  1.00 20.00     0.255 A 
HETATM    4  O5  UNL     1     -33.424  16.935  -2.221  1.00 20.00    -0.272 OA
HETATM    5  S7  UNL     1     -35.996  16.836  -2.819  1.00 20.00    -0.051 SA
HETATM    6  S8  UNL     1     -33.971  15.069  -4.009  1.00 20.00    -0.037 SA
ENDROOT
BRANCH   2   7
HETATM    7  C4  UNL     1     -35.935  13.857  -5.500  1.00 20.00     0.278 C 
HETATM    8  O6  UNL     1     -35.917  12.654  -5.249  1.00 20.00    -0.301 OA
ENDBRANCH   2   7
TORSDOF 1
ENDMDL
MODEL 5
REMARK VINA RESULT:      -3.3     11.698     12.138
REMARK  1 active torsions:
REMARK  status: ('A' for Active; 'I' for Inactive)
REMARK    1  A    between atoms: C2_2  and  C4_4 
ROOT
HETATM    1  C1  UNL     1     -35.253  15.948  -4.014  1.00 20.00     0.076 A 
HETATM    2  C2  UNL     1     -34.695  14.847  -4.520  1.00 20.00     0.053 A 
HETATM    3  C3  UNL     1     -37.229  14.454  -4.806  1.00 20.00     0.255 A 
HETATM    4  O5  UNL     1     -38.331  13.994  -5.066  1.00 20.00    -0.272 OA
HETATM    5  S7  UNL     1     -36.986  16.025  -4.045  1.00 20.00    -0.051 SA
HETATM    6  S8  UNL     1     -35.718  13.615  -5.151  1.00 20.00    -0.037 SA
ENDROOT
BRANCH   2   7
HETATM    7  C4  UNL     1     -33.250  14.662  -4.551  1.00 20.00     0.278 C 
HETATM    8  O6  UNL     1     -32.703  13.619  -4.201  1.00 20.00    -0.301 OA
ENDBRANCH   2   7
TORSDOF 1
ENDMDL
MODEL 6
REMARK VINA RESULT:      -3.3     12.057     12.917
REMARK  1 active torsions:
REMARK  status: ('A' for Active; 'I' for Inactive)
REMARK    1  A    between atoms: C2_2  and  C4_4 
ROOT
HETATM    1  C1  UNL     1     -33.730  15.402  -6.474  1.00 20.00     0.076 A 
HETATM    2  C2  UNL     1     -34.460  14.324  -6.180  1.00 20.00     0.053 A 
HETATM    3  C3  UNL     1     -34.371  15.645  -3.965  1.00 20.00     0.255 A 
HETATM    4  O5  UNL     1     -34.502  16.027  -2.811  1.00 20.00    -0.272 OA
HETATM    5  S7  UNL     1     -33.463  16.534  -5.187  1.00 20.00    -0.051 SA
HETATM    6  S8  UNL     1     -35.067  14.147  -4.579  1.00 20.00    -0.037 SA
ENDROOT
BRANCH   2   7
HETATM    7  C4  UNL     1     -34.753  13.300  -7.174  1.00 20.00     0.278 C 
HETATM    8  O6  UNL     1     -35.134  12.171  -6.876  1.00 20.00    -0.301 OA
ENDBRANCH   2   7
TORSDOF 1
ENDMDL
MODEL 7
REMARK VINA RESULT:      -3.3     11.579     12.381
REMARK  1 active torsions:
REMARK  status: ('A' for Active; 'I' for Inactive)
REMARK    1  A    between atoms: C2_2  and  C4_4 
ROOT
HETATM    1  C1  UNL     1     -36.088  15.984  -3.711  1.00 20.00     0.076 A 
HETATM    2  C2  UNL     1     -36.637  15.015  -4.447  1.00 20.00     0.053 A 
HETATM    3  C3  UNL     1     -34.145  14.357  -4.301  1.00 20.00     0.255 A 
HETATM    4  O5  UNL     1     -33.062  13.803  -4.410  1.00 20.00    -0.272 OA
HETATM    5  S7  UNL     1     -34.385  15.857  -3.405  1.00 20.00    -0.051 SA
HETATM    6  S8  UNL     1     -35.631  13.742  -5.022  1.00 20.00    -0.037 SA
ENDROOT
BRANCH   2   7
HETATM    7  C4  UNL     1     -38.057  15.008  -4.773  1.00 20.00     0.278 C 
HETATM    8  O6  UNL     1     -38.677  13.979  -5.031  1.00 20.00    -0.301 OA
ENDBRANCH   2   7
TORSDOF 1
ENDMDL
MODEL 8
REMARK VINA RESULT:      -3.3      1.364      3.753
REMARK  1 active torsions:
REMARK  status: ('A' for Active; 'I' for Inactive)
REMARK    1  A    between atoms: C2_2  and  C4_4 
ROOT
HETATM    1  C1  UNL     1     -33.444   7.164   5.173  1.00 20.00     0.076 A 
HETATM    2  C2  UNL     1     -33.914   6.214   4.363  1.00 20.00     0.053 A 
HETATM    3  C3  UNL     1     -32.414   7.653   2.834  1.00 20.00     0.255 A 
HETATM    4  O5  UNL     1     -31.798   8.126   1.891  1.00 20.00    -0.272 OA
HETATM    5  S7  UNL     1     -32.376   8.332   4.461  1.00 20.00    -0.051 SA
HETATM    6  S8  UNL     1     -33.434   6.221   2.710  1.00 20.00    -0.037 SA
ENDROOT
BRANCH   2   7
HETATM    7  C4  UNL     1     -34.819   5.176   4.841  1.00 20.00     0.278 C 
HETATM    8  O6  UNL     1     -34.712   3.996   4.515  1.00 20.00    -0.301 OA
ENDBRANCH   2   7
TORSDOF 1
ENDMDL
MODEL 9
REMARK VINA RESULT:      -3.2     12.106     13.246
REMARK  1 active torsions:
REMARK  status: ('A' for Active; 'I' for Inactive)
REMARK    1  A    between atoms: C2_2  and  C4_4 
ROOT
HETATM    1  C1  UNL     1     -34.872  14.247  -4.795  1.00 20.00     0.076 A 
HETATM    2  C2  UNL     1     -34.468  14.402  -6.057  1.00 20.00     0.053 A 
HETATM    3  C3  UNL     1     -33.707  16.572  -4.886  1.00 20.00     0.255 A 
HETATM    4  O5  UNL     1     -33.241  17.669  -4.620  1.00 20.00    -0.272 OA
HETATM    5  S7  UNL     1     -34.518  15.547  -3.702  1.00 20.00    -0.051 SA
HETATM    6  S8  UNL     1     -33.642  15.848  -6.491  1.00 20.00    -0.037 SA
ENDROOT
BRANCH   2   7
HETATM    7  C4  UNL     1     -34.706  13.382  -7.070  1.00 20.00     0.278 C 
HETATM    8  O6  UNL     1     -35.080  12.244  -6.796  1.00 20.00    -0.301 OA
ENDBRANCH   2   7
TORSDOF 1
ENDMDL
