MODEL 1
REMARK VINA RESULT:      -5.8      0.000      0.000
REMARK  0 active torsions:
REMARK  status: ('A' for Active; 'I' for Inactive)
ROOT
HETATM    1  C1  UNL     1     -34.031   7.917   5.462  1.00 20.00     0.022 A 
HETATM    2  C2  UNL     1     -34.373   5.700   3.284  1.00 20.00     0.120 C 
HETATM    3  C3  UNL     1     -34.460   5.588   5.569  1.00 20.00     0.101 C 
HETATM    4  C4  UNL     1     -33.496   6.715   5.695  1.00 20.00     0.025 A 
HETATM    5  C5  UNL     1     -33.534   6.756   3.271  1.00 20.00    -0.048 C 
HETATM    6  C6  UNL     1     -32.717   8.791   1.886  1.00 20.00     0.014 A 
HETATM    7  C7  UNL     1     -31.787   8.150   4.273  1.00 20.00     0.021 C 
HETATM    8  C8  UNL     1     -32.770   7.309   2.135  1.00 20.00     0.021 A 
HETATM    9  C9  UNL     1     -31.665   8.156   2.756  1.00 20.00    -0.005 A 
HETATM   10  C10 UNL     1     -33.077   7.431   4.509  1.00 20.00     0.004 A 
HETATM   11  N11 UNL     1     -34.895   5.123   4.432  1.00 20.00    -0.276 NA
ENDROOT
TORSDOF 0
ENDMDL
MODEL 2
REMARK VINA RESULT:      -5.7      0.813      2.272
REMARK  0 active torsions:
REMARK  status: ('A' for Active; 'I' for Inactive)
ROOT
HETATM    1  C1  UNL     1     -33.286   5.193   2.985  1.00 20.00     0.022 A 
HETATM    2  C2  UNL     1     -33.683   6.951   5.540  1.00 20.00     0.120 C 
HETATM    3  C3  UNL     1     -35.065   5.426   4.536  1.00 20.00     0.101 C 
HETATM    4  C4  UNL     1     -34.490   5.736   3.198  1.00 20.00     0.025 A 
HETATM    5  C5  UNL     1     -33.053   7.280   4.394  1.00 20.00    -0.048 C 
HETATM    6  C6  UNL     1     -30.863   8.234   3.383  1.00 20.00     0.014 A 
HETATM    7  C7  UNL     1     -32.962   7.504   1.957  1.00 20.00     0.021 C 
HETATM    8  C8  UNL     1     -32.152   8.421   4.136  1.00 20.00     0.021 A 
HETATM    9  C9  UNL     1     -32.114   8.580   2.620  1.00 20.00    -0.005 A 
HETATM   10  C10 UNL     1     -33.348   6.621   3.100  1.00 20.00     0.004 A 
HETATM   11  N11 UNL     1     -34.669   5.981   5.646  1.00 20.00    -0.276 NA
ENDROOT
TORSDOF 0
ENDMDL
MODEL 3
REMARK VINA RESULT:      -5.0      1.667      3.725
REMARK  0 active torsions:
REMARK  status: ('A' for Active; 'I' for Inactive)
ROOT
HETATM    1  C1  UNL     1     -33.064   7.622   2.173  1.00 20.00     0.022 A 
HETATM    2  C2  UNL     1     -32.957   7.878   5.287  1.00 20.00     0.120 C 
HETATM    3  C3  UNL     1     -31.454   8.500   3.676  1.00 20.00     0.101 C 
HETATM    4  C4  UNL     1     -31.899   7.393   2.786  1.00 20.00     0.025 A 
HETATM    5  C5  UNL     1     -33.475   6.872   4.553  1.00 20.00    -0.048 C 
HETATM    6  C6  UNL     1     -35.570   5.390   4.178  1.00 20.00     0.014 A 
HETATM    7  C7  UNL     1     -33.327   5.165   2.803  1.00 20.00     0.021 C 
HETATM    8  C8  UNL     1     -34.367   5.780   4.991  1.00 20.00     0.021 A 
HETATM    9  C9  UNL     1     -34.256   4.703   3.917  1.00 20.00    -0.005 A 
HETATM   10  C10 UNL     1     -33.041   6.587   3.165  1.00 20.00     0.004 A 
HETATM   11  N11 UNL     1     -31.969   8.746   4.847  1.00 20.00    -0.276 NA
ENDROOT
TORSDOF 0
ENDMDL
MODEL 4
REMARK VINA RESULT:      -4.8     11.550     12.227
REMARK  0 active torsions:
REMARK  status: ('A' for Active; 'I' for Inactive)
ROOT
HETATM    1  C1  UNL     1     -32.809  19.261  -1.385  1.00 20.00     0.022 A 
HETATM    2  C2  UNL     1     -34.489  18.265   1.057  1.00 20.00     0.120 C 
HETATM    3  C3  UNL     1     -32.294  18.898   0.901  1.00 20.00     0.101 C 
HETATM    4  C4  UNL     1     -32.226  18.434  -0.512  1.00 20.00     0.025 A 
HETATM    5  C5  UNL     1     -34.563  17.855  -0.226  1.00 20.00    -0.048 C 
HETATM    6  C6  UNL     1     -36.163  17.437  -2.224  1.00 20.00     0.014 A 
HETATM    7  C7  UNL     1     -33.560  16.999  -2.290  1.00 20.00     0.021 C 
HETATM    8  C8  UNL     1     -35.619  17.053  -0.875  1.00 20.00     0.021 A 
HETATM    9  C9  UNL     1     -34.990  16.497  -2.148  1.00 20.00    -0.005 A 
HETATM   10  C10 UNL     1     -33.432  17.987  -1.176  1.00 20.00     0.004 A 
HETATM   11  N11 UNL     1     -33.368  18.842   1.636  1.00 20.00    -0.276 NA
ENDROOT
TORSDOF 0
ENDMDL
MODEL 5
REMARK VINA RESULT:      -4.6     11.359     12.059
REMARK  0 active torsions:
REMARK  status: ('A' for Active; 'I' for Inactive)
ROOT
HETATM    1  C1  UNL     1     -36.664  16.759  -4.881  1.00 20.00     0.022 A 
HETATM    2  C2  UNL     1     -36.351  13.659  -5.148  1.00 20.00     0.120 C 
HETATM    3  C3  UNL     1     -38.154  14.942  -4.559  1.00 20.00     0.101 C 
HETATM    4  C4  UNL     1     -37.265  15.982  -3.973  1.00 20.00     0.025 A 
HETATM    5  C5  UNL     1     -35.446  14.551  -4.694  1.00 20.00    -0.048 C 
HETATM    6  C6  UNL     1     -33.003  15.390  -4.928  1.00 20.00     0.014 A 
HETATM    7  C7  UNL     1     -34.759  16.388  -3.227  1.00 20.00     0.021 C 
HETATM    8  C8  UNL     1     -33.999  14.359  -4.473  1.00 20.00     0.021 A 
HETATM    9  C9  UNL     1     -33.573  15.486  -3.538  1.00 20.00    -0.005 A 
HETATM   10  C10 UNL     1     -35.831  15.866  -4.130  1.00 20.00     0.004 A 
HETATM   11  N11 UNL     1     -37.724  13.856  -5.137  1.00 20.00    -0.276 NA
ENDROOT
TORSDOF 0
ENDMDL
MODEL 6
REMARK VINA RESULT:      -4.6     11.503     12.013
REMARK  0 active torsions:
REMARK  status: ('A' for Active; 'I' for Inactive)
ROOT
HETATM    1  C1  UNL     1     -36.098  16.217  -4.730  1.00 20.00     0.022 A 
HETATM    2  C2  UNL     1     -33.271  14.959  -4.280  1.00 20.00     0.120 C 
HETATM    3  C3  UNL     1     -35.223  14.035  -5.041  1.00 20.00     0.101 C 
HETATM    4  C4  UNL     1     -36.029  14.982  -4.223  1.00 20.00     0.025 A 
HETATM    5  C5  UNL     1     -33.891  15.897  -3.536  1.00 20.00    -0.048 C 
HETATM    6  C6  UNL     1     -33.646  18.243  -2.457  1.00 20.00     0.014 A 
HETATM    7  C7  UNL     1     -35.802  16.731  -2.250  1.00 20.00     0.021 C 
HETATM    8  C8  UNL     1     -33.315  16.777  -2.499  1.00 20.00     0.021 A 
HETATM    9  C9  UNL     1     -34.500  17.277  -1.680  1.00 20.00    -0.005 A 
HETATM   10  C10 UNL     1     -35.365  16.053  -3.509  1.00 20.00     0.004 A 
HETATM   11  N11 UNL     1     -33.921  14.038  -5.089  1.00 20.00    -0.276 NA
ENDROOT
TORSDOF 0
ENDMDL
MODEL 7
REMARK VINA RESULT:      -4.6     10.855     11.963
REMARK  0 active torsions:
REMARK  status: ('A' for Active; 'I' for Inactive)
ROOT
HETATM    1  C1  UNL     1     -34.397  13.811  -4.082  1.00 20.00     0.022 A 
HETATM    2  C2  UNL     1     -37.255  15.062  -4.293  1.00 20.00     0.120 C 
HETATM    3  C3  UNL     1     -36.088  13.728  -5.742  1.00 20.00     0.101 C 
HETATM    4  C4  UNL     1     -34.793  14.287  -5.267  1.00 20.00     0.025 A 
HETATM    5  C5  UNL     1     -36.147  15.607  -3.749  1.00 20.00    -0.048 C 
HETATM    6  C6  UNL     1     -35.175  16.764  -1.641  1.00 20.00     0.014 A 
HETATM    7  C7  UNL     1     -33.793  16.276  -3.838  1.00 20.00     0.021 C 
HETATM    8  C8  UNL     1     -36.041  16.789  -2.871  1.00 20.00     0.021 A 
HETATM    9  C9  UNL     1     -34.581  17.225  -2.945  1.00 20.00    -0.005 A 
HETATM   10  C10 UNL     1     -34.778  15.192  -4.138  1.00 20.00     0.004 A 
HETATM   11  N11 UNL     1     -37.251  14.075  -5.267  1.00 20.00    -0.276 NA
ENDROOT
TORSDOF 0
ENDMDL
MODEL 8
REMARK VINA RESULT:      -4.4      1.469      3.437
REMARK  0 active torsions:
REMARK  status: ('A' for Active; 'I' for Inactive)
ROOT
HETATM    1  C1  UNL     1     -31.835   7.531   4.073  1.00 20.00     0.022 A 
HETATM    2  C2  UNL     1     -33.989   6.307   2.167  1.00 20.00     0.120 C 
HETATM    3  C3  UNL     1     -32.783   8.248   2.021  1.00 20.00     0.101 C 
HETATM    4  C4  UNL     1     -32.718   8.358   3.504  1.00 20.00     0.025 A 
HETATM    5  C5  UNL     1     -33.956   6.273   3.515  1.00 20.00    -0.048 C 
HETATM    6  C6  UNL     1     -34.098   4.731   5.595  1.00 20.00     0.014 A 
HETATM    7  C7  UNL     1     -33.784   7.351   5.707  1.00 20.00     0.021 C 
HETATM    8  C8  UNL     1     -34.748   5.429   4.432  1.00 20.00     0.021 A 
HETATM    9  C9  UNL     1     -34.664   6.112   5.793  1.00 20.00    -0.005 A 
HETATM   10  C10 UNL     1     -33.223   7.276   4.323  1.00 20.00     0.004 A 
HETATM   11  N11 UNL     1     -33.362   7.268   1.387  1.00 20.00    -0.276 NA
ENDROOT
TORSDOF 0
ENDMDL
MODEL 9
REMARK VINA RESULT:      -4.3     11.520     12.832
REMARK  0 active torsions:
REMARK  status: ('A' for Active; 'I' for Inactive)
ROOT
HETATM    1  C1  UNL     1     -33.257  14.644  -4.082  1.00 20.00     0.022 A 
HETATM    2  C2  UNL     1     -34.054  16.810  -6.192  1.00 20.00     0.120 C 
HETATM    3  C3  UNL     1     -33.575  16.991  -3.960  1.00 20.00     0.101 C 
HETATM    4  C4  UNL     1     -34.091  15.618  -3.704  1.00 20.00     0.025 A 
HETATM    5  C5  UNL     1     -34.502  15.541  -6.092  1.00 20.00    -0.048 C 
HETATM    6  C6  UNL     1     -34.881  13.324  -7.384  1.00 20.00     0.014 A 
HETATM    7  C7  UNL     1     -35.494  13.684  -4.841  1.00 20.00     0.021 C 
HETATM    8  C8  UNL     1     -35.253  14.751  -7.088  1.00 20.00     0.021 A 
HETATM    9  C9  UNL     1     -35.894  13.609  -6.308  1.00 20.00    -0.005 A 
HETATM   10  C10 UNL     1     -34.478  14.781  -4.820  1.00 20.00     0.004 A 
HETATM   11  N11 UNL     1     -33.534  17.546  -5.138  1.00 20.00    -0.276 NA
ENDROOT
TORSDOF 0
ENDMDL
