MODEL 1
REMARK VINA RESULT:      -5.0      0.000      0.000
REMARK  1 active torsions:
REMARK  status: ('A' for Active; 'I' for Inactive)
REMARK    1  A    between atoms: C3_3  and  C8_8 
ROOT
HETATM    1  C1  UNL     1     -35.049  16.630  -2.508  1.00 20.00    -0.028 C 
HETATM    2  C2  UNL     1     -33.792  16.587  -2.978  1.00 20.00    -0.016 C 
HETATM    3  C4  UNL     1     -36.274  16.283  -3.313  1.00 20.00     0.042 C 
HETATM    4  C5  UNL     1     -33.156  14.680  -4.490  1.00 20.00     0.020 C 
HETATM    5  C6  UNL     1     -34.342  13.798  -4.069  1.00 20.00     0.016 C 
HETATM    6  C7  UNL     1     -33.416  16.187  -4.381  1.00 20.00     0.070 C 
HETATM    7  C8  UNL     1     -35.695  14.177  -4.687  1.00 20.00     0.086 C 
HETATM    8  C9  UNL     1     -36.045  15.681  -4.716  1.00 20.00     0.063 C 
HETATM    9  S11 UNL     1     -34.736  16.640  -5.548  1.00 20.00    -0.154 SA
ENDROOT
BRANCH   7  10
HETATM   10  C3  UNL     1     -35.806  13.598  -6.072  1.00 20.00     0.224 C 
HETATM   11  O10 UNL     1     -35.150  12.619  -6.417  1.00 20.00    -0.279 OA
HETATM   12 CL12 UNL     1     -36.940  14.470  -7.057  1.00 20.00    -0.043 Cl
ENDBRANCH   7  10
TORSDOF 1
ENDMDL
MODEL 2
REMARK VINA RESULT:      -4.9      0.957      1.073
REMARK  1 active torsions:
REMARK  status: ('A' for Active; 'I' for Inactive)
REMARK    1  A    between atoms: C3_3  and  C8_8 
ROOT
HETATM    1  C1  UNL     1     -34.036  17.052  -2.487  1.00 20.00    -0.028 C 
HETATM    2  C2  UNL     1     -33.308  17.306  -3.585  1.00 20.00    -0.016 C 
HETATM    3  C4  UNL     1     -35.358  16.329  -2.488  1.00 20.00     0.042 C 
HETATM    4  C5  UNL     1     -33.160  15.521  -5.350  1.00 20.00     0.020 C 
HETATM    5  C6  UNL     1     -33.618  14.393  -4.412  1.00 20.00     0.016 C 
HETATM    6  C7  UNL     1     -33.699  16.908  -4.984  1.00 20.00     0.070 C 
HETATM    7  C8  UNL     1     -35.125  14.348  -4.125  1.00 20.00     0.086 C 
HETATM    8  C9  UNL     1     -35.812  15.697  -3.822  1.00 20.00     0.063 C 
HETATM    9  S11 UNL     1     -35.510  16.899  -5.160  1.00 20.00    -0.154 SA
ENDROOT
BRANCH   7  10
HETATM   10  C3  UNL     1     -35.841  13.649  -5.250  1.00 20.00     0.224 C 
HETATM   11  O10 UNL     1     -35.270  12.835  -5.971  1.00 20.00    -0.279 OA
HETATM   12 CL12 UNL     1     -37.504  14.136  -5.370  1.00 20.00    -0.043 Cl
ENDBRANCH   7  10
TORSDOF 1
ENDMDL
MODEL 3
REMARK VINA RESULT:      -4.6      2.831      4.236
REMARK  1 active torsions:
REMARK  status: ('A' for Active; 'I' for Inactive)
REMARK    1  A    between atoms: C3_3  and  C8_8 
ROOT
HETATM    1  C1  UNL     1     -34.356  13.710  -7.640  1.00 20.00    -0.028 C 
HETATM    2  C2  UNL     1     -35.242  13.299  -6.719  1.00 20.00    -0.016 C 
HETATM    3  C4  UNL     1     -33.810  15.111  -7.733  1.00 20.00     0.042 C 
HETATM    4  C5  UNL     1     -34.977  14.136  -4.362  1.00 20.00     0.020 C 
HETATM    5  C6  UNL     1     -33.515  14.566  -4.556  1.00 20.00     0.016 C 
HETATM    6  C7  UNL     1     -35.824  14.173  -5.640  1.00 20.00     0.070 C 
HETATM    7  C8  UNL     1     -33.312  15.882  -5.321  1.00 20.00     0.086 C 
HETATM    8  C9  UNL     1     -34.170  16.083  -6.589  1.00 20.00     0.063 C 
HETATM    9  S11 UNL     1     -35.945  15.896  -6.212  1.00 20.00    -0.154 SA
ENDROOT
BRANCH   7  10
HETATM   10  C3  UNL     1     -33.491  17.050  -4.389  1.00 20.00     0.224 C 
HETATM   11  O10 UNL     1     -33.578  18.201  -4.807  1.00 20.00    -0.279 OA
HETATM   12 CL12 UNL     1     -33.553  16.557  -2.725  1.00 20.00    -0.043 Cl
ENDBRANCH   7  10
TORSDOF 1
ENDMDL
MODEL 4
REMARK VINA RESULT:      -4.4      1.808      2.199
REMARK  1 active torsions:
REMARK  status: ('A' for Active; 'I' for Inactive)
REMARK    1  A    between atoms: C3_3  and  C8_8 
ROOT
HETATM    1  C1  UNL     1     -34.512  18.186  -5.349  1.00 20.00    -0.028 C 
HETATM    2  C2  UNL     1     -34.025  17.715  -4.190  1.00 20.00    -0.016 C 
HETATM    3  C4  UNL     1     -34.718  17.355  -6.589  1.00 20.00     0.042 C 
HETATM    4  C5  UNL     1     -34.778  15.441  -3.425  1.00 20.00     0.020 C 
HETATM    5  C6  UNL     1     -36.008  15.410  -4.344  1.00 20.00     0.016 C 
HETATM    6  C7  UNL     1     -33.613  16.286  -3.951  1.00 20.00     0.070 C 
HETATM    7  C8  UNL     1     -35.718  15.103  -5.820  1.00 20.00     0.086 C 
HETATM    8  C9  UNL     1     -34.513  15.830  -6.454  1.00 20.00     0.063 C 
HETATM    9  S11 UNL     1     -32.993  15.537  -5.489  1.00 20.00    -0.154 SA
ENDROOT
BRANCH   7  10
HETATM   10  C3  UNL     1     -35.584  13.617  -6.018  1.00 20.00     0.224 C 
HETATM   11  O10 UNL     1     -35.941  12.817  -5.159  1.00 20.00    -0.279 OA
HETATM   12 CL12 UNL     1     -34.886  13.223  -7.559  1.00 20.00    -0.043 Cl
ENDBRANCH   7  10
TORSDOF 1
ENDMDL
MODEL 5
REMARK VINA RESULT:      -4.3      3.899      5.193
REMARK  1 active torsions:
REMARK  status: ('A' for Active; 'I' for Inactive)
REMARK    1  A    between atoms: C3_3  and  C8_8 
ROOT
HETATM    1  C1  UNL     1     -35.652  15.493  -3.982  1.00 20.00    -0.028 C 
HETATM    2  C2  UNL     1     -36.603  16.409  -3.737  1.00 20.00    -0.016 C 
HETATM    3  C4  UNL     1     -34.174  15.733  -3.817  1.00 20.00     0.042 C 
HETATM    4  C5  UNL     1     -36.326  17.900  -1.731  1.00 20.00     0.020 C 
HETATM    5  C6  UNL     1     -35.293  16.988  -1.051  1.00 20.00     0.016 C 
HETATM    6  C7  UNL     1     -36.338  17.813  -3.261  1.00 20.00     0.070 C 
HETATM    7  C8  UNL     1     -33.871  17.062  -1.625  1.00 20.00     0.086 C 
HETATM    8  C9  UNL     1     -33.747  17.066  -3.164  1.00 20.00     0.063 C 
HETATM    9  S11 UNL     1     -34.741  18.409  -3.896  1.00 20.00    -0.154 SA
ENDROOT
BRANCH   7  10
HETATM   10  C3  UNL     1     -33.145  18.248  -1.048  1.00 20.00     0.224 C 
HETATM   11  O10 UNL     1     -32.276  18.841  -1.679  1.00 20.00    -0.279 OA
HETATM   12 CL12 UNL     1     -33.691  18.632   0.555  1.00 20.00    -0.043 Cl
ENDBRANCH   7  10
TORSDOF 1
ENDMDL
MODEL 6
REMARK VINA RESULT:      -4.2      1.961      2.673
REMARK  1 active torsions:
REMARK  status: ('A' for Active; 'I' for Inactive)
REMARK    1  A    between atoms: C3_3  and  C8_8 
ROOT
HETATM    1  C1  UNL     1     -33.263  16.359  -5.167  1.00 20.00    -0.028 C 
HETATM    2  C2  UNL     1     -33.328  15.564  -6.247  1.00 20.00    -0.016 C 
HETATM    3  C4  UNL     1     -34.458  16.967  -4.481  1.00 20.00     0.042 C 
HETATM    4  C5  UNL     1     -35.176  13.862  -6.357  1.00 20.00     0.020 C 
HETATM    5  C6  UNL     1     -35.472  13.915  -4.851  1.00 20.00     0.016 C 
HETATM    6  C7  UNL     1     -34.604  15.160  -6.938  1.00 20.00     0.070 C 
HETATM    7  C8  UNL     1     -36.274  15.137  -4.381  1.00 20.00     0.086 C 
HETATM    8  C9  UNL     1     -35.852  16.505  -4.958  1.00 20.00     0.063 C 
HETATM    9  S11 UNL     1     -35.855  16.472  -6.782  1.00 20.00    -0.154 SA
ENDROOT
BRANCH   7  10
HETATM   10  C3  UNL     1     -37.743  14.909  -4.621  1.00 20.00     0.224 C 
HETATM   11  O10 UNL     1     -38.175  13.821  -4.989  1.00 20.00    -0.279 OA
HETATM   12 CL12 UNL     1     -38.684  16.337  -4.316  1.00 20.00    -0.043 Cl
ENDBRANCH   7  10
TORSDOF 1
ENDMDL
MODEL 7
REMARK VINA RESULT:      -4.2      3.100      4.221
REMARK  1 active torsions:
REMARK  status: ('A' for Active; 'I' for Inactive)
REMARK    1  A    between atoms: C3_3  and  C8_8 
ROOT
HETATM    1  C1  UNL     1     -34.016  14.408  -5.821  1.00 20.00    -0.028 C 
HETATM    2  C2  UNL     1     -34.753  15.336  -6.451  1.00 20.00    -0.016 C 
HETATM    3  C4  UNL     1     -33.364  14.604  -4.477  1.00 20.00     0.042 C 
HETATM    4  C5  UNL     1     -36.324  16.738  -5.077  1.00 20.00     0.020 C 
HETATM    5  C6  UNL     1     -36.323  15.774  -3.880  1.00 20.00     0.016 C 
HETATM    6  C7  UNL     1     -35.040  16.713  -5.913  1.00 20.00     0.070 C 
HETATM    7  C8  UNL     1     -35.075  15.835  -2.988  1.00 20.00     0.086 C 
HETATM    8  C9  UNL     1     -33.712  15.898  -3.709  1.00 20.00     0.063 C 
HETATM    9  S11 UNL     1     -33.658  17.295  -4.882  1.00 20.00    -0.154 SA
ENDROOT
BRANCH   7  10
HETATM   10  C3  UNL     1     -35.195  16.978  -2.016  1.00 20.00     0.224 C 
HETATM   11  O10 UNL     1     -36.272  17.523  -1.790  1.00 20.00    -0.279 OA
HETATM   12 CL12 UNL     1     -33.668  17.389  -1.298  1.00 20.00    -0.043 Cl
ENDBRANCH   7  10
TORSDOF 1
ENDMDL
MODEL 8
REMARK VINA RESULT:      -4.1      2.924      4.025
REMARK  1 active torsions:
REMARK  status: ('A' for Active; 'I' for Inactive)
REMARK    1  A    between atoms: C3_3  and  C8_8 
ROOT
HETATM    1  C1  UNL     1     -35.316  13.601  -6.385  1.00 20.00    -0.028 C 
HETATM    2  C2  UNL     1     -34.399  14.330  -7.040  1.00 20.00    -0.016 C 
HETATM    3  C4  UNL     1     -35.628  13.738  -4.918  1.00 20.00     0.042 C 
HETATM    4  C5  UNL     1     -34.207  16.774  -6.481  1.00 20.00     0.020 C 
HETATM    5  C6  UNL     1     -35.590  16.849  -5.814  1.00 20.00     0.016 C 
HETATM    6  C7  UNL     1     -33.542  15.396  -6.408  1.00 20.00     0.070 C 
HETATM    7  C8  UNL     1     -35.668  16.265  -4.396  1.00 20.00     0.086 C 
HETATM    8  C9  UNL     1     -34.962  14.911  -4.166  1.00 20.00     0.063 C 
HETATM    9  S11 UNL     1     -33.210  14.996  -4.665  1.00 20.00    -0.154 SA
ENDROOT
BRANCH   7  10
HETATM   10  C3  UNL     1     -35.175  17.278  -3.397  1.00 20.00     0.224 C 
HETATM   11  O10 UNL     1     -34.956  18.443  -3.714  1.00 20.00    -0.279 OA
HETATM   12 CL12 UNL     1     -34.974  16.591  -1.814  1.00 20.00    -0.043 Cl
ENDBRANCH   7  10
TORSDOF 1
ENDMDL
MODEL 9
REMARK VINA RESULT:      -4.1      1.717      2.103
REMARK  1 active torsions:
REMARK  status: ('A' for Active; 'I' for Inactive)
REMARK    1  A    between atoms: C3_3  and  C8_8 
ROOT
HETATM    1  C1  UNL     1     -35.857  18.747  -4.510  1.00 20.00    -0.028 C 
HETATM    2  C2  UNL     1     -34.579  18.756  -4.098  1.00 20.00    -0.016 C 
HETATM    3  C4  UNL     1     -36.494  17.626  -5.290  1.00 20.00     0.042 C 
HETATM    4  C5  UNL     1     -33.600  16.611  -3.224  1.00 20.00     0.020 C 
HETATM    5  C6  UNL     1     -34.966  15.951  -2.980  1.00 20.00     0.016 C 
HETATM    6  C7  UNL     1     -33.589  17.649  -4.351  1.00 20.00     0.070 C 
HETATM    7  C8  UNL     1     -35.672  15.419  -4.235  1.00 20.00     0.086 C 
HETATM    8  C9  UNL     1     -35.663  16.338  -5.476  1.00 20.00     0.063 C 
HETATM    9  S11 UNL     1     -33.959  16.812  -5.923  1.00 20.00    -0.154 SA
ENDROOT
BRANCH   7  10
HETATM   10  C3  UNL     1     -35.126  14.064  -4.596  1.00 20.00     0.224 C 
HETATM   11  O10 UNL     1     -34.234  13.532  -3.941  1.00 20.00    -0.279 OA
HETATM   12 CL12 UNL     1     -35.904  13.398  -5.999  1.00 20.00    -0.043 Cl
ENDBRANCH   7  10
TORSDOF 1
ENDMDL
