MODEL 1
REMARK VINA RESULT:      -4.6      0.000      0.000
REMARK  1 active torsions:
REMARK  status: ('A' for Active; 'I' for Inactive)
REMARK    1  A    between atoms: C3_3  and  C8_8 
ROOT
HETATM    1  C1  UNL     1     -33.639  16.633  -6.978  1.00 20.00    -0.029 C 
HETATM    2  C2  UNL     1     -34.130  17.633  -6.236  1.00 20.00    -0.030 C 
HETATM    3  C4  UNL     1     -34.015  15.194  -6.833  1.00 20.00     0.045 C 
HETATM    4  C5  UNL     1     -35.107  17.446  -5.124  1.00 20.00     0.037 C 
HETATM    5  C6  UNL     1     -33.635  14.368  -4.411  1.00 20.00     0.019 C 
HETATM    6  C7  UNL     1     -33.622  15.772  -3.794  1.00 20.00     0.012 C 
HETATM    7  C8  UNL     1     -34.678  14.853  -5.480  1.00 20.00     0.031 C 
HETATM    8  C9  UNL     1     -34.990  16.059  -4.487  1.00 20.00    -0.026 C 
HETATM    9  C11 UNL     1     -36.155  15.833  -3.510  1.00 20.00     0.016 C 
ENDROOT
BRANCH   7  10
HETATM   10  C3  UNL     1     -35.854  13.849  -5.717  1.00 20.00     0.132 C 
HETATM   11  C10 UNL     1     -36.926  14.278  -6.684  1.00 20.00     0.091 C 
HETATM   12  O12 UNL     1     -35.901  12.762  -5.142  1.00 20.00    -0.298 OA
ENDBRANCH   7  10
TORSDOF 1
ENDMDL
MODEL 2
REMARK VINA RESULT:      -4.5      1.142      2.555
REMARK  1 active torsions:
REMARK  status: ('A' for Active; 'I' for Inactive)
REMARK    1  A    between atoms: C3_3  and  C8_8 
ROOT
HETATM    1  C1  UNL     1     -36.681  16.702  -4.106  1.00 20.00    -0.029 C 
HETATM    2  C2  UNL     1     -35.772  16.736  -3.125  1.00 20.00    -0.030 C 
HETATM    3  C4  UNL     1     -36.642  15.776  -5.279  1.00 20.00     0.045 C 
HETATM    4  C5  UNL     1     -34.558  15.868  -3.080  1.00 20.00     0.037 C 
HETATM    5  C6  UNL     1     -34.405  15.984  -6.560  1.00 20.00     0.019 C 
HETATM    6  C7  UNL     1     -33.646  16.631  -5.396  1.00 20.00     0.012 C 
HETATM    7  C8  UNL     1     -35.254  15.150  -5.536  1.00 20.00     0.031 C 
HETATM    8  C9  UNL     1     -34.100  15.453  -4.480  1.00 20.00    -0.026 C 
HETATM    9  C11 UNL     1     -32.998  14.387  -4.374  1.00 20.00     0.016 C 
ENDROOT
BRANCH   7  10
HETATM   10  C3  UNL     1     -35.429  13.647  -5.935  1.00 20.00     0.132 C 
HETATM   11  C10 UNL     1     -34.972  13.255  -7.314  1.00 20.00     0.091 C 
HETATM   12  O12 UNL     1     -35.915  12.825  -5.158  1.00 20.00    -0.298 OA
ENDBRANCH   7  10
TORSDOF 1
ENDMDL
MODEL 3
REMARK VINA RESULT:      -4.3      1.220      1.590
REMARK  1 active torsions:
REMARK  status: ('A' for Active; 'I' for Inactive)
REMARK    1  A    between atoms: C3_3  and  C8_8 
ROOT
HETATM    1  C1  UNL     1     -34.066  15.106  -7.391  1.00 20.00    -0.029 C 
HETATM    2  C2  UNL     1     -33.634  16.131  -6.648  1.00 20.00    -0.030 C 
HETATM    3  C4  UNL     1     -35.317  14.329  -7.136  1.00 20.00     0.045 C 
HETATM    4  C5  UNL     1     -34.331  16.629  -5.425  1.00 20.00     0.037 C 
HETATM    5  C6  UNL     1     -35.346  13.366  -4.735  1.00 20.00     0.019 C 
HETATM    6  C7  UNL     1     -34.290  14.336  -4.192  1.00 20.00     0.012 C 
HETATM    7  C8  UNL     1     -35.870  14.486  -5.703  1.00 20.00     0.031 C 
HETATM    8  C9  UNL     1     -35.140  15.524  -4.739  1.00 20.00    -0.026 C 
HETATM    9  C11 UNL     1     -36.012  16.130  -3.628  1.00 20.00     0.016 C 
ENDROOT
BRANCH   7  10
HETATM   10  C3  UNL     1     -37.430  14.596  -5.757  1.00 20.00     0.132 C 
HETATM   11  C10 UNL     1     -38.007  15.552  -6.766  1.00 20.00     0.091 C 
HETATM   12  O12 UNL     1     -38.150  13.932  -5.012  1.00 20.00    -0.298 OA
ENDBRANCH   7  10
TORSDOF 1
ENDMDL
MODEL 4
REMARK VINA RESULT:      -4.3      1.461      2.339
REMARK  1 active torsions:
REMARK  status: ('A' for Active; 'I' for Inactive)
REMARK    1  A    between atoms: C3_3  and  C8_8 
ROOT
HETATM    1  C1  UNL     1     -33.198  14.582  -4.570  1.00 20.00    -0.029 C 
HETATM    2  C2  UNL     1     -32.906  15.644  -5.330  1.00 20.00    -0.030 C 
HETATM    3  C4  UNL     1     -34.572  14.204  -4.117  1.00 20.00     0.045 C 
HETATM    4  C5  UNL     1     -33.916  16.633  -5.809  1.00 20.00     0.037 C 
HETATM    5  C6  UNL     1     -35.710  16.157  -2.858  1.00 20.00     0.019 C 
HETATM    6  C7  UNL     1     -34.787  17.238  -3.431  1.00 20.00     0.012 C 
HETATM    7  C8  UNL     1     -35.598  15.355  -4.204  1.00 20.00     0.031 C 
HETATM    8  C9  UNL     1     -35.119  16.723  -4.866  1.00 20.00    -0.026 C 
HETATM    9  C11 UNL     1     -36.224  17.574  -5.510  1.00 20.00     0.016 C 
ENDROOT
BRANCH   7  10
HETATM   10  C3  UNL     1     -36.964  14.794  -4.722  1.00 20.00     0.132 C 
HETATM   11  C10 UNL     1     -36.934  14.028  -6.017  1.00 20.00     0.091 C 
HETATM   12  O12 UNL     1     -38.011  14.970  -4.100  1.00 20.00    -0.298 OA
ENDBRANCH   7  10
TORSDOF 1
ENDMDL
MODEL 5
REMARK VINA RESULT:      -4.3      1.406      2.154
REMARK  1 active torsions:
REMARK  status: ('A' for Active; 'I' for Inactive)
REMARK    1  A    between atoms: C3_3  and  C8_8 
ROOT
HETATM    1  C1  UNL     1     -34.409  13.652  -7.623  1.00 20.00    -0.029 C 
HETATM    2  C2  UNL     1     -33.772  14.812  -7.822  1.00 20.00    -0.030 C 
HETATM    3  C4  UNL     1     -35.509  13.437  -6.633  1.00 20.00     0.045 C 
HETATM    4  C5  UNL     1     -34.048  16.060  -7.052  1.00 20.00     0.037 C 
HETATM    5  C6  UNL     1     -34.768  14.116  -4.250  1.00 20.00     0.019 C 
HETATM    6  C7  UNL     1     -33.601  14.993  -4.720  1.00 20.00     0.012 C 
HETATM    7  C8  UNL     1     -35.580  14.517  -5.532  1.00 20.00     0.031 C 
HETATM    8  C9  UNL     1     -34.590  15.760  -5.652  1.00 20.00    -0.026 C 
HETATM    9  C11 UNL     1     -35.069  17.060  -4.988  1.00 20.00     0.016 C 
ENDROOT
BRANCH   7  10
HETATM   10  C3  UNL     1     -37.077  14.871  -5.248  1.00 20.00     0.132 C 
HETATM   11  C10 UNL     1     -37.917  15.265  -6.433  1.00 20.00     0.091 C 
HETATM   12  O12 UNL     1     -37.546  14.826  -4.111  1.00 20.00    -0.298 OA
ENDBRANCH   7  10
TORSDOF 1
ENDMDL
MODEL 6
REMARK VINA RESULT:      -4.3      1.944      3.451
REMARK  1 active torsions:
REMARK  status: ('A' for Active; 'I' for Inactive)
REMARK    1  A    between atoms: C3_3  and  C8_8 
ROOT
HETATM    1  C1  UNL     1     -35.731  13.576  -5.164  1.00 20.00    -0.029 C 
HETATM    2  C2  UNL     1     -36.369  14.299  -6.091  1.00 20.00    -0.030 C 
HETATM    3  C4  UNL     1     -34.816  14.134  -4.121  1.00 20.00     0.045 C 
HETATM    4  C5  UNL     1     -36.230  15.779  -6.239  1.00 20.00     0.037 C 
HETATM    5  C6  UNL     1     -32.915  15.522  -5.192  1.00 20.00     0.019 C 
HETATM    6  C7  UNL     1     -33.642  15.735  -6.525  1.00 20.00     0.012 C 
HETATM    7  C8  UNL     1     -34.294  15.551  -4.441  1.00 20.00     0.031 C 
HETATM    8  C9  UNL     1     -34.873  16.278  -5.735  1.00 20.00    -0.026 C 
HETATM    9  C11 UNL     1     -34.864  17.814  -5.696  1.00 20.00     0.016 C 
ENDROOT
BRANCH   7  10
HETATM   10  C3  UNL     1     -34.283  16.408  -3.131  1.00 20.00     0.132 C 
HETATM   11  C10 UNL     1     -35.565  16.459  -2.345  1.00 20.00     0.091 C 
HETATM   12  O12 UNL     1     -33.274  17.009  -2.762  1.00 20.00    -0.298 OA
ENDBRANCH   7  10
TORSDOF 1
ENDMDL
MODEL 7
REMARK VINA RESULT:      -4.2      1.176      1.670
REMARK  1 active torsions:
REMARK  status: ('A' for Active; 'I' for Inactive)
REMARK    1  A    between atoms: C3_3  and  C8_8 
ROOT
HETATM    1  C1  UNL     1     -35.984  17.369  -7.019  1.00 20.00    -0.029 C 
HETATM    2  C2  UNL     1     -35.398  17.998  -5.994  1.00 20.00    -0.030 C 
HETATM    3  C4  UNL     1     -36.273  15.903  -7.073  1.00 20.00     0.045 C 
HETATM    4  C5  UNL     1     -34.914  17.314  -4.759  1.00 20.00     0.037 C 
HETATM    5  C6  UNL     1     -34.129  14.512  -6.679  1.00 20.00     0.019 C 
HETATM    6  C7  UNL     1     -33.350  15.655  -6.017  1.00 20.00     0.012 C 
HETATM    7  C8  UNL     1     -35.461  15.068  -6.060  1.00 20.00     0.031 C 
HETATM    8  C9  UNL     1     -34.538  15.854  -5.026  1.00 20.00    -0.026 C 
HETATM    9  C11 UNL     1     -34.266  15.134  -3.695  1.00 20.00     0.016 C 
ENDROOT
BRANCH   7  10
HETATM   10  C3  UNL     1     -36.380  13.962  -5.443  1.00 20.00     0.132 C 
HETATM   11  C10 UNL     1     -37.779  14.375  -5.071  1.00 20.00     0.091 C 
HETATM   12  O12 UNL     1     -35.980  12.811  -5.270  1.00 20.00    -0.298 OA
ENDBRANCH   7  10
TORSDOF 1
ENDMDL
MODEL 8
REMARK VINA RESULT:      -4.2      1.995      3.485
REMARK  1 active torsions:
REMARK  status: ('A' for Active; 'I' for Inactive)
REMARK    1  A    between atoms: C3_3  and  C8_8 
ROOT
HETATM    1  C1  UNL     1     -33.020  15.024  -4.545  1.00 20.00    -0.029 C 
HETATM    2  C2  UNL     1     -33.887  14.081  -4.156  1.00 20.00    -0.030 C 
HETATM    3  C4  UNL     1     -33.293  16.063  -5.585  1.00 20.00     0.045 C 
HETATM    4  C5  UNL     1     -35.252  13.910  -4.735  1.00 20.00     0.037 C 
HETATM    5  C6  UNL     1     -34.025  14.981  -7.817  1.00 20.00     0.019 C 
HETATM    6  C7  UNL     1     -34.425  13.641  -7.189  1.00 20.00     0.012 C 
HETATM    7  C8  UNL     1     -34.481  15.724  -6.511  1.00 20.00     0.031 C 
HETATM    8  C9  UNL     1     -35.327  14.415  -6.179  1.00 20.00    -0.026 C 
HETATM    9  C11 UNL     1     -36.790  14.429  -6.651  1.00 20.00     0.016 C 
ENDROOT
BRANCH   7  10
HETATM   10  C3  UNL     1     -35.317  17.019  -6.779  1.00 20.00     0.132 C 
HETATM   11  C10 UNL     1     -35.704  17.837  -5.576  1.00 20.00     0.091 C 
HETATM   12  O12 UNL     1     -35.640  17.355  -7.918  1.00 20.00    -0.298 OA
ENDBRANCH   7  10
TORSDOF 1
ENDMDL
MODEL 9
REMARK VINA RESULT:      -4.2      1.436      3.078
REMARK  1 active torsions:
REMARK  status: ('A' for Active; 'I' for Inactive)
REMARK    1  A    between atoms: C3_3  and  C8_8 
ROOT
HETATM    1  C1  UNL     1     -33.635  17.794  -2.673  1.00 20.00    -0.029 C 
HETATM    2  C2  UNL     1     -33.516  18.508  -3.799  1.00 20.00    -0.030 C 
HETATM    3  C4  UNL     1     -34.028  16.353  -2.609  1.00 20.00     0.045 C 
HETATM    4  C5  UNL     1     -33.795  17.970  -5.163  1.00 20.00     0.037 C 
HETATM    5  C6  UNL     1     -36.286  15.946  -3.803  1.00 20.00     0.019 C 
HETATM    6  C7  UNL     1     -36.235  17.239  -4.625  1.00 20.00     0.012 C 
HETATM    7  C8  UNL     1     -34.722  15.836  -3.888  1.00 20.00     0.031 C 
HETATM    8  C9  UNL     1     -34.817  16.830  -5.130  1.00 20.00    -0.026 C 
HETATM    9  C11 UNL     1     -34.900  16.164  -6.512  1.00 20.00     0.016 C 
ENDROOT
BRANCH   7  10
HETATM   10  C3  UNL     1     -34.205  14.395  -4.213  1.00 20.00     0.132 C 
HETATM   11  C10 UNL     1     -32.713  14.208  -4.272  1.00 20.00     0.091 C 
HETATM   12  O12 UNL     1     -34.981  13.460  -4.408  1.00 20.00    -0.298 OA
ENDBRANCH   7  10
TORSDOF 1
ENDMDL
