MODEL 1
REMARK VINA RESULT:      -5.0      0.000      0.000
REMARK  2 active torsions:
REMARK  status: ('A' for Active; 'I' for Inactive)
REMARK    1  A    between atoms: C4_4  and  C5_5 
REMARK    2  A    between atoms: C6_6  and  C10_10 
ROOT
HETATM    1  C1  UNL     1     -32.353   8.002   4.708  1.00 20.00    -0.003 C 
HETATM    2  C2  UNL     1     -33.577   7.261   4.898  1.00 20.00     0.010 C 
HETATM    3  C3  UNL     1     -31.822   8.160   3.486  1.00 20.00    -0.021 C 
HETATM    4  C4  UNL     1     -34.051   6.470   3.922  1.00 20.00    -0.016 C 
HETATM    5  C6  UNL     1     -32.455   7.551   2.253  1.00 20.00     0.016 C 
HETATM    6  C7  UNL     1     -33.354   6.318   2.587  1.00 20.00     0.025 C 
HETATM    7  C8  UNL     1     -32.519   5.029   2.598  1.00 20.00     0.016 C 
ENDROOT
BRANCH   4   8
HETATM    8  C5  UNL     1     -35.302   5.752   4.169  1.00 20.00     0.266 C 
HETATM    9  O11 UNL     1     -35.331   4.595   4.571  1.00 20.00    -0.302 OA
ENDBRANCH   4   8
BRANCH   5  10
HETATM   10  C10 UNL     1     -33.255   8.632   1.520  1.00 20.00     0.005 C 
HETATM   11  C9  UNL     1     -32.392   9.788   1.140  1.00 20.00     0.006 C 
ENDBRANCH   5  10
TORSDOF 2
ENDMDL
MODEL 2
REMARK VINA RESULT:      -4.6      2.194      4.075
REMARK  2 active torsions:
REMARK  status: ('A' for Active; 'I' for Inactive)
REMARK    1  A    between atoms: C4_4  and  C5_5 
REMARK    2  A    between atoms: C6_6  and  C10_10 
ROOT
HETATM    1  C1  UNL     1     -33.753   7.299   5.961  1.00 20.00    -0.003 C 
HETATM    2  C2  UNL     1     -33.053   7.584   4.730  1.00 20.00     0.010 C 
HETATM    3  C3  UNL     1     -34.571   6.240   6.062  1.00 20.00    -0.021 C 
HETATM    4  C4  UNL     1     -33.422   6.988   3.586  1.00 20.00    -0.016 C 
HETATM    5  C6  UNL     1     -34.827   5.310   4.894  1.00 20.00     0.016 C 
HETATM    6  C7  UNL     1     -34.560   5.993   3.515  1.00 20.00     0.025 C 
HETATM    7  C8  UNL     1     -35.824   6.708   3.014  1.00 20.00     0.016 C 
ENDROOT
BRANCH   4   8
HETATM    8  C5  UNL     1     -32.667   7.308   2.373  1.00 20.00     0.266 C 
HETATM    9  O11 UNL     1     -31.950   8.298   2.284  1.00 20.00    -0.302 OA
ENDBRANCH   4   8
BRANCH   5  10
HETATM   10  C10 UNL     1     -33.965   4.055   5.062  1.00 20.00     0.005 C 
HETATM   11  C9  UNL     1     -33.635   3.438   3.745  1.00 20.00     0.006 C 
ENDBRANCH   5  10
TORSDOF 2
ENDMDL
MODEL 3
REMARK VINA RESULT:      -4.6     10.839     11.673
REMARK  2 active torsions:
REMARK  status: ('A' for Active; 'I' for Inactive)
REMARK    1  A    between atoms: C4_4  and  C5_5 
REMARK    2  A    between atoms: C6_6  and  C10_10 
ROOT
HETATM    1  C1  UNL     1     -33.186  15.526  -3.926  1.00 20.00    -0.003 C 
HETATM    2  C2  UNL     1     -34.119  14.522  -4.379  1.00 20.00     0.010 C 
HETATM    3  C3  UNL     1     -33.615  16.678  -3.390  1.00 20.00    -0.021 C 
HETATM    4  C4  UNL     1     -35.415  14.828  -4.551  1.00 20.00    -0.016 C 
HETATM    5  C6  UNL     1     -35.089  17.001  -3.259  1.00 20.00     0.016 C 
HETATM    6  C7  UNL     1     -35.969  16.209  -4.278  1.00 20.00     0.025 C 
HETATM    7  C8  UNL     1     -36.084  16.978  -5.602  1.00 20.00     0.016 C 
ENDROOT
BRANCH   4   8
HETATM    8  C5  UNL     1     -36.316  13.765  -5.002  1.00 20.00     0.266 C 
HETATM    9  O11 UNL     1     -35.918  12.645  -5.298  1.00 20.00    -0.302 OA
ENDBRANCH   4   8
BRANCH   5  10
HETATM   10  C10 UNL     1     -35.531  16.724  -1.818  1.00 20.00     0.005 C 
HETATM   11  C9  UNL     1     -34.622  17.376  -0.832  1.00 20.00     0.006 C 
ENDBRANCH   5  10
TORSDOF 2
ENDMDL
MODEL 4
REMARK VINA RESULT:      -4.3     10.735     12.280
REMARK  2 active torsions:
REMARK  status: ('A' for Active; 'I' for Inactive)
REMARK    1  A    between atoms: C4_4  and  C5_5 
REMARK    2  A    between atoms: C6_6  and  C10_10 
ROOT
HETATM    1  C1  UNL     1     -33.623  14.410  -4.198  1.00 20.00    -0.003 C 
HETATM    2  C2  UNL     1     -35.011  14.120  -4.471  1.00 20.00     0.010 C 
HETATM    3  C3  UNL     1     -32.914  15.218  -5.002  1.00 20.00    -0.021 C 
HETATM    4  C4  UNL     1     -35.540  14.400  -5.672  1.00 20.00    -0.016 C 
HETATM    5  C6  UNL     1     -33.516  15.840  -6.245  1.00 20.00     0.016 C 
HETATM    6  C7  UNL     1     -34.738  15.033  -6.788  1.00 20.00     0.025 C 
HETATM    7  C8  UNL     1     -34.270  13.938  -7.759  1.00 20.00     0.016 C 
ENDROOT
BRANCH   4   8
HETATM    8  C5  UNL     1     -36.955  14.093  -5.886  1.00 20.00     0.266 C 
HETATM    9  O11 UNL     1     -37.718  13.822  -4.966  1.00 20.00    -0.302 OA
ENDBRANCH   4   8
BRANCH   5  10
HETATM   10  C10 UNL     1     -33.907  17.288  -5.934  1.00 20.00     0.005 C 
HETATM   11  C9  UNL     1     -34.852  17.830  -6.953  1.00 20.00     0.006 C 
ENDBRANCH   5  10
TORSDOF 2
ENDMDL
MODEL 5
REMARK VINA RESULT:      -4.3     10.572     11.683
REMARK  2 active torsions:
REMARK  status: ('A' for Active; 'I' for Inactive)
REMARK    1  A    between atoms: C4_4  and  C5_5 
REMARK    2  A    between atoms: C6_6  and  C10_10 
ROOT
HETATM    1  C1  UNL     1     -35.007  16.493  -2.644  1.00 20.00    -0.003 C 
HETATM    2  C2  UNL     1     -35.787  15.509  -3.357  1.00 20.00     0.010 C 
HETATM    3  C3  UNL     1     -33.889  17.008  -3.176  1.00 20.00    -0.021 C 
HETATM    4  C4  UNL     1     -35.269  14.872  -4.419  1.00 20.00    -0.016 C 
HETATM    5  C6  UNL     1     -33.370  16.570  -4.530  1.00 20.00     0.016 C 
HETATM    6  C7  UNL     1     -33.872  15.146  -4.931  1.00 20.00     0.025 C 
HETATM    7  C8  UNL     1     -32.917  14.068  -4.396  1.00 20.00     0.016 C 
ENDROOT
BRANCH   4   8
HETATM    8  C5  UNL     1     -36.111  13.893  -5.109  1.00 20.00     0.266 C 
HETATM    9  O11 UNL     1     -35.824  12.704  -5.173  1.00 20.00    -0.302 OA
ENDBRANCH   4   8
BRANCH   5  10
HETATM   10  C10 UNL     1     -33.775  17.612  -5.577  1.00 20.00     0.005 C 
HETATM   11  C9  UNL     1     -33.899  17.004  -6.934  1.00 20.00     0.006 C 
ENDBRANCH   5  10
TORSDOF 2
ENDMDL
MODEL 6
REMARK VINA RESULT:      -4.1     10.564     12.060
REMARK  2 active torsions:
REMARK  status: ('A' for Active; 'I' for Inactive)
REMARK    1  A    between atoms: C4_4  and  C5_5 
REMARK    2  A    between atoms: C6_6  and  C10_10 
ROOT
HETATM    1  C1  UNL     1     -33.485  18.005  -4.842  1.00 20.00    -0.003 C 
HETATM    2  C2  UNL     1     -33.398  16.567  -4.932  1.00 20.00     0.010 C 
HETATM    3  C3  UNL     1     -33.784  18.609  -3.682  1.00 20.00    -0.021 C 
HETATM    4  C4  UNL     1     -33.896  15.794  -3.954  1.00 20.00    -0.016 C 
HETATM    5  C6  UNL     1     -34.073  17.823  -2.420  1.00 20.00     0.016 C 
HETATM    6  C7  UNL     1     -34.556  16.367  -2.719  1.00 20.00     0.025 C 
HETATM    7  C8  UNL     1     -36.081  16.332  -2.898  1.00 20.00     0.016 C 
ENDROOT
BRANCH   4   8
HETATM    8  C5  UNL     1     -33.769  14.342  -4.096  1.00 20.00     0.266 C 
HETATM    9  O11 UNL     1     -34.722  13.619  -4.357  1.00 20.00    -0.302 OA
ENDBRANCH   4   8
BRANCH   5  10
HETATM   10  C10 UNL     1     -32.819  17.817  -1.541  1.00 20.00     0.005 C 
HETATM   11  C9  UNL     1     -33.037  18.571  -0.273  1.00 20.00     0.006 C 
ENDBRANCH   5  10
TORSDOF 2
ENDMDL
MODEL 7
REMARK VINA RESULT:      -4.0     10.896     12.430
REMARK  2 active torsions:
REMARK  status: ('A' for Active; 'I' for Inactive)
REMARK    1  A    between atoms: C4_4  and  C5_5 
REMARK    2  A    between atoms: C6_6  and  C10_10 
ROOT
HETATM    1  C1  UNL     1     -33.675  16.051  -3.566  1.00 20.00    -0.003 C 
HETATM    2  C2  UNL     1     -34.643  15.010  -3.819  1.00 20.00     0.010 C 
HETATM    3  C3  UNL     1     -33.525  17.079  -4.415  1.00 20.00    -0.021 C 
HETATM    4  C4  UNL     1     -35.199  14.881  -5.034  1.00 20.00    -0.016 C 
HETATM    5  C6  UNL     1     -34.335  17.188  -5.690  1.00 20.00     0.016 C 
HETATM    6  C7  UNL     1     -34.864  15.804  -6.185  1.00 20.00     0.025 C 
HETATM    7  C8  UNL     1     -33.828  15.124  -7.093  1.00 20.00     0.016 C 
ENDROOT
BRANCH   4   8
HETATM    8  C5  UNL     1     -36.182  13.814  -5.228  1.00 20.00     0.266 C 
HETATM    9  O11 UNL     1     -35.873  12.628  -5.254  1.00 20.00    -0.302 OA
ENDBRANCH   4   8
BRANCH   5  10
HETATM   10  C10 UNL     1     -35.489  18.169  -5.462  1.00 20.00     0.005 C 
HETATM   11  C9  UNL     1     -36.537  18.035  -6.515  1.00 20.00     0.006 C 
ENDBRANCH   5  10
TORSDOF 2
ENDMDL
MODEL 8
REMARK VINA RESULT:      -4.0     11.204     12.462
REMARK  2 active torsions:
REMARK  status: ('A' for Active; 'I' for Inactive)
REMARK    1  A    between atoms: C4_4  and  C5_5 
REMARK    2  A    between atoms: C6_6  and  C10_10 
ROOT
HETATM    1  C1  UNL     1     -32.858  15.503  -5.197  1.00 20.00    -0.003 C 
HETATM    2  C2  UNL     1     -33.632  16.693  -5.462  1.00 20.00     0.010 C 
HETATM    3  C3  UNL     1     -33.393  14.460  -4.546  1.00 20.00    -0.021 C 
HETATM    4  C4  UNL     1     -34.790  16.906  -4.818  1.00 20.00    -0.016 C 
HETATM    5  C6  UNL     1     -34.818  14.482  -4.032  1.00 20.00     0.016 C 
HETATM    6  C7  UNL     1     -35.351  15.932  -3.805  1.00 20.00     0.025 C 
HETATM    7  C8  UNL     1     -35.004  16.419  -2.390  1.00 20.00     0.016 C 
ENDROOT
BRANCH   4   8
HETATM    8  C5  UNL     1     -35.537  18.125  -5.137  1.00 20.00     0.266 C 
HETATM    9  O11 UNL     1     -36.755  18.200  -5.029  1.00 20.00    -0.302 OA
ENDBRANCH   4   8
BRANCH   5  10
HETATM   10  C10 UNL     1     -35.711  13.714  -5.011  1.00 20.00     0.005 C 
HETATM   11  C9  UNL     1     -37.098  14.260  -5.031  1.00 20.00     0.006 C 
ENDBRANCH   5  10
TORSDOF 2
ENDMDL
MODEL 9
REMARK VINA RESULT:      -4.0     10.920     12.429
REMARK  2 active torsions:
REMARK  status: ('A' for Active; 'I' for Inactive)
REMARK    1  A    between atoms: C4_4  and  C5_5 
REMARK    2  A    between atoms: C6_6  and  C10_10 
ROOT
HETATM    1  C1  UNL     1     -36.260  17.344  -4.159  1.00 20.00    -0.003 C 
HETATM    2  C2  UNL     1     -35.356  17.168  -5.270  1.00 20.00     0.010 C 
HETATM    3  C3  UNL     1     -35.945  16.898  -2.933  1.00 20.00    -0.021 C 
HETATM    4  C4  UNL     1     -34.330  16.308  -5.181  1.00 20.00    -0.016 C 
HETATM    5  C6  UNL     1     -34.649  16.166  -2.656  1.00 20.00     0.016 C 
HETATM    6  C7  UNL     1     -34.053  15.495  -3.934  1.00 20.00     0.025 C 
HETATM    7  C8  UNL     1     -34.625  14.081  -4.116  1.00 20.00     0.016 C 
ENDROOT
BRANCH   4   8
HETATM    8  C5  UNL     1     -33.440  16.180  -6.337  1.00 20.00     0.266 C 
HETATM    9  O11 UNL     1     -33.675  15.420  -7.269  1.00 20.00    -0.302 OA
ENDBRANCH   4   8
BRANCH   5  10
HETATM   10  C10 UNL     1     -33.649  17.146  -2.032  1.00 20.00     0.005 C 
HETATM   11  C9  UNL     1     -34.162  17.708  -0.750  1.00 20.00     0.006 C 
ENDBRANCH   5  10
TORSDOF 2
ENDMDL
