MODEL 1
REMARK VINA RESULT:      -4.4      0.000      0.000
REMARK  2 active torsions:
REMARK  status: ('A' for Active; 'I' for Inactive)
REMARK    1  A    between atoms: C3_3  and  C8_8 
REMARK    2  A    between atoms: C8_8  and  C10_10 
ROOT
HETATM    1  C1  UNL     1     -33.636  16.885  -3.773  1.00 20.00    -0.026 C 
HETATM    2  C2  UNL     1     -34.343  16.020  -3.031  1.00 20.00    -0.024 C 
HETATM    3  C4  UNL     1     -33.073  14.769  -4.482  1.00 20.00     0.018 C 
HETATM    4  C5  UNL     1     -34.539  15.995  -5.909  1.00 20.00     0.025 C 
HETATM    5  C6  UNL     1     -33.260  16.176  -5.052  1.00 20.00     0.010 C 
HETATM    6  C7  UNL     1     -34.467  14.742  -3.833  1.00 20.00     0.024 C 
HETATM    7  C8  UNL     1     -35.396  14.999  -5.059  1.00 20.00     0.020 C 
ENDROOT
BRANCH   7   8
HETATM    8  C3  UNL     1     -35.603  13.695  -5.791  1.00 20.00     0.241 C 
HETATM    9  O11 UNL     1     -35.899  12.645  -5.231  1.00 20.00    -0.306 OA
ENDBRANCH   7   8
BRANCH   7  10
HETATM   10  C10 UNL     1     -36.778  15.552  -4.709  1.00 20.00     0.013 C 
HETATM   11  C9  UNL     1     -37.095  16.778  -5.497  1.00 20.00     0.006 C 
ENDBRANCH   7  10
TORSDOF 2
ENDMDL
MODEL 2
REMARK VINA RESULT:      -4.3      1.236      2.181
REMARK  2 active torsions:
REMARK  status: ('A' for Active; 'I' for Inactive)
REMARK    1  A    between atoms: C3_3  and  C8_8 
REMARK    2  A    between atoms: C8_8  and  C10_10 
ROOT
HETATM    1  C1  UNL     1     -33.323  16.911  -4.861  1.00 20.00    -0.026 C 
HETATM    2  C2  UNL     1     -34.550  17.245  -5.287  1.00 20.00    -0.024 C 
HETATM    3  C4  UNL     1     -34.831  15.826  -3.500  1.00 20.00     0.018 C 
HETATM    4  C5  UNL     1     -33.743  14.479  -5.141  1.00 20.00     0.025 C 
HETATM    5  C6  UNL     1     -33.448  15.603  -4.115  1.00 20.00     0.010 C 
HETATM    6  C7  UNL     1     -35.489  16.139  -4.855  1.00 20.00     0.024 C 
HETATM    7  C8  UNL     1     -35.168  14.850  -5.672  1.00 20.00     0.020 C 
ENDROOT
BRANCH   7   8
HETATM    8  C3  UNL     1     -36.178  13.787  -5.314  1.00 20.00     0.241 C 
HETATM    9  O11 UNL     1     -35.899  12.598  -5.207  1.00 20.00    -0.306 OA
ENDBRANCH   7   8
BRANCH   7  10
HETATM   10  C10 UNL     1     -35.209  15.029  -7.189  1.00 20.00     0.013 C 
HETATM   11  C9  UNL     1     -34.005  14.442  -7.845  1.00 20.00     0.006 C 
ENDBRANCH   7  10
TORSDOF 2
ENDMDL
MODEL 3
REMARK VINA RESULT:      -4.3      1.258      2.482
REMARK  2 active torsions:
REMARK  status: ('A' for Active; 'I' for Inactive)
REMARK    1  A    between atoms: C3_3  and  C8_8 
REMARK    2  A    between atoms: C8_8  and  C10_10 
ROOT
HETATM    1  C1  UNL     1     -33.052  15.459  -5.017  1.00 20.00    -0.026 C 
HETATM    2  C2  UNL     1     -33.835  16.307  -5.700  1.00 20.00    -0.024 C 
HETATM    3  C4  UNL     1     -34.774  16.069  -3.615  1.00 20.00     0.018 C 
HETATM    4  C5  UNL     1     -34.922  13.887  -4.567  1.00 20.00     0.025 C 
HETATM    5  C6  UNL     1     -33.897  14.854  -3.921  1.00 20.00     0.010 C 
HETATM    6  C7  UNL     1     -35.213  16.240  -5.079  1.00 20.00     0.024 C 
HETATM    7  C8  UNL     1     -35.845  14.848  -5.389  1.00 20.00     0.020 C 
ENDROOT
BRANCH   7   8
HETATM    8  C3  UNL     1     -37.259  14.830  -4.862  1.00 20.00     0.241 C 
HETATM    9  O11 UNL     1     -37.995  13.852  -4.934  1.00 20.00    -0.306 OA
ENDBRANCH   7   8
BRANCH   7  10
HETATM   10  C10 UNL     1     -35.904  14.490  -6.874  1.00 20.00     0.013 C 
HETATM   11  C9  UNL     1     -35.246  13.180  -7.150  1.00 20.00     0.006 C 
ENDBRANCH   7  10
TORSDOF 2
ENDMDL
MODEL 4
REMARK VINA RESULT:      -4.2      1.148      2.588
REMARK  2 active torsions:
REMARK  status: ('A' for Active; 'I' for Inactive)
REMARK    1  A    between atoms: C3_3  and  C8_8 
REMARK    2  A    between atoms: C8_8  and  C10_10 
ROOT
HETATM    1  C1  UNL     1     -33.903  16.964  -6.732  1.00 20.00    -0.026 C 
HETATM    2  C2  UNL     1     -33.280  15.795  -6.519  1.00 20.00    -0.024 C 
HETATM    3  C4  UNL     1     -35.284  15.306  -7.535  1.00 20.00     0.018 C 
HETATM    4  C5  UNL     1     -35.916  16.276  -5.450  1.00 20.00     0.025 C 
HETATM    5  C6  UNL     1     -35.380  16.670  -6.849  1.00 20.00     0.010 C 
HETATM    6  C7  UNL     1     -34.349  14.725  -6.461  1.00 20.00     0.024 C 
HETATM    7  C8  UNL     1     -35.193  14.917  -5.164  1.00 20.00     0.020 C 
ENDROOT
BRANCH   7   8
HETATM    8  C3  UNL     1     -36.184  13.784  -5.057  1.00 20.00     0.241 C 
HETATM    9  O11 UNL     1     -35.898  12.613  -5.283  1.00 20.00    -0.306 OA
ENDBRANCH   7   8
BRANCH   7  10
HETATM   10  C10 UNL     1     -34.380  14.938  -3.869  1.00 20.00     0.013 C 
HETATM   11  C9  UNL     1     -34.738  16.106  -3.013  1.00 20.00     0.006 C 
ENDBRANCH   7  10
TORSDOF 2
ENDMDL
MODEL 5
REMARK VINA RESULT:      -4.2      1.618      3.320
REMARK  2 active torsions:
REMARK  status: ('A' for Active; 'I' for Inactive)
REMARK    1  A    between atoms: C3_3  and  C8_8 
REMARK    2  A    between atoms: C8_8  and  C10_10 
ROOT
HETATM    1  C1  UNL     1     -34.048  14.735  -7.792  1.00 20.00    -0.026 C 
HETATM    2  C2  UNL     1     -34.436  13.548  -7.301  1.00 20.00    -0.024 C 
HETATM    3  C4  UNL     1     -36.348  14.693  -7.867  1.00 20.00     0.018 C 
HETATM    4  C5  UNL     1     -35.381  16.008  -6.128  1.00 20.00     0.025 C 
HETATM    5  C6  UNL     1     -35.209  15.687  -7.634  1.00 20.00     0.010 C 
HETATM    6  C7  UNL     1     -35.848  13.720  -6.785  1.00 20.00     0.024 C 
HETATM    7  C8  UNL     1     -35.821  14.634  -5.521  1.00 20.00     0.020 C 
ENDROOT
BRANCH   7   8
HETATM    8  C3  UNL     1     -37.215  14.711  -4.948  1.00 20.00     0.241 C 
HETATM    9  O11 UNL     1     -38.003  13.771  -4.958  1.00 20.00    -0.306 OA
ENDBRANCH   7   8
BRANCH   7  10
HETATM   10  C10 UNL     1     -34.893  14.153  -4.405  1.00 20.00     0.013 C 
HETATM   11  C9  UNL     1     -34.010  15.250  -3.913  1.00 20.00     0.006 C 
ENDBRANCH   7  10
TORSDOF 2
ENDMDL
MODEL 6
REMARK VINA RESULT:      -4.0      1.500      3.273
REMARK  2 active torsions:
REMARK  status: ('A' for Active; 'I' for Inactive)
REMARK    1  A    between atoms: C3_3  and  C8_8 
REMARK    2  A    between atoms: C8_8  and  C10_10 
ROOT
HETATM    1  C1  UNL     1     -36.845  14.674  -6.300  1.00 20.00    -0.026 C 
HETATM    2  C2  UNL     1     -36.172  15.834  -6.260  1.00 20.00    -0.024 C 
HETATM    3  C4  UNL     1     -34.671  14.215  -6.904  1.00 20.00     0.018 C 
HETATM    4  C5  UNL     1     -35.303  13.571  -4.696  1.00 20.00     0.025 C 
HETATM    5  C6  UNL     1     -35.833  13.563  -6.152  1.00 20.00     0.010 C 
HETATM    6  C7  UNL     1     -34.712  15.494  -6.051  1.00 20.00     0.024 C 
HETATM    7  C8  UNL     1     -34.522  14.925  -4.611  1.00 20.00     0.020 C 
ENDROOT
BRANCH   7   8
HETATM    8  C3  UNL     1     -33.050  14.693  -4.372  1.00 20.00     0.241 C 
HETATM    9  O11 UNL     1     -32.562  13.584  -4.185  1.00 20.00    -0.306 OA
ENDBRANCH   7   8
BRANCH   7  10
HETATM   10  C10 UNL     1     -35.030  15.835  -3.493  1.00 20.00     0.013 C 
HETATM   11  C9  UNL     1     -33.911  16.554  -2.817  1.00 20.00     0.006 C 
ENDBRANCH   7  10
TORSDOF 2
ENDMDL
MODEL 7
REMARK VINA RESULT:      -4.0      2.147      3.275
REMARK  2 active torsions:
REMARK  status: ('A' for Active; 'I' for Inactive)
REMARK    1  A    between atoms: C3_3  and  C8_8 
REMARK    2  A    between atoms: C8_8  and  C10_10 
ROOT
HETATM    1  C1  UNL     1     -33.147  14.500  -4.445  1.00 20.00    -0.026 C 
HETATM    2  C2  UNL     1     -34.392  14.203  -4.044  1.00 20.00    -0.024 C 
HETATM    3  C4  UNL     1     -34.592  15.552  -5.896  1.00 20.00     0.018 C 
HETATM    4  C5  UNL     1     -33.533  16.948  -4.278  1.00 20.00     0.025 C 
HETATM    5  C6  UNL     1     -33.226  15.777  -5.247  1.00 20.00     0.010 C 
HETATM    6  C7  UNL     1     -35.297  15.305  -4.551  1.00 20.00     0.024 C 
HETATM    7  C8  UNL     1     -34.980  16.622  -3.777  1.00 20.00     0.020 C 
ENDROOT
BRANCH   7   8
HETATM    8  C3  UNL     1     -35.959  17.686  -4.209  1.00 20.00     0.241 C 
HETATM    9  O11 UNL     1     -35.622  18.752  -4.713  1.00 20.00    -0.306 OA
ENDBRANCH   7   8
BRANCH   7  10
HETATM   10  C10 UNL     1     -35.071  16.506  -2.256  1.00 20.00     0.013 C 
HETATM   11  C9  UNL     1     -33.920  17.176  -1.583  1.00 20.00     0.006 C 
ENDBRANCH   7  10
TORSDOF 2
ENDMDL
MODEL 8
REMARK VINA RESULT:      -3.9      1.811      2.792
REMARK  2 active torsions:
REMARK  status: ('A' for Active; 'I' for Inactive)
REMARK    1  A    between atoms: C3_3  and  C8_8 
REMARK    2  A    between atoms: C8_8  and  C10_10 
ROOT
HETATM    1  C1  UNL     1     -35.965  17.170  -2.600  1.00 20.00    -0.026 C 
HETATM    2  C2  UNL     1     -34.956  16.460  -2.073  1.00 20.00    -0.024 C 
HETATM    3  C4  UNL     1     -34.021  17.944  -3.560  1.00 20.00     0.018 C 
HETATM    4  C5  UNL     1     -35.374  16.532  -4.927  1.00 20.00     0.025 C 
HETATM    5  C6  UNL     1     -35.488  17.711  -3.927  1.00 20.00     0.010 C 
HETATM    6  C7  UNL     1     -33.816  16.501  -3.067  1.00 20.00     0.024 C 
HETATM    7  C8  UNL     1     -34.210  15.673  -4.329  1.00 20.00     0.020 C 
ENDROOT
BRANCH   7   8
HETATM    8  C3  UNL     1     -33.028  15.626  -5.266  1.00 20.00     0.241 C 
HETATM    9  O11 UNL     1     -33.102  15.890  -6.462  1.00 20.00    -0.306 OA
ENDBRANCH   7   8
BRANCH   7  10
HETATM   10  C10 UNL     1     -34.623  14.229  -4.041  1.00 20.00     0.013 C 
HETATM   11  C9  UNL     1     -35.727  13.784  -4.941  1.00 20.00     0.006 C 
ENDBRANCH   7  10
TORSDOF 2
ENDMDL
MODEL 9
REMARK VINA RESULT:      -3.9      1.496      3.297
REMARK  2 active torsions:
REMARK  status: ('A' for Active; 'I' for Inactive)
REMARK    1  A    between atoms: C3_3  and  C8_8 
REMARK    2  A    between atoms: C8_8  and  C10_10 
ROOT
HETATM    1  C1  UNL     1     -36.810  16.040  -4.497  1.00 20.00    -0.026 C 
HETATM    2  C2  UNL     1     -36.237  16.553  -5.596  1.00 20.00    -0.024 C 
HETATM    3  C4  UNL     1     -37.413  14.695  -6.266  1.00 20.00     0.018 C 
HETATM    4  C5  UNL     1     -35.736  13.823  -4.811  1.00 20.00     0.025 C 
HETATM    5  C6  UNL     1     -37.087  14.582  -4.775  1.00 20.00     0.010 C 
HETATM    6  C7  UNL     1     -36.100  15.425  -6.595  1.00 20.00     0.024 C 
HETATM    7  C8  UNL     1     -35.032  14.413  -6.078  1.00 20.00     0.020 C 
ENDROOT
BRANCH   7   8
HETATM    8  C3  UNL     1     -34.821  13.351  -7.130  1.00 20.00     0.241 C 
HETATM    9  O11 UNL     1     -35.019  12.157  -6.935  1.00 20.00    -0.306 OA
ENDBRANCH   7   8
BRANCH   7  10
HETATM   10  C10 UNL     1     -33.667  15.028  -5.768  1.00 20.00     0.013 C 
HETATM   11  C9  UNL     1     -33.158  14.593  -4.435  1.00 20.00     0.006 C 
ENDBRANCH   7  10
TORSDOF 2
ENDMDL
