MODEL 1
REMARK VINA RESULT:      -4.9      0.000      0.000
REMARK  2 active torsions:
REMARK  status: ('A' for Active; 'I' for Inactive)
REMARK    1  A    between atoms: C1_1  and  C3_3 
REMARK       I    between atoms: C1_1  and  N8_8 
REMARK    2  A    between atoms: N8_8  and  O10_10 
ROOT
HETATM    1  C1  UNL     1     -33.484   6.672   3.087  1.00 20.00     0.247 C 
HETATM    2  C6  UNL     1     -33.861   7.169   5.497  1.00 20.00     0.189 C 
HETATM    3  N8  UNL     1     -33.913   6.298   4.337  1.00 20.00    -0.231 N 
HETATM    4  O9  UNL     1     -33.525   5.940   2.097  1.00 20.00    -0.271 OA
ENDROOT
BRANCH   1   5
HETATM    5  C3  UNL     1     -32.923   8.069   2.972  1.00 20.00     0.084 A 
HETATM    6  C2  UNL     1     -31.445   8.229   3.002  1.00 20.00     0.019 A 
HETATM    7  C4  UNL     1     -32.202   8.425   1.719  1.00 20.00    -0.005 A 
HETATM    8  C5  UNL     1     -32.371   9.792   1.151  1.00 20.00     0.011 C 
ENDBRANCH   1   5
BRANCH   3   9
HETATM    9  O10 UNL     1     -34.451   5.029   4.627  1.00 20.00    -0.281 OA
HETATM   10  C7  UNL     1     -34.639   4.918   6.035  1.00 20.00     0.238 C 
ENDBRANCH   3   9
TORSDOF 2
ENDMDL
MODEL 2
REMARK VINA RESULT:      -4.7      1.470      4.351
REMARK  2 active torsions:
REMARK  status: ('A' for Active; 'I' for Inactive)
REMARK    1  A    between atoms: C1_1  and  C3_3 
REMARK       I    between atoms: C1_1  and  N8_8 
REMARK    2  A    between atoms: N8_8  and  O10_10 
ROOT
HETATM    1  C1  UNL     1     -33.292   6.870   2.843  1.00 20.00     0.247 C 
HETATM    2  C6  UNL     1     -31.401   8.353   3.493  1.00 20.00     0.189 C 
HETATM    3  N8  UNL     1     -32.350   7.820   2.533  1.00 20.00    -0.231 N 
HETATM    4  O9  UNL     1     -34.101   6.413   2.034  1.00 20.00    -0.271 OA
ENDROOT
BRANCH   1   5
HETATM    5  C3  UNL     1     -33.309   6.401   4.278  1.00 20.00     0.084 A 
HETATM    6  C2  UNL     1     -34.037   7.233   5.273  1.00 20.00     0.019 A 
HETATM    7  C4  UNL     1     -34.601   5.912   4.832  1.00 20.00    -0.005 A 
HETATM    8  C5  UNL     1     -34.596   4.747   5.761  1.00 20.00     0.011 C 
ENDBRANCH   1   5
BRANCH   3   9
HETATM    9  O10 UNL     1     -32.202   8.378   1.248  1.00 20.00    -0.281 OA
HETATM   10  C7  UNL     1     -32.484   9.773   1.314  1.00 20.00     0.238 C 
ENDBRANCH   3   9
TORSDOF 2
ENDMDL
MODEL 3
REMARK VINA RESULT:      -4.2     11.006     11.776
REMARK  2 active torsions:
REMARK  status: ('A' for Active; 'I' for Inactive)
REMARK    1  A    between atoms: C1_1  and  C3_3 
REMARK       I    between atoms: C1_1  and  N8_8 
REMARK    2  A    between atoms: N8_8  and  O10_10 
ROOT
HETATM    1  C1  UNL     1     -35.779  13.984  -4.738  1.00 20.00     0.247 C 
HETATM    2  C6  UNL     1     -37.286  15.863  -4.111  1.00 20.00     0.189 C 
HETATM    3  N8  UNL     1     -37.032  14.537  -4.643  1.00 20.00    -0.231 N 
HETATM    4  O9  UNL     1     -35.555  12.859  -5.188  1.00 20.00    -0.271 OA
ENDROOT
BRANCH   1   5
HETATM    5  C3  UNL     1     -34.640  14.837  -4.233  1.00 20.00     0.084 A 
HETATM    6  C2  UNL     1     -33.252  14.367  -4.489  1.00 20.00     0.019 A 
HETATM    7  C4  UNL     1     -33.805  15.546  -5.240  1.00 20.00    -0.005 A 
HETATM    8  C5  UNL     1     -33.318  16.921  -4.938  1.00 20.00     0.011 C 
ENDBRANCH   1   5
BRANCH   3   9
HETATM    9  O10 UNL     1     -38.206  13.877  -5.055  1.00 20.00    -0.281 OA
HETATM   10  C7  UNL     1     -39.197  14.851  -5.371  1.00 20.00     0.238 C 
ENDBRANCH   3   9
TORSDOF 2
ENDMDL
MODEL 4
REMARK VINA RESULT:      -4.1     11.186     12.136
REMARK  2 active torsions:
REMARK  status: ('A' for Active; 'I' for Inactive)
REMARK    1  A    between atoms: C1_1  and  C3_3 
REMARK       I    between atoms: C1_1  and  N8_8 
REMARK    2  A    between atoms: N8_8  and  O10_10 
ROOT
HETATM    1  C1  UNL     1     -34.202  14.567  -4.719  1.00 20.00     0.247 C 
HETATM    2  C6  UNL     1     -33.759  15.535  -6.969  1.00 20.00     0.189 C 
HETATM    3  N8  UNL     1     -34.070  14.432  -6.080  1.00 20.00    -0.231 N 
HETATM    4  O9  UNL     1     -34.466  13.635  -3.957  1.00 20.00    -0.271 OA
ENDROOT
BRANCH   1   5
HETATM    5  C3  UNL     1     -34.018  15.962  -4.173  1.00 20.00     0.084 A 
HETATM    6  C2  UNL     1     -35.236  16.781  -3.934  1.00 20.00     0.019 A 
HETATM    7  C4  UNL     1     -34.458  16.223  -2.775  1.00 20.00    -0.005 A 
HETATM    8  C5  UNL     1     -33.642  17.126  -1.917  1.00 20.00     0.011 C 
ENDBRANCH   1   5
BRANCH   3   9
HETATM    9  O10 UNL     1     -34.222  13.207  -6.757  1.00 20.00    -0.281 OA
HETATM   10  C7  UNL     1     -35.407  13.260  -7.548  1.00 20.00     0.238 C 
ENDBRANCH   3   9
TORSDOF 2
ENDMDL
MODEL 5
REMARK VINA RESULT:      -4.1     11.044     11.573
REMARK  2 active torsions:
REMARK  status: ('A' for Active; 'I' for Inactive)
REMARK    1  A    between atoms: C1_1  and  C3_3 
REMARK       I    between atoms: C1_1  and  N8_8 
REMARK    2  A    between atoms: N8_8  and  O10_10 
ROOT
HETATM    1  C1  UNL     1     -34.582  14.672  -4.287  1.00 20.00     0.247 C 
HETATM    2  C6  UNL     1     -36.945  14.813  -5.055  1.00 20.00     0.189 C 
HETATM    3  N8  UNL     1     -35.680  14.120  -4.901  1.00 20.00    -0.231 N 
HETATM    4  O9  UNL     1     -33.504  14.091  -4.152  1.00 20.00    -0.271 OA
ENDROOT
BRANCH   1   5
HETATM    5  C3  UNL     1     -34.761  16.070  -3.746  1.00 20.00     0.084 A 
HETATM    6  C2  UNL     1     -35.142  16.219  -2.316  1.00 20.00     0.019 A 
HETATM    7  C4  UNL     1     -33.753  16.570  -2.771  1.00 20.00    -0.005 A 
HETATM    8  C5  UNL     1     -33.325  17.996  -2.840  1.00 20.00     0.011 C 
ENDBRANCH   1   5
BRANCH   3   9
HETATM    9  O10 UNL     1     -35.694  12.823  -5.449  1.00 20.00    -0.281 OA
HETATM   10  C7  UNL     1     -35.404  12.907  -6.842  1.00 20.00     0.238 C 
ENDBRANCH   3   9
TORSDOF 2
ENDMDL
MODEL 6
REMARK VINA RESULT:      -4.1      1.625      1.867
REMARK  2 active torsions:
REMARK  status: ('A' for Active; 'I' for Inactive)
REMARK    1  A    between atoms: C1_1  and  C3_3 
REMARK       I    between atoms: C1_1  and  N8_8 
REMARK    2  A    between atoms: N8_8  and  O10_10 
ROOT
HETATM    1  C1  UNL     1     -32.811   7.576   3.740  1.00 20.00     0.247 C 
HETATM    2  C6  UNL     1     -34.745   6.061   3.339  1.00 20.00     0.189 C 
HETATM    3  N8  UNL     1     -33.782   6.721   4.201  1.00 20.00    -0.231 N 
HETATM    4  O9  UNL     1     -31.990   8.140   4.465  1.00 20.00    -0.271 OA
ENDROOT
BRANCH   1   5
HETATM    5  C3  UNL     1     -32.800   7.821   2.251  1.00 20.00     0.084 A 
HETATM    6  C2  UNL     1     -33.272   9.144   1.760  1.00 20.00     0.019 A 
HETATM    7  C4  UNL     1     -31.810   8.797   1.716  1.00 20.00    -0.005 A 
HETATM    8  C5  UNL     1     -31.146   8.513   0.413  1.00 20.00     0.011 C 
ENDBRANCH   1   5
BRANCH   3   9
HETATM    9  O10 UNL     1     -33.946   6.390   5.560  1.00 20.00    -0.281 OA
HETATM   10  C7  UNL     1     -34.583   5.119   5.653  1.00 20.00     0.238 C 
ENDBRANCH   3   9
TORSDOF 2
ENDMDL
MODEL 7
REMARK VINA RESULT:      -3.9     10.981     11.748
REMARK  2 active torsions:
REMARK  status: ('A' for Active; 'I' for Inactive)
REMARK    1  A    between atoms: C1_1  and  C3_3 
REMARK       I    between atoms: C1_1  and  N8_8 
REMARK    2  A    between atoms: N8_8  and  O10_10 
ROOT
HETATM    1  C1  UNL     1     -35.283  15.130  -3.958  1.00 20.00     0.247 C 
HETATM    2  C6  UNL     1     -32.946  14.411  -4.425  1.00 20.00     0.189 C 
HETATM    3  N8  UNL     1     -34.380  14.345  -4.633  1.00 20.00    -0.231 N 
HETATM    4  O9  UNL     1     -36.502  15.080  -4.129  1.00 20.00    -0.271 OA
ENDROOT
BRANCH   1   5
HETATM    5  C3  UNL     1     -34.697  16.108  -2.969  1.00 20.00     0.084 A 
HETATM    6  C2  UNL     1     -34.889  17.560  -3.230  1.00 20.00     0.019 A 
HETATM    7  C4  UNL     1     -35.641  16.884  -2.118  1.00 20.00    -0.005 A 
HETATM    8  C5  UNL     1     -35.280  17.153  -0.698  1.00 20.00     0.011 C 
ENDBRANCH   1   5
BRANCH   3   9
HETATM    9  O10 UNL     1     -34.751  13.390  -5.600  1.00 20.00    -0.281 OA
HETATM   10  C7  UNL     1     -34.437  13.896  -6.894  1.00 20.00     0.238 C 
ENDBRANCH   3   9
TORSDOF 2
ENDMDL
MODEL 8
REMARK VINA RESULT:      -3.9     11.709     12.602
REMARK  2 active torsions:
REMARK  status: ('A' for Active; 'I' for Inactive)
REMARK    1  A    between atoms: C1_1  and  C3_3 
REMARK       I    between atoms: C1_1  and  N8_8 
REMARK    2  A    between atoms: N8_8  and  O10_10 
ROOT
HETATM    1  C1  UNL     1     -33.545  16.990  -4.149  1.00 20.00     0.247 C 
HETATM    2  C6  UNL     1     -33.201  14.540  -4.421  1.00 20.00     0.189 C 
HETATM    3  N8  UNL     1     -33.301  15.893  -4.937  1.00 20.00    -0.231 N 
HETATM    4  O9  UNL     1     -33.631  18.142  -4.580  1.00 20.00    -0.271 OA
ENDROOT
BRANCH   1   5
HETATM    5  C3  UNL     1     -33.693  16.722  -2.671  1.00 20.00     0.084 A 
HETATM    6  C2  UNL     1     -33.053  17.674  -1.724  1.00 20.00     0.019 A 
HETATM    7  C4  UNL     1     -34.548  17.651  -1.880  1.00 20.00    -0.005 A 
HETATM    8  C5  UNL     1     -35.405  17.097  -0.796  1.00 20.00     0.011 C 
ENDBRANCH   1   5
BRANCH   3   9
HETATM    9  O10 UNL     1     -33.123  15.961  -6.333  1.00 20.00    -0.281 OA
HETATM   10  C7  UNL     1     -34.004  15.032  -6.957  1.00 20.00     0.238 C 
ENDBRANCH   3   9
TORSDOF 2
ENDMDL
MODEL 9
REMARK VINA RESULT:      -3.8     11.414     12.016
REMARK  2 active torsions:
REMARK  status: ('A' for Active; 'I' for Inactive)
REMARK    1  A    between atoms: C1_1  and  C3_3 
REMARK       I    between atoms: C1_1  and  N8_8 
REMARK    2  A    between atoms: N8_8  and  O10_10 
ROOT
HETATM    1  C1  UNL     1     -33.867  14.960  -4.813  1.00 20.00     0.247 C 
HETATM    2  C6  UNL     1     -35.905  13.549  -5.040  1.00 20.00     0.189 C 
HETATM    3  N8  UNL     1     -34.611  14.027  -5.492  1.00 20.00    -0.231 N 
HETATM    4  O9  UNL     1     -32.768  15.371  -5.190  1.00 20.00    -0.271 OA
ENDROOT
BRANCH   1   5
HETATM    5  C3  UNL     1     -34.464  15.470  -3.524  1.00 20.00     0.084 A 
HETATM    6  C2  UNL     1     -33.739  16.550  -2.801  1.00 20.00     0.019 A 
HETATM    7  C4  UNL     1     -35.026  16.849  -3.518  1.00 20.00    -0.005 A 
HETATM    8  C5  UNL     1     -36.269  17.120  -2.744  1.00 20.00     0.011 C 
ENDBRANCH   1   5
BRANCH   3   9
HETATM    9  O10 UNL     1     -34.200  13.436  -6.703  1.00 20.00    -0.281 OA
HETATM   10  C7  UNL     1     -35.284  13.476  -7.628  1.00 20.00     0.238 C 
ENDBRANCH   3   9
TORSDOF 2
ENDMDL
