MODEL 1
REMARK VINA RESULT:      -4.5      0.000      0.000
REMARK  4 active torsions:
REMARK  status: ('A' for Active; 'I' for Inactive)
REMARK    1  A    between atoms: C4_4  and  C6_6 
REMARK    2  A    between atoms: C4_4  and  N7_7 
REMARK    3  A    between atoms: C5_5  and  C6_6 
REMARK    4  A    between atoms: C5_5  and  O8_8 
ROOT
HETATM    1  C1  UNL     1     -32.232   8.666   1.895  1.00 20.00     0.157 C 
HETATM    2  N7  UNL     1     -31.947   7.770   2.598  1.00 20.00    -0.275 NA
HETATM    3  S9  UNL     1     -32.591   9.881   0.929  1.00 20.00    -0.055 SA
ENDROOT
BRANCH   2   4
HETATM    4  C4  UNL     1     -33.010   7.342   3.511  1.00 20.00     0.157 C 
BRANCH   4   5
HETATM    5  C6  UNL     1     -33.834   6.204   2.896  1.00 20.00     0.025 C 
HETATM    6  C2  UNL     1     -32.972   4.965   2.633  1.00 20.00     0.014 C 
BRANCH   5   7
HETATM    7  C5  UNL     1     -35.056   5.863   3.756  1.00 20.00     0.172 C 
BRANCH   7   8
HETATM    8  O8  UNL     1     -34.796   4.691   4.519  1.00 20.00    -0.396 OA
HETATM    9  C3  UNL     1     -34.603   4.996   5.893  1.00 20.00     0.201 C 
ENDBRANCH   7   8
ENDBRANCH   5   7
ENDBRANCH   4   5
ENDBRANCH   2   4
TORSDOF 4
ENDMDL
MODEL 2
REMARK VINA RESULT:      -4.3      1.195      1.688
REMARK  4 active torsions:
REMARK  status: ('A' for Active; 'I' for Inactive)
REMARK    1  A    between atoms: C4_4  and  C6_6 
REMARK    2  A    between atoms: C4_4  and  N7_7 
REMARK    3  A    between atoms: C5_5  and  C6_6 
REMARK    4  A    between atoms: C5_5  and  O8_8 
ROOT
HETATM    1  C1  UNL     1     -32.529   8.719   1.709  1.00 20.00     0.157 C 
HETATM    2  N7  UNL     1     -32.507   7.712   2.312  1.00 20.00    -0.275 NA
HETATM    3  S9  UNL     1     -32.562  10.070   0.864  1.00 20.00    -0.055 SA
ENDROOT
BRANCH   2   4
HETATM    4  C4  UNL     1     -32.383   7.867   3.764  1.00 20.00     0.157 C 
BRANCH   4   5
HETATM    5  C6  UNL     1     -33.255   6.841   4.499  1.00 20.00     0.025 C 
HETATM    6  C2  UNL     1     -33.757   7.388   5.839  1.00 20.00     0.014 C 
BRANCH   5   7
HETATM    7  C5  UNL     1     -34.416   6.355   3.624  1.00 20.00     0.172 C 
BRANCH   7   8
HETATM    8  O8  UNL     1     -35.109   5.303   4.284  1.00 20.00    -0.396 OA
HETATM    9  C3  UNL     1     -34.305   4.137   4.391  1.00 20.00     0.201 C 
ENDBRANCH   7   8
ENDBRANCH   5   7
ENDBRANCH   4   5
ENDBRANCH   2   4
TORSDOF 4
ENDMDL
MODEL 3
REMARK VINA RESULT:      -3.8      3.521      4.963
REMARK  4 active torsions:
REMARK  status: ('A' for Active; 'I' for Inactive)
REMARK    1  A    between atoms: C4_4  and  C6_6 
REMARK    2  A    between atoms: C4_4  and  N7_7 
REMARK    3  A    between atoms: C5_5  and  C6_6 
REMARK    4  A    between atoms: C5_5  and  O8_8 
ROOT
HETATM    1  C1  UNL     1     -34.439   5.852   4.161  1.00 20.00     0.157 C 
HETATM    2  N7  UNL     1     -34.326   6.411   3.134  1.00 20.00    -0.275 NA
HETATM    3  S9  UNL     1     -34.622   5.098   5.552  1.00 20.00    -0.055 SA
ENDROOT
BRANCH   2   4
HETATM    4  C4  UNL     1     -32.948   6.547   2.656  1.00 20.00     0.157 C 
BRANCH   4   5
HETATM    5  C6  UNL     1     -32.491   8.010   2.717  1.00 20.00     0.025 C 
HETATM    6  C2  UNL     1     -31.554   8.257   3.903  1.00 20.00     0.014 C 
BRANCH   5   7
HETATM    7  C5  UNL     1     -31.851   8.457   1.397  1.00 20.00     0.172 C 
BRANCH   7   8
HETATM    8  O8  UNL     1     -32.458   9.664   0.953  1.00 20.00    -0.396 OA
HETATM    9  C3  UNL     1     -33.073   9.501  -0.317  1.00 20.00     0.201 C 
ENDBRANCH   7   8
ENDBRANCH   5   7
ENDBRANCH   4   5
ENDBRANCH   2   4
TORSDOF 4
ENDMDL
MODEL 4
REMARK VINA RESULT:      -3.8      1.488      1.593
REMARK  4 active torsions:
REMARK  status: ('A' for Active; 'I' for Inactive)
REMARK    1  A    between atoms: C4_4  and  C6_6 
REMARK    2  A    between atoms: C4_4  and  N7_7 
REMARK    3  A    between atoms: C5_5  and  C6_6 
REMARK    4  A    between atoms: C5_5  and  O8_8 
ROOT
HETATM    1  C1  UNL     1     -32.367   7.941   2.229  1.00 20.00     0.157 C 
HETATM    2  N7  UNL     1     -32.530   7.151   3.082  1.00 20.00    -0.275 NA
HETATM    3  S9  UNL     1     -32.135   9.032   1.092  1.00 20.00    -0.055 SA
ENDROOT
BRANCH   2   4
HETATM    4  C4  UNL     1     -33.031   5.850   2.630  1.00 20.00     0.157 C 
BRANCH   4   5
HETATM    5  C6  UNL     1     -34.296   5.454   3.400  1.00 20.00     0.025 C 
HETATM    6  C2  UNL     1     -34.087   4.164   4.200  1.00 20.00     0.014 C 
BRANCH   5   7
HETATM    7  C5  UNL     1     -34.792   6.594   4.298  1.00 20.00     0.172 C 
BRANCH   7   8
HETATM    8  O8  UNL     1     -34.412   6.344   5.645  1.00 20.00    -0.396 OA
HETATM    9  C3  UNL     1     -33.624   7.404   6.169  1.00 20.00     0.201 C 
ENDBRANCH   7   8
ENDBRANCH   5   7
ENDBRANCH   4   5
ENDBRANCH   2   4
TORSDOF 4
ENDMDL
MODEL 5
REMARK VINA RESULT:      -3.3     11.581     12.294
REMARK  4 active torsions:
REMARK  status: ('A' for Active; 'I' for Inactive)
REMARK    1  A    between atoms: C4_4  and  C6_6 
REMARK    2  A    between atoms: C4_4  and  N7_7 
REMARK    3  A    between atoms: C5_5  and  C6_6 
REMARK    4  A    between atoms: C5_5  and  O8_8 
ROOT
HETATM    1  C1  UNL     1     -38.793  15.103  -4.673  1.00 20.00     0.157 C 
HETATM    2  N7  UNL     1     -38.199  14.126  -4.940  1.00 20.00    -0.275 NA
HETATM    3  S9  UNL     1     -39.616  16.412  -4.289  1.00 20.00    -0.055 SA
ENDROOT
BRANCH   2   4
HETATM    4  C4  UNL     1     -37.180  14.292  -5.980  1.00 20.00     0.157 C 
BRANCH   4   5
HETATM    5  C6  UNL     1     -35.954  13.418  -5.688  1.00 20.00     0.025 C 
HETATM    6  C2  UNL     1     -35.134  13.157  -6.955  1.00 20.00     0.014 C 
BRANCH   5   7
HETATM    7  C5  UNL     1     -35.086  14.017  -4.575  1.00 20.00     0.172 C 
BRANCH   7   8
HETATM    8  O8  UNL     1     -33.711  13.887  -4.915  1.00 20.00    -0.396 OA
HETATM    9  C3  UNL     1     -33.003  15.100  -4.695  1.00 20.00     0.201 C 
ENDBRANCH   7   8
ENDBRANCH   5   7
ENDBRANCH   4   5
ENDBRANCH   2   4
TORSDOF 4
ENDMDL
MODEL 6
REMARK VINA RESULT:      -3.3     11.287     12.048
REMARK  4 active torsions:
REMARK  status: ('A' for Active; 'I' for Inactive)
REMARK    1  A    between atoms: C4_4  and  C6_6 
REMARK    2  A    between atoms: C4_4  and  N7_7 
REMARK    3  A    between atoms: C5_5  and  C6_6 
REMARK    4  A    between atoms: C5_5  and  O8_8 
ROOT
HETATM    1  C1  UNL     1     -32.297  18.758  -0.059  1.00 20.00     0.157 C 
HETATM    2  N7  UNL     1     -32.047  18.503  -1.177  1.00 20.00    -0.275 NA
HETATM    3  S9  UNL     1     -32.607  19.105   1.465  1.00 20.00    -0.055 SA
ENDROOT
BRANCH   2   4
HETATM    4  C4  UNL     1     -33.214  18.372  -2.055  1.00 20.00     0.157 C 
BRANCH   4   5
HETATM    5  C6  UNL     1     -33.767  16.942  -2.017  1.00 20.00     0.025 C 
HETATM    6  C2  UNL     1     -35.180  16.901  -1.426  1.00 20.00     0.014 C 
BRANCH   5   7
HETATM    7  C5  UNL     1     -33.721  16.281  -3.400  1.00 20.00     0.172 C 
BRANCH   7   8
HETATM    8  O8  UNL     1     -34.883  15.485  -3.592  1.00 20.00    -0.396 OA
HETATM    9  C3  UNL     1     -34.562  14.223  -4.160  1.00 20.00     0.201 C 
ENDBRANCH   7   8
ENDBRANCH   5   7
ENDBRANCH   4   5
ENDBRANCH   2   4
TORSDOF 4
ENDMDL
MODEL 7
REMARK VINA RESULT:      -3.3     11.545     12.669
REMARK  4 active torsions:
REMARK  status: ('A' for Active; 'I' for Inactive)
REMARK    1  A    between atoms: C4_4  and  C6_6 
REMARK    2  A    between atoms: C4_4  and  N7_7 
REMARK    3  A    between atoms: C5_5  and  C6_6 
REMARK    4  A    between atoms: C5_5  and  O8_8 
ROOT
HETATM    1  C1  UNL     1     -35.425  13.850  -4.800  1.00 20.00     0.157 C 
HETATM    2  N7  UNL     1     -34.481  13.650  -4.131  1.00 20.00    -0.275 NA
HETATM    3  S9  UNL     1     -36.719  14.094  -5.697  1.00 20.00    -0.055 SA
ENDROOT
BRANCH   2   4
HETATM    4  C4  UNL     1     -33.426  14.663  -4.237  1.00 20.00     0.157 C 
BRANCH   4   5
HETATM    5  C6  UNL     1     -34.003  16.073  -4.062  1.00 20.00     0.025 C 
HETATM    6  C2  UNL     1     -33.685  16.642  -2.676  1.00 20.00     0.014 C 
BRANCH   5   7
HETATM    7  C5  UNL     1     -33.535  17.017  -5.175  1.00 20.00     0.172 C 
BRANCH   7   8
HETATM    8  O8  UNL     1     -33.282  16.274  -6.362  1.00 20.00    -0.396 OA
HETATM    9  C3  UNL     1     -34.201  16.610  -7.392  1.00 20.00     0.201 C 
ENDBRANCH   7   8
ENDBRANCH   5   7
ENDBRANCH   4   5
ENDBRANCH   2   4
TORSDOF 4
ENDMDL
MODEL 8
REMARK VINA RESULT:      -3.2     11.141     11.614
REMARK  4 active torsions:
REMARK  status: ('A' for Active; 'I' for Inactive)
REMARK    1  A    between atoms: C4_4  and  C6_6 
REMARK    2  A    between atoms: C4_4  and  N7_7 
REMARK    3  A    between atoms: C5_5  and  C6_6 
REMARK    4  A    between atoms: C5_5  and  O8_8 
ROOT
HETATM    1  C1  UNL     1     -34.656  16.786  -1.899  1.00 20.00     0.157 C 
HETATM    2  N7  UNL     1     -34.311  16.285  -2.903  1.00 20.00    -0.275 NA
HETATM    3  S9  UNL     1     -35.095  17.474  -0.531  1.00 20.00    -0.055 SA
ENDROOT
BRANCH   2   4
HETATM    4  C4  UNL     1     -35.388  15.681  -3.692  1.00 20.00     0.157 C 
BRANCH   4   5
HETATM    5  C6  UNL     1     -34.820  14.736  -4.758  1.00 20.00     0.025 C 
HETATM    6  C2  UNL     1     -33.413  14.255  -4.391  1.00 20.00     0.014 C 
BRANCH   5   7
HETATM    7  C5  UNL     1     -35.761  13.556  -5.027  1.00 20.00     0.172 C 
BRANCH   7   8
HETATM    8  O8  UNL     1     -35.217  12.729  -6.048  1.00 20.00    -0.396 OA
HETATM    9  C3  UNL     1     -35.328  13.339  -7.326  1.00 20.00     0.201 C 
ENDBRANCH   7   8
ENDBRANCH   5   7
ENDBRANCH   4   5
ENDBRANCH   2   4
TORSDOF 4
ENDMDL
MODEL 9
REMARK VINA RESULT:      -3.2     11.382     12.242
REMARK  4 active torsions:
REMARK  status: ('A' for Active; 'I' for Inactive)
REMARK    1  A    between atoms: C4_4  and  C6_6 
REMARK    2  A    between atoms: C4_4  and  N7_7 
REMARK    3  A    between atoms: C5_5  and  C6_6 
REMARK    4  A    between atoms: C5_5  and  O8_8 
ROOT
HETATM    1  C1  UNL     1     -33.982  15.762  -3.542  1.00 20.00     0.157 C 
HETATM    2  N7  UNL     1     -33.215  15.171  -4.206  1.00 20.00    -0.275 NA
HETATM    3  S9  UNL     1     -35.014  16.547  -2.618  1.00 20.00    -0.055 SA
ENDROOT
BRANCH   2   4
HETATM    4  C4  UNL     1     -33.190  15.564  -5.617  1.00 20.00     0.157 C 
BRANCH   4   5
HETATM    5  C6  UNL     1     -34.505  15.190  -6.312  1.00 20.00     0.025 C 
HETATM    6  C2  UNL     1     -34.860  16.187  -7.419  1.00 20.00     0.014 C 
BRANCH   5   7
HETATM    7  C5  UNL     1     -34.475  13.752  -6.842  1.00 20.00     0.172 C 
BRANCH   7   8
HETATM    8  O8  UNL     1     -35.131  12.886  -5.924  1.00 20.00    -0.396 OA
HETATM    9  C3  UNL     1     -36.278  13.502  -5.356  1.00 20.00     0.201 C 
ENDBRANCH   7   8
ENDBRANCH   5   7
ENDBRANCH   4   5
ENDBRANCH   2   4
TORSDOF 4
ENDMDL
