MODEL 1
REMARK VINA RESULT:      -5.2      0.000      0.000
REMARK  2 active torsions:
REMARK  status: ('A' for Active; 'I' for Inactive)
REMARK    1  A    between atoms: C1_1  and  C5_5 
REMARK    2  A    between atoms: C1_1  and  C6_6 
ROOT
HETATM    1  C1  UNL     1     -33.300   6.241   3.243  1.00 20.00     0.184 C 
HETATM    2  O7  UNL     1     -32.710   5.369   2.603  1.00 20.00    -0.293 OA
ENDROOT
BRANCH   1   3
HETATM    3  C5  UNL     1     -32.947   7.719   3.096  1.00 20.00     0.052 C 
HETATM    4  C2  UNL     1     -31.599   7.989   3.753  1.00 20.00     0.017 C 
HETATM    5  C3  UNL     1     -32.930   8.134   1.627  1.00 20.00     0.017 C 
ENDBRANCH   1   3
BRANCH   1   6
HETATM    6  C6  UNL     1     -34.424   5.887   4.206  1.00 20.00     0.235 C 
HETATM    7  C4  UNL     1     -34.443   4.402   4.516  1.00 20.00     0.079 C 
HETATM    8  F8  UNL     1     -35.644   6.230   3.707  1.00 20.00    -0.217 F 
HETATM    9 CL9  UNL     1     -34.146   6.832   5.688  1.00 20.00    -0.075 Cl
ENDBRANCH   1   6
TORSDOF 2
ENDMDL
MODEL 2
REMARK VINA RESULT:      -5.1      1.549      1.961
REMARK  2 active torsions:
REMARK  status: ('A' for Active; 'I' for Inactive)
REMARK    1  A    between atoms: C1_1  and  C5_5 
REMARK    2  A    between atoms: C1_1  and  C6_6 
ROOT
HETATM    1  C1  UNL     1     -33.460   6.969   4.234  1.00 20.00     0.184 C 
HETATM    2  O7  UNL     1     -33.597   7.593   5.288  1.00 20.00    -0.293 OA
ENDROOT
BRANCH   1   3
HETATM    3  C5  UNL     1     -32.457   7.405   3.169  1.00 20.00     0.052 C 
HETATM    4  C2  UNL     1     -33.181   8.173   2.070  1.00 20.00     0.017 C 
HETATM    5  C3  UNL     1     -31.342   8.250   3.780  1.00 20.00     0.017 C 
ENDBRANCH   1   3
BRANCH   1   6
HETATM    6  C6  UNL     1     -34.278   5.718   3.947  1.00 20.00     0.235 C 
HETATM    7  C4  UNL     1     -33.531   4.764   3.033  1.00 20.00     0.079 C 
HETATM    8  F8  UNL     1     -35.471   6.016   3.361  1.00 20.00    -0.217 F 
HETATM    9 CL9  UNL     1     -34.609   4.951   5.518  1.00 20.00    -0.075 Cl
ENDBRANCH   1   6
TORSDOF 2
ENDMDL
MODEL 3
REMARK VINA RESULT:      -4.9      2.232      3.445
REMARK  2 active torsions:
REMARK  status: ('A' for Active; 'I' for Inactive)
REMARK    1  A    between atoms: C1_1  and  C5_5 
REMARK    2  A    between atoms: C1_1  and  C6_6 
ROOT
HETATM    1  C1  UNL     1     -34.606   6.052   3.812  1.00 20.00     0.184 C 
HETATM    2  O7  UNL     1     -35.830   6.135   3.696  1.00 20.00    -0.293 OA
ENDROOT
BRANCH   1   3
HETATM    3  C5  UNL     1     -33.940   5.907   5.177  1.00 20.00     0.052 C 
HETATM    4  C2  UNL     1     -33.921   7.258   5.882  1.00 20.00     0.017 C 
HETATM    5  C3  UNL     1     -34.654   4.859   6.028  1.00 20.00     0.017 C 
ENDBRANCH   1   3
BRANCH   1   6
HETATM    6  C6  UNL     1     -33.696   6.077   2.593  1.00 20.00     0.235 C 
HETATM    7  C4  UNL     1     -32.737   7.253   2.640  1.00 20.00     0.079 C 
HETATM    8  F8  UNL     1     -34.405   6.156   1.433  1.00 20.00    -0.217 F 
HETATM    9 CL9  UNL     1     -32.800   4.539   2.591  1.00 20.00    -0.075 Cl
ENDBRANCH   1   6
TORSDOF 2
ENDMDL
MODEL 4
REMARK VINA RESULT:      -4.6      3.042      4.237
REMARK  2 active torsions:
REMARK  status: ('A' for Active; 'I' for Inactive)
REMARK    1  A    between atoms: C1_1  and  C5_5 
REMARK    2  A    between atoms: C1_1  and  C6_6 
ROOT
HETATM    1  C1  UNL     1     -32.292   8.129   2.708  1.00 20.00     0.184 C 
HETATM    2  O7  UNL     1     -31.295   8.318   3.408  1.00 20.00    -0.293 OA
ENDROOT
BRANCH   1   3
HETATM    3  C5  UNL     1     -33.411   7.188   3.146  1.00 20.00     0.052 C 
HETATM    4  C2  UNL     1     -33.075   5.763   2.722  1.00 20.00     0.017 C 
HETATM    5  C3  UNL     1     -33.637   7.269   4.654  1.00 20.00     0.017 C 
ENDBRANCH   1   3
BRANCH   1   6
HETATM    6  C6  UNL     1     -32.463   8.839   1.374  1.00 20.00     0.235 C 
HETATM    7  C4  UNL     1     -32.710  10.325   1.563  1.00 20.00     0.079 C 
HETATM    8  F8  UNL     1     -33.503   8.328   0.657  1.00 20.00    -0.217 F 
HETATM    9 CL9  UNL     1     -30.966   8.566   0.451  1.00 20.00    -0.075 Cl
ENDBRANCH   1   6
TORSDOF 2
ENDMDL
MODEL 5
REMARK VINA RESULT:      -4.6      1.884      2.209
REMARK  2 active torsions:
REMARK  status: ('A' for Active; 'I' for Inactive)
REMARK    1  A    between atoms: C1_1  and  C5_5 
REMARK    2  A    between atoms: C1_1  and  C6_6 
ROOT
HETATM    1  C1  UNL     1     -33.476   6.895   4.376  1.00 20.00     0.184 C 
HETATM    2  O7  UNL     1     -33.619   7.596   5.380  1.00 20.00    -0.293 OA
ENDROOT
BRANCH   1   3
HETATM    3  C5  UNL     1     -32.485   7.266   3.276  1.00 20.00     0.052 C 
HETATM    4  C2  UNL     1     -33.235   7.878   2.099  1.00 20.00     0.017 C 
HETATM    5  C3  UNL     1     -31.417   8.224   3.799  1.00 20.00     0.017 C 
ENDBRANCH   1   3
BRANCH   1   6
HETATM    6  C6  UNL     1     -34.272   5.612   4.191  1.00 20.00     0.235 C 
HETATM    7  C4  UNL     1     -34.466   4.884   5.509  1.00 20.00     0.079 C 
HETATM    8  F8  UNL     1     -33.663   4.758   3.323  1.00 20.00    -0.217 F 
HETATM    9 CL9  UNL     1     -35.844   6.080   3.498  1.00 20.00    -0.075 Cl
ENDBRANCH   1   6
TORSDOF 2
ENDMDL
MODEL 6
REMARK VINA RESULT:      -4.6      2.276      3.615
REMARK  2 active torsions:
REMARK  status: ('A' for Active; 'I' for Inactive)
REMARK    1  A    between atoms: C1_1  and  C5_5 
REMARK    2  A    between atoms: C1_1  and  C6_6 
ROOT
HETATM    1  C1  UNL     1     -33.526   6.979   4.633  1.00 20.00     0.184 C 
HETATM    2  O7  UNL     1     -33.471   7.611   5.689  1.00 20.00    -0.293 OA
ENDROOT
BRANCH   1   3
HETATM    3  C5  UNL     1     -34.331   5.688   4.514  1.00 20.00     0.052 C 
HETATM    4  C2  UNL     1     -34.613   5.133   5.905  1.00 20.00     0.017 C 
HETATM    5  C3  UNL     1     -35.630   5.919   3.746  1.00 20.00     0.017 C 
ENDBRANCH   1   3
BRANCH   1   6
HETATM    6  C6  UNL     1     -32.804   7.465   3.385  1.00 20.00     0.235 C 
HETATM    7  C4  UNL     1     -31.500   8.160   3.734  1.00 20.00     0.079 C 
HETATM    8  F8  UNL     1     -33.565   8.335   2.665  1.00 20.00    -0.217 F 
HETATM    9 CL9  UNL     1     -32.499   6.031   2.377  1.00 20.00    -0.075 Cl
ENDBRANCH   1   6
TORSDOF 2
ENDMDL
MODEL 7
REMARK VINA RESULT:      -4.5      1.801      2.399
REMARK  2 active torsions:
REMARK  status: ('A' for Active; 'I' for Inactive)
REMARK    1  A    between atoms: C1_1  and  C5_5 
REMARK    2  A    between atoms: C1_1  and  C6_6 
ROOT
HETATM    1  C1  UNL     1     -32.234   8.181   2.847  1.00 20.00     0.184 C 
HETATM    2  O7  UNL     1     -31.179   8.388   3.450  1.00 20.00    -0.293 OA
ENDROOT
BRANCH   1   3
HETATM    3  C5  UNL     1     -32.493   8.768   1.462  1.00 20.00     0.052 C 
HETATM    4  C2  UNL     1     -32.808  10.254   1.589  1.00 20.00     0.017 C 
HETATM    5  C3  UNL     1     -31.299   8.541   0.538  1.00 20.00     0.017 C 
ENDBRANCH   1   3
BRANCH   1   6
HETATM    6  C6  UNL     1     -33.330   7.314   3.451  1.00 20.00     0.235 C 
HETATM    7  C4  UNL     1     -33.239   5.881   2.958  1.00 20.00     0.079 C 
HETATM    8  F8  UNL     1     -34.572   7.786   3.150  1.00 20.00    -0.217 F 
HETATM    9 CL9  UNL     1     -33.123   7.383   5.217  1.00 20.00    -0.075 Cl
ENDBRANCH   1   6
TORSDOF 2
ENDMDL
MODEL 8
REMARK VINA RESULT:      -4.3      2.321      3.569
REMARK  2 active torsions:
REMARK  status: ('A' for Active; 'I' for Inactive)
REMARK    1  A    between atoms: C1_1  and  C5_5 
REMARK    2  A    between atoms: C1_1  and  C6_6 
ROOT
HETATM    1  C1  UNL     1     -33.473   6.985   4.438  1.00 20.00     0.184 C 
HETATM    2  O7  UNL     1     -33.511   7.731   5.419  1.00 20.00    -0.293 OA
ENDROOT
BRANCH   1   3
HETATM    3  C5  UNL     1     -34.305   5.707   4.373  1.00 20.00     0.052 C 
HETATM    4  C2  UNL     1     -34.548   5.184   5.783  1.00 20.00     0.017 C 
HETATM    5  C3  UNL     1     -35.626   5.950   3.646  1.00 20.00     0.017 C 
ENDBRANCH   1   3
BRANCH   1   6
HETATM    6  C6  UNL     1     -32.602   7.310   3.234  1.00 20.00     0.235 C 
HETATM    7  C4  UNL     1     -33.359   8.134   2.208  1.00 20.00     0.079 C 
HETATM    8  F8  UNL     1     -32.148   6.184   2.618  1.00 20.00    -0.217 F 
HETATM    9 CL9  UNL     1     -31.196   8.213   3.846  1.00 20.00    -0.075 Cl
ENDBRANCH   1   6
TORSDOF 2
ENDMDL
MODEL 9
REMARK VINA RESULT:      -4.3      1.944      3.464
REMARK  2 active torsions:
REMARK  status: ('A' for Active; 'I' for Inactive)
REMARK    1  A    between atoms: C1_1  and  C5_5 
REMARK    2  A    between atoms: C1_1  and  C6_6 
ROOT
HETATM    1  C1  UNL     1     -33.330   6.253   3.307  1.00 20.00     0.184 C 
HETATM    2  O7  UNL     1     -32.781   5.327   2.708  1.00 20.00    -0.293 OA
ENDROOT
BRANCH   1   3
HETATM    3  C5  UNL     1     -34.408   6.000   4.358  1.00 20.00     0.052 C 
HETATM    4  C2  UNL     1     -34.609   4.499   4.530  1.00 20.00     0.017 C 
HETATM    5  C3  UNL     1     -34.044   6.656   5.687  1.00 20.00     0.017 C 
ENDBRANCH   1   3
BRANCH   1   6
HETATM    6  C6  UNL     1     -32.948   7.701   3.040  1.00 20.00     0.235 C 
HETATM    7  C4  UNL     1     -31.687   8.091   3.790  1.00 20.00     0.079 C 
HETATM    8  F8  UNL     1     -33.938   8.563   3.405  1.00 20.00    -0.217 F 
HETATM    9 CL9  UNL     1     -32.703   7.851   1.283  1.00 20.00    -0.075 Cl
ENDBRANCH   1   6
TORSDOF 2
ENDMDL
