MODEL 1
REMARK VINA RESULT:      -4.5      0.000      0.000
REMARK  0 active torsions:
REMARK  status: ('A' for Active; 'I' for Inactive)
ROOT
HETATM    1  C1  UNL     1     -34.540   4.380   4.366  1.00 20.00     0.096 A 
HETATM    2  C2  UNL     1     -34.524   6.025   5.911  1.00 20.00     0.096 A 
HETATM    3  C3  UNL     1     -33.883   5.458   3.828  1.00 20.00    -0.025 A 
HETATM    4  C4  UNL     1     -33.873   6.489   4.796  1.00 20.00    -0.025 A 
HETATM    5  C5  UNL     1     -33.233   5.732   2.534  1.00 20.00     0.114 A 
HETATM    6  C6  UNL     1     -33.215   7.756   4.435  1.00 20.00     0.114 A 
HETATM    7  N7  UNL     1     -34.927   4.738   5.638  1.00 20.00    -0.374 N 
HETATM    8  S8  UNL     1     -32.606   7.473   2.702  1.00 20.00    -0.160 SA
HETATM    9  H15 UNL     1     -35.433   4.142   6.277  1.00 20.00     0.164 HD
ENDROOT
TORSDOF 0
ENDMDL
MODEL 2
REMARK VINA RESULT:      -4.5      0.017      1.924
REMARK  0 active torsions:
REMARK  status: ('A' for Active; 'I' for Inactive)
ROOT
HETATM    1  C1  UNL     1     -34.523   6.038   5.917  1.00 20.00     0.096 A 
HETATM    2  C2  UNL     1     -34.546   4.395   4.369  1.00 20.00     0.096 A 
HETATM    3  C3  UNL     1     -33.867   6.498   4.803  1.00 20.00    -0.025 A 
HETATM    4  C4  UNL     1     -33.880   5.469   3.834  1.00 20.00    -0.025 A 
HETATM    5  C5  UNL     1     -33.198   7.762   4.446  1.00 20.00     0.114 A 
HETATM    6  C6  UNL     1     -33.225   5.741   2.543  1.00 20.00     0.114 A 
HETATM    7  N7  UNL     1     -34.934   4.753   5.640  1.00 20.00    -0.374 N 
HETATM    8  S8  UNL     1     -32.585   7.477   2.716  1.00 20.00    -0.160 SA
HETATM    9  H15 UNL     1     -35.445   4.160   6.278  1.00 20.00     0.164 HD
ENDROOT
TORSDOF 0
ENDMDL
MODEL 3
REMARK VINA RESULT:      -4.0      2.598      3.292
REMARK  0 active torsions:
REMARK  status: ('A' for Active; 'I' for Inactive)
ROOT
HETATM    1  C1  UNL     1     -32.556   7.393   2.225  1.00 20.00     0.096 A 
HETATM    2  C2  UNL     1     -31.979   8.446   4.136  1.00 20.00     0.096 A 
HETATM    3  C3  UNL     1     -33.289   6.844   3.247  1.00 20.00    -0.025 A 
HETATM    4  C4  UNL     1     -32.928   7.503   4.444  1.00 20.00    -0.025 A 
HETATM    5  C5  UNL     1     -34.305   5.780   3.335  1.00 20.00     0.114 A 
HETATM    6  C6  UNL     1     -33.594   7.074   5.686  1.00 20.00     0.114 A 
HETATM    7  N7  UNL     1     -31.760   8.369   2.780  1.00 20.00    -0.374 N 
HETATM    8  S8  UNL     1     -34.744   5.721   5.139  1.00 20.00    -0.160 SA
HETATM    9  H15 UNL     1     -31.109   8.946   2.265  1.00 20.00     0.164 HD
ENDROOT
TORSDOF 0
ENDMDL
MODEL 4
REMARK VINA RESULT:      -4.0      2.587      3.759
REMARK  0 active torsions:
REMARK  status: ('A' for Active; 'I' for Inactive)
ROOT
HETATM    1  C1  UNL     1     -31.994   8.415   4.206  1.00 20.00     0.096 A 
HETATM    2  C2  UNL     1     -32.519   7.385   2.268  1.00 20.00     0.096 A 
HETATM    3  C3  UNL     1     -32.944   7.462   4.478  1.00 20.00    -0.025 A 
HETATM    4  C4  UNL     1     -33.273   6.817   3.264  1.00 20.00    -0.025 A 
HETATM    5  C5  UNL     1     -33.637   7.012   5.699  1.00 20.00     0.114 A 
HETATM    6  C6  UNL     1     -34.283   5.746   3.313  1.00 20.00     0.114 A 
HETATM    7  N7  UNL     1     -31.743   8.359   2.854  1.00 20.00    -0.374 N 
HETATM    8  S8  UNL     1     -34.765   5.661   5.106  1.00 20.00    -0.160 SA
HETATM    9  H15 UNL     1     -31.085   8.948   2.363  1.00 20.00     0.164 HD
ENDROOT
TORSDOF 0
ENDMDL
MODEL 5
REMARK VINA RESULT:      -3.5     12.609     12.824
REMARK  0 active torsions:
REMARK  status: ('A' for Active; 'I' for Inactive)
ROOT
HETATM    1  C1  UNL     1     -33.022  14.742  -4.446  1.00 20.00     0.096 A 
HETATM    2  C2  UNL     1     -35.027  14.114  -5.270  1.00 20.00     0.096 A 
HETATM    3  C3  UNL     1     -33.990  15.477  -3.808  1.00 20.00    -0.025 A 
HETATM    4  C4  UNL     1     -35.246  15.084  -4.325  1.00 20.00    -0.025 A 
HETATM    5  C5  UNL     1     -33.977  16.520  -2.766  1.00 20.00     0.114 A 
HETATM    6  C6  UNL     1     -36.444  15.748  -3.782  1.00 20.00     0.114 A 
HETATM    7  N7  UNL     1     -33.667  13.913  -5.336  1.00 20.00    -0.374 N 
HETATM    8  S8  UNL     1     -35.771  16.941  -2.526  1.00 20.00    -0.160 SA
HETATM    9  H15 UNL     1     -33.208  13.254  -5.948  1.00 20.00     0.164 HD
ENDROOT
TORSDOF 0
ENDMDL
MODEL 6
REMARK VINA RESULT:      -3.5     12.585     12.735
REMARK  0 active torsions:
REMARK  status: ('A' for Active; 'I' for Inactive)
ROOT
HETATM    1  C1  UNL     1     -35.044  14.071  -5.220  1.00 20.00     0.096 A 
HETATM    2  C2  UNL     1     -33.031  14.725  -4.434  1.00 20.00     0.096 A 
HETATM    3  C3  UNL     1     -35.254  15.063  -4.295  1.00 20.00    -0.025 A 
HETATM    4  C4  UNL     1     -33.993  15.472  -3.802  1.00 20.00    -0.025 A 
HETATM    5  C5  UNL     1     -36.448  15.735  -3.753  1.00 20.00     0.114 A 
HETATM    6  C6  UNL     1     -33.972  16.539  -2.787  1.00 20.00     0.114 A 
HETATM    7  N7  UNL     1     -33.684  13.873  -5.296  1.00 20.00    -0.374 N 
HETATM    8  S8  UNL     1     -35.765  16.959  -2.533  1.00 20.00    -0.160 SA
HETATM    9  H15 UNL     1     -33.231  13.200  -5.898  1.00 20.00     0.164 HD
ENDROOT
TORSDOF 0
ENDMDL
MODEL 7
REMARK VINA RESULT:      -3.4     12.548     13.218
REMARK  0 active torsions:
REMARK  status: ('A' for Active; 'I' for Inactive)
ROOT
HETATM    1  C1  UNL     1     -35.836  13.386  -5.254  1.00 20.00     0.096 A 
HETATM    2  C2  UNL     1     -34.376  13.711  -6.945  1.00 20.00     0.096 A 
HETATM    3  C3  UNL     1     -35.065  14.477  -4.942  1.00 20.00    -0.025 A 
HETATM    4  C4  UNL     1     -34.149  14.680  -6.000  1.00 20.00    -0.025 A 
HETATM    5  C5  UNL     1     -35.007  15.410  -3.803  1.00 20.00     0.114 A 
HETATM    6  C6  UNL     1     -33.210  15.808  -5.882  1.00 20.00     0.114 A 
HETATM    7  N7  UNL     1     -35.406  12.926  -6.479  1.00 20.00    -0.374 N 
HETATM    8  S8  UNL     1     -33.637  16.583  -4.247  1.00 20.00    -0.160 SA
HETATM    9  H15 UNL     1     -35.792  12.129  -6.964  1.00 20.00     0.164 HD
ENDROOT
TORSDOF 0
ENDMDL
MODEL 8
REMARK VINA RESULT:      -3.4     12.540     13.162
REMARK  0 active torsions:
REMARK  status: ('A' for Active; 'I' for Inactive)
ROOT
HETATM    1  C1  UNL     1     -34.396  13.703  -6.955  1.00 20.00     0.096 A 
HETATM    2  C2  UNL     1     -35.834  13.378  -5.246  1.00 20.00     0.096 A 
HETATM    3  C3  UNL     1     -34.159  14.673  -6.014  1.00 20.00    -0.025 A 
HETATM    4  C4  UNL     1     -35.060  14.470  -4.944  1.00 20.00    -0.025 A 
HETATM    5  C5  UNL     1     -33.219  15.804  -5.907  1.00 20.00     0.114 A 
HETATM    6  C6  UNL     1     -34.990  15.403  -3.806  1.00 20.00     0.114 A 
HETATM    7  N7  UNL     1     -35.420  12.918  -6.476  1.00 20.00    -0.374 N 
HETATM    8  S8  UNL     1     -33.627  16.579  -4.269  1.00 20.00    -0.160 SA
HETATM    9  H15 UNL     1     -35.810  12.121  -6.958  1.00 20.00     0.164 HD
ENDROOT
TORSDOF 0
ENDMDL
MODEL 9
REMARK VINA RESULT:      -3.4      1.511      2.349
REMARK  0 active torsions:
REMARK  status: ('A' for Active; 'I' for Inactive)
ROOT
HETATM    1  C1  UNL     1     -33.391   7.736   5.188  1.00 20.00     0.096 A 
HETATM    2  C2  UNL     1     -34.554   5.983   6.007  1.00 20.00     0.096 A 
HETATM    3  C3  UNL     1     -33.364   6.735   4.249  1.00 20.00    -0.025 A 
HETATM    4  C4  UNL     1     -34.091   5.637   4.762  1.00 20.00    -0.025 A 
HETATM    5  C5  UNL     1     -32.767   6.591   2.909  1.00 20.00     0.114 A 
HETATM    6  C6  UNL     1     -34.197   4.435   3.917  1.00 20.00     0.114 A 
HETATM    7  N7  UNL     1     -34.120   7.265   6.257  1.00 20.00    -0.374 N 
HETATM    8  S8  UNL     1     -33.250   4.877   2.381  1.00 20.00    -0.160 SA
HETATM    9  H15 UNL     1     -34.309   7.786   7.101  1.00 20.00     0.164 HD
ENDROOT
TORSDOF 0
ENDMDL
