MODEL 1
REMARK VINA RESULT:      -5.0      0.000      0.000
REMARK  2 active torsions:
REMARK  status: ('A' for Active; 'I' for Inactive)
REMARK    1  A    between atoms: C1_1  and  C5_5 
REMARK    2  A    between atoms: C1_1  and  C6_6 
ROOT
HETATM    1  C1  UNL     1     -33.269   6.174   3.222  1.00 20.00     0.182 C 
HETATM    2  O7  UNL     1     -32.634   5.314   2.605  1.00 20.00    -0.293 OA
ENDROOT
BRANCH   1   3
HETATM    3  C5  UNL     1     -33.012   7.635   2.933  1.00 20.00     0.335 C 
HETATM    4  F8  UNL     1     -32.937   7.850   1.591  1.00 20.00    -0.225 F 
HETATM    5 CL9  UNL     1     -31.462   8.072   3.671  1.00 20.00    -0.081 Cl
ENDBRANCH   1   3
BRANCH   1   6
HETATM    6  C6  UNL     1     -34.345   5.794   4.261  1.00 20.00     0.014 C 
HETATM    7  C2  UNL     1     -34.135   6.553   5.577  1.00 20.00     0.023 C 
HETATM    8  C3  UNL     1     -34.263   4.285   4.555  1.00 20.00     0.023 C 
HETATM    9  C4  UNL     1     -35.730   6.109   3.680  1.00 20.00     0.023 C 
ENDBRANCH   1   6
TORSDOF 2
ENDMDL
MODEL 2
REMARK VINA RESULT:      -5.0      0.033      1.443
REMARK  2 active torsions:
REMARK  status: ('A' for Active; 'I' for Inactive)
REMARK    1  A    between atoms: C1_1  and  C5_5 
REMARK    2  A    between atoms: C1_1  and  C6_6 
ROOT
HETATM    1  C1  UNL     1     -33.257   6.187   3.225  1.00 20.00     0.182 C 
HETATM    2  O7  UNL     1     -32.609   5.334   2.611  1.00 20.00    -0.293 OA
ENDROOT
BRANCH   1   3
HETATM    3  C5  UNL     1     -33.011   7.651   2.941  1.00 20.00     0.335 C 
HETATM    4  F8  UNL     1     -32.962   7.875   1.599  1.00 20.00    -0.225 F 
HETATM    5 CL9  UNL     1     -31.451   8.091   3.653  1.00 20.00    -0.081 Cl
ENDBRANCH   1   3
BRANCH   1   6
HETATM    6  C6  UNL     1     -34.336   5.795   4.256  1.00 20.00     0.014 C 
HETATM    7  C2  UNL     1     -34.284   4.293   4.566  1.00 20.00     0.023 C 
HETATM    8  C3  UNL     1     -35.729   6.124   3.690  1.00 20.00     0.023 C 
HETATM    9  C4  UNL     1     -34.119   6.610   5.537  1.00 20.00     0.023 C 
ENDBRANCH   1   6
TORSDOF 2
ENDMDL
MODEL 3
REMARK VINA RESULT:      -4.9      0.028      1.443
REMARK  2 active torsions:
REMARK  status: ('A' for Active; 'I' for Inactive)
REMARK    1  A    between atoms: C1_1  and  C5_5 
REMARK    2  A    between atoms: C1_1  and  C6_6 
ROOT
HETATM    1  C1  UNL     1     -33.262   6.177   3.218  1.00 20.00     0.182 C 
HETATM    2  O7  UNL     1     -32.603   5.326   2.614  1.00 20.00    -0.293 OA
ENDROOT
BRANCH   1   3
HETATM    3  C5  UNL     1     -33.013   7.642   2.941  1.00 20.00     0.335 C 
HETATM    4  F8  UNL     1     -32.954   7.870   1.600  1.00 20.00    -0.225 F 
HETATM    5 CL9  UNL     1     -31.457   8.077   3.665  1.00 20.00    -0.081 Cl
ENDBRANCH   1   3
BRANCH   1   6
HETATM    6  C6  UNL     1     -34.359   5.782   4.229  1.00 20.00     0.014 C 
HETATM    7  C2  UNL     1     -35.754   6.122   3.691  1.00 20.00     0.023 C 
HETATM    8  C3  UNL     1     -34.146   6.554   5.544  1.00 20.00     0.023 C 
HETATM    9  C4  UNL     1     -34.252   4.279   4.517  1.00 20.00     0.023 C 
ENDBRANCH   1   6
TORSDOF 2
ENDMDL
MODEL 4
REMARK VINA RESULT:      -4.9      1.975      2.453
REMARK  2 active torsions:
REMARK  status: ('A' for Active; 'I' for Inactive)
REMARK    1  A    between atoms: C1_1  and  C5_5 
REMARK    2  A    between atoms: C1_1  and  C6_6 
ROOT
HETATM    1  C1  UNL     1     -33.445   7.036   4.499  1.00 20.00     0.182 C 
HETATM    2  O7  UNL     1     -33.707   7.676   5.521  1.00 20.00    -0.293 OA
ENDROOT
BRANCH   1   3
HETATM    3  C5  UNL     1     -32.316   7.495   3.605  1.00 20.00     0.335 C 
HETATM    4  F8  UNL     1     -31.510   8.371   4.265  1.00 20.00    -0.225 F 
HETATM    5 CL9  UNL     1     -33.028   8.315   2.206  1.00 20.00    -0.081 Cl
ENDBRANCH   1   3
BRANCH   1   6
HETATM    6  C6  UNL     1     -34.222   5.756   4.127  1.00 20.00     0.014 C 
HETATM    7  C2  UNL     1     -33.443   4.912   3.110  1.00 20.00     0.023 C 
HETATM    8  C3  UNL     1     -35.574   6.142   3.500  1.00 20.00     0.023 C 
HETATM    9  C4  UNL     1     -34.483   4.944   5.402  1.00 20.00     0.023 C 
ENDBRANCH   1   6
TORSDOF 2
ENDMDL
MODEL 5
REMARK VINA RESULT:      -4.9      1.964      2.292
REMARK  2 active torsions:
REMARK  status: ('A' for Active; 'I' for Inactive)
REMARK    1  A    between atoms: C1_1  and  C5_5 
REMARK    2  A    between atoms: C1_1  and  C6_6 
ROOT
HETATM    1  C1  UNL     1     -33.435   7.034   4.487  1.00 20.00     0.182 C 
HETATM    2  O7  UNL     1     -33.674   7.655   5.527  1.00 20.00    -0.293 OA
ENDROOT
BRANCH   1   3
HETATM    3  C5  UNL     1     -32.315   7.501   3.586  1.00 20.00     0.335 C 
HETATM    4  F8  UNL     1     -31.499   8.366   4.248  1.00 20.00    -0.225 F 
HETATM    5 CL9  UNL     1     -33.040   8.339   2.205  1.00 20.00    -0.081 Cl
ENDBRANCH   1   3
BRANCH   1   6
HETATM    6  C6  UNL     1     -34.232   5.771   4.099  1.00 20.00     0.014 C 
HETATM    7  C2  UNL     1     -35.595   6.140   3.500  1.00 20.00     0.023 C 
HETATM    8  C3  UNL     1     -34.472   4.911   5.354  1.00 20.00     0.023 C 
HETATM    9  C4  UNL     1     -33.411   4.956   3.092  1.00 20.00     0.023 C 
ENDBRANCH   1   6
TORSDOF 2
ENDMDL
MODEL 6
REMARK VINA RESULT:      -4.3      2.714      3.455
REMARK  2 active torsions:
REMARK  status: ('A' for Active; 'I' for Inactive)
REMARK    1  A    between atoms: C1_1  and  C5_5 
REMARK    2  A    between atoms: C1_1  and  C6_6 
ROOT
HETATM    1  C1  UNL     1     -34.628   5.930   3.973  1.00 20.00     0.182 C 
HETATM    2  O7  UNL     1     -35.842   6.001   3.761  1.00 20.00    -0.293 OA
ENDROOT
BRANCH   1   3
HETATM    3  C5  UNL     1     -34.134   5.728   5.387  1.00 20.00     0.335 C 
HETATM    4  F8  UNL     1     -35.033   5.003   6.108  1.00 20.00    -0.225 F 
HETATM    5 CL9  UNL     1     -33.953   7.323   6.134  1.00 20.00    -0.081 Cl
ENDBRANCH   1   3
BRANCH   1   6
HETATM    6  C6  UNL     1     -33.601   6.010   2.825  1.00 20.00     0.014 C 
HETATM    7  C2  UNL     1     -32.587   7.134   3.068  1.00 20.00     0.023 C 
HETATM    8  C3  UNL     1     -34.334   6.297   1.501  1.00 20.00     0.023 C 
HETATM    9  C4  UNL     1     -32.881   4.660   2.707  1.00 20.00     0.023 C 
ENDBRANCH   1   6
TORSDOF 2
ENDMDL
MODEL 7
REMARK VINA RESULT:      -4.2      2.678      3.640
REMARK  2 active torsions:
REMARK  status: ('A' for Active; 'I' for Inactive)
REMARK    1  A    between atoms: C1_1  and  C5_5 
REMARK    2  A    between atoms: C1_1  and  C6_6 
ROOT
HETATM    1  C1  UNL     1     -33.765   6.921   4.414  1.00 20.00     0.182 C 
HETATM    2  O7  UNL     1     -33.854   7.600   5.442  1.00 20.00    -0.293 OA
ENDROOT
BRANCH   1   3
HETATM    3  C5  UNL     1     -34.596   5.666   4.281  1.00 20.00     0.335 C 
HETATM    4  F8  UNL     1     -35.854   5.969   3.858  1.00 20.00    -0.225 F 
HETATM    5 CL9  UNL     1     -34.696   4.907   5.878  1.00 20.00    -0.081 Cl
ENDBRANCH   1   3
BRANCH   1   6
HETATM    6  C6  UNL     1     -32.849   7.340   3.246  1.00 20.00     0.014 C 
HETATM    7  C2  UNL     1     -31.574   8.020   3.759  1.00 20.00     0.023 C 
HETATM    8  C3  UNL     1     -33.597   8.335   2.340  1.00 20.00     0.023 C 
HETATM    9  C4  UNL     1     -32.493   6.095   2.422  1.00 20.00     0.023 C 
ENDBRANCH   1   6
TORSDOF 2
ENDMDL
MODEL 8
REMARK VINA RESULT:      -4.1      2.863      3.489
REMARK  2 active torsions:
REMARK  status: ('A' for Active; 'I' for Inactive)
REMARK    1  A    between atoms: C1_1  and  C5_5 
REMARK    2  A    between atoms: C1_1  and  C6_6 
ROOT
HETATM    1  C1  UNL     1     -33.490   6.908   4.511  1.00 20.00     0.182 C 
HETATM    2  O7  UNL     1     -32.599   7.664   4.909  1.00 20.00    -0.293 OA
ENDROOT
BRANCH   1   3
HETATM    3  C5  UNL     1     -34.551   6.437   5.480  1.00 20.00     0.335 C 
HETATM    4  F8  UNL     1     -34.390   7.036   6.691  1.00 20.00    -0.225 F 
HETATM    5 CL9  UNL     1     -34.369   4.687   5.678  1.00 20.00    -0.081 Cl
ENDBRANCH   1   3
BRANCH   1   6
HETATM    6  C6  UNL     1     -33.569   6.457   3.037  1.00 20.00     0.014 C 
HETATM    7  C2  UNL     1     -32.880   5.102   2.837  1.00 20.00     0.023 C 
HETATM    8  C3  UNL     1     -32.863   7.495   2.146  1.00 20.00     0.023 C 
HETATM    9  C4  UNL     1     -35.043   6.371   2.622  1.00 20.00     0.023 C 
ENDBRANCH   1   6
TORSDOF 2
ENDMDL
MODEL 9
REMARK VINA RESULT:      -4.0      2.123      2.681
REMARK  2 active torsions:
REMARK  status: ('A' for Active; 'I' for Inactive)
REMARK    1  A    between atoms: C1_1  and  C5_5 
REMARK    2  A    between atoms: C1_1  and  C6_6 
ROOT
HETATM    1  C1  UNL     1     -32.310   7.863   2.757  1.00 20.00     0.182 C 
HETATM    2  O7  UNL     1     -31.475   8.282   3.564  1.00 20.00    -0.293 OA
ENDROOT
BRANCH   1   3
HETATM    3  C5  UNL     1     -32.331   8.423   1.353  1.00 20.00     0.335 C 
HETATM    4  F8  UNL     1     -31.095   8.343   0.789  1.00 20.00    -0.225 F 
HETATM    5 CL9  UNL     1     -32.807  10.126   1.452  1.00 20.00    -0.081 Cl
ENDBRANCH   1   3
BRANCH   1   6
HETATM    6  C6  UNL     1     -33.315   6.756   3.137  1.00 20.00     0.014 C 
HETATM    7  C2  UNL     1     -32.682   5.365   3.002  1.00 20.00     0.023 C 
HETATM    8  C3  UNL     1     -34.534   6.826   2.198  1.00 20.00     0.023 C 
HETATM    9  C4  UNL     1     -33.789   6.987   4.578  1.00 20.00     0.023 C 
ENDBRANCH   1   6
TORSDOF 2
ENDMDL
