MODEL 1
REMARK VINA RESULT:      -4.4      0.000      0.000
REMARK  1 active torsions:
REMARK  status: ('A' for Active; 'I' for Inactive)
REMARK    1  A    between atoms: C6_6  and  C10_10 
ROOT
HETATM    1  C1  UNL     1     -37.379  14.673  -5.309  1.00 20.00     0.059 C 
HETATM    2  C10 UNL     1     -36.238  15.464  -5.737  1.00 20.00     0.133 C 
HETATM    3  N11 UNL     1     -38.310  14.048  -5.009  1.00 20.00    -0.197 NA
ENDROOT
BRANCH   2   4
HETATM    4  C6  UNL     1     -35.302  15.427  -4.520  1.00 20.00    -0.025 C 
HETATM    5  C4  UNL     1     -36.007  16.000  -3.272  1.00 20.00     0.011 C 
HETATM    6  C2  UNL     1     -34.894  16.498  -2.350  1.00 20.00     0.002 C 
HETATM    7  C3  UNL     1     -33.608  16.524  -3.178  1.00 20.00     0.010 C 
HETATM    8  C5  UNL     1     -34.045  16.356  -4.649  1.00 20.00    -0.040 C 
HETATM    9  C7  UNL     1     -34.376  17.748  -5.234  1.00 20.00     0.015 C 
HETATM   10  C8  UNL     1     -32.906  15.761  -5.489  1.00 20.00     0.015 C 
HETATM   11  C9  UNL     1     -34.939  13.948  -4.257  1.00 20.00     0.017 C 
ENDBRANCH   2   4
TORSDOF 1
ENDMDL
MODEL 2
REMARK VINA RESULT:      -4.2      0.823      2.092
REMARK  1 active torsions:
REMARK  status: ('A' for Active; 'I' for Inactive)
REMARK    1  A    between atoms: C6_6  and  C10_10 
ROOT
HETATM    1  C1  UNL     1     -37.580  14.851  -4.562  1.00 20.00     0.059 C 
HETATM    2  C10 UNL     1     -36.719  15.873  -3.990  1.00 20.00     0.133 C 
HETATM    3  N11 UNL     1     -38.304  14.054  -4.994  1.00 20.00    -0.197 NA
ENDROOT
BRANCH   2   4
HETATM    4  C6  UNL     1     -35.357  15.599  -4.645  1.00 20.00    -0.025 C 
HETATM    5  C4  UNL     1     -34.887  14.159  -4.343  1.00 20.00     0.011 C 
HETATM    6  C2  UNL     1     -33.362  14.181  -4.458  1.00 20.00     0.002 C 
HETATM    7  C3  UNL     1     -32.939  15.650  -4.491  1.00 20.00     0.010 C 
HETATM    8  C5  UNL     1     -34.182  16.462  -4.068  1.00 20.00    -0.040 C 
HETATM    9  C7  UNL     1     -34.208  16.569  -2.526  1.00 20.00     0.015 C 
HETATM   10  C8  UNL     1     -34.115  17.889  -4.629  1.00 20.00     0.015 C 
HETATM   11  C9  UNL     1     -35.534  15.758  -6.172  1.00 20.00     0.017 C 
ENDBRANCH   2   4
TORSDOF 1
ENDMDL
MODEL 3
REMARK VINA RESULT:      -4.2      1.485      2.766
REMARK  1 active torsions:
REMARK  status: ('A' for Active; 'I' for Inactive)
REMARK    1  A    between atoms: C6_6  and  C10_10 
ROOT
HETATM    1  C1  UNL     1     -35.321  13.700  -4.721  1.00 20.00     0.059 C 
HETATM    2  C10 UNL     1     -34.551  14.618  -3.899  1.00 20.00     0.133 C 
HETATM    3  N11 UNL     1     -35.905  12.933  -5.366  1.00 20.00    -0.197 NA
ENDROOT
BRANCH   2   4
HETATM    4  C6  UNL     1     -35.336  15.934  -4.002  1.00 20.00    -0.025 C 
HETATM    5  C4  UNL     1     -35.045  16.639  -5.344  1.00 20.00     0.011 C 
HETATM    6  C2  UNL     1     -35.319  18.125  -5.109  1.00 20.00     0.002 C 
HETATM    7  C3  UNL     1     -35.438  18.321  -3.597  1.00 20.00     0.010 C 
HETATM    8  C5  UNL     1     -34.909  17.021  -2.955  1.00 20.00    -0.040 C 
HETATM    9  C7  UNL     1     -33.377  17.132  -2.787  1.00 20.00     0.015 C 
HETATM   10  C8  UNL     1     -35.514  16.820  -1.558  1.00 20.00     0.015 C 
HETATM   11  C9  UNL     1     -36.840  15.585  -3.935  1.00 20.00     0.017 C 
ENDBRANCH   2   4
TORSDOF 1
ENDMDL
MODEL 4
REMARK VINA RESULT:      -4.1      1.318      1.790
REMARK  1 active torsions:
REMARK  status: ('A' for Active; 'I' for Inactive)
REMARK    1  A    between atoms: C6_6  and  C10_10 
ROOT
HETATM    1  C1  UNL     1     -35.828  13.992  -5.395  1.00 20.00     0.059 C 
HETATM    2  C10 UNL     1     -35.883  15.421  -5.653  1.00 20.00     0.133 C 
HETATM    3  N11 UNL     1     -35.823  12.846  -5.216  1.00 20.00    -0.197 NA
ENDROOT
BRANCH   2   4
HETATM    4  C6  UNL     1     -34.649  15.964  -4.917  1.00 20.00    -0.025 C 
HETATM    5  C4  UNL     1     -34.679  15.556  -3.429  1.00 20.00     0.011 C 
HETATM    6  C2  UNL     1     -33.840  16.598  -2.689  1.00 20.00     0.002 C 
HETATM    7  C3  UNL     1     -33.612  17.757  -3.660  1.00 20.00     0.010 C 
HETATM    8  C5  UNL     1     -34.589  17.529  -4.833  1.00 20.00    -0.040 C 
HETATM    9  C7  UNL     1     -35.951  18.171  -4.483  1.00 20.00     0.015 C 
HETATM   10  C8  UNL     1     -34.072  18.208  -6.110  1.00 20.00     0.015 C 
HETATM   11  C9  UNL     1     -33.400  15.343  -5.583  1.00 20.00     0.017 C 
ENDBRANCH   2   4
TORSDOF 1
ENDMDL
MODEL 5
REMARK VINA RESULT:      -4.0      1.361      2.893
REMARK  1 active torsions:
REMARK  status: ('A' for Active; 'I' for Inactive)
REMARK    1  A    between atoms: C6_6  and  C10_10 
ROOT
HETATM    1  C1  UNL     1     -37.343  14.531  -4.744  1.00 20.00     0.059 C 
HETATM    2  C10 UNL     1     -36.071  15.089  -4.317  1.00 20.00     0.133 C 
HETATM    3  N11 UNL     1     -38.370  14.080  -5.039  1.00 20.00    -0.197 NA
ENDROOT
BRANCH   2   4
HETATM    4  C6  UNL     1     -35.376  15.447  -5.639  1.00 20.00    -0.025 C 
HETATM    5  C4  UNL     1     -35.346  14.228  -6.586  1.00 20.00     0.011 C 
HETATM    6  C2  UNL     1     -34.161  14.454  -7.526  1.00 20.00     0.002 C 
HETATM    7  C3  UNL     1     -33.330  15.591  -6.929  1.00 20.00     0.010 C 
HETATM    8  C5  UNL     1     -33.854  15.794  -5.492  1.00 20.00    -0.040 C 
HETATM    9  C7  UNL     1     -33.102  14.831  -4.545  1.00 20.00     0.015 C 
HETATM   10  C8  UNL     1     -33.579  17.226  -5.011  1.00 20.00     0.015 C 
HETATM   11  C9  UNL     1     -36.195  16.578  -6.304  1.00 20.00     0.017 C 
ENDBRANCH   2   4
TORSDOF 1
ENDMDL
MODEL 6
REMARK VINA RESULT:      -4.0      2.349      3.758
REMARK  1 active torsions:
REMARK  status: ('A' for Active; 'I' for Inactive)
REMARK    1  A    between atoms: C6_6  and  C10_10 
ROOT
HETATM    1  C1  UNL     1     -34.079  16.643  -2.621  1.00 20.00     0.059 C 
HETATM    2  C10 UNL     1     -35.130  15.929  -3.326  1.00 20.00     0.133 C 
HETATM    3  N11 UNL     1     -33.271  17.222  -2.023  1.00 20.00    -0.197 NA
ENDROOT
BRANCH   2   4
HETATM    4  C6  UNL     1     -34.420  15.397  -4.580  1.00 20.00    -0.025 C 
HETATM    5  C4  UNL     1     -33.701  16.541  -5.326  1.00 20.00     0.011 C 
HETATM    6  C2  UNL     1     -33.588  16.089  -6.783  1.00 20.00     0.002 C 
HETATM    7  C3  UNL     1     -34.508  14.878  -6.945  1.00 20.00     0.010 C 
HETATM    8  C5  UNL     1     -35.389  14.838  -5.679  1.00 20.00    -0.040 C 
HETATM    9  C7  UNL     1     -36.630  15.732  -5.904  1.00 20.00     0.015 C 
HETATM   10  C8  UNL     1     -35.889  13.411  -5.410  1.00 20.00     0.015 C 
HETATM   11  C9  UNL     1     -33.368  14.363  -4.116  1.00 20.00     0.017 C 
ENDBRANCH   2   4
TORSDOF 1
ENDMDL
MODEL 7
REMARK VINA RESULT:      -4.0      1.589      1.977
REMARK  1 active torsions:
REMARK  status: ('A' for Active; 'I' for Inactive)
REMARK    1  A    between atoms: C6_6  and  C10_10 
ROOT
HETATM    1  C1  UNL     1     -37.482  14.378  -5.761  1.00 20.00     0.059 C 
HETATM    2  C10 UNL     1     -36.608  14.865  -6.815  1.00 20.00     0.133 C 
HETATM    3  N11 UNL     1     -38.218  14.001  -4.948  1.00 20.00    -0.197 NA
ENDROOT
BRANCH   2   4
HETATM    4  C6  UNL     1     -35.200  14.596  -6.262  1.00 20.00    -0.025 C 
HETATM    5  C4  UNL     1     -35.277  14.008  -4.837  1.00 20.00     0.011 C 
HETATM    6  C2  UNL     1     -33.949  14.359  -4.164  1.00 20.00     0.002 C 
HETATM    7  C3  UNL     1     -33.264  15.402  -5.048  1.00 20.00     0.010 C 
HETATM    8  C5  UNL     1     -34.338  15.888  -6.044  1.00 20.00    -0.040 C 
HETATM    9  C7  UNL     1     -35.133  17.046  -5.400  1.00 20.00     0.015 C 
HETATM   10  C8  UNL     1     -33.684  16.432  -7.323  1.00 20.00     0.015 C 
HETATM   11  C9  UNL     1     -34.523  13.565  -7.194  1.00 20.00     0.017 C 
ENDBRANCH   2   4
TORSDOF 1
ENDMDL
MODEL 8
REMARK VINA RESULT:      -4.0     10.815     12.345
REMARK  1 active torsions:
REMARK  status: ('A' for Active; 'I' for Inactive)
REMARK    1  A    between atoms: C6_6  and  C10_10 
ROOT
HETATM    1  C1  UNL     1     -32.243   8.473   2.115  1.00 20.00     0.059 C 
HETATM    2  C10 UNL     1     -31.970   7.643   3.277  1.00 20.00     0.133 C 
HETATM    3  N11 UNL     1     -32.413   9.139   1.181  1.00 20.00    -0.197 NA
ENDROOT
BRANCH   2   4
HETATM    4  C6  UNL     1     -33.371   7.269   3.784  1.00 20.00    -0.025 C 
HETATM    5  C4  UNL     1     -33.334   6.936   5.291  1.00 20.00     0.011 C 
HETATM    6  C2  UNL     1     -34.527   6.015   5.549  1.00 20.00     0.002 C 
HETATM    7  C3  UNL     1     -35.038   5.556   4.182  1.00 20.00     0.010 C 
HETATM    8  C5  UNL     1     -33.946   5.948   3.165  1.00 20.00    -0.040 C 
HETATM    9  C7  UNL     1     -32.903   4.810   3.087  1.00 20.00     0.015 C 
HETATM   10  C8  UNL     1     -34.548   6.120   1.762  1.00 20.00     0.015 C 
HETATM   11  C9  UNL     1     -34.289   8.493   3.563  1.00 20.00     0.017 C 
ENDBRANCH   2   4
TORSDOF 1
ENDMDL
MODEL 9
REMARK VINA RESULT:      -3.9      2.588      3.952
REMARK  1 active torsions:
REMARK  status: ('A' for Active; 'I' for Inactive)
REMARK    1  A    between atoms: C6_6  and  C10_10 
ROOT
HETATM    1  C1  UNL     1     -33.672  18.562  -3.349  1.00 20.00     0.059 C 
HETATM    2  C10 UNL     1     -34.754  17.998  -4.138  1.00 20.00     0.133 C 
HETATM    3  N11 UNL     1     -32.819  19.056  -2.736  1.00 20.00    -0.197 NA
ENDROOT
BRANCH   2   4
HETATM    4  C6  UNL     1     -34.735  16.510  -3.757  1.00 20.00    -0.025 C 
HETATM    5  C4  UNL     1     -33.353  15.889  -4.053  1.00 20.00     0.011 C 
HETATM    6  C2  UNL     1     -33.597  14.393  -4.251  1.00 20.00     0.002 C 
HETATM    7  C3  UNL     1     -35.108  14.204  -4.400  1.00 20.00     0.010 C 
HETATM    8  C5  UNL     1     -35.695  15.615  -4.615  1.00 20.00    -0.040 C 
HETATM    9  C7  UNL     1     -35.651  15.951  -6.123  1.00 20.00     0.015 C 
HETATM   10  C8  UNL     1     -37.165  15.664  -4.172  1.00 20.00     0.015 C 
HETATM   11  C9  UNL     1     -35.012  16.415  -2.238  1.00 20.00     0.017 C 
ENDBRANCH   2   4
TORSDOF 1
ENDMDL
