MODEL 1
REMARK VINA RESULT:      -5.2      0.000      0.000
REMARK  2 active torsions:
REMARK  status: ('A' for Active; 'I' for Inactive)
REMARK    1  A    between atoms: C1_1  and  C5_5 
REMARK    2  A    between atoms: C5_5  and  C6_6 
ROOT
HETATM    1  C5  UNL     1     -33.923   7.301   4.092  1.00 20.00     0.190 C 
HETATM    2 CL9  UNL     1     -33.236   7.515   5.729  1.00 20.00    -0.114 Cl
ENDROOT
BRANCH   1   3
HETATM    3  C1  UNL     1     -32.825   7.745   3.136  1.00 20.00     0.144 C 
HETATM    4  C2  UNL     1     -31.495   8.096   3.750  1.00 20.00     0.092 C 
HETATM    5  O7  UNL     1     -33.008   7.841   1.923  1.00 20.00    -0.297 OA
ENDBRANCH   1   3
BRANCH   1   6
HETATM    6  C6  UNL     1     -34.393   5.856   3.840  1.00 20.00     0.119 C 
HETATM    7  C3  UNL     1     -33.399   5.086   2.968  1.00 20.00     0.053 C 
HETATM    8  C4  UNL     1     -34.627   5.084   5.140  1.00 20.00     0.053 C 
HETATM    9  F8  UNL     1     -35.582   5.889   3.169  1.00 20.00    -0.242 F 
ENDBRANCH   1   6
TORSDOF 2
ENDMDL
MODEL 2
REMARK VINA RESULT:      -5.0      1.673      1.946
REMARK  2 active torsions:
REMARK  status: ('A' for Active; 'I' for Inactive)
REMARK    1  A    between atoms: C1_1  and  C5_5 
REMARK    2  A    between atoms: C5_5  and  C6_6 
ROOT
HETATM    1  C5  UNL     1     -32.914   6.049   3.669  1.00 20.00     0.190 C 
HETATM    2 CL9  UNL     1     -33.058   4.797   2.400  1.00 20.00    -0.114 Cl
ENDROOT
BRANCH   1   3
HETATM    3  C1  UNL     1     -32.626   7.344   2.923  1.00 20.00     0.144 C 
HETATM    4  C2  UNL     1     -31.541   8.223   3.487  1.00 20.00     0.092 C 
HETATM    5  O7  UNL     1     -33.257   7.680   1.921  1.00 20.00    -0.297 OA
ENDBRANCH   1   3
BRANCH   1   6
HETATM    6  C6  UNL     1     -34.171   6.131   4.555  1.00 20.00     0.119 C 
HETATM    7  C3  UNL     1     -34.586   4.751   5.070  1.00 20.00     0.053 C 
HETATM    8  C4  UNL     1     -33.988   7.078   5.741  1.00 20.00     0.053 C 
HETATM    9  F8  UNL     1     -35.207   6.615   3.807  1.00 20.00    -0.242 F 
ENDBRANCH   1   6
TORSDOF 2
ENDMDL
MODEL 3
REMARK VINA RESULT:      -4.7      2.494      3.397
REMARK  2 active torsions:
REMARK  status: ('A' for Active; 'I' for Inactive)
REMARK    1  A    between atoms: C1_1  and  C5_5 
REMARK    2  A    between atoms: C5_5  and  C6_6 
ROOT
HETATM    1  C5  UNL     1     -34.230   7.179   4.005  1.00 20.00     0.190 C 
HETATM    2 CL9  UNL     1     -35.506   6.080   3.402  1.00 20.00    -0.114 Cl
ENDROOT
BRANCH   1   3
HETATM    3  C1  UNL     1     -34.019   6.786   5.460  1.00 20.00     0.144 C 
HETATM    4  C2  UNL     1     -34.480   5.409   5.863  1.00 20.00     0.092 C 
HETATM    5  O7  UNL     1     -33.521   7.554   6.284  1.00 20.00    -0.297 OA
ENDBRANCH   1   3
BRANCH   1   6
HETATM    6  C6  UNL     1     -32.942   7.095   3.166  1.00 20.00     0.119 C 
HETATM    7  C3  UNL     1     -32.730   5.690   2.600  1.00 20.00     0.053 C 
HETATM    8  C4  UNL     1     -32.927   8.108   2.019  1.00 20.00     0.053 C 
HETATM    9  F8  UNL     1     -31.873   7.377   3.968  1.00 20.00    -0.242 F 
ENDBRANCH   1   6
TORSDOF 2
ENDMDL
MODEL 4
REMARK VINA RESULT:      -4.6      1.817      3.159
REMARK  2 active torsions:
REMARK  status: ('A' for Active; 'I' for Inactive)
REMARK    1  A    between atoms: C1_1  and  C5_5 
REMARK    2  A    between atoms: C5_5  and  C6_6 
ROOT
HETATM    1  C5  UNL     1     -33.398   6.476   4.611  1.00 20.00     0.190 C 
HETATM    2 CL9  UNL     1     -33.935   7.424   6.029  1.00 20.00    -0.114 Cl
ENDROOT
BRANCH   1   3
HETATM    3  C1  UNL     1     -34.547   5.526   4.305  1.00 20.00     0.144 C 
HETATM    4  C2  UNL     1     -34.272   4.055   4.477  1.00 20.00     0.092 C 
HETATM    5  O7  UNL     1     -35.643   5.925   3.913  1.00 20.00    -0.297 OA
ENDBRANCH   1   3
BRANCH   1   6
HETATM    6  C6  UNL     1     -33.024   7.373   3.417  1.00 20.00     0.119 C 
HETATM    7  C3  UNL     1     -31.694   8.093   3.649  1.00 20.00     0.053 C 
HETATM    8  C4  UNL     1     -32.953   6.594   2.102  1.00 20.00     0.053 C 
HETATM    9  F8  UNL     1     -33.985   8.332   3.267  1.00 20.00    -0.242 F 
ENDBRANCH   1   6
TORSDOF 2
ENDMDL
MODEL 5
REMARK VINA RESULT:      -4.6      1.664      2.011
REMARK  2 active torsions:
REMARK  status: ('A' for Active; 'I' for Inactive)
REMARK    1  A    between atoms: C1_1  and  C5_5 
REMARK    2  A    between atoms: C5_5  and  C6_6 
ROOT
HETATM    1  C5  UNL     1     -33.514   7.385   3.730  1.00 20.00     0.190 C 
HETATM    2 CL9  UNL     1     -33.333   7.432   5.509  1.00 20.00    -0.114 Cl
ENDROOT
BRANCH   1   3
HETATM    3  C1  UNL     1     -32.241   8.012   3.182  1.00 20.00     0.144 C 
HETATM    4  C2  UNL     1     -32.299   8.539   1.772  1.00 20.00     0.092 C 
HETATM    5  O7  UNL     1     -31.200   8.070   3.837  1.00 20.00    -0.297 OA
ENDBRANCH   1   3
BRANCH   1   6
HETATM    6  C6  UNL     1     -33.757   5.957   3.206  1.00 20.00     0.119 C 
HETATM    7  C3  UNL     1     -34.388   5.065   4.276  1.00 20.00     0.053 C 
HETATM    8  C4  UNL     1     -34.633   5.938   1.952  1.00 20.00     0.053 C 
HETATM    9  F8  UNL     1     -32.556   5.401   2.869  1.00 20.00    -0.242 F 
ENDBRANCH   1   6
TORSDOF 2
ENDMDL
MODEL 6
REMARK VINA RESULT:      -4.5      2.234      3.176
REMARK  2 active torsions:
REMARK  status: ('A' for Active; 'I' for Inactive)
REMARK    1  A    between atoms: C1_1  and  C5_5 
REMARK    2  A    between atoms: C5_5  and  C6_6 
ROOT
HETATM    1  C5  UNL     1     -34.358   7.078   3.972  1.00 20.00     0.190 C 
HETATM    2 CL9  UNL     1     -35.734   6.028   3.522  1.00 20.00    -0.114 Cl
ENDROOT
BRANCH   1   3
HETATM    3  C1  UNL     1     -34.009   6.691   5.402  1.00 20.00     0.144 C 
HETATM    4  C2  UNL     1     -34.469   5.333   5.866  1.00 20.00     0.092 C 
HETATM    5  O7  UNL     1     -33.405   7.449   6.160  1.00 20.00    -0.297 OA
ENDBRANCH   1   3
BRANCH   1   6
HETATM    6  C6  UNL     1     -33.170   6.932   3.002  1.00 20.00     0.119 C 
HETATM    7  C3  UNL     1     -31.950   7.718   3.485  1.00 20.00     0.053 C 
HETATM    8  C4  UNL     1     -32.774   5.472   2.781  1.00 20.00     0.053 C 
HETATM    9  F8  UNL     1     -33.528   7.443   1.786  1.00 20.00    -0.242 F 
ENDBRANCH   1   6
TORSDOF 2
ENDMDL
MODEL 7
REMARK VINA RESULT:      -4.4      1.922      2.262
REMARK  2 active torsions:
REMARK  status: ('A' for Active; 'I' for Inactive)
REMARK    1  A    between atoms: C1_1  and  C5_5 
REMARK    2  A    between atoms: C5_5  and  C6_6 
ROOT
HETATM    1  C5  UNL     1     -32.884   5.915   3.675  1.00 20.00     0.190 C 
HETATM    2 CL9  UNL     1     -33.030   4.719   2.353  1.00 20.00    -0.114 Cl
ENDROOT
BRANCH   1   3
HETATM    3  C1  UNL     1     -32.655   7.251   2.983  1.00 20.00     0.144 C 
HETATM    4  C2  UNL     1     -31.567   8.127   3.547  1.00 20.00     0.092 C 
HETATM    5  O7  UNL     1     -33.334   7.621   2.025  1.00 20.00    -0.297 OA
ENDBRANCH   1   3
BRANCH   1   6
HETATM    6  C6  UNL     1     -34.118   5.918   4.598  1.00 20.00     0.119 C 
HETATM    7  C3  UNL     1     -34.045   7.045   5.630  1.00 20.00     0.053 C 
HETATM    8  C4  UNL     1     -35.429   6.033   3.818  1.00 20.00     0.053 C 
HETATM    9  F8  UNL     1     -34.158   4.739   5.285  1.00 20.00    -0.242 F 
ENDBRANCH   1   6
TORSDOF 2
ENDMDL
MODEL 8
REMARK VINA RESULT:      -4.3      2.294      3.524
REMARK  2 active torsions:
REMARK  status: ('A' for Active; 'I' for Inactive)
REMARK    1  A    between atoms: C1_1  and  C5_5 
REMARK    2  A    between atoms: C5_5  and  C6_6 
ROOT
HETATM    1  C5  UNL     1     -33.803   6.135   2.880  1.00 20.00     0.190 C 
HETATM    2 CL9  UNL     1     -32.595   4.829   2.698  1.00 20.00    -0.114 Cl
ENDROOT
BRANCH   1   3
HETATM    3  C1  UNL     1     -34.884   5.558   3.783  1.00 20.00     0.144 C 
HETATM    4  C2  UNL     1     -34.497   4.372   4.627  1.00 20.00     0.092 C 
HETATM    5  O7  UNL     1     -36.028   6.011   3.812  1.00 20.00    -0.297 OA
ENDBRANCH   1   3
BRANCH   1   6
HETATM    6  C6  UNL     1     -33.183   7.431   3.437  1.00 20.00     0.119 C 
HETATM    7  C3  UNL     1     -33.146   7.425   4.966  1.00 20.00     0.053 C 
HETATM    8  C4  UNL     1     -31.772   7.679   2.900  1.00 20.00     0.053 C 
HETATM    9  F8  UNL     1     -33.954   8.490   3.052  1.00 20.00    -0.242 F 
ENDBRANCH   1   6
TORSDOF 2
ENDMDL
MODEL 9
REMARK VINA RESULT:      -4.3      2.535      3.519
REMARK  2 active torsions:
REMARK  status: ('A' for Active; 'I' for Inactive)
REMARK    1  A    between atoms: C1_1  and  C5_5 
REMARK    2  A    between atoms: C5_5  and  C6_6 
ROOT
HETATM    1  C5  UNL     1     -33.742   5.976   2.747  1.00 20.00     0.190 C 
HETATM    2 CL9  UNL     1     -32.773   4.496   2.486  1.00 20.00    -0.114 Cl
ENDROOT
BRANCH   1   3
HETATM    3  C1  UNL     1     -34.808   5.583   3.760  1.00 20.00     0.144 C 
HETATM    4  C2  UNL     1     -34.452   4.482   4.724  1.00 20.00     0.092 C 
HETATM    5  O7  UNL     1     -35.919   6.112   3.784  1.00 20.00    -0.297 OA
ENDBRANCH   1   3
BRANCH   1   6
HETATM    6  C6  UNL     1     -32.879   7.165   3.212  1.00 20.00     0.119 C 
HETATM    7  C3  UNL     1     -33.037   8.370   2.283  1.00 20.00     0.053 C 
HETATM    8  C4  UNL     1     -33.196   7.590   4.647  1.00 20.00     0.053 C 
HETATM    9  F8  UNL     1     -31.565   6.795   3.180  1.00 20.00    -0.242 F 
ENDBRANCH   1   6
TORSDOF 2
ENDMDL
