MODEL 1
REMARK VINA RESULT:      -3.4      0.000      0.000
REMARK  2 active torsions:
REMARK  status: ('A' for Active; 'I' for Inactive)
REMARK    1  A    between atoms: C6_6  and  S8_8 
REMARK    2  A    between atoms: C7_7  and  S9_9 
ROOT
HETATM    1  C1  UNL     1     -33.083  14.949  -4.712  1.00 20.00     0.011 C 
HETATM    2  C2  UNL     1     -34.806  15.973  -3.424  1.00 20.00     0.020 C 
HETATM    3  C3  UNL     1     -35.242  13.956  -4.868  1.00 20.00     0.020 C 
HETATM    4  C4  UNL     1     -34.280  14.584  -3.839  1.00 20.00    -0.012 C 
HETATM    5  C5  UNL     1     -33.921  15.813  -5.664  1.00 20.00     0.013 C 
HETATM    6  C6  UNL     1     -34.591  16.820  -4.695  1.00 20.00     0.050 C 
HETATM    7  C7  UNL     1     -35.022  14.825  -6.124  1.00 20.00     0.050 C 
ENDROOT
BRANCH   6   8
HETATM    8  S8  UNL     1     -33.540  18.274  -4.378  1.00 20.00    -0.177 SA
HETATM    9  H20 UNL     1     -32.374  17.622  -4.476  1.00 20.00     0.102 HD
ENDBRANCH   6   8
BRANCH   7  10
HETATM   10  S9  UNL     1     -34.500  13.831  -7.559  1.00 20.00    -0.177 SA
HETATM   11  H21 UNL     1     -35.615  13.090  -7.624  1.00 20.00     0.102 HD
ENDBRANCH   7  10
TORSDOF 2
ENDMDL
MODEL 2
REMARK VINA RESULT:      -3.4      1.533      3.676
REMARK  2 active torsions:
REMARK  status: ('A' for Active; 'I' for Inactive)
REMARK    1  A    between atoms: C6_6  and  S8_8 
REMARK    2  A    between atoms: C7_7  and  S9_9 
ROOT
HETATM    1  C1  UNL     1     -33.213  14.968  -4.272  1.00 20.00     0.011 C 
HETATM    2  C2  UNL     1     -34.441  15.640  -6.199  1.00 20.00     0.020 C 
HETATM    3  C3  UNL     1     -33.466  17.313  -4.590  1.00 20.00     0.020 C 
HETATM    4  C4  UNL     1     -33.192  16.018  -5.379  1.00 20.00    -0.012 C 
HETATM    5  C5  UNL     1     -34.627  15.346  -3.810  1.00 20.00     0.013 C 
HETATM    6  C6  UNL     1     -35.450  15.206  -5.116  1.00 20.00     0.050 C 
HETATM    7  C7  UNL     1     -34.486  16.862  -3.524  1.00 20.00     0.050 C 
ENDROOT
BRANCH   6   8
HETATM    8  S8  UNL     1     -36.043  13.503  -5.377  1.00 20.00    -0.177 SA
HETATM    9  H20 UNL     1     -37.135  13.846  -6.074  1.00 20.00     0.102 HD
ENDBRANCH   6   8
BRANCH   7  10
HETATM   10  S9  UNL     1     -33.895  17.191  -1.832  1.00 20.00    -0.177 SA
HETATM   11  H21 UNL     1     -34.101  15.950  -1.372  1.00 20.00     0.102 HD
ENDBRANCH   7  10
TORSDOF 2
ENDMDL
MODEL 3
REMARK VINA RESULT:      -3.4      1.799      2.402
REMARK  2 active torsions:
REMARK  status: ('A' for Active; 'I' for Inactive)
REMARK    1  A    between atoms: C6_6  and  S8_8 
REMARK    2  A    between atoms: C7_7  and  S9_9 
ROOT
HETATM    1  C1  UNL     1     -34.871  16.739  -4.814  1.00 20.00     0.011 C 
HETATM    2  C2  UNL     1     -33.678  16.713  -2.753  1.00 20.00     0.020 C 
HETATM    3  C3  UNL     1     -33.554  14.802  -4.388  1.00 20.00     0.020 C 
HETATM    4  C4  UNL     1     -33.517  16.336  -4.239  1.00 20.00    -0.012 C 
HETATM    5  C5  UNL     1     -35.656  15.853  -3.837  1.00 20.00     0.013 C 
HETATM    6  C6  UNL     1     -35.148  16.349  -2.460  1.00 20.00     0.050 C 
HETATM    7  C7  UNL     1     -35.025  14.458  -4.077  1.00 20.00     0.050 C 
ENDROOT
BRANCH   6   8
HETATM    8  S8  UNL     1     -36.097  17.779  -1.849  1.00 20.00    -0.177 SA
HETATM    9  H20 UNL     1     -37.261  17.127  -1.731  1.00 20.00     0.102 HD
ENDBRANCH   6   8
BRANCH   7  10
HETATM   10  S9  UNL     1     -35.824  13.569  -5.453  1.00 20.00    -0.177 SA
HETATM   11  H21 UNL     1     -35.280  14.309  -6.427  1.00 20.00     0.102 HD
ENDBRANCH   7  10
TORSDOF 2
ENDMDL
MODEL 4
REMARK VINA RESULT:      -3.3      2.036      4.096
REMARK  2 active torsions:
REMARK  status: ('A' for Active; 'I' for Inactive)
REMARK    1  A    between atoms: C6_6  and  S8_8 
REMARK    2  A    between atoms: C7_7  and  S9_9 
ROOT
HETATM    1  C1  UNL     1     -34.942  17.851  -3.745  1.00 20.00     0.011 C 
HETATM    2  C2  UNL     1     -35.078  15.474  -3.688  1.00 20.00     0.020 C 
HETATM    3  C3  UNL     1     -34.950  16.851  -1.584  1.00 20.00     0.020 C 
HETATM    4  C4  UNL     1     -35.618  16.725  -2.968  1.00 20.00    -0.012 C 
HETATM    5  C5  UNL     1     -33.529  17.313  -3.479  1.00 20.00     0.013 C 
HETATM    6  C6  UNL     1     -33.621  15.863  -4.015  1.00 20.00     0.050 C 
HETATM    7  C7  UNL     1     -33.494  17.225  -1.933  1.00 20.00     0.050 C 
ENDROOT
BRANCH   6   8
HETATM    8  S8  UNL     1     -33.272  15.764  -5.801  1.00 20.00    -0.177 SA
HETATM    9  H20 UNL     1     -31.938  15.754  -5.676  1.00 20.00     0.102 HD
ENDBRANCH   6   8
BRANCH   7  10
HETATM   10  S9  UNL     1     -32.990  18.797  -1.164  1.00 20.00    -0.177 SA
HETATM   11  H21 UNL     1     -31.926  18.299  -0.521  1.00 20.00     0.102 HD
ENDBRANCH   7  10
TORSDOF 2
ENDMDL
MODEL 5
REMARK VINA RESULT:      -3.3      0.882      3.344
REMARK  2 active torsions:
REMARK  status: ('A' for Active; 'I' for Inactive)
REMARK    1  A    between atoms: C6_6  and  S8_8 
REMARK    2  A    between atoms: C7_7  and  S9_9 
ROOT
HETATM    1  C1  UNL     1     -35.682  16.135  -4.848  1.00 20.00     0.011 C 
HETATM    2  C2  UNL     1     -34.489  14.162  -4.251  1.00 20.00     0.020 C 
HETATM    3  C3  UNL     1     -33.994  16.391  -3.189  1.00 20.00     0.020 C 
HETATM    4  C4  UNL     1     -35.113  15.424  -3.624  1.00 20.00    -0.012 C 
HETATM    5  C5  UNL     1     -34.328  16.178  -5.570  1.00 20.00     0.013 C 
HETATM    6  C6  UNL     1     -33.914  14.685  -5.584  1.00 20.00     0.050 C 
HETATM    7  C7  UNL     1     -33.424  16.890  -4.533  1.00 20.00     0.050 C 
ENDROOT
BRANCH   6   8
HETATM    8  S8  UNL     1     -34.596  13.793  -7.019  1.00 20.00    -0.177 SA
HETATM    9  H20 UNL     1     -34.579  14.844  -7.850  1.00 20.00     0.102 HD
ENDBRANCH   6   8
BRANCH   7  10
HETATM   10  S9  UNL     1     -33.506  18.704  -4.678  1.00 20.00    -0.177 SA
HETATM   11  H21 UNL     1     -34.811  18.758  -4.974  1.00 20.00     0.102 HD
ENDBRANCH   7  10
TORSDOF 2
ENDMDL
MODEL 6
REMARK VINA RESULT:      -3.2      1.717      3.504
REMARK  2 active torsions:
REMARK  status: ('A' for Active; 'I' for Inactive)
REMARK    1  A    between atoms: C6_6  and  S8_8 
REMARK    2  A    between atoms: C7_7  and  S9_9 
ROOT
HETATM    1  C1  UNL     1     -34.547  14.194  -4.118  1.00 20.00     0.011 C 
HETATM    2  C2  UNL     1     -35.052  14.851  -6.352  1.00 20.00     0.020 C 
HETATM    3  C3  UNL     1     -33.261  15.994  -5.000  1.00 20.00     0.020 C 
HETATM    4  C4  UNL     1     -33.855  14.630  -5.407  1.00 20.00    -0.012 C 
HETATM    5  C5  UNL     1     -35.412  15.460  -4.044  1.00 20.00     0.013 C 
HETATM    6  C6  UNL     1     -36.122  15.457  -5.421  1.00 20.00     0.050 C 
HETATM    7  C7  UNL     1     -34.350  16.588  -4.084  1.00 20.00     0.050 C 
ENDROOT
BRANCH   6   8
HETATM    8  S8  UNL     1     -37.653  14.468  -5.404  1.00 20.00    -0.177 SA
HETATM    9  H20 UNL     1     -37.700  14.315  -4.074  1.00 20.00     0.102 HD
ENDBRANCH   6   8
BRANCH   7  10
HETATM   10  S9  UNL     1     -33.705  16.986  -2.427  1.00 20.00    -0.177 SA
HETATM   11  H21 UNL     1     -32.579  16.270  -2.544  1.00 20.00     0.102 HD
ENDBRANCH   7  10
TORSDOF 2
ENDMDL
MODEL 7
REMARK VINA RESULT:      -3.1      1.892      2.404
REMARK  2 active torsions:
REMARK  status: ('A' for Active; 'I' for Inactive)
REMARK    1  A    between atoms: C6_6  and  S8_8 
REMARK    2  A    between atoms: C7_7  and  S9_9 
ROOT
HETATM    1  C1  UNL     1     -35.093  15.689  -5.921  1.00 20.00     0.011 C 
HETATM    2  C2  UNL     1     -33.832  14.423  -4.347  1.00 20.00     0.020 C 
HETATM    3  C3  UNL     1     -35.916  13.511  -5.425  1.00 20.00     0.020 C 
HETATM    4  C4  UNL     1     -34.596  14.268  -5.676  1.00 20.00    -0.012 C 
HETATM    5  C5  UNL     1     -35.824  15.767  -4.573  1.00 20.00     0.013 C 
HETATM    6  C6  UNL     1     -34.695  15.434  -3.565  1.00 20.00     0.050 C 
HETATM    7  C7  UNL     1     -36.757  14.532  -4.633  1.00 20.00     0.050 C 
ENDROOT
BRANCH   6   8
HETATM    8  S8  UNL     1     -33.746  16.913  -3.081  1.00 20.00    -0.177 SA
HETATM    9  H20 UNL     1     -33.180  17.108  -4.279  1.00 20.00     0.102 HD
ENDBRANCH   6   8
BRANCH   7  10
HETATM   10  S9  UNL     1     -38.338  14.903  -5.459  1.00 20.00    -0.177 SA
HETATM   11  H21 UNL     1     -38.800  13.646  -5.440  1.00 20.00     0.102 HD
ENDBRANCH   7  10
TORSDOF 2
ENDMDL
MODEL 8
REMARK VINA RESULT:      -3.1      1.631      3.230
REMARK  2 active torsions:
REMARK  status: ('A' for Active; 'I' for Inactive)
REMARK    1  A    between atoms: C6_6  and  S8_8 
REMARK    2  A    between atoms: C7_7  and  S9_9 
ROOT
HETATM    1  C1  UNL     1     -35.142  15.912  -3.285  1.00 20.00     0.011 C 
HETATM    2  C2  UNL     1     -35.170  14.004  -4.711  1.00 20.00     0.020 C 
HETATM    3  C3  UNL     1     -33.282  15.671  -4.752  1.00 20.00     0.020 C 
HETATM    4  C4  UNL     1     -34.210  14.841  -3.842  1.00 20.00    -0.012 C 
HETATM    5  C5  UNL     1     -35.588  16.382  -4.677  1.00 20.00     0.013 C 
HETATM    6  C6  UNL     1     -36.105  15.070  -5.318  1.00 20.00     0.050 C 
HETATM    7  C7  UNL     1     -34.238  16.719  -5.359  1.00 20.00     0.050 C 
ENDROOT
BRANCH   6   8
HETATM    8  S8  UNL     1     -37.854  14.751  -4.919  1.00 20.00    -0.177 SA
HETATM    9  H20 UNL     1     -38.067  13.890  -5.923  1.00 20.00     0.102 HD
ENDBRANCH   6   8
BRANCH   7  10
HETATM   10  S9  UNL     1     -33.695  18.422  -5.008  1.00 20.00    -0.177 SA
HETATM   11  H21 UNL     1     -34.805  18.786  -4.352  1.00 20.00     0.102 HD
ENDBRANCH   7  10
TORSDOF 2
ENDMDL
MODEL 9
REMARK VINA RESULT:      -3.0      1.960      2.268
REMARK  2 active torsions:
REMARK  status: ('A' for Active; 'I' for Inactive)
REMARK    1  A    between atoms: C6_6  and  S8_8 
REMARK    2  A    between atoms: C7_7  and  S9_9 
ROOT
HETATM    1  C1  UNL     1     -33.520  15.697  -3.839  1.00 20.00     0.011 C 
HETATM    2  C2  UNL     1     -35.156  16.545  -2.330  1.00 20.00     0.020 C 
HETATM    3  C3  UNL     1     -35.674  16.125  -4.758  1.00 20.00     0.020 C 
HETATM    4  C4  UNL     1     -34.999  15.550  -3.497  1.00 20.00    -0.012 C 
HETATM    5  C5  UNL     1     -33.629  17.210  -4.077  1.00 20.00     0.013 C 
HETATM    6  C6  UNL     1     -34.235  17.712  -2.743  1.00 20.00     0.050 C 
HETATM    7  C7  UNL     1     -34.748  17.296  -5.145  1.00 20.00     0.050 C 
ENDROOT
BRANCH   6   8
HETATM    8  S8  UNL     1     -32.957  18.050  -1.489  1.00 20.00    -0.177 SA
HETATM    9  H20 UNL     1     -32.826  19.351  -1.777  1.00 20.00     0.102 HD
ENDBRANCH   6   8
BRANCH   7  10
HETATM   10  S9  UNL     1     -34.099  17.123  -6.839  1.00 20.00    -0.177 SA
HETATM   11  H21 UNL     1     -35.256  16.730  -7.388  1.00 20.00     0.102 HD
ENDBRANCH   7  10
TORSDOF 2
ENDMDL
