MODEL 1
REMARK VINA RESULT:      -5.2      0.000      0.000
REMARK  1 active torsions:
REMARK  status: ('A' for Active; 'I' for Inactive)
REMARK    1  A    between atoms: C1_1  and  C5_5 
ROOT
HETATM    1  C1  UNL     1     -33.614   6.804   3.853  1.00 20.00     0.141 A 
HETATM    2  C2  UNL     1     -32.333   7.877   2.459  1.00 20.00     0.187 A 
HETATM    3  N6  UNL     1     -33.304   6.991   2.517  1.00 20.00    -0.211 NA
HETATM    4  N7  UNL     1     -32.964   7.472   4.805  1.00 20.00    -0.193 NA
HETATM    5  S8  UNL     1     -31.851   8.435   4.008  1.00 20.00     0.046 SA
HETATM    6 CL9  UNL     1     -31.607   8.444   1.025  1.00 20.00    -0.053 Cl
ENDROOT
BRANCH   1   7
HETATM    7  C5  UNL     1     -34.723   5.809   4.238  1.00 20.00     0.058 A 
HETATM    8  C3  UNL     1     -34.648   5.129   5.585  1.00 20.00     0.013 A 
HETATM    9  C4  UNL     1     -34.376   4.343   4.341  1.00 20.00     0.013 A 
ENDBRANCH   1   7
TORSDOF 1
ENDMDL
MODEL 2
REMARK VINA RESULT:      -5.1      2.680      4.434
REMARK  1 active torsions:
REMARK  status: ('A' for Active; 'I' for Inactive)
REMARK    1  A    between atoms: C1_1  and  C5_5 
ROOT
HETATM    1  C1  UNL     1     -32.685   7.658   2.896  1.00 20.00     0.141 A 
HETATM    2  C2  UNL     1     -33.722   6.729   4.568  1.00 20.00     0.187 A 
HETATM    3  N6  UNL     1     -32.951   7.747   4.251  1.00 20.00    -0.211 NA
HETATM    4  N7  UNL     1     -33.189   6.665   2.164  1.00 20.00    -0.193 NA
HETATM    5  S8  UNL     1     -34.084   5.728   3.223  1.00 20.00     0.046 SA
HETATM    6 CL9  UNL     1     -34.325   6.404   6.128  1.00 20.00    -0.053 Cl
ENDROOT
BRANCH   1   7
HETATM    7  C5  UNL     1     -31.794   8.721   2.230  1.00 20.00     0.058 A 
HETATM    8  C3  UNL     1     -32.455   9.838   1.458  1.00 20.00     0.013 A 
HETATM    9  C4  UNL     1     -31.719   8.763   0.723  1.00 20.00     0.013 A 
ENDBRANCH   1   7
TORSDOF 1
ENDMDL
MODEL 3
REMARK VINA RESULT:      -4.7      2.360      4.130
REMARK  1 active torsions:
REMARK  status: ('A' for Active; 'I' for Inactive)
REMARK    1  A    between atoms: C1_1  and  C5_5 
ROOT
HETATM    1  C1  UNL     1     -32.557   7.893   2.979  1.00 20.00     0.141 A 
HETATM    2  C2  UNL     1     -33.967   6.514   3.896  1.00 20.00     0.187 A 
HETATM    3  N6  UNL     1     -33.510   6.920   2.732  1.00 20.00    -0.211 NA
HETATM    4  N7  UNL     1     -32.255   8.254   4.226  1.00 20.00    -0.193 NA
HETATM    5  S8  UNL     1     -33.227   7.320   5.218  1.00 20.00     0.046 SA
HETATM    6 CL9  UNL     1     -35.160   5.316   4.118  1.00 20.00    -0.053 Cl
ENDROOT
BRANCH   1   7
HETATM    7  C5  UNL     1     -31.840   8.566   1.795  1.00 20.00     0.058 A 
HETATM    8  C3  UNL     1     -32.296   9.938   1.358  1.00 20.00     0.013 A 
HETATM    9  C4  UNL     1     -32.597   8.750   0.501  1.00 20.00     0.013 A 
ENDBRANCH   1   7
TORSDOF 1
ENDMDL
MODEL 4
REMARK VINA RESULT:      -4.7      0.778      1.016
REMARK  1 active torsions:
REMARK  status: ('A' for Active; 'I' for Inactive)
REMARK    1  A    between atoms: C1_1  and  C5_5 
ROOT
HETATM    1  C1  UNL     1     -33.142   6.782   3.305  1.00 20.00     0.141 A 
HETATM    2  C2  UNL     1     -32.149   8.205   1.991  1.00 20.00     0.187 A 
HETATM    3  N6  UNL     1     -32.954   7.164   1.987  1.00 20.00    -0.211 NA
HETATM    4  N7  UNL     1     -32.551   7.445   4.299  1.00 20.00    -0.193 NA
HETATM    5  S8  UNL     1     -31.667   8.665   3.572  1.00 20.00     0.046 SA
HETATM    6 CL9  UNL     1     -31.621   9.041   0.603  1.00 20.00    -0.053 Cl
ENDROOT
BRANCH   1   7
HETATM    7  C5  UNL     1     -34.043   5.576   3.620  1.00 20.00     0.058 A 
HETATM    8  C3  UNL     1     -35.511   5.819   3.880  1.00 20.00     0.013 A 
HETATM    9  C4  UNL     1     -34.610   5.440   5.013  1.00 20.00     0.013 A 
ENDBRANCH   1   7
TORSDOF 1
ENDMDL
MODEL 5
REMARK VINA RESULT:      -3.9     11.361     11.834
REMARK  1 active torsions:
REMARK  status: ('A' for Active; 'I' for Inactive)
REMARK    1  A    between atoms: C1_1  and  C5_5 
ROOT
HETATM    1  C1  UNL     1     -34.501  16.420  -2.825  1.00 20.00     0.141 A 
HETATM    2  C2  UNL     1     -33.718  17.610  -1.181  1.00 20.00     0.187 A 
HETATM    3  N6  UNL     1     -33.369  17.026  -2.306  1.00 20.00    -0.211 NA
HETATM    4  N7  UNL     1     -35.671  16.499  -2.190  1.00 20.00    -0.193 NA
HETATM    5  S8  UNL     1     -35.380  17.402  -0.811  1.00 20.00     0.046 SA
HETATM    6 CL9  UNL     1     -32.668  18.495  -0.169  1.00 20.00    -0.053 Cl
ENDROOT
BRANCH   1   7
HETATM    7  C5  UNL     1     -34.403  15.646  -4.150  1.00 20.00     0.058 A 
HETATM    8  C3  UNL     1     -34.422  14.136  -4.110  1.00 20.00     0.013 A 
HETATM    9  C4  UNL     1     -33.149  14.853  -4.434  1.00 20.00     0.013 A 
ENDBRANCH   1   7
TORSDOF 1
ENDMDL
MODEL 6
REMARK VINA RESULT:      -3.9     11.650     12.040
REMARK  1 active torsions:
REMARK  status: ('A' for Active; 'I' for Inactive)
REMARK    1  A    between atoms: C1_1  and  C5_5 
ROOT
HETATM    1  C1  UNL     1     -35.439  14.421  -4.790  1.00 20.00     0.141 A 
HETATM    2  C2  UNL     1     -34.162  15.665  -3.542  1.00 20.00     0.187 A 
HETATM    3  N6  UNL     1     -35.422  15.409  -3.820  1.00 20.00    -0.211 NA
HETATM    4  N7  UNL     1     -34.303  13.912  -5.266  1.00 20.00    -0.193 NA
HETATM    5  S8  UNL     1     -33.072  14.708  -4.458  1.00 20.00     0.046 SA
HETATM    6 CL9  UNL     1     -33.623  16.811  -2.401  1.00 20.00    -0.053 Cl
ENDROOT
BRANCH   1   7
HETATM    7  C5  UNL     1     -36.788  13.911  -5.324  1.00 20.00     0.058 A 
HETATM    8  C3  UNL     1     -37.530  14.752  -6.336  1.00 20.00     0.013 A 
HETATM    9  C4  UNL     1     -38.047  14.650  -4.936  1.00 20.00     0.013 A 
ENDBRANCH   1   7
TORSDOF 1
ENDMDL
MODEL 7
REMARK VINA RESULT:      -3.8     11.779     12.150
REMARK  1 active torsions:
REMARK  status: ('A' for Active; 'I' for Inactive)
REMARK    1  A    between atoms: C1_1  and  C5_5 
ROOT
HETATM    1  C1  UNL     1     -34.505  16.417  -3.619  1.00 20.00     0.141 A 
HETATM    2  C2  UNL     1     -35.087  14.644  -4.738  1.00 20.00     0.187 A 
HETATM    3  N6  UNL     1     -35.444  15.404  -3.726  1.00 20.00    -0.211 NA
HETATM    4  N7  UNL     1     -33.475  16.485  -4.461  1.00 20.00    -0.193 NA
HETATM    5  S8  UNL     1     -33.649  15.186  -5.502  1.00 20.00     0.046 SA
HETATM    6 CL9  UNL     1     -35.931  13.263  -5.273  1.00 20.00    -0.053 Cl
ENDROOT
BRANCH   1   7
HETATM    7  C5  UNL     1     -34.657  17.472  -2.510  1.00 20.00     0.058 A 
HETATM    8  C3  UNL     1     -33.787  17.360  -1.280  1.00 20.00     0.013 A 
HETATM    9  C4  UNL     1     -35.247  17.050  -1.185  1.00 20.00     0.013 A 
ENDBRANCH   1   7
TORSDOF 1
ENDMDL
MODEL 8
REMARK VINA RESULT:      -3.7     11.977     12.443
REMARK  1 active torsions:
REMARK  status: ('A' for Active; 'I' for Inactive)
REMARK    1  A    between atoms: C1_1  and  C5_5 
ROOT
HETATM    1  C1  UNL     1     -35.068  15.657  -4.559  1.00 20.00     0.141 A 
HETATM    2  C2  UNL     1     -34.702  14.495  -6.362  1.00 20.00     0.187 A 
HETATM    3  N6  UNL     1     -34.303  15.566  -5.710  1.00 20.00    -0.211 NA
HETATM    4  N7  UNL     1     -36.005  14.748  -4.288  1.00 20.00    -0.193 NA
HETATM    5  S8  UNL     1     -35.966  13.660  -5.559  1.00 20.00     0.046 SA
HETATM    6 CL9  UNL     1     -34.057  13.954  -7.845  1.00 20.00    -0.053 Cl
ENDROOT
BRANCH   1   7
HETATM    7  C5  UNL     1     -34.830  16.824  -3.586  1.00 20.00     0.058 A 
HETATM    8  C3  UNL     1     -33.711  16.709  -2.578  1.00 20.00     0.013 A 
HETATM    9  C4  UNL     1     -35.133  16.618  -2.121  1.00 20.00     0.013 A 
ENDBRANCH   1   7
TORSDOF 1
ENDMDL
MODEL 9
REMARK VINA RESULT:      -3.7     11.750     12.138
REMARK  1 active torsions:
REMARK  status: ('A' for Active; 'I' for Inactive)
REMARK    1  A    between atoms: C1_1  and  C5_5 
ROOT
HETATM    1  C1  UNL     1     -33.815  18.433   0.760  1.00 20.00     0.141 A 
HETATM    2  C2  UNL     1     -32.214  18.755   2.198  1.00 20.00     0.187 A 
HETATM    3  N6  UNL     1     -32.467  18.712   0.908  1.00 20.00    -0.211 NA
HETATM    4  N7  UNL     1     -34.599  18.263   1.824  1.00 20.00    -0.193 NA
HETATM    5  S8  UNL     1     -33.606  18.460   3.157  1.00 20.00     0.046 SA
HETATM    6 CL9  UNL     1     -30.688  19.071   2.889  1.00 20.00    -0.053 Cl
ENDROOT
BRANCH   1   7
HETATM    7  C5  UNL     1     -34.410  18.316  -0.654  1.00 20.00     0.058 A 
HETATM    8  C3  UNL     1     -35.073  17.019  -1.055  1.00 20.00     0.013 A 
HETATM    9  C4  UNL     1     -33.748  17.387  -1.644  1.00 20.00     0.013 A 
ENDBRANCH   1   7
TORSDOF 1
ENDMDL
