MODEL 1
REMARK VINA RESULT:      -4.6      0.000      0.000
REMARK  3 active torsions:
REMARK  status: ('A' for Active; 'I' for Inactive)
REMARK    1  A    between atoms: C4_4  and  N8_8 
REMARK    2  A    between atoms: C6_6  and  C7_7 
REMARK    3  A    between atoms: C6_6  and  N8_8 
ROOT
HETATM    1  C1  UNL     1     -33.576   7.130   5.255  1.00 20.00     0.047 C 
HETATM    2  C2  UNL     1     -34.497   6.013   5.724  1.00 20.00     0.076 C 
HETATM    3  C3  UNL     1     -33.617   5.837   3.189  1.00 20.00     0.109 C 
HETATM    4  C4  UNL     1     -33.781   7.246   3.746  1.00 20.00     0.232 C 
HETATM    5  S9  UNL     1     -34.428   4.763   4.409  1.00 20.00    -0.167 SA
ENDROOT
BRANCH   4   6
HETATM    6  N8  UNL     1     -32.835   8.170   3.134  1.00 20.00     0.090 N 
HETATM    7  C5  UNL     1     -31.543   8.119   3.823  1.00 20.00     0.310 C 
BRANCH   6   8
HETATM    8  C6  UNL     1     -32.662   7.866   1.712  1.00 20.00     0.287 C 
BRANCH   8   9
HETATM    9  C7  UNL     1     -31.884   8.942   0.975  1.00 20.00     0.144 C 
HETATM   10 CL10 UNL     1     -32.698  10.522   1.085  1.00 20.00    -0.129 Cl
ENDBRANCH   8   9
ENDBRANCH   6   8
ENDBRANCH   4   6
TORSDOF 3
ENDMDL
MODEL 2
REMARK VINA RESULT:      -4.3      0.766      1.410
REMARK  3 active torsions:
REMARK  status: ('A' for Active; 'I' for Inactive)
REMARK    1  A    between atoms: C4_4  and  N8_8 
REMARK    2  A    between atoms: C6_6  and  C7_7 
REMARK    3  A    between atoms: C6_6  and  N8_8 
ROOT
HETATM    1  C1  UNL     1     -33.927   5.931   3.114  1.00 20.00     0.047 C 
HETATM    2  C2  UNL     1     -34.368   4.778   4.003  1.00 20.00     0.076 C 
HETATM    3  C3  UNL     1     -33.793   7.087   5.256  1.00 20.00     0.109 C 
HETATM    4  C4  UNL     1     -33.019   6.808   3.973  1.00 20.00     0.232 C 
HETATM    5  S9  UNL     1     -34.624   5.517   5.641  1.00 20.00    -0.167 SA
ENDROOT
BRANCH   4   6
HETATM    6  N8  UNL     1     -32.654   8.046   3.297  1.00 20.00     0.090 N 
HETATM    7  C5  UNL     1     -31.276   8.425   3.620  1.00 20.00     0.310 C 
BRANCH   6   8
HETATM    8  C6  UNL     1     -32.815   7.911   1.847  1.00 20.00     0.287 C 
BRANCH   8   9
HETATM    9  C7  UNL     1     -31.891   8.833   1.069  1.00 20.00     0.144 C 
HETATM   10 CL10 UNL     1     -32.615  10.446   0.854  1.00 20.00    -0.129 Cl
ENDBRANCH   8   9
ENDBRANCH   6   8
ENDBRANCH   4   6
TORSDOF 3
ENDMDL
MODEL 3
REMARK VINA RESULT:      -3.4     11.140     11.837
REMARK  3 active torsions:
REMARK  status: ('A' for Active; 'I' for Inactive)
REMARK    1  A    between atoms: C4_4  and  N8_8 
REMARK    2  A    between atoms: C6_6  and  C7_7 
REMARK    3  A    between atoms: C6_6  and  N8_8 
ROOT
HETATM    1  C1  UNL     1     -35.102  14.300  -4.563  1.00 20.00     0.047 C 
HETATM    2  C2  UNL     1     -35.972  13.413  -5.443  1.00 20.00     0.076 C 
HETATM    3  C3  UNL     1     -34.028  14.784  -6.696  1.00 20.00     0.109 C 
HETATM    4  C4  UNL     1     -34.619  15.441  -5.455  1.00 20.00     0.232 C 
HETATM    5  S9  UNL     1     -35.145  13.398  -7.058  1.00 20.00    -0.167 SA
ENDROOT
BRANCH   4   6
HETATM    6  N8  UNL     1     -33.636  16.283  -4.784  1.00 20.00     0.090 N 
HETATM    7  C5  UNL     1     -33.944  17.700  -4.986  1.00 20.00     0.310 C 
BRANCH   6   8
HETATM    8  C6  UNL     1     -33.583  15.976  -3.352  1.00 20.00     0.287 C 
BRANCH   8   9
HETATM    9  C7  UNL     1     -33.754  17.211  -2.484  1.00 20.00     0.144 C 
HETATM   10 CL10 UNL     1     -34.979  16.950  -1.219  1.00 20.00    -0.129 Cl
ENDBRANCH   8   9
ENDBRANCH   6   8
ENDBRANCH   4   6
TORSDOF 3
ENDMDL
MODEL 4
REMARK VINA RESULT:      -3.3     11.275     11.675
REMARK  3 active torsions:
REMARK  status: ('A' for Active; 'I' for Inactive)
REMARK    1  A    between atoms: C4_4  and  N8_8 
REMARK    2  A    between atoms: C6_6  and  C7_7 
REMARK    3  A    between atoms: C6_6  and  N8_8 
ROOT
HETATM    1  C1  UNL     1     -34.951  17.369  -0.893  1.00 20.00     0.047 C 
HETATM    2  C2  UNL     1     -34.328  18.228   0.198  1.00 20.00     0.076 C 
HETATM    3  C3  UNL     1     -33.129  18.314  -2.207  1.00 20.00     0.109 C 
HETATM    4  C4  UNL     1     -33.816  17.003  -1.846  1.00 20.00     0.232 C 
HETATM    5  S9  UNL     1     -33.106  19.263  -0.657  1.00 20.00    -0.167 SA
ENDROOT
BRANCH   4   6
HETATM    6  N8  UNL     1     -34.300  16.315  -3.036  1.00 20.00     0.090 N 
HETATM    7  C5  UNL     1     -35.761  16.389  -3.117  1.00 20.00     0.310 C 
BRANCH   6   8
HETATM    8  C6  UNL     1     -33.697  16.885  -4.244  1.00 20.00     0.287 C 
BRANCH   8   9
HETATM    9  C7  UNL     1     -33.179  15.820  -5.195  1.00 20.00     0.144 C 
HETATM   10 CL10 UNL     1     -32.820  14.302  -4.337  1.00 20.00    -0.129 Cl
ENDBRANCH   8   9
ENDBRANCH   6   8
ENDBRANCH   4   6
TORSDOF 3
ENDMDL
MODEL 5
REMARK VINA RESULT:      -3.3     11.015     11.612
REMARK  3 active torsions:
REMARK  status: ('A' for Active; 'I' for Inactive)
REMARK    1  A    between atoms: C4_4  and  N8_8 
REMARK    2  A    between atoms: C6_6  and  C7_7 
REMARK    3  A    between atoms: C6_6  and  N8_8 
ROOT
HETATM    1  C1  UNL     1     -35.193  16.592  -2.069  1.00 20.00     0.047 C 
HETATM    2  C2  UNL     1     -34.715  17.391  -0.865  1.00 20.00     0.076 C 
HETATM    3  C3  UNL     1     -33.402  17.825  -3.170  1.00 20.00     0.109 C 
HETATM    4  C4  UNL     1     -33.977  16.427  -2.978  1.00 20.00     0.232 C 
HETATM    5  S9  UNL     1     -33.555  18.612  -1.540  1.00 20.00    -0.167 SA
ENDROOT
BRANCH   4   6
HETATM    6  N8  UNL     1     -34.328  15.820  -4.257  1.00 20.00     0.090 N 
HETATM    7  C5  UNL     1     -33.329  16.149  -5.276  1.00 20.00     0.310 C 
BRANCH   6   8
HETATM    8  C6  UNL     1     -34.454  14.367  -4.122  1.00 20.00     0.287 C 
BRANCH   8   9
HETATM    9  C7  UNL     1     -35.597  13.801  -4.947  1.00 20.00     0.144 C 
HETATM   10 CL10 UNL     1     -37.106  14.706  -4.673  1.00 20.00    -0.129 Cl
ENDBRANCH   8   9
ENDBRANCH   6   8
ENDBRANCH   4   6
TORSDOF 3
ENDMDL
MODEL 6
REMARK VINA RESULT:      -3.2     11.120     12.161
REMARK  3 active torsions:
REMARK  status: ('A' for Active; 'I' for Inactive)
REMARK    1  A    between atoms: C4_4  and  N8_8 
REMARK    2  A    between atoms: C6_6  and  C7_7 
REMARK    3  A    between atoms: C6_6  and  N8_8 
ROOT
HETATM    1  C1  UNL     1     -33.705  15.521  -6.876  1.00 20.00     0.047 C 
HETATM    2  C2  UNL     1     -34.004  14.452  -7.917  1.00 20.00     0.076 C 
HETATM    3  C3  UNL     1     -35.039  14.043  -5.470  1.00 20.00     0.109 C 
HETATM    4  C4  UNL     1     -33.725  14.813  -5.523  1.00 20.00     0.232 C 
HETATM    5  S9  UNL     1     -35.252  13.382  -7.149  1.00 20.00    -0.167 SA
ENDROOT
BRANCH   4   6
HETATM    6  N8  UNL     1     -33.618  15.751  -4.412  1.00 20.00     0.090 N 
HETATM    7  C5  UNL     1     -33.646  17.133  -4.897  1.00 20.00     0.310 C 
BRANCH   6   8
HETATM    8  C6  UNL     1     -34.696  15.532  -3.445  1.00 20.00     0.287 C 
BRANCH   8   9
HETATM    9  C7  UNL     1     -35.292  16.832  -2.932  1.00 20.00     0.144 C 
HETATM   10 CL10 UNL     1     -35.248  16.909  -1.153  1.00 20.00    -0.129 Cl
ENDBRANCH   8   9
ENDBRANCH   6   8
ENDBRANCH   4   6
TORSDOF 3
ENDMDL
MODEL 7
REMARK VINA RESULT:      -3.2     11.114     11.655
REMARK  3 active torsions:
REMARK  status: ('A' for Active; 'I' for Inactive)
REMARK    1  A    between atoms: C4_4  and  N8_8 
REMARK    2  A    between atoms: C6_6  and  C7_7 
REMARK    3  A    between atoms: C6_6  and  N8_8 
ROOT
HETATM    1  C1  UNL     1     -34.998  17.023  -1.337  1.00 20.00     0.047 C 
HETATM    2  C2  UNL     1     -34.119  17.908  -0.466  1.00 20.00     0.076 C 
HETATM    3  C3  UNL     1     -33.507  17.842  -3.083  1.00 20.00     0.109 C 
HETATM    4  C4  UNL     1     -34.123  16.574  -2.505  1.00 20.00     0.232 C 
HETATM    5  S9  UNL     1     -33.105  18.859  -1.633  1.00 20.00    -0.167 SA
ENDROOT
BRANCH   4   6
HETATM    6  N8  UNL     1     -34.886  15.849  -3.514  1.00 20.00     0.090 N 
HETATM    7  C5  UNL     1     -35.390  16.767  -4.539  1.00 20.00     0.310 C 
BRANCH   6   8
HETATM    8  C6  UNL     1     -34.066  14.804  -4.131  1.00 20.00     0.287 C 
BRANCH   8   9
HETATM    9  C7  UNL     1     -34.611  14.352  -5.475  1.00 20.00     0.144 C 
HETATM   10 CL10 UNL     1     -36.010  13.268  -5.277  1.00 20.00    -0.129 Cl
ENDBRANCH   8   9
ENDBRANCH   6   8
ENDBRANCH   4   6
TORSDOF 3
ENDMDL
MODEL 8
REMARK VINA RESULT:      -3.2     11.101     11.690
REMARK  3 active torsions:
REMARK  status: ('A' for Active; 'I' for Inactive)
REMARK    1  A    between atoms: C4_4  and  N8_8 
REMARK    2  A    between atoms: C6_6  and  C7_7 
REMARK    3  A    between atoms: C6_6  and  N8_8 
ROOT
HETATM    1  C1  UNL     1     -35.212  14.453  -6.243  1.00 20.00     0.047 C 
HETATM    2  C2  UNL     1     -36.524  14.133  -6.945  1.00 20.00     0.076 C 
HETATM    3  C3  UNL     1     -36.722  15.059  -4.429  1.00 20.00     0.109 C 
HETATM    4  C4  UNL     1     -35.468  14.255  -4.752  1.00 20.00     0.232 C 
HETATM    5  S9  UNL     1     -37.814  14.799  -5.857  1.00 20.00    -0.167 SA
ENDROOT
BRANCH   4   6
HETATM    6  N8  UNL     1     -34.338  14.688  -3.939  1.00 20.00     0.090 N 
HETATM    7  C5  UNL     1     -33.180  14.992  -4.783  1.00 20.00     0.310 C 
BRANCH   6   8
HETATM    8  C6  UNL     1     -34.699  15.859  -3.135  1.00 20.00     0.287 C 
BRANCH   8   9
HETATM    9  C7  UNL     1     -33.690  16.987  -3.262  1.00 20.00     0.144 C 
HETATM   10 CL10 UNL     1     -33.111  17.524  -1.666  1.00 20.00    -0.129 Cl
ENDBRANCH   8   9
ENDBRANCH   6   8
ENDBRANCH   4   6
TORSDOF 3
ENDMDL
MODEL 9
REMARK VINA RESULT:      -3.1     10.965     11.520
REMARK  3 active torsions:
REMARK  status: ('A' for Active; 'I' for Inactive)
REMARK    1  A    between atoms: C4_4  and  N8_8 
REMARK    2  A    between atoms: C6_6  and  C7_7 
REMARK    3  A    between atoms: C6_6  and  N8_8 
ROOT
HETATM    1  C1  UNL     1     -33.463  17.039  -2.289  1.00 20.00     0.047 C 
HETATM    2  C2  UNL     1     -33.014  18.162  -1.366  1.00 20.00     0.076 C 
HETATM    3  C3  UNL     1     -35.459  17.148  -0.894  1.00 20.00     0.109 C 
HETATM    4  C4  UNL     1     -34.987  17.117  -2.342  1.00 20.00     0.232 C 
HETATM    5  S9  UNL     1     -34.254  18.208  -0.042  1.00 20.00    -0.167 SA
ENDROOT
BRANCH   4   6
HETATM    6  N8  UNL     1     -35.569  15.991  -3.063  1.00 20.00     0.090 N 
HETATM    7  C5  UNL     1     -36.588  16.452  -4.008  1.00 20.00     0.310 C 
BRANCH   6   8
HETATM    8  C6  UNL     1     -34.530  15.236  -3.767  1.00 20.00     0.287 C 
BRANCH   8   9
HETATM    9  C7  UNL     1     -35.093  14.067  -4.558  1.00 20.00     0.144 C 
HETATM   10 CL10 UNL     1     -34.464  14.048  -6.224  1.00 20.00    -0.129 Cl
ENDBRANCH   8   9
ENDBRANCH   6   8
ENDBRANCH   4   6
TORSDOF 3
ENDMDL
