MODEL 1
REMARK VINA RESULT:      -4.5      0.000      0.000
REMARK  3 active torsions:
REMARK  status: ('A' for Active; 'I' for Inactive)
REMARK    1  A    between atoms: C10_10  and  C12_12 
REMARK    2  A    between atoms: C11_11  and  C12_12 
REMARK    3  A    between atoms: C12_12  and  N13_13 
ROOT
HETATM    1  C1  UNL     1     -35.359  13.372  -6.463  1.00 20.00     0.130 C 
HETATM    2  C2  UNL     1     -36.563  13.770  -5.642  1.00 20.00     0.106 C 
HETATM    3  C3  UNL     1     -34.492  14.501  -6.968  1.00 20.00     0.106 C 
HETATM    4  C8  UNL     1     -36.169  14.748  -4.549  1.00 20.00     0.242 C 
HETATM    5  C9  UNL     1     -34.150  15.461  -5.842  1.00 20.00     0.242 C 
HETATM    6  N13 UNL     1     -35.422  15.913  -5.159  1.00 20.00    -0.065 N 
HETATM    7  O14 UNL     1     -35.156  12.204  -6.790  1.00 20.00    -0.298 OA
HETATM    8  H34 UNL     1     -36.028  16.331  -5.877  1.00 20.00     0.280 HD
ENDROOT
BRANCH   6   9
HETATM    9  C12 UNL     1     -35.154  16.991  -4.146  1.00 20.00     0.196 C 
BRANCH   9  10
HETATM   10  C10 UNL     1     -34.691  16.336  -2.856  1.00 20.00     0.017 A 
HETATM   11  C4  UNL     1     -33.690  17.027  -1.971  1.00 20.00     0.007 A 
HETATM   12  C5  UNL     1     -35.120  16.894  -1.527  1.00 20.00     0.007 A 
ENDBRANCH   9  10
BRANCH   9  13
HETATM   13  C11 UNL     1     -36.426  17.802  -3.956  1.00 20.00     0.017 A 
HETATM   14  C6  UNL     1     -36.454  19.263  -4.310  1.00 20.00     0.007 A 
HETATM   15  C7  UNL     1     -37.210  18.271  -5.150  1.00 20.00     0.007 A 
ENDBRANCH   9  13
ENDBRANCH   6   9
TORSDOF 3
ENDMDL
MODEL 2
REMARK VINA RESULT:      -4.3      1.683      2.021
REMARK  3 active torsions:
REMARK  status: ('A' for Active; 'I' for Inactive)
REMARK    1  A    between atoms: C10_10  and  C12_12 
REMARK    2  A    between atoms: C11_11  and  C12_12 
REMARK    3  A    between atoms: C12_12  and  N13_13 
ROOT
HETATM    1  C1  UNL     1     -35.549  13.763  -5.061  1.00 20.00     0.130 C 
HETATM    2  C2  UNL     1     -36.537  14.874  -4.789  1.00 20.00     0.106 C 
HETATM    3  C3  UNL     1     -34.098  14.171  -5.163  1.00 20.00     0.106 C 
HETATM    4  C8  UNL     1     -36.078  15.728  -3.621  1.00 20.00     0.242 C 
HETATM    5  C9  UNL     1     -33.700  15.043  -3.985  1.00 20.00     0.242 C 
HETATM    6  N13 UNL     1     -34.664  16.203  -3.868  1.00 20.00    -0.065 N 
HETATM    7  O14 UNL     1     -35.915  12.612  -5.290  1.00 20.00    -0.298 OA
HETATM    8  H34 UNL     1     -34.656  16.707  -4.764  1.00 20.00     0.280 HD
ENDROOT
BRANCH   6   9
HETATM    9  C12 UNL     1     -34.220  17.188  -2.822  1.00 20.00     0.196 C 
BRANCH   9  10
HETATM   10  C10 UNL     1     -35.108  17.026  -1.599  1.00 20.00     0.017 A 
HETATM   11  C4  UNL     1     -34.694  17.615  -0.279  1.00 20.00     0.007 A 
HETATM   12  C5  UNL     1     -35.847  18.210  -1.039  1.00 20.00     0.007 A 
ENDBRANCH   9  10
BRANCH   9  13
HETATM   13  C11 UNL     1     -34.300  18.587  -3.411  1.00 20.00     0.017 A 
HETATM   14  C6  UNL     1     -33.062  19.263  -3.931  1.00 20.00     0.007 A 
HETATM   15  C7  UNL     1     -34.123  18.797  -4.889  1.00 20.00     0.007 A 
ENDBRANCH   9  13
ENDBRANCH   6   9
TORSDOF 3
ENDMDL
MODEL 3
REMARK VINA RESULT:      -4.3      3.193      5.420
REMARK  3 active torsions:
REMARK  status: ('A' for Active; 'I' for Inactive)
REMARK    1  A    between atoms: C10_10  and  C12_12 
REMARK    2  A    between atoms: C11_11  and  C12_12 
REMARK    3  A    between atoms: C12_12  and  N13_13 
ROOT
HETATM    1  C1  UNL     1     -33.933  18.293  -0.495  1.00 20.00     0.130 C 
HETATM    2  C2  UNL     1     -35.093  17.339  -0.333  1.00 20.00     0.106 C 
HETATM    3  C3  UNL     1     -32.901  17.918  -1.532  1.00 20.00     0.106 C 
HETATM    4  C8  UNL     1     -35.704  17.001  -1.681  1.00 20.00     0.242 C 
HETATM    5  C9  UNL     1     -33.566  17.565  -2.851  1.00 20.00     0.242 C 
HETATM    6  N13 UNL     1     -34.623  16.508  -2.616  1.00 20.00    -0.065 N 
HETATM    7  O14 UNL     1     -33.782  19.262   0.247  1.00 20.00    -0.298 OA
HETATM    8  H34 UNL     1     -34.164  15.704  -2.167  1.00 20.00     0.280 HD
ENDROOT
BRANCH   6   9
HETATM    9  C12 UNL     1     -35.197  16.003  -3.911  1.00 20.00     0.196 C 
BRANCH   9  10
HETATM   10  C10 UNL     1     -36.711  15.968  -3.784  1.00 20.00     0.017 A 
HETATM   11  C4  UNL     1     -37.577  16.426  -4.926  1.00 20.00     0.007 A 
HETATM   12  C5  UNL     1     -37.512  14.966  -4.570  1.00 20.00     0.007 A 
ENDBRANCH   9  10
BRANCH   9  13
HETATM   13  C11 UNL     1     -34.611  14.629  -4.195  1.00 20.00     0.017 A 
HETATM   14  C6  UNL     1     -33.906  14.360  -5.496  1.00 20.00     0.007 A 
HETATM   15  C7  UNL     1     -33.121  14.431  -4.215  1.00 20.00     0.007 A 
ENDBRANCH   9  13
ENDBRANCH   6   9
TORSDOF 3
ENDMDL
MODEL 4
REMARK VINA RESULT:      -4.1      3.482      5.442
REMARK  3 active torsions:
REMARK  status: ('A' for Active; 'I' for Inactive)
REMARK    1  A    between atoms: C10_10  and  C12_12 
REMARK    2  A    between atoms: C11_11  and  C12_12 
REMARK    3  A    between atoms: C12_12  and  N13_13 
ROOT
HETATM    1  C1  UNL     1     -34.285  18.185   0.267  1.00 20.00     0.130 C 
HETATM    2  C2  UNL     1     -33.192  18.618  -0.682  1.00 20.00     0.106 C 
HETATM    3  C3  UNL     1     -35.636  17.912  -0.351  1.00 20.00     0.106 C 
HETATM    4  C8  UNL     1     -33.118  17.685  -1.878  1.00 20.00     0.242 C 
HETATM    5  C9  UNL     1     -35.501  16.997  -1.555  1.00 20.00     0.242 C 
HETATM    6  N13 UNL     1     -34.484  17.573  -2.516  1.00 20.00    -0.065 N 
HETATM    7  O14 UNL     1     -34.114  18.161   1.485  1.00 20.00    -0.298 OA
HETATM    8  H34 UNL     1     -34.793  18.523  -2.763  1.00 20.00     0.280 HD
ENDROOT
BRANCH   6   9
HETATM    9  C12 UNL     1     -34.434  16.794  -3.801  1.00 20.00     0.196 C 
BRANCH   9  10
HETATM   10  C10 UNL     1     -33.885  15.409  -3.504  1.00 20.00     0.017 A 
HETATM   11  C4  UNL     1     -34.468  14.200  -4.183  1.00 20.00     0.007 A 
HETATM   12  C5  UNL     1     -33.087  14.672  -4.544  1.00 20.00     0.007 A 
ENDBRANCH   9  10
BRANCH   9  13
HETATM   13  C11 UNL     1     -33.568  17.556  -4.793  1.00 20.00     0.017 A 
HETATM   14  C6  UNL     1     -34.084  17.857  -6.173  1.00 20.00     0.007 A 
HETATM   15  C7  UNL     1     -33.917  18.968  -5.173  1.00 20.00     0.007 A 
ENDBRANCH   9  13
ENDBRANCH   6   9
TORSDOF 3
ENDMDL
MODEL 5
REMARK VINA RESULT:      -4.1      2.264      3.879
REMARK  3 active torsions:
REMARK  status: ('A' for Active; 'I' for Inactive)
REMARK    1  A    between atoms: C10_10  and  C12_12 
REMARK    2  A    between atoms: C11_11  and  C12_12 
REMARK    3  A    between atoms: C12_12  and  N13_13 
ROOT
HETATM    1  C1  UNL     1     -39.222  16.093  -4.905  1.00 20.00     0.130 C 
HETATM    2  C2  UNL     1     -38.419  14.831  -4.692  1.00 20.00     0.106 C 
HETATM    3  C3  UNL     1     -38.783  17.303  -4.115  1.00 20.00     0.106 C 
HETATM    4  C8  UNL     1     -36.932  15.112  -4.815  1.00 20.00     0.242 C 
HETATM    5  C9  UNL     1     -37.287  17.523  -4.253  1.00 20.00     0.242 C 
HETATM    6  N13 UNL     1     -36.555  16.249  -3.894  1.00 20.00    -0.065 N 
HETATM    7  O14 UNL     1     -40.237  16.106  -5.598  1.00 20.00    -0.298 OA
HETATM    8  H34 UNL     1     -36.838  15.986  -2.941  1.00 20.00     0.280 HD
ENDROOT
BRANCH   6   9
HETATM    9  C12 UNL     1     -35.066  16.459  -3.853  1.00 20.00     0.196 C 
BRANCH   9  10
HETATM   10  C10 UNL     1     -34.416  15.491  -4.827  1.00 20.00     0.017 A 
HETATM   11  C4  UNL     1     -33.256  15.934  -5.676  1.00 20.00     0.007 A 
HETATM   12  C5  UNL     1     -33.037  14.956  -4.555  1.00 20.00     0.007 A 
ENDBRANCH   9  10
BRANCH   9  13
HETATM   13  C11 UNL     1     -34.588  16.247  -2.425  1.00 20.00     0.017 A 
HETATM   14  C6  UNL     1     -33.864  17.346  -1.697  1.00 20.00     0.007 A 
HETATM   15  C7  UNL     1     -35.260  16.965  -1.287  1.00 20.00     0.007 A 
ENDBRANCH   9  13
ENDBRANCH   6   9
TORSDOF 3
ENDMDL
MODEL 6
REMARK VINA RESULT:      -4.1      2.093      3.516
REMARK  3 active torsions:
REMARK  status: ('A' for Active; 'I' for Inactive)
REMARK    1  A    between atoms: C10_10  and  C12_12 
REMARK    2  A    between atoms: C11_11  and  C12_12 
REMARK    3  A    between atoms: C12_12  and  N13_13 
ROOT
HETATM    1  C1  UNL     1     -38.253  16.202  -5.996  1.00 20.00     0.130 C 
HETATM    2  C2  UNL     1     -37.370  17.412  -5.797  1.00 20.00     0.106 C 
HETATM    3  C3  UNL     1     -37.580  14.857  -5.862  1.00 20.00     0.106 C 
HETATM    4  C8  UNL     1     -36.557  17.281  -4.522  1.00 20.00     0.242 C 
HETATM    5  C9  UNL     1     -36.761  14.789  -4.585  1.00 20.00     0.242 C 
HETATM    6  N13 UNL     1     -35.812  15.965  -4.531  1.00 20.00    -0.065 N 
HETATM    7  O14 UNL     1     -39.425  16.307  -6.351  1.00 20.00    -0.298 OA
HETATM    8  H34 UNL     1     -35.235  15.939  -5.382  1.00 20.00     0.280 HD
ENDROOT
BRANCH   6   9
HETATM    9  C12 UNL     1     -34.862  15.858  -3.370  1.00 20.00     0.196 C 
BRANCH   9  10
HETATM   10  C10 UNL     1     -35.043  17.080  -2.485  1.00 20.00     0.017 A 
HETATM   11  C4  UNL     1     -35.408  16.919  -1.035  1.00 20.00     0.007 A 
HETATM   12  C5  UNL     1     -34.033  17.395  -1.416  1.00 20.00     0.007 A 
ENDBRANCH   9  10
BRANCH   9  13
HETATM   13  C11 UNL     1     -33.447  15.744  -3.913  1.00 20.00     0.017 A 
HETATM   14  C6  UNL     1     -32.936  14.426  -4.427  1.00 20.00     0.007 A 
HETATM   15  C7  UNL     1     -33.214  15.550  -5.386  1.00 20.00     0.007 A 
ENDBRANCH   9  13
ENDBRANCH   6   9
TORSDOF 3
ENDMDL
MODEL 7
REMARK VINA RESULT:      -4.0      1.404      1.613
REMARK  3 active torsions:
REMARK  status: ('A' for Active; 'I' for Inactive)
REMARK    1  A    between atoms: C10_10  and  C12_12 
REMARK    2  A    between atoms: C11_11  and  C12_12 
REMARK    3  A    between atoms: C12_12  and  N13_13 
ROOT
HETATM    1  C1  UNL     1     -35.416  13.890  -5.156  1.00 20.00     0.130 C 
HETATM    2  C2  UNL     1     -36.603  14.825  -5.129  1.00 20.00     0.106 C 
HETATM    3  C3  UNL     1     -34.057  14.534  -5.021  1.00 20.00     0.106 C 
HETATM    4  C8  UNL     1     -36.513  15.775  -3.947  1.00 20.00     0.242 C 
HETATM    5  C9  UNL     1     -34.030  15.491  -3.841  1.00 20.00     0.242 C 
HETATM    6  N13 UNL     1     -35.172  16.474  -3.963  1.00 20.00    -0.065 N 
HETATM    7  O14 UNL     1     -35.544  12.688  -5.383  1.00 20.00    -0.298 OA
HETATM    8  H34 UNL     1     -35.079  16.949  -4.871  1.00 20.00     0.280 HD
ENDROOT
BRANCH   6   9
HETATM    9  C12 UNL     1     -35.095  17.547  -2.912  1.00 20.00     0.196 C 
BRANCH   9  10
HETATM   10  C10 UNL     1     -34.207  17.051  -1.783  1.00 20.00     0.017 A 
HETATM   11  C4  UNL     1     -32.972  17.818  -1.396  1.00 20.00     0.007 A 
HETATM   12  C5  UNL     1     -34.161  17.792  -0.476  1.00 20.00     0.007 A 
ENDBRANCH   9  10
BRANCH   9  13
HETATM   13  C11 UNL     1     -36.505  17.863  -2.440  1.00 20.00     0.017 A 
HETATM   14  C6  UNL     1     -36.872  19.263  -2.032  1.00 20.00     0.007 A 
HETATM   15  C7  UNL     1     -37.427  18.679  -3.302  1.00 20.00     0.007 A 
ENDBRANCH   9  13
ENDBRANCH   6   9
TORSDOF 3
ENDMDL
MODEL 8
REMARK VINA RESULT:      -4.0      2.569      4.784
REMARK  3 active torsions:
REMARK  status: ('A' for Active; 'I' for Inactive)
REMARK    1  A    between atoms: C10_10  and  C12_12 
REMARK    2  A    between atoms: C11_11  and  C12_12 
REMARK    3  A    between atoms: C12_12  and  N13_13 
ROOT
HETATM    1  C1  UNL     1     -35.330  17.161  -1.385  1.00 20.00     0.130 C 
HETATM    2  C2  UNL     1     -33.973  16.950  -2.015  1.00 20.00     0.106 C 
HETATM    3  C3  UNL     1     -36.435  17.603  -2.314  1.00 20.00     0.106 C 
HETATM    4  C8  UNL     1     -34.085  16.083  -3.256  1.00 20.00     0.242 C 
HETATM    5  C9  UNL     1     -36.486  16.719  -3.548  1.00 20.00     0.242 C 
HETATM    6  N13 UNL     1     -35.118  16.671  -4.191  1.00 20.00    -0.065 N 
HETATM    7  O14 UNL     1     -35.499  17.081  -0.170  1.00 20.00    -0.298 OA
HETATM    8  H34 UNL     1     -34.837  17.638  -4.398  1.00 20.00     0.280 HD
ENDROOT
BRANCH   6   9
HETATM    9  C12 UNL     1     -35.150  15.945  -5.508  1.00 20.00     0.196 C 
BRANCH   9  10
HETATM   10  C10 UNL     1     -34.992  14.458  -5.242  1.00 20.00     0.017 A 
HETATM   11  C4  UNL     1     -36.170  13.533  -5.388  1.00 20.00     0.007 A 
HETATM   12  C5  UNL     1     -35.042  13.477  -6.381  1.00 20.00     0.007 A 
ENDBRANCH   9  10
BRANCH   9  13
HETATM   13  C11 UNL     1     -34.039  16.494  -6.389  1.00 20.00     0.017 A 
HETATM   14  C6  UNL     1     -34.333  16.929  -7.798  1.00 20.00     0.007 A 
HETATM   15  C7  UNL     1     -34.008  17.954  -6.747  1.00 20.00     0.007 A 
ENDBRANCH   9  13
ENDBRANCH   6   9
TORSDOF 3
ENDMDL
MODEL 9
REMARK VINA RESULT:      -4.0      3.357      5.390
REMARK  3 active torsions:
REMARK  status: ('A' for Active; 'I' for Inactive)
REMARK    1  A    between atoms: C10_10  and  C12_12 
REMARK    2  A    between atoms: C11_11  and  C12_12 
REMARK    3  A    between atoms: C12_12  and  N13_13 
ROOT
HETATM    1  C1  UNL     1     -33.912  18.311   0.296  1.00 20.00     0.130 C 
HETATM    2  C2  UNL     1     -33.002  18.603  -0.874  1.00 20.00     0.106 C 
HETATM    3  C3  UNL     1     -35.356  18.020  -0.038  1.00 20.00     0.106 C 
HETATM    4  C8  UNL     1     -33.157  17.547  -1.953  1.00 20.00     0.242 C 
HETATM    5  C9  UNL     1     -35.453  16.978  -1.139  1.00 20.00     0.242 C 
HETATM    6  N13 UNL     1     -34.618  17.414  -2.322  1.00 20.00    -0.065 N 
HETATM    7  O14 UNL     1     -33.524  18.410   1.459  1.00 20.00    -0.298 OA
HETATM    8  H34 UNL     1     -34.952  18.342  -2.614  1.00 20.00     0.280 HD
ENDROOT
BRANCH   6   9
HETATM    9  C12 UNL     1     -34.811  16.502  -3.502  1.00 20.00     0.196 C 
BRANCH   9  10
HETATM   10  C10 UNL     1     -33.486  15.823  -3.808  1.00 20.00     0.017 A 
HETATM   11  C4  UNL     1     -33.461  14.423  -4.358  1.00 20.00     0.007 A 
HETATM   12  C5  UNL     1     -33.071  15.582  -5.233  1.00 20.00     0.007 A 
ENDBRANCH   9  10
BRANCH   9  13
HETATM   13  C11 UNL     1     -35.318  17.328  -4.673  1.00 20.00     0.017 A 
HETATM   14  C6  UNL     1     -36.642  17.007  -5.310  1.00 20.00     0.007 A 
HETATM   15  C7  UNL     1     -36.485  18.259  -4.493  1.00 20.00     0.007 A 
ENDBRANCH   9  13
ENDBRANCH   6   9
TORSDOF 3
ENDMDL
