MODEL 1
REMARK VINA RESULT:      -4.2      0.000      0.000
REMARK  1 active torsions:
REMARK  status: ('A' for Active; 'I' for Inactive)
REMARK    1  A    between atoms: C2_2  and  C4_4 
ROOT
HETATM    1  C1  UNL     1     -33.695   6.894   5.997  1.00 20.00     0.095 A 
HETATM    2  C3  UNL     1     -34.613   5.710   5.871  1.00 20.00     0.122 A 
HETATM    3  C4  UNL     1     -33.990   7.065   3.775  1.00 20.00     0.255 A 
HETATM    4  N5  UNL     1     -33.341   7.607   4.974  1.00 20.00    -0.280 NA
HETATM    5  S7  UNL     1     -34.994   5.610   4.121  1.00 20.00    -0.128 SA
ENDROOT
BRANCH   3   6
HETATM    6  C2  UNL     1     -32.904   6.677   2.833  1.00 20.00     0.253 C 
HETATM    7  O6  UNL     1     -32.149   7.511   2.342  1.00 20.00    -0.277 OA
HETATM    8 CL8  UNL     1     -32.867   4.964   2.545  1.00 20.00    -0.041 Cl
ENDBRANCH   3   6
TORSDOF 1
ENDMDL
MODEL 2
REMARK VINA RESULT:      -4.0      2.809      3.344
REMARK  1 active torsions:
REMARK  status: ('A' for Active; 'I' for Inactive)
REMARK    1  A    between atoms: C2_2  and  C4_4 
ROOT
HETATM    1  C1  UNL     1     -32.802   6.702   2.595  1.00 20.00     0.095 A 
HETATM    2  C3  UNL     1     -32.479   7.637   3.727  1.00 20.00     0.122 A 
HETATM    3  C4  UNL     1     -34.523   6.086   3.904  1.00 20.00     0.255 A 
HETATM    4  N5  UNL     1     -33.814   5.893   2.633  1.00 20.00    -0.280 NA
HETATM    5  S7  UNL     1     -33.740   7.316   4.961  1.00 20.00    -0.128 SA
ENDROOT
BRANCH   3   6
HETATM    6  C2  UNL     1     -34.508   4.776   4.611  1.00 20.00     0.253 C 
HETATM    7  O6  UNL     1     -34.330   3.720   4.009  1.00 20.00    -0.277 OA
HETATM    8 CL8  UNL     1     -34.767   4.950   6.320  1.00 20.00    -0.041 Cl
ENDBRANCH   3   6
TORSDOF 1
ENDMDL
MODEL 3
REMARK VINA RESULT:      -4.0      2.246      2.425
REMARK  1 active torsions:
REMARK  status: ('A' for Active; 'I' for Inactive)
REMARK    1  A    between atoms: C2_2  and  C4_4 
ROOT
HETATM    1  C1  UNL     1     -33.035   7.650   4.278  1.00 20.00     0.095 A 
HETATM    2  C3  UNL     1     -33.379   7.491   5.732  1.00 20.00     0.122 A 
HETATM    3  C4  UNL     1     -34.470   5.943   3.993  1.00 20.00     0.255 A 
HETATM    4  N5  UNL     1     -33.548   6.893   3.359  1.00 20.00    -0.280 NA
HETATM    5  S7  UNL     1     -34.538   6.124   5.784  1.00 20.00    -0.128 SA
ENDROOT
BRANCH   3   6
HETATM    6  C2  UNL     1     -33.970   4.577   3.674  1.00 20.00     0.253 C 
HETATM    7  O6  UNL     1     -34.319   3.595   4.324  1.00 20.00    -0.277 OA
HETATM    8 CL8  UNL     1     -32.879   4.577   2.322  1.00 20.00    -0.041 Cl
ENDBRANCH   3   6
TORSDOF 1
ENDMDL
MODEL 4
REMARK VINA RESULT:      -3.8      2.192      2.370
REMARK  1 active torsions:
REMARK  status: ('A' for Active; 'I' for Inactive)
REMARK    1  A    between atoms: C2_2  and  C4_4 
ROOT
HETATM    1  C1  UNL     1     -34.662   4.699   5.215  1.00 20.00     0.095 A 
HETATM    2  C3  UNL     1     -34.010   3.939   4.094  1.00 20.00     0.122 A 
HETATM    3  C4  UNL     1     -34.171   6.502   3.966  1.00 20.00     0.255 A 
HETATM    4  N5  UNL     1     -34.763   5.991   5.208  1.00 20.00    -0.280 NA
HETATM    5  S7  UNL     1     -33.488   5.198   2.929  1.00 20.00    -0.128 SA
ENDROOT
BRANCH   3   6
HETATM    6  C2  UNL     1     -33.066   7.420   4.361  1.00 20.00     0.253 C 
HETATM    7  O6  UNL     1     -32.920   7.792   5.522  1.00 20.00    -0.277 OA
HETATM    8 CL8  UNL     1     -32.071   7.866   3.008  1.00 20.00    -0.041 Cl
ENDBRANCH   3   6
TORSDOF 1
ENDMDL
MODEL 5
REMARK VINA RESULT:      -3.7      2.957      3.669
REMARK  1 active torsions:
REMARK  status: ('A' for Active; 'I' for Inactive)
REMARK    1  A    between atoms: C2_2  and  C4_4 
ROOT
HETATM    1  C1  UNL     1     -32.985   5.003   2.752  1.00 20.00     0.095 A 
HETATM    2  C3  UNL     1     -32.553   6.422   2.513  1.00 20.00     0.122 A 
HETATM    3  C4  UNL     1     -34.558   5.948   4.051  1.00 20.00     0.255 A 
HETATM    4  N5  UNL     1     -33.983   4.705   3.524  1.00 20.00    -0.280 NA
HETATM    5  S7  UNL     1     -33.678   7.416   3.493  1.00 20.00    -0.128 SA
ENDROOT
BRANCH   3   6
HETATM    6  C2  UNL     1     -34.462   5.873   5.535  1.00 20.00     0.253 C 
HETATM    7  O6  UNL     1     -34.795   4.865   6.153  1.00 20.00    -0.277 OA
HETATM    8 CL8  UNL     1     -33.846   7.343   6.226  1.00 20.00    -0.041 Cl
ENDBRANCH   3   6
TORSDOF 1
ENDMDL
MODEL 6
REMARK VINA RESULT:      -3.6     12.595     12.940
REMARK  1 active torsions:
REMARK  status: ('A' for Active; 'I' for Inactive)
REMARK    1  A    between atoms: C2_2  and  C4_4 
ROOT
HETATM    1  C1  UNL     1     -33.346  15.149  -4.229  1.00 20.00     0.095 A 
HETATM    2  C3  UNL     1     -33.510  16.400  -5.047  1.00 20.00     0.122 A 
HETATM    3  C4  UNL     1     -34.209  14.132  -6.038  1.00 20.00     0.255 A 
HETATM    4  N5  UNL     1     -33.688  13.981  -4.675  1.00 20.00    -0.280 NA
HETATM    5  S7  UNL     1     -34.232  15.845  -6.593  1.00 20.00    -0.128 SA
ENDROOT
BRANCH   3   6
HETATM    6  C2  UNL     1     -35.608  13.620  -6.026  1.00 20.00     0.253 C 
HETATM    7  O6  UNL     1     -35.968  12.747  -5.241  1.00 20.00    -0.277 OA
HETATM    8 CL8  UNL     1     -36.601  14.398  -7.221  1.00 20.00    -0.041 Cl
ENDBRANCH   3   6
TORSDOF 1
ENDMDL
MODEL 7
REMARK VINA RESULT:      -3.5     12.011     12.743
REMARK  1 active torsions:
REMARK  status: ('A' for Active; 'I' for Inactive)
REMARK    1  A    between atoms: C2_2  and  C4_4 
ROOT
HETATM    1  C1  UNL     1     -35.366  13.047  -7.004  1.00 20.00     0.095 A 
HETATM    2  C3  UNL     1     -35.520  14.403  -7.634  1.00 20.00     0.122 A 
HETATM    3  C4  UNL     1     -35.608  14.175  -5.074  1.00 20.00     0.255 A 
HETATM    4  N5  UNL     1     -35.394  12.874  -5.719  1.00 20.00    -0.280 NA
HETATM    5  S7  UNL     1     -35.713  15.531  -6.254  1.00 20.00    -0.128 SA
ENDROOT
BRANCH   3   6
HETATM    6  C2  UNL     1     -34.439  14.412  -4.182  1.00 20.00     0.253 C 
HETATM    7  O6  UNL     1     -33.426  13.721  -4.249  1.00 20.00    -0.277 OA
HETATM    8 CL8  UNL     1     -34.707  15.737  -3.091  1.00 20.00    -0.041 Cl
ENDBRANCH   3   6
TORSDOF 1
ENDMDL
MODEL 8
REMARK VINA RESULT:      -3.5     11.857     12.301
REMARK  1 active torsions:
REMARK  status: ('A' for Active; 'I' for Inactive)
REMARK    1  A    between atoms: C2_2  and  C4_4 
ROOT
HETATM    1  C1  UNL     1     -36.295  13.610  -5.692  1.00 20.00     0.095 A 
HETATM    2  C3  UNL     1     -36.725  15.048  -5.603  1.00 20.00     0.122 A 
HETATM    3  C4  UNL     1     -34.778  14.213  -4.146  1.00 20.00     0.255 A 
HETATM    4  N5  UNL     1     -35.315  13.137  -4.987  1.00 20.00    -0.280 NA
HETATM    5  S7  UNL     1     -35.614  15.787  -4.405  1.00 20.00    -0.128 SA
ENDROOT
BRANCH   3   6
HETATM    6  C2  UNL     1     -33.343  14.373  -4.513  1.00 20.00     0.253 C 
HETATM    7  O6  UNL     1     -32.491  13.567  -4.148  1.00 20.00    -0.277 OA
HETATM    8 CL8  UNL     1     -33.068  15.791  -5.478  1.00 20.00    -0.041 Cl
ENDBRANCH   3   6
TORSDOF 1
ENDMDL
MODEL 9
REMARK VINA RESULT:      -3.4     12.348     12.648
REMARK  1 active torsions:
REMARK  status: ('A' for Active; 'I' for Inactive)
REMARK    1  A    between atoms: C2_2  and  C4_4 
ROOT
HETATM    1  C1  UNL     1     -37.537  14.994  -4.465  1.00 20.00     0.095 A 
HETATM    2  C3  UNL     1     -36.385  15.813  -3.954  1.00 20.00     0.122 A 
HETATM    3  C4  UNL     1     -35.937  13.512  -5.011  1.00 20.00     0.255 A 
HETATM    4  N5  UNL     1     -37.369  13.831  -5.014  1.00 20.00    -0.280 NA
HETATM    5  S7  UNL     1     -34.929  14.826  -4.304  1.00 20.00    -0.128 SA
ENDROOT
BRANCH   3   6
HETATM    6  C2  UNL     1     -35.534  13.319  -6.432  1.00 20.00     0.253 C 
HETATM    7  O6  UNL     1     -35.122  12.238  -6.844  1.00 20.00    -0.277 OA
HETATM    8 CL8  UNL     1     -35.719  14.771  -7.368  1.00 20.00    -0.041 Cl
ENDBRANCH   3   6
TORSDOF 1
ENDMDL
