MODEL 1
REMARK VINA RESULT:      -4.9      0.000      0.000
REMARK  2 active torsions:
REMARK  status: ('A' for Active; 'I' for Inactive)
REMARK    1  A    between atoms: C4_4  and  C5_5 
REMARK    2  A    between atoms: C5_5  and  C6_6 
ROOT
HETATM    1  C1  UNL     1     -34.204   5.049   4.117  1.00 20.00     0.033 C 
HETATM    2  C2  UNL     1     -34.783   5.179   5.510  1.00 20.00     0.168 C 
HETATM    3  C3  UNL     1     -33.637   7.144   5.006  1.00 20.00     0.172 C 
HETATM    4  C4  UNL     1     -34.074   6.499   3.702  1.00 20.00     0.012 C 
HETATM    5  O7  UNL     1     -34.273   6.402   6.059  1.00 20.00    -0.391 OA
ENDROOT
BRANCH   4   6
HETATM    6  C5  UNL     1     -33.113   6.733   2.552  1.00 20.00     0.017 C 
BRANCH   6   7
HETATM    7  C6  UNL     1     -32.224   7.937   2.811  1.00 20.00     0.085 C 
HETATM    8 BR8  UNL     1     -32.245   9.121   1.266  1.00 20.00    -0.096 Br
ENDBRANCH   6   7
ENDBRANCH   4   6
TORSDOF 2
ENDMDL
MODEL 2
REMARK VINA RESULT:      -4.8      0.859      1.070
REMARK  2 active torsions:
REMARK  status: ('A' for Active; 'I' for Inactive)
REMARK    1  A    between atoms: C4_4  and  C5_5 
REMARK    2  A    between atoms: C5_5  and  C6_6 
ROOT
HETATM    1  C1  UNL     1     -33.788   5.916   3.311  1.00 20.00     0.033 C 
HETATM    2  C2  UNL     1     -34.842   5.432   4.285  1.00 20.00     0.168 C 
HETATM    3  C3  UNL     1     -33.642   7.153   5.299  1.00 20.00     0.172 C 
HETATM    4  C4  UNL     1     -33.551   7.331   3.794  1.00 20.00     0.012 C 
HETATM    5  O7  UNL     1     -34.602   6.109   5.527  1.00 20.00    -0.391 OA
ENDROOT
BRANCH   4   6
HETATM    6  C5  UNL     1     -32.241   7.937   3.327  1.00 20.00     0.017 C 
BRANCH   6   7
HETATM    7  C6  UNL     1     -32.187   8.038   1.813  1.00 20.00     0.085 C 
HETATM    8 BR8  UNL     1     -32.546   9.869   1.258  1.00 20.00    -0.096 Br
ENDBRANCH   6   7
ENDBRANCH   4   6
TORSDOF 2
ENDMDL
MODEL 3
REMARK VINA RESULT:      -4.7      0.940      1.488
REMARK  2 active torsions:
REMARK  status: ('A' for Active; 'I' for Inactive)
REMARK    1  A    between atoms: C4_4  and  C5_5 
REMARK    2  A    between atoms: C5_5  and  C6_6 
ROOT
HETATM    1  C1  UNL     1     -33.493   7.471   4.794  1.00 20.00     0.033 C 
HETATM    2  C2  UNL     1     -34.141   6.554   5.810  1.00 20.00     0.168 C 
HETATM    3  C3  UNL     1     -34.529   5.683   3.683  1.00 20.00     0.172 C 
HETATM    4  C4  UNL     1     -33.270   6.530   3.629  1.00 20.00     0.012 C 
HETATM    5  O7  UNL     1     -34.888   5.577   5.070  1.00 20.00    -0.391 OA
ENDROOT
BRANCH   4   6
HETATM    6  C5  UNL     1     -33.057   7.226   2.299  1.00 20.00     0.017 C 
BRANCH   6   7
HETATM    7  C6  UNL     1     -32.025   8.335   2.414  1.00 20.00     0.085 C 
HETATM    8 BR8  UNL     1     -32.434   9.754   1.146  1.00 20.00    -0.096 Br
ENDBRANCH   6   7
ENDBRANCH   4   6
TORSDOF 2
ENDMDL
MODEL 4
REMARK VINA RESULT:      -4.0      2.789      3.831
REMARK  2 active torsions:
REMARK  status: ('A' for Active; 'I' for Inactive)
REMARK    1  A    between atoms: C4_4  and  C5_5 
REMARK    2  A    between atoms: C5_5  and  C6_6 
ROOT
HETATM    1  C1  UNL     1     -32.442   7.859   2.038  1.00 20.00     0.033 C 
HETATM    2  C2  UNL     1     -31.403   8.580   2.871  1.00 20.00     0.168 C 
HETATM    3  C3  UNL     1     -32.845   7.456   4.314  1.00 20.00     0.172 C 
HETATM    4  C4  UNL     1     -32.863   6.744   2.972  1.00 20.00     0.012 C 
HETATM    5  O7  UNL     1     -31.792   8.430   4.244  1.00 20.00    -0.391 OA
ENDROOT
BRANCH   4   6
HETATM    6  C5  UNL     1     -34.201   6.117   2.630  1.00 20.00     0.017 C 
BRANCH   6   7
HETATM    7  C6  UNL     1     -35.045   5.902   3.875  1.00 20.00     0.085 C 
HETATM    8 BR8  UNL     1     -34.431   4.319   4.825  1.00 20.00    -0.096 Br
ENDBRANCH   6   7
ENDBRANCH   4   6
TORSDOF 2
ENDMDL
MODEL 5
REMARK VINA RESULT:      -3.7      3.504      4.961
REMARK  2 active torsions:
REMARK  status: ('A' for Active; 'I' for Inactive)
REMARK    1  A    between atoms: C4_4  and  C5_5 
REMARK    2  A    between atoms: C5_5  and  C6_6 
ROOT
HETATM    1  C1  UNL     1     -32.924   9.849   2.052  1.00 20.00     0.033 C 
HETATM    2  C2  UNL     1     -32.668  10.254   0.615  1.00 20.00     0.168 C 
HETATM    3  C3  UNL     1     -31.441   8.324   1.063  1.00 20.00     0.172 C 
HETATM    4  C4  UNL     1     -32.627   8.365   2.010  1.00 20.00     0.012 C 
HETATM    5  O7  UNL     1     -31.640   9.386   0.116  1.00 20.00    -0.391 OA
ENDROOT
BRANCH   4   6
HETATM    6  C5  UNL     1     -32.348   7.748   3.367  1.00 20.00     0.017 C 
BRANCH   6   7
HETATM    7  C6  UNL     1     -33.515   6.896   3.837  1.00 20.00     0.085 C 
HETATM    8 BR8  UNL     1     -33.800   7.158   5.744  1.00 20.00    -0.096 Br
ENDBRANCH   6   7
ENDBRANCH   4   6
TORSDOF 2
ENDMDL
MODEL 6
REMARK VINA RESULT:      -3.5     11.617     11.996
REMARK  2 active torsions:
REMARK  status: ('A' for Active; 'I' for Inactive)
REMARK    1  A    between atoms: C4_4  and  C5_5 
REMARK    2  A    between atoms: C5_5  and  C6_6 
ROOT
HETATM    1  C1  UNL     1     -35.415  15.333  -4.130  1.00 20.00     0.033 C 
HETATM    2  C2  UNL     1     -35.261  13.941  -4.705  1.00 20.00     0.168 C 
HETATM    3  C3  UNL     1     -33.145  14.901  -4.535  1.00 20.00     0.172 C 
HETATM    4  C4  UNL     1     -34.052  15.562  -3.512  1.00 20.00     0.012 C 
HETATM    5  O7  UNL     1     -33.884  13.795  -5.078  1.00 20.00    -0.391 OA
ENDROOT
BRANCH   4   6
HETATM    6  C5  UNL     1     -33.722  17.019  -3.253  1.00 20.00     0.017 C 
BRANCH   6   7
HETATM    7  C6  UNL     1     -33.552  17.292  -1.769  1.00 20.00     0.085 C 
HETATM    8 BR8  UNL     1     -35.287  17.255  -0.887  1.00 20.00    -0.096 Br
ENDBRANCH   6   7
ENDBRANCH   4   6
TORSDOF 2
ENDMDL
MODEL 7
REMARK VINA RESULT:      -3.5     11.377     12.353
REMARK  2 active torsions:
REMARK  status: ('A' for Active; 'I' for Inactive)
REMARK    1  A    between atoms: C4_4  and  C5_5 
REMARK    2  A    between atoms: C5_5  and  C6_6 
ROOT
HETATM    1  C1  UNL     1     -34.332  13.995  -6.734  1.00 20.00     0.033 C 
HETATM    2  C2  UNL     1     -35.546  13.090  -6.691  1.00 20.00     0.168 C 
HETATM    3  C3  UNL     1     -35.074  13.788  -4.518  1.00 20.00     0.172 C 
HETATM    4  C4  UNL     1     -34.523  14.824  -5.482  1.00 20.00     0.012 C 
HETATM    5  O7  UNL     1     -35.854  12.875  -5.306  1.00 20.00    -0.391 OA
ENDROOT
BRANCH   4   6
HETATM    6  C5  UNL     1     -33.261  15.508  -4.990  1.00 20.00     0.017 C 
BRANCH   6   7
HETATM    7  C6  UNL     1     -33.554  16.910  -4.485  1.00 20.00     0.085 C 
HETATM    8 BR8  UNL     1     -33.789  16.882  -2.553  1.00 20.00    -0.096 Br
ENDBRANCH   6   7
ENDBRANCH   4   6
TORSDOF 2
ENDMDL
MODEL 8
REMARK VINA RESULT:      -3.4     11.580     12.040
REMARK  2 active torsions:
REMARK  status: ('A' for Active; 'I' for Inactive)
REMARK    1  A    between atoms: C4_4  and  C5_5 
REMARK    2  A    between atoms: C5_5  and  C6_6 
ROOT
HETATM    1  C1  UNL     1     -35.035  14.041  -4.426  1.00 20.00     0.033 C 
HETATM    2  C2  UNL     1     -35.980  13.369  -5.400  1.00 20.00     0.168 C 
HETATM    3  C3  UNL     1     -37.142  15.063  -4.301  1.00 20.00     0.172 C 
HETATM    4  C4  UNL     1     -35.664  15.410  -4.283  1.00 20.00     0.012 C 
HETATM    5  O7  UNL     1     -37.282  13.925  -5.166  1.00 20.00    -0.391 OA
ENDROOT
BRANCH   4   6
HETATM    6  C5  UNL     1     -35.228  16.168  -3.044  1.00 20.00     0.017 C 
BRANCH   6   7
HETATM    7  C6  UNL     1     -33.745  16.496  -3.089  1.00 20.00     0.085 C 
HETATM    8 BR8  UNL     1     -33.292  17.719  -1.644  1.00 20.00    -0.096 Br
ENDBRANCH   6   7
ENDBRANCH   4   6
TORSDOF 2
ENDMDL
MODEL 9
REMARK VINA RESULT:      -3.3     11.473     12.422
REMARK  2 active torsions:
REMARK  status: ('A' for Active; 'I' for Inactive)
REMARK    1  A    between atoms: C4_4  and  C5_5 
REMARK    2  A    between atoms: C5_5  and  C6_6 
ROOT
HETATM    1  C1  UNL     1     -33.440  16.188  -5.188  1.00 20.00     0.033 C 
HETATM    2  C2  UNL     1     -33.713  15.104  -6.209  1.00 20.00     0.168 C 
HETATM    3  C3  UNL     1     -34.286  14.288  -4.103  1.00 20.00     0.172 C 
HETATM    4  C4  UNL     1     -34.387  15.803  -4.071  1.00 20.00     0.012 C 
HETATM    5  O7  UNL     1     -34.073  13.924  -5.476  1.00 20.00    -0.391 OA
ENDROOT
BRANCH   4   6
HETATM    6  C5  UNL     1     -34.042  16.410  -2.725  1.00 20.00     0.017 C 
BRANCH   6   7
HETATM    7  C6  UNL     1     -35.293  16.719  -1.921  1.00 20.00     0.085 C 
HETATM    8 BR8  UNL     1     -34.825  17.746  -0.336  1.00 20.00    -0.096 Br
ENDBRANCH   6   7
ENDBRANCH   4   6
TORSDOF 2
ENDMDL
