MODEL 1
REMARK VINA RESULT:      -5.2      0.000      0.000
REMARK  2 active torsions:
REMARK  status: ('A' for Active; 'I' for Inactive)
REMARK    1  A    between atoms: C2_2  and  C6_6 
REMARK       I    between atoms: C2_2  and  N7_7 
REMARK    2  A    between atoms: C5_5  and  C6_6 
ROOT
HETATM    1  C1  UNL     1     -33.835   5.570   3.516  1.00 20.00     0.166 C 
HETATM    2  C2  UNL     1     -32.625   7.379   3.241  1.00 20.00     0.244 C 
HETATM    3  N7  UNL     1     -33.299   6.277   2.747  1.00 20.00    -0.199 NA
HETATM    4  O8  UNL     1     -32.523   7.705   4.423  1.00 20.00    -0.271 OA
HETATM    5  S9  UNL     1     -34.575   4.587   4.528  1.00 20.00    -0.055 SA
ENDROOT
BRANCH   2   6
HETATM    6  C6  UNL     1     -31.985   8.196   2.130  1.00 20.00     0.109 C 
BRANCH   6   7
HETATM    7  C5  UNL     1     -32.927   9.114   1.431  1.00 20.00    -0.006 A 
HETATM    8  C3  UNL     1     -32.473  10.481   1.000  1.00 20.00     0.005 A 
HETATM    9  C4  UNL     1     -32.741   9.419  -0.030  1.00 20.00     0.005 A 
ENDBRANCH   6   7
ENDBRANCH   2   6
TORSDOF 2
ENDMDL
MODEL 2
REMARK VINA RESULT:      -4.9      1.324      1.324
REMARK  2 active torsions:
REMARK  status: ('A' for Active; 'I' for Inactive)
REMARK    1  A    between atoms: C2_2  and  C6_6 
REMARK       I    between atoms: C2_2  and  N7_7 
REMARK    2  A    between atoms: C5_5  and  C6_6 
ROOT
HETATM    1  C1  UNL     1     -33.920   6.437   4.914  1.00 20.00     0.166 C 
HETATM    2  C2  UNL     1     -32.724   7.040   3.177  1.00 20.00     0.244 C 
HETATM    3  N7  UNL     1     -33.359   7.316   4.374  1.00 20.00    -0.199 NA
HETATM    4  O8  UNL     1     -32.683   5.952   2.604  1.00 20.00    -0.271 OA
HETATM    5  S9  UNL     1     -34.692   5.271   5.677  1.00 20.00    -0.055 SA
ENDROOT
BRANCH   2   6
HETATM    6  C6  UNL     1     -32.044   8.271   2.600  1.00 20.00     0.109 C 
BRANCH   6   7
HETATM    7  C5  UNL     1     -32.765   8.880   1.448  1.00 20.00    -0.006 A 
HETATM    8  C3  UNL     1     -32.641  10.352   1.168  1.00 20.00     0.005 A 
HETATM    9  C4  UNL     1     -32.002   9.355   0.242  1.00 20.00     0.005 A 
ENDBRANCH   6   7
ENDBRANCH   2   6
TORSDOF 2
ENDMDL
MODEL 3
REMARK VINA RESULT:      -4.8      2.856      4.971
REMARK  2 active torsions:
REMARK  status: ('A' for Active; 'I' for Inactive)
REMARK    1  A    between atoms: C2_2  and  C6_6 
REMARK       I    between atoms: C2_2  and  N7_7 
REMARK    2  A    between atoms: C5_5  and  C6_6 
ROOT
HETATM    1  C1  UNL     1     -32.267   8.641   1.905  1.00 20.00     0.166 C 
HETATM    2  C2  UNL     1     -33.298   7.125   3.111  1.00 20.00     0.244 C 
HETATM    3  N7  UNL     1     -32.559   8.288   2.987  1.00 20.00    -0.199 NA
HETATM    4  O8  UNL     1     -33.690   6.406   2.193  1.00 20.00    -0.271 OA
HETATM    5  S9  UNL     1     -31.851   9.153   0.455  1.00 20.00    -0.055 SA
ENDROOT
BRANCH   2   6
HETATM    6  C6  UNL     1     -33.598   6.798   4.564  1.00 20.00     0.109 C 
BRANCH   6   7
HETATM    7  C5  UNL     1     -34.690   5.802   4.750  1.00 20.00    -0.006 A 
HETATM    8  C3  UNL     1     -34.417   4.335   4.570  1.00 20.00     0.005 A 
HETATM    9  C4  UNL     1     -34.685   4.885   5.942  1.00 20.00     0.005 A 
ENDBRANCH   6   7
ENDBRANCH   2   6
TORSDOF 2
ENDMDL
MODEL 4
REMARK VINA RESULT:      -3.8     10.931     11.332
REMARK  2 active torsions:
REMARK  status: ('A' for Active; 'I' for Inactive)
REMARK    1  A    between atoms: C2_2  and  C6_6 
REMARK       I    between atoms: C2_2  and  N7_7 
REMARK    2  A    between atoms: C5_5  and  C6_6 
ROOT
HETATM    1  C1  UNL     1     -32.410  18.998   1.740  1.00 20.00     0.166 C 
HETATM    2  C2  UNL     1     -32.328  18.454  -0.384  1.00 20.00     0.244 C 
HETATM    3  N7  UNL     1     -33.023  18.819   0.754  1.00 20.00    -0.199 NA
HETATM    4  O8  UNL     1     -31.111  18.294  -0.478  1.00 20.00    -0.271 OA
HETATM    5  S9  UNL     1     -31.614  19.250   3.097  1.00 20.00    -0.055 SA
ENDROOT
BRANCH   2   6
HETATM    6  C6  UNL     1     -33.252  18.259  -1.574  1.00 20.00     0.109 C 
BRANCH   6   7
HETATM    7  C5  UNL     1     -34.108  17.043  -1.486  1.00 20.00    -0.006 A 
HETATM    8  C3  UNL     1     -35.535  17.085  -1.959  1.00 20.00     0.005 A 
HETATM    9  C4  UNL     1     -34.509  16.307  -2.735  1.00 20.00     0.005 A 
ENDBRANCH   6   7
ENDBRANCH   2   6
TORSDOF 2
ENDMDL
MODEL 5
REMARK VINA RESULT:      -3.7     10.447     10.784
REMARK  2 active torsions:
REMARK  status: ('A' for Active; 'I' for Inactive)
REMARK    1  A    between atoms: C2_2  and  C6_6 
REMARK       I    between atoms: C2_2  and  N7_7 
REMARK    2  A    between atoms: C5_5  and  C6_6 
ROOT
HETATM    1  C1  UNL     1     -36.846  15.202  -4.650  1.00 20.00     0.166 C 
HETATM    2  C2  UNL     1     -34.770  14.944  -3.988  1.00 20.00     0.244 C 
HETATM    3  N7  UNL     1     -35.887  15.726  -4.220  1.00 20.00    -0.199 NA
HETATM    4  O8  UNL     1     -34.670  13.734  -4.188  1.00 20.00    -0.271 OA
HETATM    5  S9  UNL     1     -38.166  14.527  -5.234  1.00 20.00    -0.055 SA
ENDROOT
BRANCH   2   6
HETATM    6  C6  UNL     1     -33.613  15.759  -3.433  1.00 20.00     0.109 C 
BRANCH   6   7
HETATM    7  C5  UNL     1     -34.024  17.040  -2.795  1.00 20.00    -0.006 A 
HETATM    8  C3  UNL     1     -34.411  17.074  -1.342  1.00 20.00     0.005 A 
HETATM    9  C4  UNL     1     -33.125  17.708  -1.791  1.00 20.00     0.005 A 
ENDBRANCH   6   7
ENDBRANCH   2   6
TORSDOF 2
ENDMDL
MODEL 6
REMARK VINA RESULT:      -3.7     10.715     11.137
REMARK  2 active torsions:
REMARK  status: ('A' for Active; 'I' for Inactive)
REMARK    1  A    between atoms: C2_2  and  C6_6 
REMARK       I    between atoms: C2_2  and  N7_7 
REMARK    2  A    between atoms: C5_5  and  C6_6 
ROOT
HETATM    1  C1  UNL     1     -34.594  14.838  -6.430  1.00 20.00     0.166 C 
HETATM    2  C2  UNL     1     -34.658  14.899  -4.238  1.00 20.00     0.244 C 
HETATM    3  N7  UNL     1     -34.737  15.508  -5.476  1.00 20.00    -0.199 NA
HETATM    4  O8  UNL     1     -34.449  13.705  -4.022  1.00 20.00    -0.271 OA
HETATM    5  S9  UNL     1     -34.405  13.962  -7.747  1.00 20.00    -0.055 SA
ENDROOT
BRANCH   2   6
HETATM    6  C6  UNL     1     -34.863  15.890  -3.104  1.00 20.00     0.109 C 
BRANCH   6   7
HETATM    7  C5  UNL     1     -33.621  16.598  -2.684  1.00 20.00    -0.006 A 
HETATM    8  C3  UNL     1     -33.513  18.090  -2.831  1.00 20.00     0.005 A 
HETATM    9  C4  UNL     1     -33.628  17.477  -1.464  1.00 20.00     0.005 A 
ENDBRANCH   6   7
ENDBRANCH   2   6
TORSDOF 2
ENDMDL
MODEL 7
REMARK VINA RESULT:      -3.5     10.387     10.735
REMARK  2 active torsions:
REMARK  status: ('A' for Active; 'I' for Inactive)
REMARK    1  A    between atoms: C2_2  and  C6_6 
REMARK       I    between atoms: C2_2  and  N7_7 
REMARK    2  A    between atoms: C5_5  and  C6_6 
ROOT
HETATM    1  C1  UNL     1     -35.104  14.307  -4.513  1.00 20.00     0.166 C 
HETATM    2  C2  UNL     1     -34.985  16.073  -3.216  1.00 20.00     0.244 C 
HETATM    3  N7  UNL     1     -34.462  14.900  -3.728  1.00 20.00    -0.199 NA
HETATM    4  O8  UNL     1     -36.073  16.574  -3.500  1.00 20.00    -0.271 OA
HETATM    5  S9  UNL     1     -35.946  13.476  -5.581  1.00 20.00    -0.055 SA
ENDROOT
BRANCH   2   6
HETATM    6  C6  UNL     1     -34.044  16.724  -2.216  1.00 20.00     0.109 C 
BRANCH   6   7
HETATM    7  C5  UNL     1     -34.682  17.776  -1.377  1.00 20.00    -0.006 A 
HETATM    8  C3  UNL     1     -35.454  17.397  -0.143  1.00 20.00     0.005 A 
HETATM    9  C4  UNL     1     -34.129  18.096  -0.015  1.00 20.00     0.005 A 
ENDBRANCH   6   7
ENDBRANCH   2   6
TORSDOF 2
ENDMDL
MODEL 8
REMARK VINA RESULT:      -3.5     10.526     10.943
REMARK  2 active torsions:
REMARK  status: ('A' for Active; 'I' for Inactive)
REMARK    1  A    between atoms: C2_2  and  C6_6 
REMARK       I    between atoms: C2_2  and  N7_7 
REMARK    2  A    between atoms: C5_5  and  C6_6 
ROOT
HETATM    1  C1  UNL     1     -33.048  18.173  -0.754  1.00 20.00     0.166 C 
HETATM    2  C2  UNL     1     -34.534  16.890  -1.734  1.00 20.00     0.244 C 
HETATM    3  N7  UNL     1     -33.296  17.504  -1.687  1.00 20.00    -0.199 NA
HETATM    4  O8  UNL     1     -35.423  16.970  -0.886  1.00 20.00    -0.271 OA
HETATM    5  S9  UNL     1     -32.675  19.088   0.496  1.00 20.00    -0.055 SA
ENDROOT
BRANCH   2   6
HETATM    6  C6  UNL     1     -34.708  16.061  -2.996  1.00 20.00     0.109 C 
BRANCH   6   7
HETATM    7  C5  UNL     1     -33.441  15.807  -3.735  1.00 20.00    -0.006 A 
HETATM    8  C3  UNL     1     -33.248  14.521  -4.491  1.00 20.00     0.005 A 
HETATM    9  C4  UNL     1     -33.428  15.812  -5.239  1.00 20.00     0.005 A 
ENDBRANCH   6   7
ENDBRANCH   2   6
TORSDOF 2
ENDMDL
MODEL 9
REMARK VINA RESULT:      -3.5     10.111     10.592
REMARK  2 active torsions:
REMARK  status: ('A' for Active; 'I' for Inactive)
REMARK    1  A    between atoms: C2_2  and  C6_6 
REMARK       I    between atoms: C2_2  and  N7_7 
REMARK    2  A    between atoms: C5_5  and  C6_6 
ROOT
HETATM    1  C1  UNL     1     -35.402  17.319  -0.280  1.00 20.00     0.166 C 
HETATM    2  C2  UNL     1     -33.883  17.084  -1.845  1.00 20.00     0.244 C 
HETATM    3  N7  UNL     1     -35.146  16.860  -1.331  1.00 20.00    -0.199 NA
HETATM    4  O8  UNL     1     -32.978  17.725  -1.311  1.00 20.00    -0.271 OA
HETATM    5  S9  UNL     1     -35.787  17.926   1.142  1.00 20.00    -0.055 SA
ENDROOT
BRANCH   2   6
HETATM    6  C6  UNL     1     -33.701  16.431  -3.206  1.00 20.00     0.109 C 
BRANCH   6   7
HETATM    7  C5  UNL     1     -34.802  15.503  -3.586  1.00 20.00    -0.006 A 
HETATM    8  C3  UNL     1     -35.084  15.214  -5.034  1.00 20.00     0.005 A 
HETATM    9  C4  UNL     1     -34.487  14.148  -4.158  1.00 20.00     0.005 A 
ENDBRANCH   6   7
ENDBRANCH   2   6
TORSDOF 2
ENDMDL
