MODEL 1
REMARK VINA RESULT:      -5.6      0.000      0.000
REMARK  2 active torsions:
REMARK  status: ('A' for Active; 'I' for Inactive)
REMARK    1  A    between atoms: C4_4  and  C8_8 
REMARK    2  A    between atoms: C8_8  and  C9_9 
ROOT
HETATM    1  C1  UNL     1     -33.987   5.095   3.283  1.00 20.00     0.002 C 
HETATM    2  C2  UNL     1     -32.646   5.803   3.067  1.00 20.00     0.006 C 
HETATM    3  C3  UNL     1     -34.971   6.161   3.762  1.00 20.00     0.020 C 
HETATM    4  C4  UNL     1     -32.904   7.297   3.304  1.00 20.00     0.004 C 
HETATM    5  C5  UNL     1     -34.106   7.316   4.256  1.00 20.00     0.086 C 
HETATM    6 CL10 UNL     1     -33.578   7.010   5.940  1.00 20.00    -0.125 Cl
ENDROOT
BRANCH   4   7
HETATM    7  C8  UNL     1     -33.205   8.022   1.992  1.00 20.00     0.010 C 
BRANCH   7   8
HETATM    8  C9  UNL     1     -32.177   9.113   1.640  1.00 20.00    -0.022 C 
HETATM    9  C6  UNL     1     -31.229   8.680   0.522  1.00 20.00     0.009 C 
HETATM   10  C7  UNL     1     -32.901  10.400   1.235  1.00 20.00     0.009 C 
ENDBRANCH   7   8
ENDBRANCH   4   7
TORSDOF 2
ENDMDL
MODEL 2
REMARK VINA RESULT:      -4.5      1.800      2.448
REMARK  2 active torsions:
REMARK  status: ('A' for Active; 'I' for Inactive)
REMARK    1  A    between atoms: C4_4  and  C8_8 
REMARK    2  A    between atoms: C8_8  and  C9_9 
ROOT
HETATM    1  C1  UNL     1     -34.333   5.602   5.731  1.00 20.00     0.002 C 
HETATM    2  C2  UNL     1     -33.965   7.001   5.231  1.00 20.00     0.006 C 
HETATM    3  C3  UNL     1     -34.597   4.750   4.490  1.00 20.00     0.020 C 
HETATM    4  C4  UNL     1     -33.898   6.910   3.701  1.00 20.00     0.004 C 
HETATM    5  C5  UNL     1     -34.838   5.748   3.361  1.00 20.00     0.086 C 
HETATM    6 CL10 UNL     1     -36.544   6.294   3.379  1.00 20.00    -0.125 Cl
ENDROOT
BRANCH   4   7
HETATM    7  C8  UNL     1     -32.469   6.644   3.225  1.00 20.00     0.010 C 
BRANCH   7   8
HETATM    8  C9  UNL     1     -31.751   7.901   2.700  1.00 20.00    -0.022 C 
HETATM    9  C6  UNL     1     -32.614   8.700   1.723  1.00 20.00     0.009 C 
HETATM   10  C7  UNL     1     -31.337   8.793   3.873  1.00 20.00     0.009 C 
ENDBRANCH   7   8
ENDBRANCH   4   7
TORSDOF 2
ENDMDL
MODEL 3
REMARK VINA RESULT:      -4.3     10.602     11.310
REMARK  2 active torsions:
REMARK  status: ('A' for Active; 'I' for Inactive)
REMARK    1  A    between atoms: C4_4  and  C8_8 
REMARK    2  A    between atoms: C8_8  and  C9_9 
ROOT
HETATM    1  C1  UNL     1     -33.325  15.491  -5.684  1.00 20.00     0.002 C 
HETATM    2  C2  UNL     1     -33.261  15.143  -4.195  1.00 20.00     0.006 C 
HETATM    3  C3  UNL     1     -34.791  15.783  -6.001  1.00 20.00     0.020 C 
HETATM    4  C4  UNL     1     -34.674  15.360  -3.638  1.00 20.00     0.004 C 
HETATM    5  C5  UNL     1     -35.582  15.158  -4.857  1.00 20.00     0.086 C 
HETATM    6 CL10 UNL     1     -35.837  13.413  -5.168  1.00 20.00    -0.125 Cl
ENDROOT
BRANCH   4   7
HETATM    7  C8  UNL     1     -34.825  16.759  -3.041  1.00 20.00     0.010 C 
BRANCH   7   8
HETATM    8  C9  UNL     1     -34.239  16.891  -1.623  1.00 20.00    -0.022 C 
HETATM    9  C6  UNL     1     -33.072  17.878  -1.565  1.00 20.00     0.009 C 
HETATM   10  C7  UNL     1     -35.333  17.326  -0.646  1.00 20.00     0.009 C 
ENDBRANCH   7   8
ENDBRANCH   4   7
TORSDOF 2
ENDMDL
MODEL 4
REMARK VINA RESULT:      -4.2     10.618     11.472
REMARK  2 active torsions:
REMARK  status: ('A' for Active; 'I' for Inactive)
REMARK    1  A    between atoms: C4_4  and  C8_8 
REMARK    2  A    between atoms: C8_8  and  C9_9 
ROOT
HETATM    1  C1  UNL     1     -34.695  14.202  -4.252  1.00 20.00     0.002 C 
HETATM    2  C2  UNL     1     -35.350  15.508  -3.795  1.00 20.00     0.006 C 
HETATM    3  C3  UNL     1     -33.246  14.538  -4.602  1.00 20.00     0.020 C 
HETATM    4  C4  UNL     1     -34.236  16.563  -3.768  1.00 20.00     0.004 C 
HETATM    5  C5  UNL     1     -33.220  16.051  -4.795  1.00 20.00     0.086 C 
HETATM    6 CL10 UNL     1     -33.744  16.466  -6.457  1.00 20.00    -0.125 Cl
ENDROOT
BRANCH   4   7
HETATM    7  C8  UNL     1     -33.622  16.683  -2.372  1.00 20.00     0.010 C 
BRANCH   7   8
HETATM    8  C9  UNL     1     -34.264  17.785  -1.509  1.00 20.00    -0.022 C 
HETATM    9  C6  UNL     1     -35.354  17.240  -0.585  1.00 20.00     0.009 C 
HETATM   10  C7  UNL     1     -33.188  18.490  -0.679  1.00 20.00     0.009 C 
ENDBRANCH   7   8
ENDBRANCH   4   7
TORSDOF 2
ENDMDL
MODEL 5
REMARK VINA RESULT:      -4.1      2.355      4.383
REMARK  2 active torsions:
REMARK  status: ('A' for Active; 'I' for Inactive)
REMARK    1  A    between atoms: C4_4  and  C8_8 
REMARK    2  A    between atoms: C8_8  and  C9_9 
ROOT
HETATM    1  C1  UNL     1     -31.101   8.378   3.308  1.00 20.00     0.002 C 
HETATM    2  C2  UNL     1     -31.767   7.069   2.876  1.00 20.00     0.006 C 
HETATM    3  C3  UNL     1     -32.028   9.508   2.861  1.00 20.00     0.020 C 
HETATM    4  C4  UNL     1     -33.134   7.451   2.294  1.00 20.00     0.004 C 
HETATM    5  C5  UNL     1     -32.934   8.889   1.802  1.00 20.00     0.086 C 
HETATM    6 CL10 UNL     1     -32.113   8.900   0.210  1.00 20.00    -0.125 Cl
ENDROOT
BRANCH   4   7
HETATM    7  C8  UNL     1     -34.232   7.359   3.354  1.00 20.00     0.010 C 
BRANCH   7   8
HETATM    8  C9  UNL     1     -33.856   6.473   4.556  1.00 20.00    -0.022 C 
HETATM    9  C6  UNL     1     -33.811   7.259   5.867  1.00 20.00     0.009 C 
HETATM   10  C7  UNL     1     -34.850   5.316   4.681  1.00 20.00     0.009 C 
ENDBRANCH   7   8
ENDBRANCH   4   7
TORSDOF 2
ENDMDL
MODEL 6
REMARK VINA RESULT:      -4.1      2.280      4.401
REMARK  2 active torsions:
REMARK  status: ('A' for Active; 'I' for Inactive)
REMARK    1  A    between atoms: C4_4  and  C8_8 
REMARK    2  A    between atoms: C8_8  and  C9_9 
ROOT
HETATM    1  C1  UNL     1     -31.753   9.856   3.039  1.00 20.00     0.002 C 
HETATM    2  C2  UNL     1     -31.505   8.400   3.443  1.00 20.00     0.006 C 
HETATM    3  C3  UNL     1     -32.721   9.823   1.857  1.00 20.00     0.020 C 
HETATM    4  C4  UNL     1     -32.433   7.546   2.569  1.00 20.00     0.004 C 
HETATM    5  C5  UNL     1     -32.644   8.400   1.314  1.00 20.00     0.086 C 
HETATM    6 CL10 UNL     1     -31.247   8.242   0.205  1.00 20.00    -0.125 Cl
ENDROOT
BRANCH   4   7
HETATM    7  C8  UNL     1     -33.751   7.251   3.286  1.00 20.00     0.010 C 
BRANCH   7   8
HETATM    8  C9  UNL     1     -34.194   5.780   3.182  1.00 20.00    -0.022 C 
HETATM    9  C6  UNL     1     -33.064   4.864   2.711  1.00 20.00     0.009 C 
HETATM   10  C7  UNL     1     -34.720   5.298   4.536  1.00 20.00     0.009 C 
ENDBRANCH   7   8
ENDBRANCH   4   7
TORSDOF 2
ENDMDL
MODEL 7
REMARK VINA RESULT:      -4.0     10.342     11.504
REMARK  2 active torsions:
REMARK  status: ('A' for Active; 'I' for Inactive)
REMARK    1  A    between atoms: C4_4  and  C8_8 
REMARK    2  A    between atoms: C8_8  and  C9_9 
ROOT
HETATM    1  C1  UNL     1     -35.504  18.605  -1.138  1.00 20.00     0.002 C 
HETATM    2  C2  UNL     1     -35.206  17.105  -1.068  1.00 20.00     0.006 C 
HETATM    3  C3  UNL     1     -34.446  19.217  -2.055  1.00 20.00     0.020 C 
HETATM    4  C4  UNL     1     -34.052  16.847  -2.046  1.00 20.00     0.004 C 
HETATM    5  C5  UNL     1     -33.319  18.192  -2.111  1.00 20.00     0.086 C 
HETATM    6 CL10 UNL     1     -32.240  18.387  -0.695  1.00 20.00    -0.125 Cl
ENDROOT
BRANCH   4   7
HETATM    7  C8  UNL     1     -34.576  16.417  -3.417  1.00 20.00     0.010 C 
BRANCH   7   8
HETATM    8  C9  UNL     1     -33.872  15.170  -3.983  1.00 20.00    -0.022 C 
HETATM    9  C6  UNL     1     -34.862  14.082  -4.402  1.00 20.00     0.009 C 
HETATM   10  C7  UNL     1     -32.998  15.561  -5.177  1.00 20.00     0.009 C 
ENDBRANCH   7   8
ENDBRANCH   4   7
TORSDOF 2
ENDMDL
MODEL 8
REMARK VINA RESULT:      -3.9     10.209     11.242
REMARK  2 active torsions:
REMARK  status: ('A' for Active; 'I' for Inactive)
REMARK    1  A    between atoms: C4_4  and  C8_8 
REMARK    2  A    between atoms: C8_8  and  C9_9 
ROOT
HETATM    1  C1  UNL     1     -35.484  15.435  -5.788  1.00 20.00     0.002 C 
HETATM    2  C2  UNL     1     -34.830  16.634  -5.094  1.00 20.00     0.006 C 
HETATM    3  C3  UNL     1     -35.383  14.261  -4.816  1.00 20.00     0.020 C 
HETATM    4  C4  UNL     1     -34.470  16.169  -3.677  1.00 20.00     0.004 C 
HETATM    5  C5  UNL     1     -34.296  14.653  -3.821  1.00 20.00     0.086 C 
HETATM    6 CL10 UNL     1     -32.681  14.267  -4.493  1.00 20.00    -0.125 Cl
ENDROOT
BRANCH   4   7
HETATM    7  C8  UNL     1     -35.575  16.524  -2.682  1.00 20.00     0.010 C 
BRANCH   7   8
HETATM    8  C9  UNL     1     -35.051  16.876  -1.278  1.00 20.00    -0.022 C 
HETATM    9  C6  UNL     1     -33.702  17.596  -1.323  1.00 20.00     0.009 C 
HETATM   10  C7  UNL     1     -36.075  17.742  -0.541  1.00 20.00     0.009 C 
ENDBRANCH   7   8
ENDBRANCH   4   7
TORSDOF 2
ENDMDL
MODEL 9
REMARK VINA RESULT:      -3.9     10.898     11.604
REMARK  2 active torsions:
REMARK  status: ('A' for Active; 'I' for Inactive)
REMARK    1  A    between atoms: C4_4  and  C8_8 
REMARK    2  A    between atoms: C8_8  and  C9_9 
ROOT
HETATM    1  C1  UNL     1     -36.419  15.354  -4.972  1.00 20.00     0.002 C 
HETATM    2  C2  UNL     1     -35.543  16.597  -4.798  1.00 20.00     0.006 C 
HETATM    3  C3  UNL     1     -35.479  14.150  -4.941  1.00 20.00     0.020 C 
HETATM    4  C4  UNL     1     -34.118  16.090  -4.542  1.00 20.00     0.004 C 
HETATM    5  C5  UNL     1     -34.090  14.715  -5.221  1.00 20.00     0.086 C 
HETATM    6 CL10 UNL     1     -33.845  14.892  -6.987  1.00 20.00    -0.125 Cl
ENDROOT
BRANCH   4   7
HETATM    7  C8  UNL     1     -33.826  15.991  -3.045  1.00 20.00     0.010 C 
BRANCH   7   8
HETATM    8  C9  UNL     1     -34.234  17.246  -2.253  1.00 20.00    -0.022 C 
HETATM    9  C6  UNL     1     -35.280  16.943  -1.179  1.00 20.00     0.009 C 
HETATM   10  C7  UNL     1     -32.998  17.879  -1.607  1.00 20.00     0.009 C 
ENDBRANCH   7   8
ENDBRANCH   4   7
TORSDOF 2
ENDMDL
