MODEL 1
REMARK VINA RESULT:      -5.0      0.000      0.000
REMARK  0 active torsions:
REMARK  status: ('A' for Active; 'I' for Inactive)
ROOT
HETATM    1  C1  UNL     1     -35.505  16.941  -1.274  1.00 20.00     0.019 A 
HETATM    2  C2  UNL     1     -34.613  17.653  -0.467  1.00 20.00    -0.033 A 
HETATM    3  C3  UNL     1     -35.139  16.570  -2.562  1.00 20.00    -0.021 A 
HETATM    4  C4  UNL     1     -33.352  17.948  -0.995  1.00 20.00     0.042 A 
HETATM    5  C5  UNL     1     -33.876  16.921  -3.000  1.00 20.00     0.132 A 
HETATM    6  C6  UNL     1     -34.999  18.015   0.942  1.00 20.00     0.040 C 
HETATM    7  C7  UNL     1     -32.343  18.738  -0.202  1.00 20.00     0.060 C 
HETATM    8  C8  UNL     1     -34.088  19.073   1.562  1.00 20.00     0.005 C 
HETATM    9  C9  UNL     1     -32.624  18.740   1.298  1.00 20.00     0.006 C 
HETATM   10  C10 UNL     1     -36.102  15.816  -3.413  1.00 20.00     0.051 C 
HETATM   11  N11 UNL     1     -32.979  17.600  -2.252  1.00 20.00    -0.240 NA
HETATM   12 CL12 UNL     1     -33.304  16.523  -4.573  1.00 20.00    -0.062 Cl
ENDROOT
TORSDOF 0
ENDMDL
MODEL 2
REMARK VINA RESULT:      -4.9      3.005      5.129
REMARK  0 active torsions:
REMARK  status: ('A' for Active; 'I' for Inactive)
ROOT
HETATM    1  C1  UNL     1     -31.951  18.526   0.140  1.00 20.00     0.019 A 
HETATM    2  C2  UNL     1     -33.155  18.155  -0.467  1.00 20.00    -0.033 A 
HETATM    3  C3  UNL     1     -31.924  18.865   1.487  1.00 20.00    -0.021 A 
HETATM    4  C4  UNL     1     -34.302  18.119   0.331  1.00 20.00     0.042 A 
HETATM    5  C5  UNL     1     -33.113  18.814   2.189  1.00 20.00     0.132 A 
HETATM    6  C6  UNL     1     -33.171  17.747  -1.916  1.00 20.00     0.040 C 
HETATM    7  C7  UNL     1     -35.644  17.759  -0.251  1.00 20.00     0.060 C 
HETATM    8  C8  UNL     1     -34.576  17.715  -2.516  1.00 20.00     0.005 C 
HETATM    9  C9  UNL     1     -35.544  17.006  -1.575  1.00 20.00     0.006 C 
HETATM   10  C10 UNL     1     -30.635  19.263   2.120  1.00 20.00     0.051 C 
HETATM   11  N11 UNL     1     -34.296  18.453   1.647  1.00 20.00    -0.240 NA
HETATM   12 CL12 UNL     1     -33.212  19.212   3.860  1.00 20.00    -0.062 Cl
ENDROOT
TORSDOF 0
ENDMDL
MODEL 3
REMARK VINA RESULT:      -4.9      2.574      5.655
REMARK  0 active torsions:
REMARK  status: ('A' for Active; 'I' for Inactive)
ROOT
HETATM    1  C1  UNL     1     -33.530  16.143  -3.265  1.00 20.00     0.019 A 
HETATM    2  C2  UNL     1     -34.352  15.389  -4.108  1.00 20.00    -0.033 A 
HETATM    3  C3  UNL     1     -34.089  16.949  -2.282  1.00 20.00    -0.021 A 
HETATM    4  C4  UNL     1     -35.734  15.463  -3.905  1.00 20.00     0.042 A 
HETATM    5  C5  UNL     1     -35.466  16.968  -2.169  1.00 20.00     0.132 A 
HETATM    6  C6  UNL     1     -33.740  14.484  -5.143  1.00 20.00     0.040 C 
HETATM    7  C7  UNL     1     -36.691  14.706  -4.787  1.00 20.00     0.060 C 
HETATM    8  C8  UNL     1     -34.741  14.010  -6.196  1.00 20.00     0.005 C 
HETATM    9  C9  UNL     1     -36.035  13.548  -5.534  1.00 20.00     0.006 C 
HETATM   10  C10 UNL     1     -33.199  17.751  -1.395  1.00 20.00     0.051 C 
HETATM   11  N11 UNL     1     -36.298  16.250  -2.954  1.00 20.00    -0.240 NA
HETATM   12 CL12 UNL     1     -36.279  17.926  -0.994  1.00 20.00    -0.062 Cl
ENDROOT
TORSDOF 0
ENDMDL
MODEL 4
REMARK VINA RESULT:      -4.9      1.467      2.371
REMARK  0 active torsions:
REMARK  status: ('A' for Active; 'I' for Inactive)
ROOT
HETATM    1  C1  UNL     1     -33.102  17.399  -2.309  1.00 20.00     0.019 A 
HETATM    2  C2  UNL     1     -33.612  17.762  -1.058  1.00 20.00    -0.033 A 
HETATM    3  C3  UNL     1     -33.884  16.673  -3.199  1.00 20.00    -0.021 A 
HETATM    4  C4  UNL     1     -34.927  17.390  -0.760  1.00 20.00     0.042 A 
HETATM    5  C5  UNL     1     -35.166  16.339  -2.806  1.00 20.00     0.132 A 
HETATM    6  C6  UNL     1     -32.776  18.585  -0.116  1.00 20.00     0.040 C 
HETATM    7  C7  UNL     1     -35.542  17.715   0.576  1.00 20.00     0.060 C 
HETATM    8  C8  UNL     1     -33.318  18.598   1.313  1.00 20.00     0.005 C 
HETATM    9  C9  UNL     1     -34.823  18.842   1.312  1.00 20.00     0.006 C 
HETATM   10  C10 UNL     1     -33.325  16.289  -4.526  1.00 20.00     0.051 C 
HETATM   11  N11 UNL     1     -35.704  16.675  -1.613  1.00 20.00    -0.240 NA
HETATM   12 CL12 UNL     1     -36.232  15.441  -3.815  1.00 20.00    -0.062 Cl
ENDROOT
TORSDOF 0
ENDMDL
MODEL 5
REMARK VINA RESULT:      -4.8      1.752      4.443
REMARK  0 active torsions:
REMARK  status: ('A' for Active; 'I' for Inactive)
ROOT
HETATM    1  C1  UNL     1     -35.565  16.898  -1.368  1.00 20.00     0.019 A 
HETATM    2  C2  UNL     1     -35.200  16.437  -2.637  1.00 20.00    -0.033 A 
HETATM    3  C3  UNL     1     -34.647  17.587  -0.585  1.00 20.00    -0.021 A 
HETATM    4  C4  UNL     1     -33.903  16.716  -3.082  1.00 20.00     0.042 A 
HETATM    5  C5  UNL     1     -33.385  17.800  -1.106  1.00 20.00     0.132 A 
HETATM    6  C6  UNL     1     -36.210  15.730  -3.499  1.00 20.00     0.040 C 
HETATM    7  C7  UNL     1     -33.420  16.230  -4.423  1.00 20.00     0.060 C 
HETATM    8  C8  UNL     1     -35.581  14.990  -4.679  1.00 20.00     0.005 C 
HETATM    9  C9  UNL     1     -34.556  15.875  -5.380  1.00 20.00     0.006 C 
HETATM   10  C10 UNL     1     -35.049  18.068   0.768  1.00 20.00     0.051 C 
HETATM   11  N11 UNL     1     -32.992  17.381  -2.328  1.00 20.00    -0.240 NA
HETATM   12 CL12 UNL     1     -32.160  18.636  -0.234  1.00 20.00    -0.062 Cl
ENDROOT
TORSDOF 0
ENDMDL
MODEL 6
REMARK VINA RESULT:      -4.8      2.264      4.364
REMARK  0 active torsions:
REMARK  status: ('A' for Active; 'I' for Inactive)
ROOT
HETATM    1  C1  UNL     1     -34.500  18.137   0.989  1.00 20.00     0.019 A 
HETATM    2  C2  UNL     1     -34.494  17.792  -0.366  1.00 20.00    -0.033 A 
HETATM    3  C3  UNL     1     -33.340  18.598   1.597  1.00 20.00    -0.021 A 
HETATM    4  C4  UNL     1     -33.297  17.951  -1.072  1.00 20.00     0.042 A 
HETATM    5  C5  UNL     1     -32.203  18.707   0.820  1.00 20.00     0.132 A 
HETATM    6  C6  UNL     1     -35.764  17.334  -1.031  1.00 20.00     0.040 C 
HETATM    7  C7  UNL     1     -33.197  17.575  -2.527  1.00 20.00     0.060 C 
HETATM    8  C8  UNL     1     -35.527  16.669  -2.387  1.00 20.00     0.005 C 
HETATM    9  C9  UNL     1     -34.553  17.491  -3.223  1.00 20.00     0.006 C 
HETATM   10  C10 UNL     1     -33.361  18.957   3.044  1.00 20.00     0.051 C 
HETATM   11  N11 UNL     1     -32.152  18.394  -0.493  1.00 20.00    -0.240 NA
HETATM   12 CL12 UNL     1     -30.704  19.263   1.455  1.00 20.00    -0.062 Cl
ENDROOT
TORSDOF 0
ENDMDL
MODEL 7
REMARK VINA RESULT:      -4.8      1.304      2.026
REMARK  0 active torsions:
REMARK  status: ('A' for Active; 'I' for Inactive)
ROOT
HETATM    1  C1  UNL     1     -35.697  15.810  -3.027  1.00 20.00     0.019 A 
HETATM    2  C2  UNL     1     -34.962  16.707  -2.244  1.00 20.00    -0.033 A 
HETATM    3  C3  UNL     1     -35.257  15.473  -4.301  1.00 20.00    -0.021 A 
HETATM    4  C4  UNL     1     -33.777  17.219  -2.782  1.00 20.00     0.042 A 
HETATM    5  C5  UNL     1     -34.082  16.043  -4.750  1.00 20.00     0.132 A 
HETATM    6  C6  UNL     1     -35.420  17.036  -0.849  1.00 20.00     0.040 C 
HETATM    7  C7  UNL     1     -32.943  18.212  -2.017  1.00 20.00     0.060 C 
HETATM    8  C8  UNL     1     -34.732  18.269  -0.266  1.00 20.00     0.005 C 
HETATM    9  C9  UNL     1     -33.229  18.212  -0.518  1.00 20.00     0.006 C 
HETATM   10  C10 UNL     1     -36.054  14.520  -5.125  1.00 20.00     0.051 C 
HETATM   11  N11 UNL     1     -33.336  16.906  -4.026  1.00 20.00    -0.240 NA
HETATM   12 CL12 UNL     1     -33.433  15.708  -6.308  1.00 20.00    -0.062 Cl
ENDROOT
TORSDOF 0
ENDMDL
MODEL 8
REMARK VINA RESULT:      -4.8      2.236      5.044
REMARK  0 active torsions:
REMARK  status: ('A' for Active; 'I' for Inactive)
ROOT
HETATM    1  C1  UNL     1     -36.022  16.281  -2.699  1.00 20.00     0.019 A 
HETATM    2  C2  UNL     1     -35.486  15.509  -3.734  1.00 20.00    -0.033 A 
HETATM    3  C3  UNL     1     -35.187  17.046  -1.894  1.00 20.00    -0.021 A 
HETATM    4  C4  UNL     1     -34.103  15.559  -3.934  1.00 20.00     0.042 A 
HETATM    5  C5  UNL     1     -33.831  17.018  -2.160  1.00 20.00     0.132 A 
HETATM    6  C6  UNL     1     -36.399  14.716  -4.630  1.00 20.00     0.040 C 
HETATM    7  C7  UNL     1     -33.442  14.734  -5.007  1.00 20.00     0.060 C 
HETATM    8  C8  UNL     1     -35.662  13.670  -5.465  1.00 20.00     0.005 C 
HETATM    9  C9  UNL     1     -34.410  14.272  -6.093  1.00 20.00     0.006 C 
HETATM   10  C10 UNL     1     -35.772  17.860  -0.791  1.00 20.00     0.051 C 
HETATM   11  N11 UNL     1     -33.271  16.295  -3.153  1.00 20.00    -0.240 NA
HETATM   12 CL12 UNL     1     -32.694  17.918  -1.235  1.00 20.00    -0.062 Cl
ENDROOT
TORSDOF 0
ENDMDL
MODEL 9
REMARK VINA RESULT:      -4.7      2.075      3.112
REMARK  0 active torsions:
REMARK  status: ('A' for Active; 'I' for Inactive)
ROOT
HETATM    1  C1  UNL     1     -33.575  16.021  -3.495  1.00 20.00     0.019 A 
HETATM    2  C2  UNL     1     -34.060  16.812  -2.449  1.00 20.00    -0.033 A 
HETATM    3  C3  UNL     1     -34.455  15.293  -4.286  1.00 20.00    -0.021 A 
HETATM    4  C4  UNL     1     -35.444  16.856  -2.255  1.00 20.00     0.042 A 
HETATM    5  C5  UNL     1     -35.805  15.388  -4.006  1.00 20.00     0.132 A 
HETATM    6  C6  UNL     1     -33.106  17.632  -1.623  1.00 20.00     0.040 C 
HETATM    7  C7  UNL     1     -36.047  17.660  -1.133  1.00 20.00     0.060 C 
HETATM    8  C8  UNL     1     -33.727  18.152  -0.327  1.00 20.00     0.005 C 
HETATM    9  C9  UNL     1     -35.110  18.737  -0.593  1.00 20.00     0.006 C 
HETATM   10  C10 UNL     1     -33.922  14.449  -5.394  1.00 20.00     0.051 C 
HETATM   11  N11 UNL     1     -36.318  16.147  -3.013  1.00 20.00    -0.240 NA
HETATM   12 CL12 UNL     1     -36.994  14.536  -4.910  1.00 20.00    -0.062 Cl
ENDROOT
TORSDOF 0
ENDMDL
