MODEL 1
REMARK VINA RESULT:      -6.1      0.000      0.000
REMARK  2 active torsions:
REMARK  status: ('A' for Active; 'I' for Inactive)
REMARK    1  A    between atoms: C4_4  and  C7_7 
REMARK    2  A    between atoms: C7_7  and  C8_8 
ROOT
HETATM    1  C1  UNL     1     -34.486   6.080   5.380  1.00 20.00     0.002 C 
HETATM    2  C2  UNL     1     -33.372   7.093   5.105  1.00 20.00     0.006 C 
HETATM    3  C3  UNL     1     -35.124   5.765   4.025  1.00 20.00     0.020 C 
HETATM    4  C4  UNL     1     -33.483   7.430   3.615  1.00 20.00     0.004 C 
HETATM    5  C5  UNL     1     -34.074   6.160   2.990  1.00 20.00     0.086 C 
HETATM    6 CL9  UNL     1     -32.879   4.844   2.798  1.00 20.00    -0.125 Cl
ENDROOT
BRANCH   4   7
HETATM    7  C7  UNL     1     -32.182   7.934   3.010  1.00 20.00     0.005 C 
BRANCH   7   8
HETATM    8  C8  UNL     1     -32.361   8.323   1.544  1.00 20.00    -0.004 C 
HETATM    9  C6  UNL     1     -32.460   9.830   1.376  1.00 20.00     0.005 C 
ENDBRANCH   7   8
ENDBRANCH   4   7
TORSDOF 2
ENDMDL
MODEL 2
REMARK VINA RESULT:      -4.8      1.604      2.007
REMARK  2 active torsions:
REMARK  status: ('A' for Active; 'I' for Inactive)
REMARK    1  A    between atoms: C4_4  and  C7_7 
REMARK    2  A    between atoms: C7_7  and  C8_8 
ROOT
HETATM    1  C1  UNL     1     -35.438   5.788   3.790  1.00 20.00     0.002 C 
HETATM    2  C2  UNL     1     -34.530   6.726   2.990  1.00 20.00     0.006 C 
HETATM    3  C3  UNL     1     -34.574   5.209   4.913  1.00 20.00     0.020 C 
HETATM    4  C4  UNL     1     -33.134   6.563   3.599  1.00 20.00     0.004 C 
HETATM    5  C5  UNL     1     -33.408   6.182   5.059  1.00 20.00     0.086 C 
HETATM    6 CL9  UNL     1     -33.896   7.572   6.073  1.00 20.00    -0.125 Cl
ENDROOT
BRANCH   4   7
HETATM    7  C7  UNL     1     -32.232   7.767   3.376  1.00 20.00     0.005 C 
BRANCH   7   8
HETATM    8  C8  UNL     1     -32.057   8.065   1.889  1.00 20.00    -0.004 C 
HETATM    9  C6  UNL     1     -32.389   9.514   1.569  1.00 20.00     0.005 C 
ENDBRANCH   7   8
ENDBRANCH   4   7
TORSDOF 2
ENDMDL
MODEL 3
REMARK VINA RESULT:      -4.7      1.704      2.104
REMARK  2 active torsions:
REMARK  status: ('A' for Active; 'I' for Inactive)
REMARK    1  A    between atoms: C4_4  and  C7_7 
REMARK    2  A    between atoms: C7_7  and  C8_8 
ROOT
HETATM    1  C1  UNL     1     -34.044   3.863   4.293  1.00 20.00     0.002 C 
HETATM    2  C2  UNL     1     -33.309   4.574   3.154  1.00 20.00     0.006 C 
HETATM    3  C3  UNL     1     -34.517   4.960   5.250  1.00 20.00     0.020 C 
HETATM    4  C4  UNL     1     -33.268   6.053   3.553  1.00 20.00     0.004 C 
HETATM    5  C5  UNL     1     -34.521   6.238   4.417  1.00 20.00     0.086 C 
HETATM    6 CL9  UNL     1     -36.030   6.341   3.463  1.00 20.00    -0.125 Cl
ENDROOT
BRANCH   4   7
HETATM    7  C7  UNL     1     -33.123   6.995   2.367  1.00 20.00     0.005 C 
BRANCH   7   8
HETATM    8  C8  UNL     1     -32.144   8.127   2.672  1.00 20.00    -0.004 C 
HETATM    9  C6  UNL     1     -32.172   9.193   1.588  1.00 20.00     0.005 C 
ENDBRANCH   7   8
ENDBRANCH   4   7
TORSDOF 2
ENDMDL
MODEL 4
REMARK VINA RESULT:      -4.4      1.751      4.114
REMARK  2 active torsions:
REMARK  status: ('A' for Active; 'I' for Inactive)
REMARK    1  A    between atoms: C4_4  and  C7_7 
REMARK    2  A    between atoms: C7_7  and  C8_8 
ROOT
HETATM    1  C1  UNL     1     -31.906   6.876   2.578  1.00 20.00     0.002 C 
HETATM    2  C2  UNL     1     -32.985   5.808   2.775  1.00 20.00     0.006 C 
HETATM    3  C3  UNL     1     -32.560   8.216   2.923  1.00 20.00     0.020 C 
HETATM    4  C4  UNL     1     -34.268   6.577   3.105  1.00 20.00     0.004 C 
HETATM    5  C5  UNL     1     -33.768   7.858   3.784  1.00 20.00     0.086 C 
HETATM    6 CL9  UNL     1     -33.257   7.607   5.479  1.00 20.00    -0.125 Cl
ENDROOT
BRANCH   4   7
HETATM    7  C7  UNL     1     -35.283   5.754   3.884  1.00 20.00     0.005 C 
BRANCH   7   8
HETATM    8  C8  UNL     1     -34.638   4.522   4.513  1.00 20.00    -0.004 C 
HETATM    9  C6  UNL     1     -34.509   4.670   6.021  1.00 20.00     0.005 C 
ENDBRANCH   7   8
ENDBRANCH   4   7
TORSDOF 2
ENDMDL
MODEL 5
REMARK VINA RESULT:      -4.2      1.804      3.870
REMARK  2 active torsions:
REMARK  status: ('A' for Active; 'I' for Inactive)
REMARK    1  A    between atoms: C4_4  and  C7_7 
REMARK    2  A    between atoms: C7_7  and  C8_8 
ROOT
HETATM    1  C1  UNL     1     -31.899   8.563   4.533  1.00 20.00     0.002 C 
HETATM    2  C2  UNL     1     -33.067   7.573   4.559  1.00 20.00     0.006 C 
HETATM    3  C3  UNL     1     -31.189   8.355   3.194  1.00 20.00     0.020 C 
HETATM    4  C4  UNL     1     -32.920   6.733   3.286  1.00 20.00     0.004 C 
HETATM    5  C5  UNL     1     -32.221   7.675   2.298  1.00 20.00     0.086 C 
HETATM    6 CL9  UNL     1     -33.318   8.899   1.592  1.00 20.00    -0.125 Cl
ENDROOT
BRANCH   4   7
HETATM    7  C7  UNL     1     -34.227   6.114   2.816  1.00 20.00     0.005 C 
BRANCH   7   8
HETATM    8  C8  UNL     1     -35.082   5.653   3.994  1.00 20.00    -0.004 C 
HETATM    9  C6  UNL     1     -34.525   4.387   4.625  1.00 20.00     0.005 C 
ENDBRANCH   7   8
ENDBRANCH   4   7
TORSDOF 2
ENDMDL
MODEL 6
REMARK VINA RESULT:      -3.9     11.029     12.038
REMARK  2 active torsions:
REMARK  status: ('A' for Active; 'I' for Inactive)
REMARK    1  A    between atoms: C4_4  and  C7_7 
REMARK    2  A    between atoms: C7_7  and  C8_8 
ROOT
HETATM    1  C1  UNL     1     -33.867  16.606  -5.947  1.00 20.00     0.002 C 
HETATM    2  C2  UNL     1     -34.607  17.189  -4.740  1.00 20.00     0.006 C 
HETATM    3  C3  UNL     1     -32.919  15.539  -5.395  1.00 20.00     0.020 C 
HETATM    4  C4  UNL     1     -33.972  16.529  -3.512  1.00 20.00     0.004 C 
HETATM    5  C5  UNL     1     -33.491  15.168  -4.030  1.00 20.00     0.086 C 
HETATM    6 CL9  UNL     1     -34.811  13.978  -4.223  1.00 20.00    -0.125 Cl
ENDROOT
BRANCH   4   7
HETATM    7  C7  UNL     1     -34.888  16.502  -2.298  1.00 20.00     0.005 C 
BRANCH   7   8
HETATM    8  C8  UNL     1     -34.311  17.319  -1.145  1.00 20.00    -0.004 C 
HETATM    9  C6  UNL     1     -32.942  17.882  -1.492  1.00 20.00     0.005 C 
ENDBRANCH   7   8
ENDBRANCH   4   7
TORSDOF 2
ENDMDL
MODEL 7
REMARK VINA RESULT:      -3.9     11.368     11.931
REMARK  2 active torsions:
REMARK  status: ('A' for Active; 'I' for Inactive)
REMARK    1  A    between atoms: C4_4  and  C7_7 
REMARK    2  A    between atoms: C7_7  and  C8_8 
ROOT
HETATM    1  C1  UNL     1     -34.398  17.956  -0.271  1.00 20.00     0.002 C 
HETATM    2  C2  UNL     1     -35.193  17.010  -1.175  1.00 20.00     0.006 C 
HETATM    3  C3  UNL     1     -33.052  18.179  -0.962  1.00 20.00     0.020 C 
HETATM    4  C4  UNL     1     -34.232  16.613  -2.299  1.00 20.00     0.004 C 
HETATM    5  C5  UNL     1     -33.292  17.818  -2.425  1.00 20.00     0.086 C 
HETATM    6 CL9  UNL     1     -34.027  19.203  -3.285  1.00 20.00    -0.125 Cl
ENDROOT
BRANCH   4   7
HETATM    7  C7  UNL     1     -34.939  16.175  -3.573  1.00 20.00     0.005 C 
BRANCH   7   8
HETATM    8  C8  UNL     1     -34.540  14.757  -3.973  1.00 20.00    -0.004 C 
HETATM    9  C6  UNL     1     -33.102  14.699  -4.461  1.00 20.00     0.005 C 
ENDBRANCH   7   8
ENDBRANCH   4   7
TORSDOF 2
ENDMDL
MODEL 8
REMARK VINA RESULT:      -3.8     11.089     11.772
REMARK  2 active torsions:
REMARK  status: ('A' for Active; 'I' for Inactive)
REMARK    1  A    between atoms: C4_4  and  C7_7 
REMARK    2  A    between atoms: C7_7  and  C8_8 
ROOT
HETATM    1  C1  UNL     1     -35.633  13.664  -4.954  1.00 20.00     0.002 C 
HETATM    2  C2  UNL     1     -34.448  14.227  -4.165  1.00 20.00     0.006 C 
HETATM    3  C3  UNL     1     -36.698  14.763  -4.972  1.00 20.00     0.020 C 
HETATM    4  C4  UNL     1     -34.914  15.589  -3.642  1.00 20.00     0.004 C 
HETATM    5  C5  UNL     1     -35.939  16.055  -4.683  1.00 20.00     0.086 C 
HETATM    6 CL9  UNL     1     -35.192  16.674  -6.184  1.00 20.00    -0.125 Cl
ENDROOT
BRANCH   4   7
HETATM    7  C7  UNL     1     -33.770  16.547  -3.348  1.00 20.00     0.005 C 
BRANCH   7   8
HETATM    8  C8  UNL     1     -33.811  17.039  -1.903  1.00 20.00    -0.004 C 
HETATM    9  C6  UNL     1     -35.202  16.899  -1.306  1.00 20.00     0.005 C 
ENDBRANCH   7   8
ENDBRANCH   4   7
TORSDOF 2
ENDMDL
MODEL 9
REMARK VINA RESULT:      -3.8     11.287     11.835
REMARK  2 active torsions:
REMARK  status: ('A' for Active; 'I' for Inactive)
REMARK    1  A    between atoms: C4_4  and  C7_7 
REMARK    2  A    between atoms: C7_7  and  C8_8 
ROOT
HETATM    1  C1  UNL     1     -35.412  17.504  -0.817  1.00 20.00     0.002 C 
HETATM    2  C2  UNL     1     -35.384  16.693  -2.115  1.00 20.00     0.006 C 
HETATM    3  C3  UNL     1     -33.962  17.895  -0.523  1.00 20.00     0.020 C 
HETATM    4  C4  UNL     1     -33.901  16.531  -2.465  1.00 20.00     0.004 C 
HETATM    5  C5  UNL     1     -33.240  17.777  -1.862  1.00 20.00     0.086 C 
HETATM    6 CL9  UNL     1     -33.502  19.256  -2.831  1.00 20.00    -0.125 Cl
ENDROOT
BRANCH   4   7
HETATM    7  C7  UNL     1     -33.652  16.287  -3.946  1.00 20.00     0.005 C 
BRANCH   7   8
HETATM    8  C8  UNL     1     -33.439  14.804  -4.239  1.00 20.00    -0.004 C 
HETATM    9  C6  UNL     1     -34.760  14.084  -4.458  1.00 20.00     0.005 C 
ENDBRANCH   7   8
ENDBRANCH   4   7
TORSDOF 2
ENDMDL
