MODEL 1
REMARK VINA RESULT:      -6.3      0.000      0.000
REMARK  2 active torsions:
REMARK  status: ('A' for Active; 'I' for Inactive)
REMARK    1  A    between atoms: C4_4  and  C8_8 
REMARK    2  A    between atoms: C8_8  and  C9_9 
ROOT
HETATM    1  C1  UNL     1     -34.392   6.143   5.344  1.00 20.00     0.002 C 
HETATM    2  C2  UNL     1     -33.327   7.188   4.997  1.00 20.00     0.006 C 
HETATM    3  C3  UNL     1     -35.073   5.771   4.025  1.00 20.00     0.020 C 
HETATM    4  C4  UNL     1     -33.512   7.481   3.505  1.00 20.00     0.004 C 
HETATM    5  C5  UNL     1     -34.081   6.176   2.938  1.00 20.00     0.086 C 
HETATM    6 CL10 UNL     1     -32.849   4.898   2.728  1.00 20.00    -0.125 Cl
ENDROOT
BRANCH   4   7
HETATM    7  C8  UNL     1     -32.255   8.015   2.833  1.00 20.00     0.010 C 
BRANCH   7   8
HETATM    8  C9  UNL     1     -32.523   8.703   1.483  1.00 20.00    -0.022 C 
HETATM    9  C6  UNL     1     -32.831  10.192   1.640  1.00 20.00     0.009 C 
HETATM   10  C7  UNL     1     -31.317   8.520   0.558  1.00 20.00     0.009 C 
ENDBRANCH   7   8
ENDBRANCH   4   7
TORSDOF 2
ENDMDL
MODEL 2
REMARK VINA RESULT:      -5.2      1.654      2.257
REMARK  2 active torsions:
REMARK  status: ('A' for Active; 'I' for Inactive)
REMARK    1  A    between atoms: C4_4  and  C8_8 
REMARK    2  A    between atoms: C8_8  and  C9_9 
ROOT
HETATM    1  C1  UNL     1     -33.919   3.891   4.087  1.00 20.00     0.002 C 
HETATM    2  C2  UNL     1     -33.292   4.744   2.980  1.00 20.00     0.006 C 
HETATM    3  C3  UNL     1     -34.464   4.872   5.127  1.00 20.00     0.020 C 
HETATM    4  C4  UNL     1     -33.382   6.190   3.477  1.00 20.00     0.004 C 
HETATM    5  C5  UNL     1     -34.619   6.195   4.383  1.00 20.00     0.086 C 
HETATM    6 CL10 UNL     1     -36.160   6.211   3.477  1.00 20.00    -0.125 Cl
ENDROOT
BRANCH   4   7
HETATM    7  C8  UNL     1     -33.365   7.217   2.355  1.00 20.00     0.010 C 
BRANCH   7   8
HETATM    8  C9  UNL     1     -32.047   8.005   2.261  1.00 20.00    -0.022 C 
HETATM    9  C6  UNL     1     -32.211   9.325   1.507  1.00 20.00     0.009 C 
HETATM   10  C7  UNL     1     -31.501   8.277   3.665  1.00 20.00     0.009 C 
ENDBRANCH   7   8
ENDBRANCH   4   7
TORSDOF 2
ENDMDL
MODEL 3
REMARK VINA RESULT:      -4.7      1.482      1.865
REMARK  2 active torsions:
REMARK  status: ('A' for Active; 'I' for Inactive)
REMARK    1  A    between atoms: C4_4  and  C8_8 
REMARK    2  A    between atoms: C8_8  and  C9_9 
ROOT
HETATM    1  C1  UNL     1     -35.352   5.869   3.663  1.00 20.00     0.002 C 
HETATM    2  C2  UNL     1     -34.538   6.838   2.800  1.00 20.00     0.006 C 
HETATM    3  C3  UNL     1     -34.391   5.328   4.722  1.00 20.00     0.020 C 
HETATM    4  C4  UNL     1     -33.098   6.730   3.311  1.00 20.00     0.004 C 
HETATM    5  C5  UNL     1     -33.255   6.346   4.786  1.00 20.00     0.086 C 
HETATM    6 CL10 UNL     1     -33.724   7.720   5.830  1.00 20.00    -0.125 Cl
ENDROOT
BRANCH   4   7
HETATM    7  C8  UNL     1     -32.261   7.968   3.023  1.00 20.00     0.010 C 
BRANCH   7   8
HETATM    8  C9  UNL     1     -32.546   8.599   1.649  1.00 20.00    -0.022 C 
HETATM    9  C6  UNL     1     -32.911  10.080   1.753  1.00 20.00     0.009 C 
HETATM   10  C7  UNL     1     -31.329   8.430   0.736  1.00 20.00     0.009 C 
ENDBRANCH   7   8
ENDBRANCH   4   7
TORSDOF 2
ENDMDL
MODEL 4
REMARK VINA RESULT:      -4.3     10.865     11.536
REMARK  2 active torsions:
REMARK  status: ('A' for Active; 'I' for Inactive)
REMARK    1  A    between atoms: C4_4  and  C8_8 
REMARK    2  A    between atoms: C8_8  and  C9_9 
ROOT
HETATM    1  C1  UNL     1     -34.360  18.037  -0.320  1.00 20.00     0.002 C 
HETATM    2  C2  UNL     1     -35.138  17.005  -1.142  1.00 20.00     0.006 C 
HETATM    3  C3  UNL     1     -33.048  18.279  -1.068  1.00 20.00     0.020 C 
HETATM    4  C4  UNL     1     -34.195  16.588  -2.275  1.00 20.00     0.004 C 
HETATM    5  C5  UNL     1     -33.316  17.824  -2.500  1.00 20.00     0.086 C 
HETATM    6 CL10 UNL     1     -34.141  19.123  -3.410  1.00 20.00    -0.125 Cl
ENDROOT
BRANCH   4   7
HETATM    7  C8  UNL     1     -34.920  16.046  -3.497  1.00 20.00     0.010 C 
BRANCH   7   8
HETATM    8  C9  UNL     1     -34.495  14.619  -3.884  1.00 20.00    -0.022 C 
HETATM    9  C6  UNL     1     -35.478  13.961  -4.852  1.00 20.00     0.009 C 
HETATM   10  C7  UNL     1     -33.096  14.644  -4.507  1.00 20.00     0.009 C 
ENDBRANCH   7   8
ENDBRANCH   4   7
TORSDOF 2
ENDMDL
MODEL 5
REMARK VINA RESULT:      -4.2     10.729     11.479
REMARK  2 active torsions:
REMARK  status: ('A' for Active; 'I' for Inactive)
REMARK    1  A    between atoms: C4_4  and  C8_8 
REMARK    2  A    between atoms: C8_8  and  C9_9 
ROOT
HETATM    1  C1  UNL     1     -35.567  13.620  -4.903  1.00 20.00     0.002 C 
HETATM    2  C2  UNL     1     -34.424  14.285  -4.131  1.00 20.00     0.006 C 
HETATM    3  C3  UNL     1     -36.731  14.614  -4.885  1.00 20.00     0.020 C 
HETATM    4  C4  UNL     1     -35.006  15.591  -3.581  1.00 20.00     0.004 C 
HETATM    5  C5  UNL     1     -36.092  15.969  -4.594  1.00 20.00     0.086 C 
HETATM    6 CL10 UNL     1     -35.439  16.673  -6.102  1.00 20.00    -0.125 Cl
ENDROOT
BRANCH   4   7
HETATM    7  C8  UNL     1     -33.951  16.650  -3.297  1.00 20.00     0.010 C 
BRANCH   7   8
HETATM    8  C9  UNL     1     -33.780  16.965  -1.801  1.00 20.00    -0.022 C 
HETATM    9  C6  UNL     1     -32.948  18.225  -1.562  1.00 20.00     0.009 C 
HETATM   10  C7  UNL     1     -35.153  17.120  -1.142  1.00 20.00     0.009 C 
ENDBRANCH   7   8
ENDBRANCH   4   7
TORSDOF 2
ENDMDL
MODEL 6
REMARK VINA RESULT:      -4.2      2.160      4.732
REMARK  2 active torsions:
REMARK  status: ('A' for Active; 'I' for Inactive)
REMARK    1  A    between atoms: C4_4  and  C8_8 
REMARK    2  A    between atoms: C8_8  and  C9_9 
ROOT
HETATM    1  C1  UNL     1     -31.522   8.976  -0.108  1.00 20.00     0.002 C 
HETATM    2  C2  UNL     1     -31.387   8.258   1.238  1.00 20.00     0.006 C 
HETATM    3  C3  UNL     1     -32.931   9.573  -0.136  1.00 20.00     0.020 C 
HETATM    4  C4  UNL     1     -32.769   8.354   1.893  1.00 20.00     0.004 C 
HETATM    5  C5  UNL     1     -33.359   9.650   1.327  1.00 20.00     0.086 C 
HETATM    6 CL10 UNL     1     -32.688  11.125   2.084  1.00 20.00    -0.125 Cl
ENDROOT
BRANCH   4   7
HETATM    7  C8  UNL     1     -32.727   8.240   3.410  1.00 20.00     0.010 C 
BRANCH   7   8
HETATM    8  C9  UNL     1     -33.817   7.321   3.989  1.00 20.00    -0.022 C 
HETATM    9  C6  UNL     1     -33.798   5.928   3.360  1.00 20.00     0.009 C 
HETATM   10  C7  UNL     1     -33.647   7.205   5.506  1.00 20.00     0.009 C 
ENDBRANCH   7   8
ENDBRANCH   4   7
TORSDOF 2
ENDMDL
MODEL 7
REMARK VINA RESULT:      -4.1     10.667     11.747
REMARK  2 active torsions:
REMARK  status: ('A' for Active; 'I' for Inactive)
REMARK    1  A    between atoms: C4_4  and  C8_8 
REMARK    2  A    between atoms: C8_8  and  C9_9 
ROOT
HETATM    1  C1  UNL     1     -33.865  16.647  -6.000  1.00 20.00     0.002 C 
HETATM    2  C2  UNL     1     -34.540  17.221  -4.751  1.00 20.00     0.006 C 
HETATM    3  C3  UNL     1     -32.965  15.509  -5.516  1.00 20.00     0.020 C 
HETATM    4  C4  UNL     1     -33.913  16.478  -3.568  1.00 20.00     0.004 C 
HETATM    5  C5  UNL     1     -33.523  15.114  -4.151  1.00 20.00     0.086 C 
HETATM    6 CL10 UNL     1     -34.912  14.007  -4.355  1.00 20.00    -0.125 Cl
ENDROOT
BRANCH   4   7
HETATM    7  C8  UNL     1     -34.799  16.452  -2.332  1.00 20.00     0.010 C 
BRANCH   7   8
HETATM    8  C9  UNL     1     -34.604  17.668  -1.409  1.00 20.00    -0.022 C 
HETATM    9  C6  UNL     1     -35.335  17.510  -0.075  1.00 20.00     0.009 C 
HETATM   10  C7  UNL     1     -33.111  17.895  -1.156  1.00 20.00     0.009 C 
ENDBRANCH   7   8
ENDBRANCH   4   7
TORSDOF 2
ENDMDL
MODEL 8
REMARK VINA RESULT:      -4.1      1.944      4.360
REMARK  2 active torsions:
REMARK  status: ('A' for Active; 'I' for Inactive)
REMARK    1  A    between atoms: C4_4  and  C8_8 
REMARK    2  A    between atoms: C8_8  and  C9_9 
ROOT
HETATM    1  C1  UNL     1     -31.772   8.674   4.561  1.00 20.00     0.002 C 
HETATM    2  C2  UNL     1     -33.030   7.869   4.901  1.00 20.00     0.006 C 
HETATM    3  C3  UNL     1     -31.256   8.122   3.231  1.00 20.00     0.020 C 
HETATM    4  C4  UNL     1     -33.131   6.791   3.817  1.00 20.00     0.004 C 
HETATM    5  C5  UNL     1     -32.457   7.428   2.596  1.00 20.00     0.086 C 
HETATM    6 CL10 UNL     1     -33.489   8.628   1.764  1.00 20.00    -0.125 Cl
ENDROOT
BRANCH   4   7
HETATM    7  C8  UNL     1     -34.546   6.271   3.612  1.00 20.00     0.010 C 
BRANCH   7   8
HETATM    8  C9  UNL     1     -34.848   4.981   4.392  1.00 20.00    -0.022 C 
HETATM    9  C6  UNL     1     -33.940   3.823   3.977  1.00 20.00     0.009 C 
HETATM   10  C7  UNL     1     -34.704   5.236   5.895  1.00 20.00     0.009 C 
ENDBRANCH   7   8
ENDBRANCH   4   7
TORSDOF 2
ENDMDL
MODEL 9
REMARK VINA RESULT:      -4.0     10.776     12.100
REMARK  2 active torsions:
REMARK  status: ('A' for Active; 'I' for Inactive)
REMARK    1  A    between atoms: C4_4  and  C8_8 
REMARK    2  A    between atoms: C8_8  and  C9_9 
ROOT
HETATM    1  C1  UNL     1     -34.022  16.448  -7.135  1.00 20.00     0.002 C 
HETATM    2  C2  UNL     1     -33.702  16.805  -5.681  1.00 20.00     0.006 C 
HETATM    3  C3  UNL     1     -33.944  14.923  -7.230  1.00 20.00     0.020 C 
HETATM    4  C4  UNL     1     -33.323  15.481  -5.008  1.00 20.00     0.004 C 
HETATM    5  C5  UNL     1     -34.109  14.427  -5.796  1.00 20.00     0.086 C 
HETATM    6 CL10 UNL     1     -35.843  14.368  -5.365  1.00 20.00    -0.125 Cl
ENDROOT
BRANCH   4   7
HETATM    7  C8  UNL     1     -33.530  15.488  -3.501  1.00 20.00     0.010 C 
BRANCH   7   8
HETATM    8  C9  UNL     1     -34.176  16.781  -2.974  1.00 20.00    -0.022 C 
HETATM    9  C6  UNL     1     -35.568  16.540  -2.388  1.00 20.00     0.009 C 
HETATM   10  C7  UNL     1     -33.274  17.420  -1.915  1.00 20.00     0.009 C 
ENDBRANCH   7   8
ENDBRANCH   4   7
TORSDOF 2
ENDMDL
