MODEL 1
REMARK VINA RESULT:      -5.8      0.000      0.000
REMARK  3 active torsions:
REMARK  status: ('A' for Active; 'I' for Inactive)
REMARK    1  A    between atoms: C4_4  and  C7_7 
REMARK    2  A    between atoms: C7_7  and  C9_9 
REMARK    3  A    between atoms: C8_8  and  C9_9 
ROOT
HETATM    1  C1  UNL     1     -34.646   4.668   4.272  1.00 20.00     0.002 C 
HETATM    2  C2  UNL     1     -34.798   5.760   3.209  1.00 20.00     0.006 C 
HETATM    3  C3  UNL     1     -34.130   5.357   5.536  1.00 20.00     0.020 C 
HETATM    4  C4  UNL     1     -33.998   6.961   3.733  1.00 20.00     0.004 C 
HETATM    5  C5  UNL     1     -34.248   6.848   5.241  1.00 20.00     0.086 C 
HETATM    6 CL10 UNL     1     -33.181   7.827   6.259  1.00 20.00    -0.125 Cl
ENDROOT
BRANCH   4   7
HETATM    7  C7  UNL     1     -32.553   6.877   3.311  1.00 20.00     0.006 C 
BRANCH   7   8
HETATM    8  C9  UNL     1     -31.996   8.253   2.949  1.00 20.00     0.000 C 
BRANCH   8   9
HETATM    9  C8  UNL     1     -32.163   8.546   1.458  1.00 20.00    -0.005 C 
HETATM   10  C6  UNL     1     -32.552   9.995   1.215  1.00 20.00     0.005 C 
ENDBRANCH   8   9
ENDBRANCH   7   8
ENDBRANCH   4   7
TORSDOF 3
ENDMDL
MODEL 2
REMARK VINA RESULT:      -5.6      0.995      1.020
REMARK  3 active torsions:
REMARK  status: ('A' for Active; 'I' for Inactive)
REMARK    1  A    between atoms: C4_4  and  C7_7 
REMARK    2  A    between atoms: C7_7  and  C9_9 
REMARK    3  A    between atoms: C8_8  and  C9_9 
ROOT
HETATM    1  C1  UNL     1     -33.660   4.749   3.087  1.00 20.00     0.002 C 
HETATM    2  C2  UNL     1     -33.922   6.050   2.323  1.00 20.00     0.006 C 
HETATM    3  C3  UNL     1     -33.754   5.090   4.575  1.00 20.00     0.020 C 
HETATM    4  C4  UNL     1     -33.758   7.176   3.353  1.00 20.00     0.004 C 
HETATM    5  C5  UNL     1     -34.317   6.506   4.614  1.00 20.00     0.086 C 
HETATM    6 CL10 UNL     1     -33.956   7.339   6.134  1.00 20.00    -0.125 Cl
ENDROOT
BRANCH   4   7
HETATM    7  C7  UNL     1     -32.321   7.624   3.445  1.00 20.00     0.006 C 
BRANCH   7   8
HETATM    8  C9  UNL     1     -31.791   8.082   2.086  1.00 20.00     0.000 C 
BRANCH   8   9
HETATM    9  C8  UNL     1     -32.374   9.438   1.691  1.00 20.00    -0.005 C 
HETATM   10  C6  UNL     1     -32.727   9.484   0.213  1.00 20.00     0.005 C 
ENDBRANCH   8   9
ENDBRANCH   7   8
ENDBRANCH   4   7
TORSDOF 3
ENDMDL
MODEL 3
REMARK VINA RESULT:      -5.2      1.949      2.494
REMARK  3 active torsions:
REMARK  status: ('A' for Active; 'I' for Inactive)
REMARK    1  A    between atoms: C4_4  and  C7_7 
REMARK    2  A    between atoms: C7_7  and  C9_9 
REMARK    3  A    between atoms: C8_8  and  C9_9 
ROOT
HETATM    1  C1  UNL     1     -34.378   6.975   5.098  1.00 20.00     0.002 C 
HETATM    2  C2  UNL     1     -33.010   7.609   4.827  1.00 20.00     0.006 C 
HETATM    3  C3  UNL     1     -34.497   5.775   4.156  1.00 20.00     0.020 C 
HETATM    4  C4  UNL     1     -32.545   7.032   3.484  1.00 20.00     0.004 C 
HETATM    5  C5  UNL     1     -33.102   5.606   3.565  1.00 20.00     0.086 C 
HETATM    6 CL10 UNL     1     -33.116   4.713   2.037  1.00 20.00    -0.125 Cl
ENDROOT
BRANCH   4   7
HETATM    7  C7  UNL     1     -33.056   7.859   2.331  1.00 20.00     0.006 C 
BRANCH   7   8
HETATM    8  C9  UNL     1     -31.959   8.754   1.756  1.00 20.00     0.000 C 
BRANCH   8   9
HETATM    9  C8  UNL     1     -32.550   9.907   0.946  1.00 20.00    -0.005 C 
HETATM   10  C6  UNL     1     -33.097   9.428  -0.389  1.00 20.00     0.005 C 
ENDBRANCH   8   9
ENDBRANCH   7   8
ENDBRANCH   4   7
TORSDOF 3
ENDMDL
MODEL 4
REMARK VINA RESULT:      -4.4      2.227      4.518
REMARK  3 active torsions:
REMARK  status: ('A' for Active; 'I' for Inactive)
REMARK    1  A    between atoms: C4_4  and  C7_7 
REMARK    2  A    between atoms: C7_7  and  C9_9 
REMARK    3  A    between atoms: C8_8  and  C9_9 
ROOT
HETATM    1  C1  UNL     1     -31.225   8.146   3.691  1.00 20.00     0.002 C 
HETATM    2  C2  UNL     1     -32.659   7.810   4.112  1.00 20.00     0.006 C 
HETATM    3  C3  UNL     1     -31.299   8.639   2.245  1.00 20.00     0.020 C 
HETATM    4  C4  UNL     1     -33.463   7.723   2.808  1.00 20.00     0.004 C 
HETATM    5  C5  UNL     1     -32.788   8.815   1.971  1.00 20.00     0.086 C 
HETATM    6 CL10 UNL     1     -33.167   8.783   0.242  1.00 20.00    -0.125 Cl
ENDROOT
BRANCH   4   7
HETATM    7  C7  UNL     1     -33.405   6.334   2.225  1.00 20.00     0.006 C 
BRANCH   7   8
HETATM    8  C9  UNL     1     -33.535   5.266   3.311  1.00 20.00     0.000 C 
BRANCH   8   9
HETATM    9  C8  UNL     1     -34.861   5.393   4.058  1.00 20.00    -0.005 C 
HETATM   10  C6  UNL     1     -34.703   5.062   5.534  1.00 20.00     0.005 C 
ENDBRANCH   8   9
ENDBRANCH   7   8
ENDBRANCH   4   7
TORSDOF 3
ENDMDL
MODEL 5
REMARK VINA RESULT:      -4.1     11.149     11.885
REMARK  3 active torsions:
REMARK  status: ('A' for Active; 'I' for Inactive)
REMARK    1  A    between atoms: C4_4  and  C7_7 
REMARK    2  A    between atoms: C7_7  and  C9_9 
REMARK    3  A    between atoms: C8_8  and  C9_9 
ROOT
HETATM    1  C1  UNL     1     -33.394  14.482  -4.418  1.00 20.00     0.002 C 
HETATM    2  C2  UNL     1     -33.383  16.013  -4.369  1.00 20.00     0.006 C 
HETATM    3  C3  UNL     1     -34.863  14.056  -4.441  1.00 20.00     0.020 C 
HETATM    4  C4  UNL     1     -34.804  16.424  -3.959  1.00 20.00     0.004 C 
HETATM    5  C5  UNL     1     -35.638  15.349  -4.665  1.00 20.00     0.086 C 
HETATM    6 CL10 UNL     1     -37.323  15.231  -4.133  1.00 20.00    -0.125 Cl
ENDROOT
BRANCH   4   7
HETATM    7  C7  UNL     1     -34.945  16.468  -2.459  1.00 20.00     0.006 C 
BRANCH   7   8
HETATM    8  C9  UNL     1     -33.749  17.158  -1.805  1.00 20.00     0.000 C 
BRANCH   8   9
HETATM    9  C8  UNL     1     -34.157  17.880  -0.522  1.00 20.00    -0.005 C 
HETATM   10  C6  UNL     1     -35.537  17.447  -0.053  1.00 20.00     0.005 C 
ENDBRANCH   8   9
ENDBRANCH   7   8
ENDBRANCH   4   7
TORSDOF 3
ENDMDL
MODEL 6
REMARK VINA RESULT:      -4.1      2.087      4.950
REMARK  3 active torsions:
REMARK  status: ('A' for Active; 'I' for Inactive)
REMARK    1  A    between atoms: C4_4  and  C7_7 
REMARK    2  A    between atoms: C7_7  and  C9_9 
REMARK    3  A    between atoms: C8_8  and  C9_9 
ROOT
HETATM    1  C1  UNL     1     -32.674   8.602  -0.719  1.00 20.00     0.002 C 
HETATM    2  C2  UNL     1     -31.649   8.076   0.290  1.00 20.00     0.006 C 
HETATM    3  C3  UNL     1     -33.153   9.955  -0.189  1.00 20.00     0.020 C 
HETATM    4  C4  UNL     1     -31.850   8.913   1.560  1.00 20.00     0.004 C 
HETATM    5  C5  UNL     1     -32.205  10.279   0.961  1.00 20.00     0.086 C 
HETATM    6 CL10 UNL     1     -32.895  11.447   2.099  1.00 20.00    -0.125 Cl
ENDROOT
BRANCH   4   7
HETATM    7  C7  UNL     1     -32.904   8.306   2.451  1.00 20.00     0.006 C 
BRANCH   7   8
HETATM    8  C9  UNL     1     -32.547   6.872   2.841  1.00 20.00     0.000 C 
BRANCH   8   9
HETATM    9  C8  UNL     1     -33.762   5.951   2.741  1.00 20.00    -0.005 C 
HETATM   10  C6  UNL     1     -34.590   5.981   4.016  1.00 20.00     0.005 C 
ENDBRANCH   8   9
ENDBRANCH   7   8
ENDBRANCH   4   7
TORSDOF 3
ENDMDL
MODEL 7
REMARK VINA RESULT:      -4.0     11.385     12.419
REMARK  3 active torsions:
REMARK  status: ('A' for Active; 'I' for Inactive)
REMARK    1  A    between atoms: C4_4  and  C7_7 
REMARK    2  A    between atoms: C7_7  and  C9_9 
REMARK    3  A    between atoms: C8_8  and  C9_9 
ROOT
HETATM    1  C1  UNL     1     -34.226  14.289  -5.700  1.00 20.00     0.002 C 
HETATM    2  C2  UNL     1     -33.759  14.301  -4.242  1.00 20.00     0.006 C 
HETATM    3  C3  UNL     1     -34.115  15.728  -6.207  1.00 20.00     0.020 C 
HETATM    4  C4  UNL     1     -33.776  15.775  -3.814  1.00 20.00     0.004 C 
HETATM    5  C5  UNL     1     -33.349  16.466  -5.114  1.00 20.00     0.086 C 
HETATM    6 CL10 UNL     1     -33.614  18.215  -5.162  1.00 20.00    -0.125 Cl
ENDROOT
BRANCH   4   7
HETATM    7  C7  UNL     1     -35.132  16.173  -3.288  1.00 20.00     0.006 C 
BRANCH   7   8
HETATM    8  C9  UNL     1     -35.045  16.687  -1.851  1.00 20.00     0.000 C 
BRANCH   8   9
HETATM    9  C8  UNL     1     -33.723  17.410  -1.599  1.00 20.00    -0.005 C 
HETATM   10  C6  UNL     1     -33.758  18.198  -0.299  1.00 20.00     0.005 C 
ENDBRANCH   8   9
ENDBRANCH   7   8
ENDBRANCH   4   7
TORSDOF 3
ENDMDL
MODEL 8
REMARK VINA RESULT:      -4.0      1.329      4.543
REMARK  3 active torsions:
REMARK  status: ('A' for Active; 'I' for Inactive)
REMARK    1  A    between atoms: C4_4  and  C7_7 
REMARK    2  A    between atoms: C7_7  and  C9_9 
REMARK    3  A    between atoms: C8_8  and  C9_9 
ROOT
HETATM    1  C1  UNL     1     -32.855  10.058   0.685  1.00 20.00     0.002 C 
HETATM    2  C2  UNL     1     -32.665   8.587   0.302  1.00 20.00     0.006 C 
HETATM    3  C3  UNL     1     -32.309  10.213   2.105  1.00 20.00     0.020 C 
HETATM    4  C4  UNL     1     -32.400   7.847   1.619  1.00 20.00     0.004 C 
HETATM    5  C5  UNL     1     -31.594   8.897   2.392  1.00 20.00     0.086 C 
HETATM    6 CL10 UNL     1     -31.414   8.587   4.125  1.00 20.00    -0.125 Cl
ENDROOT
BRANCH   4   7
HETATM    7  C7  UNL     1     -33.690   7.417   2.271  1.00 20.00     0.006 C 
BRANCH   7   8
HETATM    8  C9  UNL     1     -33.555   6.042   2.925  1.00 20.00     0.000 C 
BRANCH   8   9
HETATM    9  C8  UNL     1     -34.743   5.742   3.838  1.00 20.00    -0.005 C 
HETATM   10  C6  UNL     1     -34.406   6.005   5.297  1.00 20.00     0.005 C 
ENDBRANCH   8   9
ENDBRANCH   7   8
ENDBRANCH   4   7
TORSDOF 3
ENDMDL
MODEL 9
REMARK VINA RESULT:      -3.9     11.520     12.212
REMARK  3 active torsions:
REMARK  status: ('A' for Active; 'I' for Inactive)
REMARK    1  A    between atoms: C4_4  and  C7_7 
REMARK    2  A    between atoms: C7_7  and  C9_9 
REMARK    3  A    between atoms: C8_8  and  C9_9 
ROOT
HETATM    1  C1  UNL     1     -35.588  13.355  -6.744  1.00 20.00     0.002 C 
HETATM    2  C2  UNL     1     -35.968  13.361  -5.261  1.00 20.00     0.006 C 
HETATM    3  C3  UNL     1     -34.335  14.222  -6.878  1.00 20.00     0.020 C 
HETATM    4  C4  UNL     1     -35.194  14.532  -4.640  1.00 20.00     0.004 C 
HETATM    5  C5  UNL     1     -33.890  14.484  -5.444  1.00 20.00     0.086 C 
HETATM    6 CL10 UNL     1     -32.863  15.919  -5.304  1.00 20.00    -0.125 Cl
ENDROOT
BRANCH   4   7
HETATM    7  C7  UNL     1     -35.973  15.819  -4.753  1.00 20.00     0.006 C 
BRANCH   7   8
HETATM    8  C9  UNL     1     -36.274  16.411  -3.376  1.00 20.00     0.000 C 
BRANCH   8   9
HETATM    9  C8  UNL     1     -35.047  16.354  -2.467  1.00 20.00    -0.005 C 
HETATM   10  C6  UNL     1     -35.301  17.059  -1.143  1.00 20.00     0.005 C 
ENDBRANCH   8   9
ENDBRANCH   7   8
ENDBRANCH   4   7
TORSDOF 3
ENDMDL
