MODEL 1
REMARK VINA RESULT:      -5.4      0.000      0.000
REMARK  3 active torsions:
REMARK  status: ('A' for Active; 'I' for Inactive)
REMARK    1  A    between atoms: C4_4  and  C5_5 
REMARK    2  A    between atoms: C5_5  and  C6_6 
REMARK    3  A    between atoms: C6_6  and  C7_7 
ROOT
HETATM    1  C2  UNL     1     -33.630   7.249   5.561  1.00 20.00     0.011 C 
HETATM    2  C6  UNL     1     -33.768   7.110   4.039  1.00 20.00    -0.001 C 
ENDROOT
BRANCH   2   3
HETATM    3  C5  UNL     1     -32.485   7.564   3.305  1.00 20.00     0.005 C 
BRANCH   3   4
HETATM    4  C4  UNL     1     -32.693   8.541   2.141  1.00 20.00    -0.004 C 
HETATM    5  C1  UNL     1     -31.527   8.587   1.166  1.00 20.00     0.005 C 
ENDBRANCH   3   4
ENDBRANCH   2   3
BRANCH   2   6
HETATM    6  C7  UNL     1     -34.214   5.673   3.657  1.00 20.00     0.082 C 
HETATM    7  C3  UNL     1     -33.202   4.933   2.789  1.00 20.00     0.027 C 
HETATM    8 CL8  UNL     1     -34.587   4.672   5.096  1.00 20.00    -0.125 Cl
ENDBRANCH   2   6
TORSDOF 3
ENDMDL
MODEL 2
REMARK VINA RESULT:      -5.3      1.406      2.063
REMARK  3 active torsions:
REMARK  status: ('A' for Active; 'I' for Inactive)
REMARK    1  A    between atoms: C4_4  and  C5_5 
REMARK    2  A    between atoms: C5_5  and  C6_6 
REMARK    3  A    between atoms: C6_6  and  C7_7 
ROOT
HETATM    1  C2  UNL     1     -33.164   5.051   2.688  1.00 20.00     0.011 C 
HETATM    2  C6  UNL     1     -33.141   6.384   3.449  1.00 20.00    -0.001 C 
ENDROOT
BRANCH   2   3
HETATM    3  C5  UNL     1     -33.232   7.592   2.488  1.00 20.00     0.005 C 
BRANCH   3   4
HETATM    4  C4  UNL     1     -31.914   8.333   2.223  1.00 20.00    -0.004 C 
HETATM    5  C1  UNL     1     -31.894   9.088   0.903  1.00 20.00     0.005 C 
ENDBRANCH   3   4
ENDBRANCH   2   3
BRANCH   2   6
HETATM    6  C7  UNL     1     -34.228   6.403   4.558  1.00 20.00     0.082 C 
HETATM    7  C3  UNL     1     -34.656   5.011   5.012  1.00 20.00     0.027 C 
HETATM    8 CL8  UNL     1     -33.720   7.351   5.992  1.00 20.00    -0.125 Cl
ENDBRANCH   2   6
TORSDOF 3
ENDMDL
MODEL 3
REMARK VINA RESULT:      -5.1      1.738      3.990
REMARK  3 active torsions:
REMARK  status: ('A' for Active; 'I' for Inactive)
REMARK    1  A    between atoms: C4_4  and  C5_5 
REMARK    2  A    between atoms: C5_5  and  C6_6 
REMARK    3  A    between atoms: C6_6  and  C7_7 
ROOT
HETATM    1  C2  UNL     1     -32.957   4.735   2.519  1.00 20.00     0.011 C 
HETATM    2  C6  UNL     1     -33.598   6.118   2.701  1.00 20.00    -0.001 C 
ENDROOT
BRANCH   2   3
HETATM    3  C5  UNL     1     -34.811   6.065   3.658  1.00 20.00     0.005 C 
BRANCH   3   4
HETATM    4  C4  UNL     1     -34.923   4.802   4.523  1.00 20.00    -0.004 C 
HETATM    5  C1  UNL     1     -34.569   5.030   5.984  1.00 20.00     0.005 C 
ENDBRANCH   3   4
ENDBRANCH   2   3
BRANCH   2   6
HETATM    6  C7  UNL     1     -32.533   7.167   3.121  1.00 20.00     0.082 C 
HETATM    7  C3  UNL     1     -32.421   8.341   2.154  1.00 20.00     0.027 C 
HETATM    8 CL8  UNL     1     -32.818   7.800   4.774  1.00 20.00    -0.125 Cl
ENDBRANCH   2   6
TORSDOF 3
ENDMDL
MODEL 4
REMARK VINA RESULT:      -4.6      1.371      1.969
REMARK  3 active torsions:
REMARK  status: ('A' for Active; 'I' for Inactive)
REMARK    1  A    between atoms: C4_4  and  C5_5 
REMARK    2  A    between atoms: C5_5  and  C6_6 
REMARK    3  A    between atoms: C6_6  and  C7_7 
ROOT
HETATM    1  C2  UNL     1     -31.532   8.150   3.797  1.00 20.00     0.011 C 
HETATM    2  C6  UNL     1     -32.817   8.089   2.959  1.00 20.00    -0.001 C 
ENDROOT
BRANCH   2   3
HETATM    3  C5  UNL     1     -32.509   7.951   1.450  1.00 20.00     0.005 C 
BRANCH   3   4
HETATM    4  C4  UNL     1     -31.906   9.191   0.777  1.00 20.00    -0.004 C 
HETATM    5  C1  UNL     1     -32.695  10.467   1.029  1.00 20.00     0.005 C 
ENDBRANCH   3   4
ENDBRANCH   2   3
BRANCH   2   6
HETATM    6  C7  UNL     1     -33.768   6.983   3.492  1.00 20.00     0.082 C 
HETATM    7  C3  UNL     1     -33.424   5.588   2.981  1.00 20.00     0.027 C 
HETATM    8 CL8  UNL     1     -33.830   6.946   5.283  1.00 20.00    -0.125 Cl
ENDBRANCH   2   6
TORSDOF 3
ENDMDL
MODEL 5
REMARK VINA RESULT:      -4.5      1.025      2.049
REMARK  3 active torsions:
REMARK  status: ('A' for Active; 'I' for Inactive)
REMARK    1  A    between atoms: C4_4  and  C5_5 
REMARK    2  A    between atoms: C5_5  and  C6_6 
REMARK    3  A    between atoms: C6_6  and  C7_7 
ROOT
HETATM    1  C2  UNL     1     -34.088   6.153   2.324  1.00 20.00     0.011 C 
HETATM    2  C6  UNL     1     -33.025   6.516   3.370  1.00 20.00    -0.001 C 
ENDROOT
BRANCH   2   3
HETATM    3  C5  UNL     1     -32.550   7.980   3.218  1.00 20.00     0.005 C 
BRANCH   3   4
HETATM    4  C4  UNL     1     -31.908   8.336   1.871  1.00 20.00    -0.004 C 
HETATM    5  C1  UNL     1     -32.456   9.612   1.252  1.00 20.00     0.005 C 
ENDBRANCH   3   4
ENDBRANCH   2   3
BRANCH   2   6
HETATM    6  C7  UNL     1     -33.526   6.182   4.801  1.00 20.00     0.082 C 
HETATM    7  C3  UNL     1     -33.698   7.411   5.687  1.00 20.00     0.027 C 
HETATM    8 CL8  UNL     1     -35.062   5.258   4.785  1.00 20.00    -0.125 Cl
ENDBRANCH   2   6
TORSDOF 3
ENDMDL
MODEL 6
REMARK VINA RESULT:      -4.4      2.765      4.361
REMARK  3 active torsions:
REMARK  status: ('A' for Active; 'I' for Inactive)
REMARK    1  A    between atoms: C4_4  and  C5_5 
REMARK    2  A    between atoms: C5_5  and  C6_6 
REMARK    3  A    between atoms: C6_6  and  C7_7 
ROOT
HETATM    1  C2  UNL     1     -31.401   8.374   3.727  1.00 20.00     0.011 C 
HETATM    2  C6  UNL     1     -32.346   7.708   2.718  1.00 20.00    -0.001 C 
ENDROOT
BRANCH   2   3
HETATM    3  C5  UNL     1     -33.679   7.283   3.377  1.00 20.00     0.005 C 
BRANCH   3   4
HETATM    4  C4  UNL     1     -33.669   7.203   4.910  1.00 20.00    -0.004 C 
HETATM    5  C1  UNL     1     -34.431   6.010   5.463  1.00 20.00     0.005 C 
ENDBRANCH   3   4
ENDBRANCH   2   3
BRANCH   2   6
HETATM    6  C7  UNL     1     -32.542   8.611   1.470  1.00 20.00     0.082 C 
HETATM    7  C3  UNL     1     -32.808  10.073   1.814  1.00 20.00     0.027 C 
HETATM    8 CL8  UNL     1     -31.152   8.524   0.343  1.00 20.00    -0.125 Cl
ENDBRANCH   2   6
TORSDOF 3
ENDMDL
MODEL 7
REMARK VINA RESULT:      -4.3      1.856      3.701
REMARK  3 active torsions:
REMARK  status: ('A' for Active; 'I' for Inactive)
REMARK    1  A    between atoms: C4_4  and  C5_5 
REMARK    2  A    between atoms: C5_5  and  C6_6 
REMARK    3  A    between atoms: C6_6  and  C7_7 
ROOT
HETATM    1  C2  UNL     1     -33.359   7.869   5.954  1.00 20.00     0.011 C 
HETATM    2  C6  UNL     1     -33.479   6.809   4.849  1.00 20.00    -0.001 C 
ENDROOT
BRANCH   2   3
HETATM    3  C5  UNL     1     -34.792   6.002   4.972  1.00 20.00     0.005 C 
BRANCH   3   4
HETATM    4  C4  UNL     1     -34.632   4.521   5.338  1.00 20.00    -0.004 C 
HETATM    5  C1  UNL     1     -33.976   3.690   4.245  1.00 20.00     0.005 C 
ENDBRANCH   3   4
ENDBRANCH   2   3
BRANCH   2   6
HETATM    6  C7  UNL     1     -33.285   7.451   3.449  1.00 20.00     0.082 C 
HETATM    7  C3  UNL     1     -31.890   8.030   3.234  1.00 20.00     0.027 C 
HETATM    8 CL8  UNL     1     -33.650   6.305   2.120  1.00 20.00    -0.125 Cl
ENDBRANCH   2   6
TORSDOF 3
ENDMDL
MODEL 8
REMARK VINA RESULT:      -4.3      1.470      3.251
REMARK  3 active torsions:
REMARK  status: ('A' for Active; 'I' for Inactive)
REMARK    1  A    between atoms: C4_4  and  C5_5 
REMARK    2  A    between atoms: C5_5  and  C6_6 
REMARK    3  A    between atoms: C6_6  and  C7_7 
ROOT
HETATM    1  C2  UNL     1     -31.812   8.115   3.019  1.00 20.00     0.011 C 
HETATM    2  C6  UNL     1     -32.720   7.072   3.685  1.00 20.00    -0.001 C 
ENDROOT
BRANCH   2   3
HETATM    3  C5  UNL     1     -33.691   7.722   4.697  1.00 20.00     0.005 C 
BRANCH   3   4
HETATM    4  C4  UNL     1     -33.838   6.996   6.041  1.00 20.00    -0.004 C 
HETATM    5  C1  UNL     1     -34.496   5.630   5.927  1.00 20.00     0.005 C 
ENDBRANCH   3   4
ENDBRANCH   2   3
BRANCH   2   6
HETATM    6  C7  UNL     1     -33.442   6.209   2.614  1.00 20.00     0.082 C 
HETATM    7  C3  UNL     1     -32.975   4.757   2.588  1.00 20.00     0.027 C 
HETATM    8 CL8  UNL     1     -35.224   6.242   2.803  1.00 20.00    -0.125 Cl
ENDBRANCH   2   6
TORSDOF 3
ENDMDL
MODEL 9
REMARK VINA RESULT:      -4.3      2.894      4.445
REMARK  3 active torsions:
REMARK  status: ('A' for Active; 'I' for Inactive)
REMARK    1  A    between atoms: C4_4  and  C5_5 
REMARK    2  A    between atoms: C5_5  and  C6_6 
REMARK    3  A    between atoms: C6_6  and  C7_7 
ROOT
HETATM    1  C2  UNL     1     -31.364   8.528   3.242  1.00 20.00     0.011 C 
HETATM    2  C6  UNL     1     -32.099   8.134   1.953  1.00 20.00    -0.001 C 
ENDROOT
BRANCH   2   3
HETATM    3  C5  UNL     1     -33.507   7.569   2.248  1.00 20.00     0.005 C 
BRANCH   3   4
HETATM    4  C4  UNL     1     -33.546   6.161   2.858  1.00 20.00    -0.004 C 
HETATM    5  C1  UNL     1     -34.733   5.929   3.781  1.00 20.00     0.005 C 
ENDBRANCH   3   4
ENDBRANCH   2   3
BRANCH   2   6
HETATM    6  C7  UNL     1     -32.113   9.316   0.946  1.00 20.00     0.082 C 
HETATM    7  C3  UNL     1     -32.893   9.017  -0.331  1.00 20.00     0.027 C 
HETATM    8 CL8  UNL     1     -32.751  10.823   1.676  1.00 20.00    -0.125 Cl
ENDBRANCH   2   6
TORSDOF 3
ENDMDL
