MODEL 1
REMARK VINA RESULT:      -6.2      0.000      0.000
REMARK  1 active torsions:
REMARK  status: ('A' for Active; 'I' for Inactive)
REMARK    1  A    between atoms: C6_6  and  C8_8 
ROOT
HETATM    1  C1  UNL     1     -32.292   9.126   1.167  1.00 20.00     0.012 C 
HETATM    2  C2  UNL     1     -32.170   8.551   2.214  1.00 20.00    -0.117 C 
HETATM    3  C8  UNL     1     -32.014   7.850   3.495  1.00 20.00     0.099 C 
ENDROOT
BRANCH   3   4
HETATM    4  C6  UNL     1     -33.353   7.357   4.019  1.00 20.00     0.015 C 
HETATM    5  C4  UNL     1     -33.418   7.336   5.549  1.00 20.00     0.007 C 
HETATM    6  C3  UNL     1     -34.461   6.273   5.903  1.00 20.00     0.002 C 
HETATM    7  C5  UNL     1     -34.821   5.571   4.595  1.00 20.00     0.020 C 
HETATM    8  C7  UNL     1     -33.669   5.906   3.658  1.00 20.00     0.087 C 
HETATM    9 CL9  UNL     1     -34.117   5.697   1.957  1.00 20.00    -0.125 Cl
ENDBRANCH   3   4
TORSDOF 1
ENDMDL
MODEL 2
REMARK VINA RESULT:      -5.7      1.840      2.423
REMARK  1 active torsions:
REMARK  status: ('A' for Active; 'I' for Inactive)
REMARK    1  A    between atoms: C6_6  and  C8_8 
ROOT
HETATM    1  C1  UNL     1     -31.385   8.734   2.717  1.00 20.00     0.012 C 
HETATM    2  C2  UNL     1     -32.320   7.982   2.669  1.00 20.00    -0.117 C 
HETATM    3  C8  UNL     1     -33.464   7.065   2.604  1.00 20.00     0.099 C 
ENDROOT
BRANCH   3   4
HETATM    4  C6  UNL     1     -33.402   6.027   3.714  1.00 20.00     0.015 C 
HETATM    5  C4  UNL     1     -33.826   4.633   3.244  1.00 20.00     0.007 C 
HETATM    6  C3  UNL     1     -34.330   3.911   4.496  1.00 20.00     0.002 C 
HETATM    7  C5  UNL     1     -34.376   4.959   5.607  1.00 20.00     0.020 C 
HETATM    8  C7  UNL     1     -34.366   6.291   4.869  1.00 20.00     0.087 C 
HETATM    9 CL9  UNL     1     -33.846   7.622   5.916  1.00 20.00    -0.125 Cl
ENDBRANCH   3   4
TORSDOF 1
ENDMDL
MODEL 3
REMARK VINA RESULT:      -5.2      2.003      4.066
REMARK  1 active torsions:
REMARK  status: ('A' for Active; 'I' for Inactive)
REMARK    1  A    between atoms: C6_6  and  C8_8 
ROOT
HETATM    1  C1  UNL     1     -33.987   3.863   4.588  1.00 20.00     0.012 C 
HETATM    2  C2  UNL     1     -34.479   4.861   4.136  1.00 20.00    -0.117 C 
HETATM    3  C8  UNL     1     -35.087   6.078   3.584  1.00 20.00     0.099 C 
ENDROOT
BRANCH   3   4
HETATM    4  C6  UNL     1     -34.089   7.225   3.550  1.00 20.00     0.015 C 
HETATM    5  C4  UNL     1     -33.205   7.203   2.300  1.00 20.00     0.007 C 
HETATM    6  C3  UNL     1     -31.917   7.933   2.693  1.00 20.00     0.002 C 
HETATM    7  C5  UNL     1     -32.003   8.175   4.199  1.00 20.00     0.020 C 
HETATM    8  C7  UNL     1     -33.060   7.191   4.680  1.00 20.00     0.087 C 
HETATM    9 CL9  UNL     1     -33.737   7.661   6.248  1.00 20.00    -0.125 Cl
ENDBRANCH   3   4
TORSDOF 1
ENDMDL
MODEL 4
REMARK VINA RESULT:      -4.9      1.024      3.766
REMARK  1 active torsions:
REMARK  status: ('A' for Active; 'I' for Inactive)
REMARK    1  A    between atoms: C6_6  and  C8_8 
ROOT
HETATM    1  C1  UNL     1     -34.744   4.873   5.799  1.00 20.00     0.012 C 
HETATM    2  C2  UNL     1     -34.271   5.963   5.629  1.00 20.00    -0.117 C 
HETATM    3  C8  UNL     1     -33.696   7.299   5.427  1.00 20.00     0.099 C 
ENDROOT
BRANCH   3   4
HETATM    4  C6  UNL     1     -32.762   7.320   4.227  1.00 20.00     0.015 C 
HETATM    5  C4  UNL     1     -31.868   8.563   4.195  1.00 20.00     0.007 C 
HETATM    6  C3  UNL     1     -31.508   8.774   2.722  1.00 20.00     0.002 C 
HETATM    7  C5  UNL     1     -32.357   7.784   1.925  1.00 20.00     0.020 C 
HETATM    8  C7  UNL     1     -33.479   7.397   2.879  1.00 20.00     0.087 C 
HETATM    9 CL9  UNL     1     -34.245   5.870   2.413  1.00 20.00    -0.125 Cl
ENDBRANCH   3   4
TORSDOF 1
ENDMDL
MODEL 5
REMARK VINA RESULT:      -4.4      1.791      4.185
REMARK  1 active torsions:
REMARK  status: ('A' for Active; 'I' for Inactive)
REMARK    1  A    between atoms: C6_6  and  C8_8 
ROOT
HETATM    1  C1  UNL     1     -34.939   4.727   4.884  1.00 20.00     0.012 C 
HETATM    2  C2  UNL     1     -34.234   5.069   3.974  1.00 20.00    -0.117 C 
HETATM    3  C8  UNL     1     -33.371   5.480   2.860  1.00 20.00     0.099 C 
ENDROOT
BRANCH   3   4
HETATM    4  C6  UNL     1     -33.222   6.993   2.808  1.00 20.00     0.015 C 
HETATM    5  C4  UNL     1     -32.523   7.475   1.534  1.00 20.00     0.007 C 
HETATM    6  C3  UNL     1     -31.884   8.818   1.897  1.00 20.00     0.002 C 
HETATM    7  C5  UNL     1     -32.053   8.980   3.407  1.00 20.00     0.020 C 
HETATM    8  C7  UNL     1     -32.333   7.570   3.909  1.00 20.00     0.087 C 
HETATM    9 CL9  UNL     1     -33.114   7.576   5.499  1.00 20.00    -0.125 Cl
ENDBRANCH   3   4
TORSDOF 1
ENDMDL
MODEL 6
REMARK VINA RESULT:      -4.3     11.308     11.700
REMARK  1 active torsions:
REMARK  status: ('A' for Active; 'I' for Inactive)
REMARK    1  A    between atoms: C6_6  and  C8_8 
ROOT
HETATM    1  C1  UNL     1     -34.390  14.667  -4.134  1.00 20.00     0.012 C 
HETATM    2  C2  UNL     1     -34.065  15.702  -3.619  1.00 20.00    -0.117 C 
HETATM    3  C8  UNL     1     -33.666  16.969  -2.996  1.00 20.00     0.099 C 
ENDROOT
BRANCH   3   4
HETATM    4  C6  UNL     1     -34.022  16.992  -1.517  1.00 20.00     0.015 C 
HETATM    5  C4  UNL     1     -35.533  16.967  -1.273  1.00 20.00     0.007 C 
HETATM    6  C3  UNL     1     -35.741  17.626   0.093  1.00 20.00     0.002 C 
HETATM    7  C5  UNL     1     -34.384  18.193   0.508  1.00 20.00     0.020 C 
HETATM    8  C7  UNL     1     -33.594  18.266  -0.792  1.00 20.00     0.087 C 
HETATM    9 CL9  UNL     1     -31.848  18.345  -0.500  1.00 20.00    -0.125 Cl
ENDBRANCH   3   4
TORSDOF 1
ENDMDL
MODEL 7
REMARK VINA RESULT:      -4.2      1.851      4.031
REMARK  1 active torsions:
REMARK  status: ('A' for Active; 'I' for Inactive)
REMARK    1  A    between atoms: C6_6  and  C8_8 
ROOT
HETATM    1  C1  UNL     1     -34.719   4.675   6.066  1.00 20.00     0.012 C 
HETATM    2  C2  UNL     1     -34.337   5.789   5.832  1.00 20.00    -0.117 C 
HETATM    3  C8  UNL     1     -33.868   7.151   5.552  1.00 20.00     0.099 C 
ENDROOT
BRANCH   3   4
HETATM    4  C6  UNL     1     -33.797   7.414   4.056  1.00 20.00     0.015 C 
HETATM    5  C4  UNL     1     -34.558   6.368   3.236  1.00 20.00     0.007 C 
HETATM    6  C3  UNL     1     -33.891   6.361   1.857  1.00 20.00     0.002 C 
HETATM    7  C5  UNL     1     -32.649   7.242   1.976  1.00 20.00     0.020 C 
HETATM    8  C7  UNL     1     -32.387   7.326   3.473  1.00 20.00     0.087 C 
HETATM    9 CL9  UNL     1     -31.376   8.719   3.892  1.00 20.00    -0.125 Cl
ENDBRANCH   3   4
TORSDOF 1
ENDMDL
MODEL 8
REMARK VINA RESULT:      -4.1     11.365     12.050
REMARK  1 active torsions:
REMARK  status: ('A' for Active; 'I' for Inactive)
REMARK    1  A    between atoms: C6_6  and  C8_8 
ROOT
HETATM    1  C1  UNL     1     -30.972  18.706   1.626  1.00 20.00     0.012 C 
HETATM    2  C2  UNL     1     -31.787  18.925   0.772  1.00 20.00    -0.117 C 
HETATM    3  C8  UNL     1     -32.782  19.200  -0.272  1.00 20.00     0.099 C 
ENDROOT
BRANCH   3   4
HETATM    4  C6  UNL     1     -33.431  17.917  -0.765  1.00 20.00     0.015 C 
HETATM    5  C4  UNL     1     -33.243  17.699  -2.269  1.00 20.00     0.007 C 
HETATM    6  C3  UNL     1     -34.417  16.819  -2.709  1.00 20.00     0.002 C 
HETATM    7  C5  UNL     1     -35.354  16.720  -1.506  1.00 20.00     0.020 C 
HETATM    8  C7  UNL     1     -34.952  17.890  -0.618  1.00 20.00     0.087 C 
HETATM    9 CL9  UNL     1     -35.482  17.662   1.056  1.00 20.00    -0.125 Cl
ENDBRANCH   3   4
TORSDOF 1
ENDMDL
MODEL 9
REMARK VINA RESULT:      -4.0     11.371     12.237
REMARK  1 active torsions:
REMARK  status: ('A' for Active; 'I' for Inactive)
REMARK    1  A    between atoms: C6_6  and  C8_8 
ROOT
HETATM    1  C1  UNL     1     -33.420  17.437  -1.610  1.00 20.00     0.012 C 
HETATM    2  C2  UNL     1     -34.141  16.769  -2.300  1.00 20.00    -0.117 C 
HETATM    3  C8  UNL     1     -35.028  15.954  -3.139  1.00 20.00     0.099 C 
ENDROOT
BRANCH   3   4
HETATM    4  C6  UNL     1     -34.276  15.359  -4.320  1.00 20.00     0.015 C 
HETATM    5  C4  UNL     1     -33.413  16.391  -5.051  1.00 20.00     0.007 C 
HETATM    6  C3  UNL     1     -33.272  15.869  -6.484  1.00 20.00     0.002 C 
HETATM    7  C5  UNL     1     -34.212  14.670  -6.599  1.00 20.00     0.020 C 
HETATM    8  C7  UNL     1     -35.179  14.837  -5.435  1.00 20.00     0.087 C 
HETATM    9 CL9  UNL     1     -35.983  13.314  -5.021  1.00 20.00    -0.125 Cl
ENDBRANCH   3   4
TORSDOF 1
ENDMDL
