MODEL 1
REMARK VINA RESULT:      -4.6      0.000      0.000
REMARK  2 active torsions:
REMARK  status: ('A' for Active; 'I' for Inactive)
REMARK    1  A    between atoms: C8_8  and  C9_9 
REMARK    2  A    between atoms: C9_9  and  N11_11 
ROOT
HETATM    1  C1  UNL     1     -35.278  13.861  -4.989  1.00 20.00     0.071 C 
HETATM    2  C4  UNL     1     -32.963  14.628  -4.352  1.00 20.00     0.028 A 
HETATM    3  C5  UNL     1     -33.279  15.227  -5.691  1.00 20.00     0.028 A 
HETATM    4  C8  UNL     1     -34.395  14.962  -4.704  1.00 20.00     0.075 A 
HETATM    5  N10 UNL     1     -35.990  12.974  -5.218  1.00 20.00    -0.196 NA
ENDROOT
BRANCH   4   6
HETATM    6  C9  UNL     1     -35.029  16.131  -4.031  1.00 20.00     0.296 C 
BRANCH   6   7
HETATM    7  N11 UNL     1     -34.378  16.420  -2.748  1.00 20.00     0.090 N 
HETATM    8  C6  UNL     1     -33.538  17.614  -2.850  1.00 20.00     0.272 C 
HETATM    9  C2  UNL     1     -33.338  18.015  -1.396  1.00 20.00     0.032 C 
HETATM   10  C3  UNL     1     -34.541  17.441  -0.655  1.00 20.00     0.032 C 
HETATM   11  C7  UNL     1     -35.372  16.745  -1.723  1.00 20.00     0.272 C 
ENDBRANCH   6   7
ENDBRANCH   4   6
TORSDOF 2
ENDMDL
MODEL 2
REMARK VINA RESULT:      -4.5     10.889     11.628
REMARK  2 active torsions:
REMARK  status: ('A' for Active; 'I' for Inactive)
REMARK    1  A    between atoms: C8_8  and  C9_9 
REMARK    2  A    between atoms: C9_9  and  N11_11 
ROOT
HETATM    1  C1  UNL     1     -33.851   6.893   5.304  1.00 20.00     0.071 C 
HETATM    2  C4  UNL     1     -34.515   4.626   4.424  1.00 20.00     0.028 A 
HETATM    3  C5  UNL     1     -35.484   5.625   3.863  1.00 20.00     0.028 A 
HETATM    4  C8  UNL     1     -34.061   6.044   4.160  1.00 20.00     0.075 A 
HETATM    5  N10 UNL     1     -33.680   7.576   6.227  1.00 20.00    -0.196 NA
ENDROOT
BRANCH   4   6
HETATM    6  C9  UNL     1     -33.145   6.286   3.010  1.00 20.00     0.296 C 
BRANCH   6   7
HETATM    7  N11 UNL     1     -32.985   7.721   2.751  1.00 20.00     0.090 N 
HETATM    8  C6  UNL     1     -31.632   8.162   3.089  1.00 20.00     0.272 C 
HETATM    9  C2  UNL     1     -31.511   9.486   2.350  1.00 20.00     0.032 C 
HETATM   10  C3  UNL     1     -32.499   9.389   1.192  1.00 20.00     0.032 C 
HETATM   11  C7  UNL     1     -33.132   8.011   1.324  1.00 20.00     0.272 C 
ENDBRANCH   6   7
ENDBRANCH   4   6
TORSDOF 2
ENDMDL
MODEL 3
REMARK VINA RESULT:      -4.5     10.716     11.555
REMARK  2 active torsions:
REMARK  status: ('A' for Active; 'I' for Inactive)
REMARK    1  A    between atoms: C8_8  and  C9_9 
REMARK    2  A    between atoms: C9_9  and  N11_11 
ROOT
HETATM    1  C1  UNL     1     -31.677   8.390   3.297  1.00 20.00     0.071 C 
HETATM    2  C4  UNL     1     -32.599   9.538   1.251  1.00 20.00     0.028 A 
HETATM    3  C5  UNL     1     -31.520   8.602   0.790  1.00 20.00     0.028 A 
HETATM    4  C8  UNL     1     -32.333   8.265   2.022  1.00 20.00     0.075 A 
HETATM    5  N10 UNL     1     -31.149   8.492   4.326  1.00 20.00    -0.196 NA
ENDROOT
BRANCH   4   6
HETATM    6  C9  UNL     1     -33.331   7.163   1.923  1.00 20.00     0.296 C 
BRANCH   6   7
HETATM    7  N11 UNL     1     -33.368   6.369   3.157  1.00 20.00     0.090 N 
HETATM    8  C6  UNL     1     -34.598   6.629   3.905  1.00 20.00     0.272 C 
HETATM    9  C2  UNL     1     -34.681   5.437   4.848  1.00 20.00     0.032 C 
HETATM   10  C3  UNL     1     -33.895   4.327   4.158  1.00 20.00     0.032 C 
HETATM   11  C7  UNL     1     -33.406   4.937   2.852  1.00 20.00     0.272 C 
ENDBRANCH   6   7
ENDBRANCH   4   6
TORSDOF 2
ENDMDL
MODEL 4
REMARK VINA RESULT:      -4.5      1.317      1.561
REMARK  2 active torsions:
REMARK  status: ('A' for Active; 'I' for Inactive)
REMARK    1  A    between atoms: C8_8  and  C9_9 
REMARK    2  A    between atoms: C9_9  and  N11_11 
ROOT
HETATM    1  C1  UNL     1     -35.515  13.892  -5.630  1.00 20.00     0.071 C 
HETATM    2  C4  UNL     1     -33.780  15.225  -6.882  1.00 20.00     0.028 A 
HETATM    3  C5  UNL     1     -35.079  15.383  -7.615  1.00 20.00     0.028 A 
HETATM    4  C8  UNL     1     -35.083  15.177  -6.116  1.00 20.00     0.075 A 
HETATM    5  N10 UNL     1     -35.862  12.856  -5.238  1.00 20.00    -0.196 NA
ENDROOT
BRANCH   4   6
HETATM    6  C9  UNL     1     -35.431  16.337  -5.249  1.00 20.00     0.296 C 
BRANCH   6   7
HETATM    7  N11 UNL     1     -34.917  16.154  -3.887  1.00 20.00     0.090 N 
HETATM    8  C6  UNL     1     -33.755  17.012  -3.650  1.00 20.00     0.272 C 
HETATM    9  C2  UNL     1     -33.659  17.043  -2.132  1.00 20.00     0.032 C 
HETATM   10  C3  UNL     1     -35.072  16.755  -1.636  1.00 20.00     0.032 C 
HETATM   11  C7  UNL     1     -35.908  16.578  -2.896  1.00 20.00     0.272 C 
ENDBRANCH   6   7
ENDBRANCH   4   6
TORSDOF 2
ENDMDL
MODEL 5
REMARK VINA RESULT:      -4.5     10.846     11.508
REMARK  2 active torsions:
REMARK  status: ('A' for Active; 'I' for Inactive)
REMARK    1  A    between atoms: C8_8  and  C9_9 
REMARK    2  A    between atoms: C9_9  and  N11_11 
ROOT
HETATM    1  C1  UNL     1     -32.744   9.155   1.454  1.00 20.00     0.071 C 
HETATM    2  C4  UNL     1     -31.549   7.225   2.550  1.00 20.00     0.028 A 
HETATM    3  C5  UNL     1     -31.341   8.431   3.418  1.00 20.00     0.028 A 
HETATM    4  C8  UNL     1     -32.610   8.301   2.605  1.00 20.00     0.075 A 
HETATM    5  N10 UNL     1     -32.853   9.842   0.525  1.00 20.00    -0.196 NA
ENDROOT
BRANCH   4   6
HETATM    6  C9  UNL     1     -33.879   8.000   3.327  1.00 20.00     0.296 C 
BRANCH   6   7
HETATM    7  N11 UNL     1     -33.795   6.716   4.033  1.00 20.00     0.090 N 
HETATM    8  C6  UNL     1     -34.066   6.890   5.461  1.00 20.00     0.272 C 
HETATM    9  C2  UNL     1     -34.391   5.476   5.919  1.00 20.00     0.032 C 
HETATM   10  C3  UNL     1     -34.891   4.757   4.671  1.00 20.00     0.032 C 
HETATM   11  C7  UNL     1     -34.832   5.796   3.561  1.00 20.00     0.272 C 
ENDBRANCH   6   7
ENDBRANCH   4   6
TORSDOF 2
ENDMDL
MODEL 6
REMARK VINA RESULT:      -4.5      9.955     10.668
REMARK  2 active torsions:
REMARK  status: ('A' for Active; 'I' for Inactive)
REMARK    1  A    between atoms: C8_8  and  C9_9 
REMARK    2  A    between atoms: C9_9  and  N11_11 
ROOT
HETATM    1  C1  UNL     1     -33.561   7.019   4.704  1.00 20.00     0.071 C 
HETATM    2  C4  UNL     1     -33.324   5.075   3.117  1.00 20.00     0.028 A 
HETATM    3  C5  UNL     1     -34.391   5.974   2.566  1.00 20.00     0.028 A 
HETATM    4  C8  UNL     1     -33.255   6.564   3.373  1.00 20.00     0.075 A 
HETATM    5  N10 UNL     1     -33.806   7.386   5.777  1.00 20.00    -0.196 NA
ENDROOT
BRANCH   4   6
HETATM    6  C9  UNL     1     -32.218   7.354   2.651  1.00 20.00     0.296 C 
BRANCH   6   7
HETATM    7  N11 UNL     1     -32.813   8.500   1.954  1.00 20.00     0.090 N 
HETATM    8  C6  UNL     1     -32.195   9.752   2.393  1.00 20.00     0.272 C 
HETATM    9  C2  UNL     1     -32.575  10.724   1.286  1.00 20.00     0.032 C 
HETATM   10  C3  UNL     1     -32.809   9.856   0.054  1.00 20.00     0.032 C 
HETATM   11  C7  UNL     1     -32.546   8.430   0.516  1.00 20.00     0.272 C 
ENDBRANCH   6   7
ENDBRANCH   4   6
TORSDOF 2
ENDMDL
MODEL 7
REMARK VINA RESULT:      -4.4     10.497     11.255
REMARK  2 active torsions:
REMARK  status: ('A' for Active; 'I' for Inactive)
REMARK    1  A    between atoms: C8_8  and  C9_9 
REMARK    2  A    between atoms: C9_9  and  N11_11 
ROOT
HETATM    1  C1  UNL     1     -33.277   5.100   2.940  1.00 20.00     0.071 C 
HETATM    2  C4  UNL     1     -35.429   6.060   3.835  1.00 20.00     0.028 A 
HETATM    3  C5  UNL     1     -34.577   5.697   5.015  1.00 20.00     0.028 A 
HETATM    4  C8  UNL     1     -33.923   6.124   3.720  1.00 20.00     0.075 A 
HETATM    5  N10 UNL     1     -32.756   4.276   2.311  1.00 20.00    -0.196 NA
ENDROOT
BRANCH   4   6
HETATM    6  C9  UNL     1     -33.278   7.467   3.669  1.00 20.00     0.296 C 
BRANCH   6   7
HETATM    7  N11 UNL     1     -32.896   7.819   2.297  1.00 20.00     0.090 N 
HETATM    8  C6  UNL     1     -33.532   9.072   1.886  1.00 20.00     0.272 C 
HETATM    9  C2  UNL     1     -32.694   9.503   0.692  1.00 20.00     0.032 C 
HETATM   10  C3  UNL     1     -31.332   8.849   0.902  1.00 20.00     0.032 C 
HETATM   11  C7  UNL     1     -31.458   8.079   2.210  1.00 20.00     0.272 C 
ENDBRANCH   6   7
ENDBRANCH   4   6
TORSDOF 2
ENDMDL
MODEL 8
REMARK VINA RESULT:      -4.2      1.890      2.647
REMARK  2 active torsions:
REMARK  status: ('A' for Active; 'I' for Inactive)
REMARK    1  A    between atoms: C8_8  and  C9_9 
REMARK    2  A    between atoms: C9_9  and  N11_11 
ROOT
HETATM    1  C1  UNL     1     -36.215  13.824  -5.524  1.00 20.00     0.071 C 
HETATM    2  C4  UNL     1     -37.428  15.236  -7.223  1.00 20.00     0.028 A 
HETATM    3  C5  UNL     1     -38.215  15.298  -5.947  1.00 20.00     0.028 A 
HETATM    4  C8  UNL     1     -36.713  15.123  -5.896  1.00 20.00     0.075 A 
HETATM    5  N10 UNL     1     -35.812  12.777  -5.225  1.00 20.00    -0.196 NA
ENDROOT
BRANCH   4   6
HETATM    6  C9  UNL     1     -35.887  16.277  -5.442  1.00 20.00     0.296 C 
BRANCH   6   7
HETATM    7  N11 UNL     1     -35.314  16.029  -4.115  1.00 20.00     0.090 N 
HETATM    8  C6  UNL     1     -33.996  16.654  -3.994  1.00 20.00     0.272 C 
HETATM    9  C2  UNL     1     -33.779  16.701  -2.488  1.00 20.00     0.032 C 
HETATM   10  C3  UNL     1     -35.179  16.701  -1.883  1.00 20.00     0.032 C 
HETATM   11  C7  UNL     1     -36.127  16.658  -3.072  1.00 20.00     0.272 C 
ENDBRANCH   6   7
ENDBRANCH   4   6
TORSDOF 2
ENDMDL
MODEL 9
REMARK VINA RESULT:      -4.1      1.499      4.872
REMARK  2 active torsions:
REMARK  status: ('A' for Active; 'I' for Inactive)
REMARK    1  A    between atoms: C8_8  and  C9_9 
REMARK    2  A    between atoms: C9_9  and  N11_11 
ROOT
HETATM    1  C1  UNL     1     -33.078  18.164  -1.294  1.00 20.00     0.071 C 
HETATM    2  C4  UNL     1     -35.285  17.182  -0.574  1.00 20.00     0.028 A 
HETATM    3  C5  UNL     1     -35.532  18.616  -0.938  1.00 20.00     0.028 A 
HETATM    4  C8  UNL     1     -34.438  17.841  -1.639  1.00 20.00     0.075 A 
HETATM    5  N10 UNL     1     -31.981  18.422  -1.016  1.00 20.00    -0.196 NA
ENDROOT
BRANCH   4   6
HETATM    6  C9  UNL     1     -34.659  17.443  -3.058  1.00 20.00     0.296 C 
BRANCH   6   7
HETATM    7  N11 UNL     1     -34.509  15.993  -3.232  1.00 20.00     0.090 N 
HETATM    8  C6  UNL     1     -35.613  15.448  -4.022  1.00 20.00     0.272 C 
HETATM    9  C2  UNL     1     -35.071  14.102  -4.480  1.00 20.00     0.032 C 
HETATM   10  C3  UNL     1     -33.554  14.256  -4.465  1.00 20.00     0.032 C 
HETATM   11  C7  UNL     1     -33.303  15.685  -4.004  1.00 20.00     0.272 C 
ENDBRANCH   6   7
ENDBRANCH   4   6
TORSDOF 2
ENDMDL
