MODEL 1
REMARK VINA RESULT:      -5.6      0.000      0.000
REMARK  4 active torsions:
REMARK  status: ('A' for Active; 'I' for Inactive)
REMARK    1  A    between atoms: C5_5  and  C6_6 
REMARK    2  A    between atoms: C5_5  and  C7_7 
REMARK    3  A    between atoms: C6_6  and  C8_8 
REMARK    4  A    between atoms: C7_7  and  C9_9 
ROOT
HETATM    1  C5  UNL     1     -32.490   7.472   2.755  1.00 20.00     0.002 C 
ENDROOT
BRANCH   1   2
HETATM    2  C6  UNL     1     -33.246   6.174   3.066  1.00 20.00     0.020 C 
BRANCH   2   3
HETATM    3  C8  UNL     1     -34.235   6.251   4.239  1.00 20.00     0.078 C 
HETATM    4  C1  UNL     1     -33.760   7.136   5.384  1.00 20.00     0.026 C 
HETATM    5 CL10 UNL     1     -34.607   4.616   4.864  1.00 20.00    -0.125 Cl
ENDBRANCH   2   3
ENDBRANCH   1   2
BRANCH   1   6
HETATM    6  C7  UNL     1     -33.346   8.407   1.888  1.00 20.00     0.008 C 
BRANCH   6   7
HETATM    7  C9  UNL     1     -32.567   9.303   0.888  1.00 20.00    -0.051 C 
HETATM    8  C2  UNL     1     -33.223   9.285  -0.504  1.00 20.00     0.014 C 
HETATM    9  C3  UNL     1     -32.482  10.754   1.389  1.00 20.00     0.014 C 
HETATM   10  C4  UNL     1     -31.135   8.745   0.760  1.00 20.00     0.014 C 
ENDBRANCH   6   7
ENDBRANCH   1   6
TORSDOF 4
ENDMDL
MODEL 2
REMARK VINA RESULT:      -5.6      0.060      1.364
REMARK  4 active torsions:
REMARK  status: ('A' for Active; 'I' for Inactive)
REMARK    1  A    between atoms: C5_5  and  C6_6 
REMARK    2  A    between atoms: C5_5  and  C7_7 
REMARK    3  A    between atoms: C6_6  and  C8_8 
REMARK    4  A    between atoms: C7_7  and  C9_9 
ROOT
HETATM    1  C5  UNL     1     -32.473   7.462   2.730  1.00 20.00     0.002 C 
ENDROOT
BRANCH   1   2
HETATM    2  C6  UNL     1     -33.261   6.190   3.072  1.00 20.00     0.020 C 
BRANCH   2   3
HETATM    3  C8  UNL     1     -34.229   6.313   4.259  1.00 20.00     0.078 C 
HETATM    4  C1  UNL     1     -33.703   7.188   5.390  1.00 20.00     0.026 C 
HETATM    5 CL10 UNL     1     -34.650   4.697   4.902  1.00 20.00    -0.125 Cl
ENDBRANCH   2   3
ENDBRANCH   1   2
BRANCH   1   6
HETATM    6  C7  UNL     1     -33.326   8.420   1.886  1.00 20.00     0.008 C 
BRANCH   6   7
HETATM    7  C9  UNL     1     -32.551   9.286   0.856  1.00 20.00    -0.051 C 
HETATM    8  C2  UNL     1     -31.113   8.774   0.669  1.00 20.00     0.014 C 
HETATM    9  C3  UNL     1     -33.264   9.304  -0.506  1.00 20.00     0.014 C 
HETATM   10  C4  UNL     1     -32.489  10.730   1.395  1.00 20.00     0.014 C 
ENDBRANCH   6   7
ENDBRANCH   1   6
TORSDOF 4
ENDMDL
MODEL 3
REMARK VINA RESULT:      -5.6      2.537      5.181
REMARK  4 active torsions:
REMARK  status: ('A' for Active; 'I' for Inactive)
REMARK    1  A    between atoms: C5_5  and  C6_6 
REMARK    2  A    between atoms: C5_5  and  C7_7 
REMARK    3  A    between atoms: C6_6  and  C8_8 
REMARK    4  A    between atoms: C7_7  and  C9_9 
ROOT
HETATM    1  C5  UNL     1     -32.548   7.739   3.179  1.00 20.00     0.002 C 
ENDROOT
BRANCH   1   2
HETATM    2  C6  UNL     1     -32.013   8.295   1.852  1.00 20.00     0.020 C 
BRANCH   2   3
HETATM    3  C8  UNL     1     -32.931   9.301   1.141  1.00 20.00     0.078 C 
HETATM    4  C1  UNL     1     -32.926   9.168  -0.376  1.00 20.00     0.026 C 
HETATM    5 CL10 UNL     1     -32.503  10.979   1.594  1.00 20.00    -0.125 Cl
ENDBRANCH   2   3
ENDBRANCH   1   2
BRANCH   1   6
HETATM    6  C7  UNL     1     -33.132   6.332   2.984  1.00 20.00     0.008 C 
BRANCH   6   7
HETATM    7  C9  UNL     1     -34.179   5.883   4.038  1.00 20.00    -0.051 C 
HETATM    8  C2  UNL     1     -34.099   4.369   4.293  1.00 20.00     0.014 C 
HETATM    9  C3  UNL     1     -33.989   6.632   5.367  1.00 20.00     0.014 C 
HETATM   10  C4  UNL     1     -35.583   6.212   3.489  1.00 20.00     0.014 C 
ENDBRANCH   6   7
ENDBRANCH   1   6
TORSDOF 4
ENDMDL
MODEL 4
REMARK VINA RESULT:      -5.6      0.117      1.383
REMARK  4 active torsions:
REMARK  status: ('A' for Active; 'I' for Inactive)
REMARK    1  A    between atoms: C5_5  and  C6_6 
REMARK    2  A    between atoms: C5_5  and  C7_7 
REMARK    3  A    between atoms: C6_6  and  C8_8 
REMARK    4  A    between atoms: C7_7  and  C9_9 
ROOT
HETATM    1  C5  UNL     1     -32.496   7.550   2.805  1.00 20.00     0.002 C 
ENDROOT
BRANCH   1   2
HETATM    2  C6  UNL     1     -33.207   6.205   3.015  1.00 20.00     0.020 C 
BRANCH   2   3
HETATM    3  C8  UNL     1     -34.253   6.181   4.141  1.00 20.00     0.078 C 
HETATM    4  C1  UNL     1     -33.864   7.014   5.355  1.00 20.00     0.026 C 
HETATM    5 CL10 UNL     1     -34.591   4.500   4.653  1.00 20.00    -0.125 Cl
ENDBRANCH   2   3
ENDBRANCH   1   2
BRANCH   1   6
HETATM    6  C7  UNL     1     -33.331   8.472   1.905  1.00 20.00     0.008 C 
BRANCH   6   7
HETATM    7  C9  UNL     1     -32.530   9.331   0.890  1.00 20.00    -0.051 C 
HETATM    8  C2  UNL     1     -32.436  10.795   1.351  1.00 20.00     0.014 C 
HETATM    9  C3  UNL     1     -31.112   8.773   0.684  1.00 20.00     0.014 C 
HETATM   10  C4  UNL     1     -33.271   9.292  -0.462  1.00 20.00     0.014 C 
ENDBRANCH   6   7
ENDBRANCH   1   6
TORSDOF 4
ENDMDL
MODEL 5
REMARK VINA RESULT:      -5.6      2.526      5.164
REMARK  4 active torsions:
REMARK  status: ('A' for Active; 'I' for Inactive)
REMARK    1  A    between atoms: C5_5  and  C6_6 
REMARK    2  A    between atoms: C5_5  and  C7_7 
REMARK    3  A    between atoms: C6_6  and  C8_8 
REMARK    4  A    between atoms: C7_7  and  C9_9 
ROOT
HETATM    1  C5  UNL     1     -32.518   7.722   3.195  1.00 20.00     0.002 C 
ENDROOT
BRANCH   1   2
HETATM    2  C6  UNL     1     -31.982   8.296   1.875  1.00 20.00     0.020 C 
BRANCH   2   3
HETATM    3  C8  UNL     1     -32.919   9.275   1.152  1.00 20.00     0.078 C 
HETATM    4  C1  UNL     1     -32.888   9.145  -0.365  1.00 20.00     0.026 C 
HETATM    5 CL10 UNL     1     -32.547  10.964   1.614  1.00 20.00    -0.125 Cl
ENDBRANCH   2   3
ENDBRANCH   1   2
BRANCH   1   6
HETATM    6  C7  UNL     1     -33.131   6.331   2.975  1.00 20.00     0.008 C 
BRANCH   6   7
HETATM    7  C9  UNL     1     -34.200   5.893   4.011  1.00 20.00    -0.051 C 
HETATM    8  C2  UNL     1     -35.621   6.207   3.512  1.00 20.00     0.014 C 
HETATM    9  C3  UNL     1     -34.093   4.391   4.322  1.00 20.00     0.014 C 
HETATM   10  C4  UNL     1     -33.956   6.681   5.315  1.00 20.00     0.014 C 
ENDBRANCH   6   7
ENDBRANCH   1   6
TORSDOF 4
ENDMDL
MODEL 6
REMARK VINA RESULT:      -5.6      2.531      5.184
REMARK  4 active torsions:
REMARK  status: ('A' for Active; 'I' for Inactive)
REMARK    1  A    between atoms: C5_5  and  C6_6 
REMARK    2  A    between atoms: C5_5  and  C7_7 
REMARK    3  A    between atoms: C6_6  and  C8_8 
REMARK    4  A    between atoms: C7_7  and  C9_9 
ROOT
HETATM    1  C5  UNL     1     -32.541   7.728   3.170  1.00 20.00     0.002 C 
ENDROOT
BRANCH   1   2
HETATM    2  C6  UNL     1     -32.013   8.277   1.837  1.00 20.00     0.020 C 
BRANCH   2   3
HETATM    3  C8  UNL     1     -32.936   9.276   1.124  1.00 20.00     0.078 C 
HETATM    4  C1  UNL     1     -32.922   9.147  -0.394  1.00 20.00     0.026 C 
HETATM    5 CL10 UNL     1     -32.525  10.956   1.583  1.00 20.00    -0.125 Cl
ENDBRANCH   2   3
ENDBRANCH   1   2
BRANCH   1   6
HETATM    6  C7  UNL     1     -33.143   6.328   2.983  1.00 20.00     0.008 C 
BRANCH   6   7
HETATM    7  C9  UNL     1     -34.205   5.904   4.033  1.00 20.00    -0.051 C 
HETATM    8  C2  UNL     1     -33.985   6.628   5.372  1.00 20.00     0.014 C 
HETATM    9  C3  UNL     1     -35.630   6.190   3.531  1.00 20.00     0.014 C 
HETATM   10  C4  UNL     1     -34.065   4.386   4.270  1.00 20.00     0.014 C 
ENDBRANCH   6   7
ENDBRANCH   1   6
TORSDOF 4
ENDMDL
MODEL 7
REMARK VINA RESULT:      -4.1      1.563      2.759
REMARK  4 active torsions:
REMARK  status: ('A' for Active; 'I' for Inactive)
REMARK    1  A    between atoms: C5_5  and  C6_6 
REMARK    2  A    between atoms: C5_5  and  C7_7 
REMARK    3  A    between atoms: C6_6  and  C8_8 
REMARK    4  A    between atoms: C7_7  and  C9_9 
ROOT
HETATM    1  C5  UNL     1     -33.295   7.173   5.401  1.00 20.00     0.002 C 
ENDROOT
BRANCH   1   2
HETATM    2  C6  UNL     1     -34.461   6.366   5.988  1.00 20.00     0.020 C 
BRANCH   2   3
HETATM    3  C8  UNL     1     -34.994   5.234   5.096  1.00 20.00     0.078 C 
HETATM    4  C1  UNL     1     -33.948   4.183   4.749  1.00 20.00     0.026 C 
HETATM    5 CL10 UNL     1     -35.700   5.894   3.590  1.00 20.00    -0.125 Cl
ENDBRANCH   2   3
ENDBRANCH   1   2
BRANCH   1   6
HETATM    6  C7  UNL     1     -33.689   7.802   4.057  1.00 20.00     0.008 C 
BRANCH   6   7
HETATM    7  C9  UNL     1     -32.612   7.740   2.940  1.00 20.00    -0.051 C 
HETATM    8  C2  UNL     1     -32.463   6.313   2.388  1.00 20.00     0.014 C 
HETATM    9  C3  UNL     1     -32.950   8.698   1.786  1.00 20.00     0.014 C 
HETATM   10  C4  UNL     1     -31.263   8.170   3.553  1.00 20.00     0.014 C 
ENDBRANCH   6   7
ENDBRANCH   1   6
TORSDOF 4
ENDMDL
MODEL 8
REMARK VINA RESULT:      -3.9      9.915     10.803
REMARK  4 active torsions:
REMARK  status: ('A' for Active; 'I' for Inactive)
REMARK    1  A    between atoms: C5_5  and  C6_6 
REMARK    2  A    between atoms: C5_5  and  C7_7 
REMARK    3  A    between atoms: C6_6  and  C8_8 
REMARK    4  A    between atoms: C7_7  and  C9_9 
ROOT
HETATM    1  C5  UNL     1     -35.150  15.513  -3.767  1.00 20.00     0.002 C 
ENDROOT
BRANCH   1   2
HETATM    2  C6  UNL     1     -34.781  14.126  -4.313  1.00 20.00     0.020 C 
BRANCH   2   3
HETATM    3  C8  UNL     1     -35.841  13.467  -5.208  1.00 20.00     0.078 C 
HETATM    4  C1  UNL     1     -35.441  13.391  -6.676  1.00 20.00     0.026 C 
HETATM    5 CL10 UNL     1     -37.411  14.313  -5.060  1.00 20.00    -0.125 Cl
ENDBRANCH   2   3
ENDBRANCH   1   2
BRANCH   1   6
HETATM    6  C7  UNL     1     -33.954  16.150  -3.045  1.00 20.00     0.008 C 
BRANCH   6   7
HETATM    7  C9  UNL     1     -34.279  17.382  -2.157  1.00 20.00    -0.051 C 
HETATM    8  C2  UNL     1     -34.830  18.545  -2.999  1.00 20.00     0.014 C 
HETATM    9  C3  UNL     1     -35.294  17.025  -1.059  1.00 20.00     0.014 C 
HETATM   10  C4  UNL     1     -32.971  17.844  -1.483  1.00 20.00     0.014 C 
ENDBRANCH   6   7
ENDBRANCH   1   6
TORSDOF 4
ENDMDL
MODEL 9
REMARK VINA RESULT:      -3.8     10.131     10.926
REMARK  4 active torsions:
REMARK  status: ('A' for Active; 'I' for Inactive)
REMARK    1  A    between atoms: C5_5  and  C6_6 
REMARK    2  A    between atoms: C5_5  and  C7_7 
REMARK    3  A    between atoms: C6_6  and  C8_8 
REMARK    4  A    between atoms: C7_7  and  C9_9 
ROOT
HETATM    1  C5  UNL     1     -33.741  15.908  -3.595  1.00 20.00     0.002 C 
ENDROOT
BRANCH   1   2
HETATM    2  C6  UNL     1     -33.949  14.535  -4.249  1.00 20.00     0.020 C 
BRANCH   2   3
HETATM    3  C8  UNL     1     -34.961  14.500  -5.403  1.00 20.00     0.078 C 
HETATM    4  C1  UNL     1     -36.026  13.422  -5.252  1.00 20.00     0.026 C 
HETATM    5 CL10 UNL     1     -34.125  14.298  -6.972  1.00 20.00    -0.125 Cl
ENDBRANCH   2   3
ENDBRANCH   1   2
BRANCH   1   6
HETATM    6  C7  UNL     1     -34.907  16.245  -2.653  1.00 20.00     0.008 C 
BRANCH   6   7
HETATM    7  C9  UNL     1     -34.701  17.483  -1.740  1.00 20.00    -0.051 C 
HETATM    8  C2  UNL     1     -35.265  18.757  -2.393  1.00 20.00     0.014 C 
HETATM    9  C3  UNL     1     -35.366  17.281  -0.368  1.00 20.00     0.014 C 
HETATM   10  C4  UNL     1     -33.186  17.674  -1.526  1.00 20.00     0.014 C 
ENDBRANCH   6   7
ENDBRANCH   1   6
TORSDOF 4
ENDMDL
