MODEL 1
REMARK VINA RESULT:      -5.4      0.000      0.000
REMARK  4 active torsions:
REMARK  status: ('A' for Active; 'I' for Inactive)
REMARK    1  A    between atoms: C2_2  and  C6_6 
REMARK    2  A    between atoms: C6_6  and  C7_7 
REMARK    3  A    between atoms: C7_7  and  C8_8 
REMARK    4  A    between atoms: C8_8  and  O9_9 
ROOT
HETATM    1  C4  UNL     1     -31.180   8.353   3.442  1.00 20.00     0.012 C 
HETATM    2  C7  UNL     1     -32.558   8.285   2.765  1.00 20.00     0.014 C 
ENDROOT
BRANCH   2   3
HETATM    3  C6  UNL     1     -33.083   6.831   2.874  1.00 20.00     0.039 C 
BRANCH   3   4
HETATM    4  C2  UNL     1     -34.054   6.586   4.006  1.00 20.00    -0.093 C 
HETATM    5  C1  UNL     1     -35.144   5.822   3.842  1.00 20.00     0.014 C 
HETATM    6  C3  UNL     1     -33.726   7.203   5.336  1.00 20.00     0.042 C 
ENDBRANCH   3   4
ENDBRANCH   2   3
BRANCH   2   7
HETATM    7  C8  UNL     1     -32.520   8.789   1.302  1.00 20.00     0.118 C 
HETATM    8  C5  UNL     1     -32.823  10.277   1.167  1.00 20.00     0.040 C 
BRANCH   7   9
HETATM    9  O9  UNL     1     -31.239   8.526   0.732  1.00 20.00    -0.396 OA
HETATM   10  H25 UNL     1     -31.395   7.992  -0.061  1.00 20.00     0.210 HD
ENDBRANCH   7   9
ENDBRANCH   2   7
TORSDOF 4
ENDMDL
MODEL 2
REMARK VINA RESULT:      -5.3      1.902      4.253
REMARK  4 active torsions:
REMARK  status: ('A' for Active; 'I' for Inactive)
REMARK    1  A    between atoms: C2_2  and  C6_6 
REMARK    2  A    between atoms: C6_6  and  C7_7 
REMARK    3  A    between atoms: C7_7  and  C8_8 
REMARK    4  A    between atoms: C8_8  and  O9_9 
ROOT
HETATM    1  C4  UNL     1     -33.160   5.796   2.726  1.00 20.00     0.012 C 
HETATM    2  C7  UNL     1     -33.393   7.238   3.202  1.00 20.00     0.014 C 
ENDROOT
BRANCH   2   3
HETATM    3  C6  UNL     1     -32.095   8.048   2.957  1.00 20.00     0.039 C 
BRANCH   3   4
HETATM    4  C2  UNL     1     -32.083   8.863   1.684  1.00 20.00    -0.093 C 
HETATM    5  C1  UNL     1     -31.346   8.497   0.625  1.00 20.00     0.014 C 
HETATM    6  C3  UNL     1     -32.962  10.080   1.642  1.00 20.00     0.042 C 
ENDBRANCH   3   4
ENDBRANCH   2   3
BRANCH   2   7
HETATM    7  C8  UNL     1     -33.856   7.301   4.678  1.00 20.00     0.118 C 
HETATM    8  C5  UNL     1     -34.407   5.977   5.197  1.00 20.00     0.040 C 
BRANCH   7   9
HETATM    9  O9  UNL     1     -32.771   7.706   5.510  1.00 20.00    -0.396 OA
HETATM   10  H25 UNL     1     -32.721   7.061   6.232  1.00 20.00     0.210 HD
ENDBRANCH   7   9
ENDBRANCH   2   7
TORSDOF 4
ENDMDL
MODEL 3
REMARK VINA RESULT:      -5.3      1.754      2.709
REMARK  4 active torsions:
REMARK  status: ('A' for Active; 'I' for Inactive)
REMARK    1  A    between atoms: C2_2  and  C6_6 
REMARK    2  A    between atoms: C6_6  and  C7_7 
REMARK    3  A    between atoms: C7_7  and  C8_8 
REMARK    4  A    between atoms: C8_8  and  O9_9 
ROOT
HETATM    1  C4  UNL     1     -33.655   7.257   5.688  1.00 20.00     0.012 C 
HETATM    2  C7  UNL     1     -33.762   7.481   4.172  1.00 20.00     0.014 C 
ENDROOT
BRANCH   2   3
HETATM    3  C6  UNL     1     -34.612   6.335   3.568  1.00 20.00     0.039 C 
BRANCH   3   4
HETATM    4  C2  UNL     1     -33.982   4.963   3.649  1.00 20.00    -0.093 C 
HETATM    5  C1  UNL     1     -34.295   4.105   4.632  1.00 20.00     0.014 C 
HETATM    6  C3  UNL     1     -33.021   4.585   2.559  1.00 20.00     0.042 C 
ENDBRANCH   3   4
ENDBRANCH   2   3
BRANCH   2   7
HETATM    7  C8  UNL     1     -32.374   7.603   3.496  1.00 20.00     0.118 C 
HETATM    8  C5  UNL     1     -32.426   8.259   2.120  1.00 20.00     0.040 C 
BRANCH   7   9
HETATM    9  O9  UNL     1     -31.493   8.352   4.330  1.00 20.00    -0.396 OA
HETATM   10  H25 UNL     1     -30.603   8.237   3.965  1.00 20.00     0.210 HD
ENDBRANCH   7   9
ENDBRANCH   2   7
TORSDOF 4
ENDMDL
MODEL 4
REMARK VINA RESULT:      -5.1      2.222      4.513
REMARK  4 active torsions:
REMARK  status: ('A' for Active; 'I' for Inactive)
REMARK    1  A    between atoms: C2_2  and  C6_6 
REMARK    2  A    between atoms: C6_6  and  C7_7 
REMARK    3  A    between atoms: C7_7  and  C8_8 
REMARK    4  A    between atoms: C8_8  and  O9_9 
ROOT
HETATM    1  C4  UNL     1     -33.829   7.249   5.556  1.00 20.00     0.012 C 
HETATM    2  C7  UNL     1     -33.536   6.572   4.209  1.00 20.00     0.014 C 
ENDROOT
BRANCH   2   3
HETATM    3  C6  UNL     1     -33.629   7.643   3.094  1.00 20.00     0.039 C 
BRANCH   3   4
HETATM    4  C2  UNL     1     -32.306   8.236   2.666  1.00 20.00    -0.093 C 
HETATM    5  C1  UNL     1     -31.235   8.216   3.474  1.00 20.00     0.014 C 
HETATM    6  C3  UNL     1     -32.229   8.812   1.282  1.00 20.00     0.042 C 
ENDBRANCH   3   4
ENDBRANCH   2   3
BRANCH   2   7
HETATM    7  C8  UNL     1     -34.467   5.364   3.944  1.00 20.00     0.118 C 
HETATM    8  C5  UNL     1     -34.394   4.294   5.028  1.00 20.00     0.040 C 
BRANCH   7   9
HETATM    9  O9  UNL     1     -35.817   5.809   3.827  1.00 20.00    -0.396 OA
HETATM   10  H25 UNL     1     -36.083   6.119   4.706  1.00 20.00     0.210 HD
ENDBRANCH   7   9
ENDBRANCH   2   7
TORSDOF 4
ENDMDL
MODEL 5
REMARK VINA RESULT:      -5.0      1.401      2.370
REMARK  4 active torsions:
REMARK  status: ('A' for Active; 'I' for Inactive)
REMARK    1  A    between atoms: C2_2  and  C6_6 
REMARK    2  A    between atoms: C6_6  and  C7_7 
REMARK    3  A    between atoms: C7_7  and  C8_8 
REMARK    4  A    between atoms: C8_8  and  O9_9 
ROOT
HETATM    1  C4  UNL     1     -33.365   5.738   1.884  1.00 20.00     0.012 C 
HETATM    2  C7  UNL     1     -32.837   6.592   3.046  1.00 20.00     0.014 C 
ENDROOT
BRANCH   2   3
HETATM    3  C6  UNL     1     -34.049   7.107   3.863  1.00 20.00     0.039 C 
BRANCH   3   4
HETATM    4  C2  UNL     1     -34.087   6.652   5.304  1.00 20.00    -0.093 C 
HETATM    5  C1  UNL     1     -33.696   7.457   6.304  1.00 20.00     0.014 C 
HETATM    6  C3  UNL     1     -34.619   5.274   5.574  1.00 20.00     0.042 C 
ENDBRANCH   3   4
ENDBRANCH   2   3
BRANCH   2   7
HETATM    7  C8  UNL     1     -31.923   7.744   2.562  1.00 20.00     0.118 C 
HETATM    8  C5  UNL     1     -32.640   8.752   1.670  1.00 20.00     0.040 C 
BRANCH   7   9
HETATM    9  O9  UNL     1     -31.373   8.431   3.683  1.00 20.00    -0.396 OA
HETATM   10  H25 UNL     1     -30.525   8.799   3.393  1.00 20.00     0.210 HD
ENDBRANCH   7   9
ENDBRANCH   2   7
TORSDOF 4
ENDMDL
MODEL 6
REMARK VINA RESULT:      -4.6      1.789      4.096
REMARK  4 active torsions:
REMARK  status: ('A' for Active; 'I' for Inactive)
REMARK    1  A    between atoms: C2_2  and  C6_6 
REMARK    2  A    between atoms: C6_6  and  C7_7 
REMARK    3  A    between atoms: C7_7  and  C8_8 
REMARK    4  A    between atoms: C8_8  and  O9_9 
ROOT
HETATM    1  C4  UNL     1     -31.537   8.197   3.812  1.00 20.00     0.012 C 
HETATM    2  C7  UNL     1     -32.478   7.323   2.968  1.00 20.00     0.014 C 
ENDROOT
BRANCH   2   3
HETATM    3  C6  UNL     1     -33.279   8.247   2.017  1.00 20.00     0.039 C 
BRANCH   3   4
HETATM    4  C2  UNL     1     -32.439   9.194   1.190  1.00 20.00    -0.093 C 
HETATM    5  C1  UNL     1     -32.673  10.515   1.183  1.00 20.00     0.014 C 
HETATM    6  C3  UNL     1     -31.305   8.598   0.407  1.00 20.00     0.042 C 
ENDBRANCH   3   4
ENDBRANCH   2   3
BRANCH   2   7
HETATM    7  C8  UNL     1     -33.399   6.438   3.842  1.00 20.00     0.118 C 
HETATM    8  C5  UNL     1     -33.830   7.111   5.141  1.00 20.00     0.040 C 
BRANCH   7   9
HETATM    9  O9  UNL     1     -34.564   6.074   3.104  1.00 20.00    -0.396 OA
HETATM   10  H25 UNL     1     -35.270   5.934   3.754  1.00 20.00     0.210 HD
ENDBRANCH   7   9
ENDBRANCH   2   7
TORSDOF 4
ENDMDL
MODEL 7
REMARK VINA RESULT:      -4.5      2.082      3.247
REMARK  4 active torsions:
REMARK  status: ('A' for Active; 'I' for Inactive)
REMARK    1  A    between atoms: C2_2  and  C6_6 
REMARK    2  A    between atoms: C6_6  and  C7_7 
REMARK    3  A    between atoms: C7_7  and  C8_8 
REMARK    4  A    between atoms: C8_8  and  O9_9 
ROOT
HETATM    1  C4  UNL     1     -32.256   8.084   2.306  1.00 20.00     0.012 C 
HETATM    2  C7  UNL     1     -32.694   7.229   3.505  1.00 20.00     0.014 C 
ENDROOT
BRANCH   2   3
HETATM    3  C6  UNL     1     -33.886   6.343   3.061  1.00 20.00     0.039 C 
BRANCH   3   4
HETATM    4  C2  UNL     1     -33.658   4.854   3.191  1.00 20.00    -0.093 C 
HETATM    5  C1  UNL     1     -32.861   4.191   2.339  1.00 20.00     0.014 C 
HETATM    6  C3  UNL     1     -34.329   4.156   4.338  1.00 20.00     0.042 C 
ENDBRANCH   3   4
ENDBRANCH   2   3
BRANCH   2   7
HETATM    7  C8  UNL     1     -33.030   8.087   4.748  1.00 20.00     0.118 C 
HETATM    8  C5  UNL     1     -33.640   7.283   5.892  1.00 20.00     0.040 C 
BRANCH   7   9
HETATM    9  O9  UNL     1     -31.852   8.737   5.220  1.00 20.00    -0.396 OA
HETATM   10  H25 UNL     1     -31.611   9.394   4.550  1.00 20.00     0.210 HD
ENDBRANCH   7   9
ENDBRANCH   2   7
TORSDOF 4
ENDMDL
MODEL 8
REMARK VINA RESULT:      -4.3      9.875     10.670
REMARK  4 active torsions:
REMARK  status: ('A' for Active; 'I' for Inactive)
REMARK    1  A    between atoms: C2_2  and  C6_6 
REMARK    2  A    between atoms: C6_6  and  C7_7 
REMARK    3  A    between atoms: C7_7  and  C8_8 
REMARK    4  A    between atoms: C8_8  and  O9_9 
ROOT
HETATM    1  C4  UNL     1     -35.323  16.419  -5.051  1.00 20.00     0.012 C 
HETATM    2  C7  UNL     1     -34.929  15.525  -3.865  1.00 20.00     0.014 C 
ENDROOT
BRANCH   2   3
HETATM    3  C6  UNL     1     -33.704  16.160  -3.161  1.00 20.00     0.039 C 
BRANCH   3   4
HETATM    4  C2  UNL     1     -34.031  16.995  -1.943  1.00 20.00    -0.093 C 
HETATM    5  C1  UNL     1     -35.219  16.900  -1.327  1.00 20.00     0.014 C 
HETATM    6  C3  UNL     1     -32.953  17.905  -1.427  1.00 20.00     0.042 C 
ENDBRANCH   3   4
ENDBRANCH   2   3
BRANCH   2   7
HETATM    7  C8  UNL     1     -34.666  14.061  -4.296  1.00 20.00     0.118 C 
HETATM    8  C5  UNL     1     -35.784  13.471  -5.149  1.00 20.00     0.040 C 
BRANCH   7   9
HETATM    9  O9  UNL     1     -33.442  13.982  -5.022  1.00 20.00    -0.396 OA
HETATM   10  H25 UNL     1     -33.210  13.042  -5.071  1.00 20.00     0.210 HD
ENDBRANCH   7   9
ENDBRANCH   2   7
TORSDOF 4
ENDMDL
MODEL 9
REMARK VINA RESULT:      -4.2     10.141     10.994
REMARK  4 active torsions:
REMARK  status: ('A' for Active; 'I' for Inactive)
REMARK    1  A    between atoms: C2_2  and  C6_6 
REMARK    2  A    between atoms: C6_6  and  C7_7 
REMARK    3  A    between atoms: C7_7  and  C8_8 
REMARK    4  A    between atoms: C8_8  and  O9_9 
ROOT
HETATM    1  C4  UNL     1     -33.777  15.159  -6.444  1.00 20.00     0.012 C 
HETATM    2  C7  UNL     1     -34.991  14.890  -5.542  1.00 20.00     0.014 C 
ENDROOT
BRANCH   2   3
HETATM    3  C6  UNL     1     -34.493  14.754  -4.082  1.00 20.00     0.039 C 
BRANCH   3   4
HETATM    4  C2  UNL     1     -34.742  15.962  -3.208  1.00 20.00    -0.093 C 
HETATM    5  C1  UNL     1     -33.735  16.607  -2.600  1.00 20.00     0.014 C 
HETATM    6  C3  UNL     1     -36.162  16.435  -3.081  1.00 20.00     0.042 C 
ENDBRANCH   3   4
ENDBRANCH   2   3
BRANCH   2   7
HETATM    7  C8  UNL     1     -35.803  13.655  -6.004  1.00 20.00     0.118 C 
HETATM    8  C5  UNL     1     -35.241  12.995  -7.258  1.00 20.00     0.040 C 
BRANCH   7   9
HETATM    9  O9  UNL     1     -35.853  12.688  -4.957  1.00 20.00    -0.396 OA
HETATM   10  H25 UNL     1     -34.944  12.580  -4.637  1.00 20.00     0.210 HD
ENDBRANCH   7   9
ENDBRANCH   2   7
TORSDOF 4
ENDMDL
