MODEL 1
REMARK VINA RESULT:      -6.2      0.000      0.000
REMARK  2 active torsions:
REMARK  status: ('A' for Active; 'I' for Inactive)
REMARK    1  A    between atoms: C2_2  and  C8_8 
REMARK    2  A    between atoms: C6_6  and  C8_8 
ROOT
HETATM    1  C3  UNL     1     -34.419   6.077   5.412  1.00 20.00     0.002 C 
HETATM    2  C4  UNL     1     -33.299   7.073   5.095  1.00 20.00     0.006 C 
HETATM    3  C5  UNL     1     -35.106   5.765   4.082  1.00 20.00     0.020 C 
HETATM    4  C6  UNL     1     -33.455   7.403   3.607  1.00 20.00     0.007 C 
HETATM    5  C7  UNL     1     -34.085   6.138   3.011  1.00 20.00     0.086 C 
HETATM    6 CL9  UNL     1     -32.917   4.804   2.787  1.00 20.00    -0.125 Cl
ENDROOT
BRANCH   4   7
HETATM    7  C8  UNL     1     -32.167   7.884   2.956  1.00 20.00     0.032 C 
BRANCH   7   8
HETATM    8  C2  UNL     1     -32.422   8.446   1.589  1.00 20.00    -0.036 C 
HETATM    9  C1  UNL     1     -32.542   9.752   1.329  1.00 20.00     0.007 C 
ENDBRANCH   7   8
ENDBRANCH   4   7
TORSDOF 2
ENDMDL
MODEL 2
REMARK VINA RESULT:      -4.9      1.657      2.054
REMARK  2 active torsions:
REMARK  status: ('A' for Active; 'I' for Inactive)
REMARK    1  A    between atoms: C2_2  and  C8_8 
REMARK    2  A    between atoms: C6_6  and  C8_8 
ROOT
HETATM    1  C3  UNL     1     -35.479   5.787   3.807  1.00 20.00     0.002 C 
HETATM    2  C4  UNL     1     -34.535   6.657   2.971  1.00 20.00     0.006 C 
HETATM    3  C5  UNL     1     -34.635   5.205   4.942  1.00 20.00     0.020 C 
HETATM    4  C6  UNL     1     -33.143   6.450   3.577  1.00 20.00     0.007 C 
HETATM    5  C7  UNL     1     -33.425   6.129   5.050  1.00 20.00     0.086 C 
HETATM    6 CL9  UNL     1     -33.841   7.571   6.021  1.00 20.00    -0.125 Cl
ENDROOT
BRANCH   4   7
HETATM    7  C8  UNL     1     -32.189   7.603   3.310  1.00 20.00     0.032 C 
BRANCH   7   8
HETATM    8  C2  UNL     1     -32.611   8.396   2.109  1.00 20.00    -0.036 C 
HETATM    9  C1  UNL     1     -31.782   8.758   1.124  1.00 20.00     0.007 C 
ENDBRANCH   7   8
ENDBRANCH   4   7
TORSDOF 2
ENDMDL
MODEL 3
REMARK VINA RESULT:      -4.5      1.771      4.106
REMARK  2 active torsions:
REMARK  status: ('A' for Active; 'I' for Inactive)
REMARK    1  A    between atoms: C2_2  and  C8_8 
REMARK    2  A    between atoms: C6_6  and  C8_8 
ROOT
HETATM    1  C3  UNL     1     -31.916   6.865   2.597  1.00 20.00     0.002 C 
HETATM    2  C4  UNL     1     -33.011   5.812   2.788  1.00 20.00     0.006 C 
HETATM    3  C5  UNL     1     -32.552   8.213   2.944  1.00 20.00     0.020 C 
HETATM    4  C6  UNL     1     -34.283   6.599   3.119  1.00 20.00     0.007 C 
HETATM    5  C7  UNL     1     -33.765   7.870   3.804  1.00 20.00     0.086 C 
HETATM    6 CL9  UNL     1     -33.261   7.606   5.497  1.00 20.00    -0.125 Cl
ENDROOT
BRANCH   4   7
HETATM    7  C8  UNL     1     -35.311   5.789   3.894  1.00 20.00     0.032 C 
BRANCH   7   8
HETATM    8  C2  UNL     1     -34.679   4.616   4.582  1.00 20.00    -0.036 C 
HETATM    9  C1  UNL     1     -34.465   4.550   5.900  1.00 20.00     0.007 C 
ENDBRANCH   7   8
ENDBRANCH   4   7
TORSDOF 2
ENDMDL
MODEL 4
REMARK VINA RESULT:      -4.2      1.802      3.862
REMARK  2 active torsions:
REMARK  status: ('A' for Active; 'I' for Inactive)
REMARK    1  A    between atoms: C2_2  and  C8_8 
REMARK    2  A    between atoms: C6_6  and  C8_8 
ROOT
HETATM    1  C3  UNL     1     -31.894   8.578   4.510  1.00 20.00     0.002 C 
HETATM    2  C4  UNL     1     -33.062   7.588   4.567  1.00 20.00     0.006 C 
HETATM    3  C5  UNL     1     -31.193   8.338   3.172  1.00 20.00     0.020 C 
HETATM    4  C6  UNL     1     -32.923   6.719   3.314  1.00 20.00     0.007 C 
HETATM    5  C7  UNL     1     -32.232   7.639   2.299  1.00 20.00     0.086 C 
HETATM    6 CL9  UNL     1     -33.332   8.844   1.572  1.00 20.00    -0.125 Cl
ENDROOT
BRANCH   4   7
HETATM    7  C8  UNL     1     -34.234   6.089   2.866  1.00 20.00     0.032 C 
BRANCH   7   8
HETATM    8  C2  UNL     1     -35.008   5.552   4.032  1.00 20.00    -0.036 C 
HETATM    9  C1  UNL     1     -34.648   4.474   4.736  1.00 20.00     0.007 C 
ENDBRANCH   7   8
ENDBRANCH   4   7
TORSDOF 2
ENDMDL
MODEL 5
REMARK VINA RESULT:      -3.9     11.375     11.920
REMARK  2 active torsions:
REMARK  status: ('A' for Active; 'I' for Inactive)
REMARK    1  A    between atoms: C2_2  and  C8_8 
REMARK    2  A    between atoms: C6_6  and  C8_8 
ROOT
HETATM    1  C3  UNL     1     -34.375  17.978  -0.275  1.00 20.00     0.002 C 
HETATM    2  C4  UNL     1     -35.191  17.018  -1.145  1.00 20.00     0.006 C 
HETATM    3  C5  UNL     1     -33.035  18.170  -0.986  1.00 20.00     0.020 C 
HETATM    4  C6  UNL     1     -34.246  16.584  -2.271  1.00 20.00     0.007 C 
HETATM    5  C7  UNL     1     -33.296  17.777  -2.437  1.00 20.00     0.086 C 
HETATM    6 CL9  UNL     1     -34.027  19.147  -3.321  1.00 20.00    -0.125 Cl
ENDROOT
BRANCH   4   7
HETATM    7  C8  UNL     1     -34.972  16.123  -3.526  1.00 20.00     0.032 C 
BRANCH   7   8
HETATM    8  C2  UNL     1     -34.466  14.791  -3.991  1.00 20.00    -0.036 C 
HETATM    9  C1  UNL     1     -33.216  14.573  -4.415  1.00 20.00     0.007 C 
ENDBRANCH   7   8
ENDBRANCH   4   7
TORSDOF 2
ENDMDL
MODEL 6
REMARK VINA RESULT:      -3.9     11.052     11.710
REMARK  2 active torsions:
REMARK  status: ('A' for Active; 'I' for Inactive)
REMARK    1  A    between atoms: C2_2  and  C8_8 
REMARK    2  A    between atoms: C6_6  and  C8_8 
ROOT
HETATM    1  C3  UNL     1     -35.607  13.650  -4.958  1.00 20.00     0.002 C 
HETATM    2  C4  UNL     1     -34.430  14.188  -4.139  1.00 20.00     0.006 C 
HETATM    3  C5  UNL     1     -36.704  14.714  -4.883  1.00 20.00     0.020 C 
HETATM    4  C6  UNL     1     -34.930  15.493  -3.512  1.00 20.00     0.007 C 
HETATM    5  C7  UNL     1     -35.980  16.004  -4.506  1.00 20.00     0.086 C 
HETATM    6 CL9  UNL     1     -35.269  16.755  -5.963  1.00 20.00    -0.125 Cl
ENDROOT
BRANCH   4   7
HETATM    7  C8  UNL     1     -33.812  16.461  -3.157  1.00 20.00     0.032 C 
BRANCH   7   8
HETATM    8  C2  UNL     1     -33.998  17.033  -1.784  1.00 20.00    -0.036 C 
HETATM    9  C1  UNL     1     -35.160  17.025  -1.122  1.00 20.00     0.007 C 
ENDBRANCH   7   8
ENDBRANCH   4   7
TORSDOF 2
ENDMDL
MODEL 7
REMARK VINA RESULT:      -3.9     11.078     12.087
REMARK  2 active torsions:
REMARK  status: ('A' for Active; 'I' for Inactive)
REMARK    1  A    between atoms: C2_2  and  C8_8 
REMARK    2  A    between atoms: C6_6  and  C8_8 
ROOT
HETATM    1  C3  UNL     1     -33.853  16.623  -5.991  1.00 20.00     0.002 C 
HETATM    2  C4  UNL     1     -34.514  17.237  -4.754  1.00 20.00     0.006 C 
HETATM    3  C5  UNL     1     -32.924  15.521  -5.480  1.00 20.00     0.020 C 
HETATM    4  C6  UNL     1     -33.850  16.553  -3.554  1.00 20.00     0.007 C 
HETATM    5  C7  UNL     1     -33.448  15.173  -4.090  1.00 20.00     0.086 C 
HETATM    6 CL9  UNL     1     -34.820  14.036  -4.219  1.00 20.00    -0.125 Cl
ENDROOT
BRANCH   4   7
HETATM    7  C8  UNL     1     -34.710  16.562  -2.300  1.00 20.00     0.032 C 
BRANCH   7   8
HETATM    8  C2  UNL     1     -34.047  17.318  -1.187  1.00 20.00    -0.036 C 
HETATM    9  C1  UNL     1     -32.936  18.047  -1.338  1.00 20.00     0.007 C 
ENDBRANCH   7   8
ENDBRANCH   4   7
TORSDOF 2
ENDMDL
MODEL 8
REMARK VINA RESULT:      -3.8     11.019     11.462
REMARK  2 active torsions:
REMARK  status: ('A' for Active; 'I' for Inactive)
REMARK    1  A    between atoms: C2_2  and  C8_8 
REMARK    2  A    between atoms: C6_6  and  C8_8 
ROOT
HETATM    1  C3  UNL     1     -35.434  13.935  -5.292  1.00 20.00     0.002 C 
HETATM    2  C4  UNL     1     -35.507  14.888  -4.095  1.00 20.00     0.006 C 
HETATM    3  C5  UNL     1     -34.174  14.318  -6.071  1.00 20.00     0.020 C 
HETATM    4  C6  UNL     1     -34.352  15.876  -4.289  1.00 20.00     0.007 C 
HETATM    5  C7  UNL     1     -33.304  15.074  -5.070  1.00 20.00     0.086 C 
HETATM    6 CL9  UNL     1     -32.396  13.919  -4.054  1.00 20.00    -0.125 Cl
ENDROOT
BRANCH   4   7
HETATM    7  C8  UNL     1     -33.880  16.516  -2.992  1.00 20.00     0.032 C 
BRANCH   7   8
HETATM    8  C2  UNL     1     -35.003  16.652  -2.008  1.00 20.00    -0.036 C 
HETATM    9  C1  UNL     1     -34.894  17.280  -0.832  1.00 20.00     0.007 C 
ENDBRANCH   7   8
ENDBRANCH   4   7
TORSDOF 2
ENDMDL
MODEL 9
REMARK VINA RESULT:      -3.7      2.106      2.871
REMARK  2 active torsions:
REMARK  status: ('A' for Active; 'I' for Inactive)
REMARK    1  A    between atoms: C2_2  and  C8_8 
REMARK    2  A    between atoms: C6_6  and  C8_8 
ROOT
HETATM    1  C3  UNL     1     -33.412   7.228   5.899  1.00 20.00     0.002 C 
HETATM    2  C4  UNL     1     -33.253   7.204   4.376  1.00 20.00     0.006 C 
HETATM    3  C5  UNL     1     -34.700   6.464   6.208  1.00 20.00     0.020 C 
HETATM    4  C6  UNL     1     -34.522   6.534   3.842  1.00 20.00     0.007 C 
HETATM    5  C7  UNL     1     -34.952   5.596   4.978  1.00 20.00     0.086 C 
HETATM    6 CL9  UNL     1     -33.975   4.104   5.071  1.00 20.00    -0.125 Cl
ENDROOT
BRANCH   4   7
HETATM    7  C8  UNL     1     -34.340   5.893   2.475  1.00 20.00     0.032 C 
BRANCH   7   8
HETATM    8  C2  UNL     1     -32.955   5.344   2.308  1.00 20.00    -0.036 C 
HETATM    9  C1  UNL     1     -32.687   4.065   2.025  1.00 20.00     0.007 C 
ENDBRANCH   7   8
ENDBRANCH   4   7
TORSDOF 2
ENDMDL
