MODEL 1
REMARK VINA RESULT:      -5.4      0.000      0.000
REMARK  1 active torsions:
REMARK  status: ('A' for Active; 'I' for Inactive)
REMARK    1  A    between atoms: C4_4  and  C9_9 
ROOT
HETATM    1  C1  UNL     1     -31.334   8.247   3.326  1.00 20.00     0.006 C 
HETATM    2  C2  UNL     1     -32.155   8.384   4.606  1.00 20.00     0.021 C 
HETATM    3  C3  UNL     1     -33.146   6.812   2.314  1.00 20.00     0.010 C 
HETATM    4  C4  UNL     1     -32.201   7.999   2.086  1.00 20.00    -0.014 C 
HETATM    5  C5  UNL     1     -33.989   6.931   3.598  1.00 20.00     0.000 C 
HETATM    6  C6  UNL     1     -33.081   7.183   4.817  1.00 20.00     0.086 C 
HETATM    7  C7  UNL     1     -34.842   5.666   3.758  1.00 20.00     0.011 C 
HETATM    8 CL10 UNL     1     -34.046   7.462   6.302  1.00 20.00    -0.125 Cl
ENDROOT
BRANCH   4   9
HETATM    9  C9  UNL     1     -32.962   9.258   1.663  1.00 20.00     0.000 C 
HETATM   10  C8  UNL     1     -32.571   9.703   0.292  1.00 20.00     0.005 C 
ENDBRANCH   4   9
TORSDOF 1
ENDMDL
MODEL 2
REMARK VINA RESULT:      -4.6      1.976      4.057
REMARK  1 active torsions:
REMARK  status: ('A' for Active; 'I' for Inactive)
REMARK    1  A    between atoms: C4_4  and  C9_9 
ROOT
HETATM    1  C1  UNL     1     -34.444   6.852   5.950  1.00 20.00     0.006 C 
HETATM    2  C2  UNL     1     -33.057   7.377   5.589  1.00 20.00     0.021 C 
HETATM    3  C3  UNL     1     -34.776   6.081   3.570  1.00 20.00     0.010 C 
HETATM    4  C4  UNL     1     -34.896   5.695   5.051  1.00 20.00    -0.014 C 
HETATM    5  C5  UNL     1     -33.382   6.609   3.181  1.00 20.00     0.000 C 
HETATM    6  C6  UNL     1     -32.964   7.765   4.111  1.00 20.00     0.086 C 
HETATM    7  C7  UNL     1     -33.396   7.025   1.704  1.00 20.00     0.011 C 
HETATM    8 CL10 UNL     1     -31.290   8.306   3.767  1.00 20.00    -0.125 Cl
ENDROOT
BRANCH   4   9
HETATM    9  C9  UNL     1     -34.140   4.401   5.364  1.00 20.00     0.000 C 
HETATM   10  C8  UNL     1     -33.925   3.578   4.136  1.00 20.00     0.005 C 
ENDBRANCH   4   9
TORSDOF 1
ENDMDL
MODEL 3
REMARK VINA RESULT:      -4.1     10.460     12.102
REMARK  1 active torsions:
REMARK  status: ('A' for Active; 'I' for Inactive)
REMARK    1  A    between atoms: C4_4  and  C9_9 
ROOT
HETATM    1  C1  UNL     1     -34.315  14.014  -4.074  1.00 20.00     0.006 C 
HETATM    2  C2  UNL     1     -35.529  14.091  -4.998  1.00 20.00     0.021 C 
HETATM    3  C3  UNL     1     -33.286  15.992  -5.256  1.00 20.00     0.010 C 
HETATM    4  C4  UNL     1     -33.617  15.367  -3.894  1.00 20.00    -0.014 C 
HETATM    5  C5  UNL     1     -34.498  16.085  -6.204  1.00 20.00     0.000 C 
HETATM    6  C6  UNL     1     -35.172  14.707  -6.353  1.00 20.00     0.086 C 
HETATM    7  C7  UNL     1     -34.039  16.658  -7.551  1.00 20.00     0.011 C 
HETATM    8 CL10 UNL     1     -36.664  14.815  -7.340  1.00 20.00    -0.125 Cl
ENDROOT
BRANCH   4   9
HETATM    9  C9  UNL     1     -34.435  16.318  -3.017  1.00 20.00     0.000 C 
HETATM   10  C8  UNL     1     -33.561  17.119  -2.109  1.00 20.00     0.005 C 
ENDBRANCH   4   9
TORSDOF 1
ENDMDL
MODEL 4
REMARK VINA RESULT:      -4.1      1.808      2.737
REMARK  1 active torsions:
REMARK  status: ('A' for Active; 'I' for Inactive)
REMARK    1  A    between atoms: C4_4  and  C9_9 
ROOT
HETATM    1  C1  UNL     1     -33.885   6.426   1.869  1.00 20.00     0.006 C 
HETATM    2  C2  UNL     1     -33.597   5.130   2.624  1.00 20.00     0.021 C 
HETATM    3  C3  UNL     1     -34.060   7.666   4.059  1.00 20.00     0.010 C 
HETATM    4  C4  UNL     1     -33.458   7.676   2.648  1.00 20.00    -0.014 C 
HETATM    5  C5  UNL     1     -33.777   6.370   4.842  1.00 20.00     0.000 C 
HETATM    6  C6  UNL     1     -34.216   5.140   4.023  1.00 20.00     0.086 C 
HETATM    7  C7  UNL     1     -34.478   6.443   6.205  1.00 20.00     0.011 C 
HETATM    8 CL10 UNL     1     -33.773   3.614   4.853  1.00 20.00    -0.125 Cl
ENDROOT
BRANCH   4   9
HETATM    9  C9  UNL     1     -31.936   7.835   2.680  1.00 20.00     0.000 C 
HETATM   10  C8  UNL     1     -31.440   8.618   1.508  1.00 20.00     0.005 C 
ENDBRANCH   4   9
TORSDOF 1
ENDMDL
MODEL 5
REMARK VINA RESULT:      -4.1      1.599      3.734
REMARK  1 active torsions:
REMARK  status: ('A' for Active; 'I' for Inactive)
REMARK    1  A    between atoms: C4_4  and  C9_9 
ROOT
HETATM    1  C1  UNL     1     -34.888   5.975   5.264  1.00 20.00     0.006 C 
HETATM    2  C2  UNL     1     -33.663   6.790   5.672  1.00 20.00     0.021 C 
HETATM    3  C3  UNL     1     -34.314   6.326   2.832  1.00 20.00     0.010 C 
HETATM    4  C4  UNL     1     -34.725   5.301   3.897  1.00 20.00    -0.014 C 
HETATM    5  C5  UNL     1     -33.076   7.157   3.220  1.00 20.00     0.000 C 
HETATM    6  C6  UNL     1     -33.279   7.813   4.600  1.00 20.00     0.086 C 
HETATM    7  C7  UNL     1     -32.799   8.189   2.119  1.00 20.00     0.011 C 
HETATM    8 CL10 UNL     1     -31.800   8.673   5.136  1.00 20.00    -0.125 Cl
ENDROOT
BRANCH   4   9
HETATM    9  C9  UNL     1     -33.751   4.121   3.956  1.00 20.00     0.000 C 
HETATM   10  C8  UNL     1     -32.928   4.024   2.713  1.00 20.00     0.005 C 
ENDBRANCH   4   9
TORSDOF 1
ENDMDL
MODEL 6
REMARK VINA RESULT:      -4.0     10.508     11.912
REMARK  1 active torsions:
REMARK  status: ('A' for Active; 'I' for Inactive)
REMARK    1  A    between atoms: C4_4  and  C9_9 
ROOT
HETATM    1  C1  UNL     1     -34.482  18.558  -3.540  1.00 20.00     0.006 C 
HETATM    2  C2  UNL     1     -33.722  17.959  -4.721  1.00 20.00     0.021 C 
HETATM    3  C3  UNL     1     -34.824  16.247  -2.585  1.00 20.00     0.010 C 
HETATM    4  C4  UNL     1     -34.401  17.690  -2.278  1.00 20.00    -0.014 C 
HETATM    5  C5  UNL     1     -34.066  15.619  -3.771  1.00 20.00     0.000 C 
HETATM    6  C6  UNL     1     -34.169  16.525  -5.014  1.00 20.00     0.086 C 
HETATM    7  C7  UNL     1     -34.615  14.210  -4.029  1.00 20.00     0.011 C 
HETATM    8 CL10 UNL     1     -33.182  15.886  -6.368  1.00 20.00    -0.125 Cl
ENDROOT
BRANCH   4   9
HETATM    9  C9  UNL     1     -33.014  17.750  -1.633  1.00 20.00     0.000 C 
HETATM   10  C8  UNL     1     -33.052  18.444  -0.311  1.00 20.00     0.005 C 
ENDBRANCH   4   9
TORSDOF 1
ENDMDL
MODEL 7
REMARK VINA RESULT:      -3.9     10.295     11.227
REMARK  1 active torsions:
REMARK  status: ('A' for Active; 'I' for Inactive)
REMARK    1  A    between atoms: C4_4  and  C9_9 
ROOT
HETATM    1  C1  UNL     1     -35.985  16.514  -4.176  1.00 20.00     0.006 C 
HETATM    2  C2  UNL     1     -36.326  16.601  -2.690  1.00 20.00     0.021 C 
HETATM    3  C3  UNL     1     -33.542  16.848  -3.638  1.00 20.00     0.010 C 
HETATM    4  C4  UNL     1     -34.558  16.015  -4.431  1.00 20.00    -0.014 C 
HETATM    5  C5  UNL     1     -33.863  16.945  -2.134  1.00 20.00     0.000 C 
HETATM    6  C6  UNL     1     -35.305  17.445  -1.923  1.00 20.00     0.086 C 
HETATM    7  C7  UNL     1     -32.826  17.851  -1.458  1.00 20.00     0.011 C 
HETATM    8 CL10 UNL     1     -35.749  17.437  -0.186  1.00 20.00    -0.125 Cl
ENDROOT
BRANCH   4   9
HETATM    9  C9  UNL     1     -34.418  14.518  -4.139  1.00 20.00     0.000 C 
HETATM   10  C8  UNL     1     -35.439  13.715  -4.875  1.00 20.00     0.005 C 
ENDBRANCH   4   9
TORSDOF 1
ENDMDL
MODEL 8
REMARK VINA RESULT:      -3.8     11.106     12.004
REMARK  1 active torsions:
REMARK  status: ('A' for Active; 'I' for Inactive)
REMARK    1  A    between atoms: C4_4  and  C9_9 
ROOT
HETATM    1  C1  UNL     1     -33.764  17.135  -5.468  1.00 20.00     0.006 C 
HETATM    2  C2  UNL     1     -33.505  15.803  -6.168  1.00 20.00     0.021 C 
HETATM    3  C3  UNL     1     -35.832  16.169  -4.391  1.00 20.00     0.010 C 
HETATM    4  C4  UNL     1     -34.547  16.976  -4.159  1.00 20.00    -0.014 C 
HETATM    5  C5  UNL     1     -35.594  14.818  -5.093  1.00 20.00     0.000 C 
HETATM    6  C6  UNL     1     -34.800  15.022  -6.398  1.00 20.00     0.086 C 
HETATM    7  C7  UNL     1     -36.945  14.132  -5.333  1.00 20.00     0.011 C 
HETATM    8 CL10 UNL     1     -34.392  13.453  -7.164  1.00 20.00    -0.125 Cl
ENDROOT
BRANCH   4   9
HETATM    9  C9  UNL     1     -33.686  16.367  -3.050  1.00 20.00     0.000 C 
HETATM   10  C8  UNL     1     -33.790  17.148  -1.780  1.00 20.00     0.005 C 
ENDBRANCH   4   9
TORSDOF 1
ENDMDL
MODEL 9
REMARK VINA RESULT:      -3.8     10.562     11.551
REMARK  1 active torsions:
REMARK  status: ('A' for Active; 'I' for Inactive)
REMARK    1  A    between atoms: C4_4  and  C9_9 
ROOT
HETATM    1  C1  UNL     1     -34.504  17.724  -4.137  1.00 20.00     0.006 C 
HETATM    2  C2  UNL     1     -35.966  17.931  -3.751  1.00 20.00     0.021 C 
HETATM    3  C3  UNL     1     -33.997  16.922  -1.798  1.00 20.00     0.010 C 
HETATM    4  C4  UNL     1     -33.813  16.644  -3.296  1.00 20.00    -0.014 C 
HETATM    5  C5  UNL     1     -35.466  17.129  -1.384  1.00 20.00     0.000 C 
HETATM    6  C6  UNL     1     -36.123  18.218  -2.256  1.00 20.00     0.086 C 
HETATM    7  C7  UNL     1     -35.525  17.465   0.111  1.00 20.00     0.011 C 
HETATM    8 CL10 UNL     1     -37.870  18.381  -1.887  1.00 20.00    -0.125 Cl
ENDROOT
BRANCH   4   9
HETATM    9  C9  UNL     1     -34.287  15.238  -3.675  1.00 20.00     0.000 C 
HETATM   10  C8  UNL     1     -33.221  14.471  -4.387  1.00 20.00     0.005 C 
ENDBRANCH   4   9
TORSDOF 1
ENDMDL
