MODEL 1
REMARK VINA RESULT:      -5.2      0.000      0.000
REMARK  1 active torsions:
REMARK  status: ('A' for Active; 'I' for Inactive)
REMARK    1  A    between atoms: C6_6  and  C8_8 
ROOT
HETATM    1  C1  UNL     1     -34.486   4.242   4.507  1.00 20.00     0.012 C 
HETATM    2  C2  UNL     1     -33.810   4.795   3.685  1.00 20.00    -0.117 C 
HETATM    3  C8  UNL     1     -32.978   5.468   2.679  1.00 20.00     0.098 C 
ENDROOT
BRANCH   3   4
HETATM    4  C6  UNL     1     -33.342   6.949   2.561  1.00 20.00     0.011 C 
HETATM    5  C4  UNL     1     -33.821   7.512   3.902  1.00 20.00     0.007 C 
HETATM    6  C3  UNL     1     -32.565   8.001   4.622  1.00 20.00     0.002 C 
HETATM    7  C5  UNL     1     -31.454   8.081   3.574  1.00 20.00     0.016 C 
HETATM    8  C7  UNL     1     -32.117   7.800   2.232  1.00 20.00     0.062 C 
HETATM    9 BR9  UNL     1     -32.665   9.483   1.394  1.00 20.00    -0.091 Br
ENDBRANCH   3   4
TORSDOF 1
ENDMDL
MODEL 2
REMARK VINA RESULT:      -4.9      2.132      3.925
REMARK  1 active torsions:
REMARK  status: ('A' for Active; 'I' for Inactive)
REMARK    1  A    between atoms: C6_6  and  C8_8 
ROOT
HETATM    1  C1  UNL     1     -32.985   9.261  -0.704  1.00 20.00     0.012 C 
HETATM    2  C2  UNL     1     -32.828   9.257   0.486  1.00 20.00    -0.117 C 
HETATM    3  C8  UNL     1     -32.636   9.258   1.941  1.00 20.00     0.098 C 
ENDROOT
BRANCH   3   4
HETATM    4  C6  UNL     1     -32.259   7.865   2.451  1.00 20.00     0.011 C 
HETATM    5  C4  UNL     1     -31.611   7.938   3.836  1.00 20.00     0.007 C 
HETATM    6  C3  UNL     1     -32.760   7.863   4.840  1.00 20.00     0.002 C 
HETATM    7  C5  UNL     1     -33.988   7.366   4.074  1.00 20.00     0.016 C 
HETATM    8  C7  UNL     1     -33.497   7.001   2.679  1.00 20.00     0.062 C 
HETATM    9 BR9  UNL     1     -33.019   5.102   2.618  1.00 20.00    -0.091 Br
ENDBRANCH   3   4
TORSDOF 1
ENDMDL
MODEL 3
REMARK VINA RESULT:      -4.5      2.229      3.925
REMARK  1 active torsions:
REMARK  status: ('A' for Active; 'I' for Inactive)
REMARK    1  A    between atoms: C6_6  and  C8_8 
ROOT
HETATM    1  C1  UNL     1     -31.789   9.146   0.358  1.00 20.00     0.012 C 
HETATM    2  C2  UNL     1     -32.412   8.890   1.352  1.00 20.00    -0.117 C 
HETATM    3  C8  UNL     1     -33.177   8.583   2.567  1.00 20.00     0.098 C 
ENDROOT
BRANCH   3   4
HETATM    4  C6  UNL     1     -32.779   7.222   3.142  1.00 20.00     0.011 C 
HETATM    5  C4  UNL     1     -32.830   7.230   4.673  1.00 20.00     0.007 C 
HETATM    6  C3  UNL     1     -34.258   6.835   5.044  1.00 20.00     0.002 C 
HETATM    7  C5  UNL     1     -34.896   6.237   3.789  1.00 20.00     0.016 C 
HETATM    8  C7  UNL     1     -33.782   6.138   2.755  1.00 20.00     0.062 C 
HETATM    9 BR9  UNL     1     -32.941   4.371   2.850  1.00 20.00    -0.091 Br
ENDBRANCH   3   4
TORSDOF 1
ENDMDL
MODEL 4
REMARK VINA RESULT:      -4.2     10.983     11.972
REMARK  1 active torsions:
REMARK  status: ('A' for Active; 'I' for Inactive)
REMARK    1  A    between atoms: C6_6  and  C8_8 
ROOT
HETATM    1  C1  UNL     1     -32.786  18.049  -1.321  1.00 20.00     0.012 C 
HETATM    2  C2  UNL     1     -33.672  17.347  -1.723  1.00 20.00    -0.117 C 
HETATM    3  C8  UNL     1     -34.757  16.486  -2.210  1.00 20.00     0.098 C 
ENDROOT
BRANCH   3   4
HETATM    4  C6  UNL     1     -34.794  16.453  -3.740  1.00 20.00     0.011 C 
HETATM    5  C4  UNL     1     -33.415  16.126  -4.321  1.00 20.00     0.007 C 
HETATM    6  C3  UNL     1     -33.350  14.603  -4.410  1.00 20.00     0.002 C 
HETATM    7  C5  UNL     1     -34.781  14.086  -4.258  1.00 20.00     0.016 C 
HETATM    8  C7  UNL     1     -35.677  15.318  -4.252  1.00 20.00     0.062 C 
HETATM    9 BR9  UNL     1     -36.290  15.704  -6.073  1.00 20.00    -0.091 Br
ENDBRANCH   3   4
TORSDOF 1
ENDMDL
MODEL 5
REMARK VINA RESULT:      -4.2     10.936     11.803
REMARK  1 active torsions:
REMARK  status: ('A' for Active; 'I' for Inactive)
REMARK    1  A    between atoms: C6_6  and  C8_8 
ROOT
HETATM    1  C1  UNL     1     -35.551  17.357  -0.499  1.00 20.00     0.012 C 
HETATM    2  C2  UNL     1     -34.798  17.054  -1.384  1.00 20.00    -0.117 C 
HETATM    3  C8  UNL     1     -33.873  16.686  -2.462  1.00 20.00     0.098 C 
ENDROOT
BRANCH   3   4
HETATM    4  C6  UNL     1     -34.631  16.222  -3.708  1.00 20.00     0.011 C 
HETATM    5  C4  UNL     1     -33.978  16.757  -4.986  1.00 20.00     0.007 C 
HETATM    6  C3  UNL     1     -32.929  15.720  -5.385  1.00 20.00     0.002 C 
HETATM    7  C5  UNL     1     -33.238  14.448  -4.593  1.00 20.00     0.016 C 
HETATM    8  C7  UNL     1     -34.555  14.706  -3.874  1.00 20.00     0.062 C 
HETATM    9 BR9  UNL     1     -36.049  14.070  -4.972  1.00 20.00    -0.091 Br
ENDBRANCH   3   4
TORSDOF 1
ENDMDL
MODEL 6
REMARK VINA RESULT:      -4.1     10.919     12.098
REMARK  1 active torsions:
REMARK  status: ('A' for Active; 'I' for Inactive)
REMARK    1  A    between atoms: C6_6  and  C8_8 
ROOT
HETATM    1  C1  UNL     1     -33.052  17.826  -1.446  1.00 20.00     0.012 C 
HETATM    2  C2  UNL     1     -33.813  17.095  -2.017  1.00 20.00    -0.117 C 
HETATM    3  C8  UNL     1     -34.748  16.201  -2.712  1.00 20.00     0.098 C 
ENDROOT
BRANCH   3   4
HETATM    4  C6  UNL     1     -34.145  15.674  -4.016  1.00 20.00     0.011 C 
HETATM    5  C4  UNL     1     -34.314  14.157  -4.132  1.00 20.00     0.007 C 
HETATM    6  C3  UNL     1     -35.666  13.937  -4.809  1.00 20.00     0.002 C 
HETATM    7  C5  UNL     1     -36.080  15.278  -5.418  1.00 20.00     0.016 C 
HETATM    8  C7  UNL     1     -34.892  16.212  -5.233  1.00 20.00     0.062 C 
HETATM    9 BR9  UNL     1     -33.742  16.148  -6.818  1.00 20.00    -0.091 Br
ENDBRANCH   3   4
TORSDOF 1
ENDMDL
MODEL 7
REMARK VINA RESULT:      -4.1     10.888     11.738
REMARK  1 active torsions:
REMARK  status: ('A' for Active; 'I' for Inactive)
REMARK    1  A    between atoms: C6_6  and  C8_8 
ROOT
HETATM    1  C1  UNL     1     -38.155  14.563  -5.073  1.00 20.00     0.012 C 
HETATM    2  C2  UNL     1     -37.008  14.209  -5.103  1.00 20.00    -0.117 C 
HETATM    3  C8  UNL     1     -35.607  13.772  -5.145  1.00 20.00     0.098 C 
ENDROOT
BRANCH   3   4
HETATM    4  C6  UNL     1     -34.775  14.479  -4.073  1.00 20.00     0.011 C 
HETATM    5  C4  UNL     1     -33.279  14.402  -4.392  1.00 20.00     0.007 C 
HETATM    6  C3  UNL     1     -32.974  15.620  -5.262  1.00 20.00     0.002 C 
HETATM    7  C5  UNL     1     -34.160  16.575  -5.122  1.00 20.00     0.016 C 
HETATM    8  C7  UNL     1     -35.058  15.979  -4.046  1.00 20.00     0.062 C 
HETATM    9 BR9  UNL     1     -34.588  16.726  -2.297  1.00 20.00    -0.091 Br
ENDBRANCH   3   4
TORSDOF 1
ENDMDL
MODEL 8
REMARK VINA RESULT:      -4.1     11.226     11.624
REMARK  1 active torsions:
REMARK  status: ('A' for Active; 'I' for Inactive)
REMARK    1  A    between atoms: C6_6  and  C8_8 
ROOT
HETATM    1  C1  UNL     1     -35.957  13.395  -5.326  1.00 20.00     0.012 C 
HETATM    2  C2  UNL     1     -35.206  14.056  -4.664  1.00 20.00    -0.117 C 
HETATM    3  C8  UNL     1     -34.285  14.861  -3.852  1.00 20.00     0.098 C 
ENDROOT
BRANCH   3   4
HETATM    4  C6  UNL     1     -34.716  16.329  -3.816  1.00 20.00     0.011 C 
HETATM    5  C4  UNL     1     -35.836  16.554  -2.796  1.00 20.00     0.007 C 
HETATM    6  C3  UNL     1     -35.139  16.851  -1.470  1.00 20.00     0.002 C 
HETATM    7  C5  UNL     1     -33.681  17.177  -1.797  1.00 20.00     0.016 C 
HETATM    8  C7  UNL     1     -33.589  17.230  -3.316  1.00 20.00     0.062 C 
HETATM    9 BR9  UNL     1     -33.864  19.067  -3.937  1.00 20.00    -0.091 Br
ENDBRANCH   3   4
TORSDOF 1
ENDMDL
MODEL 9
REMARK VINA RESULT:      -3.9      2.296      4.076
REMARK  1 active torsions:
REMARK  status: ('A' for Active; 'I' for Inactive)
REMARK    1  A    between atoms: C6_6  and  C8_8 
ROOT
HETATM    1  C1  UNL     1     -32.327   9.629   1.080  1.00 20.00     0.012 C 
HETATM    2  C2  UNL     1     -32.170   8.821   1.953  1.00 20.00    -0.117 C 
HETATM    3  C8  UNL     1     -31.972   7.833   3.021  1.00 20.00     0.098 C 
ENDROOT
BRANCH   3   4
HETATM    4  C6  UNL     1     -33.311   7.335   3.570  1.00 20.00     0.011 C 
HETATM    5  C4  UNL     1     -34.301   7.044   2.439  1.00 20.00     0.007 C 
HETATM    6  C3  UNL     1     -34.062   5.589   2.039  1.00 20.00     0.002 C 
HETATM    7  C5  UNL     1     -33.243   4.948   3.160  1.00 20.00     0.016 C 
HETATM    8  C7  UNL     1     -33.160   5.987   4.271  1.00 20.00     0.062 C 
HETATM    9 BR9  UNL     1     -34.624   5.718   5.545  1.00 20.00    -0.091 Br
ENDBRANCH   3   4
TORSDOF 1
ENDMDL
