MODEL 1
REMARK VINA RESULT:      -4.9      0.000      0.000
REMARK  4 active torsions:
REMARK  status: ('A' for Active; 'I' for Inactive)
REMARK    1  A    between atoms: C6_6  and  C7_7 
REMARK    2  A    between atoms: C7_7  and  C9_9 
REMARK    3  A    between atoms: C8_8  and  C9_9 
REMARK    4  A    between atoms: C8_8  and  N11_11 
ROOT
HETATM    1  C1  UNL     1     -33.277   7.604   4.675  1.00 20.00     0.095 C 
HETATM    2  C8  UNL     1     -33.465   7.512   3.216  1.00 20.00     0.331 C 
HETATM    3  N10 UNL     1     -33.131   7.680   5.824  1.00 20.00    -0.195 NA
ENDROOT
BRANCH   2   4
HETATM    4  C9  UNL     1     -34.019   6.128   2.773  1.00 20.00     0.029 C 
HETATM    5  C3  UNL     1     -32.917   5.072   2.592  1.00 20.00     0.013 C 
BRANCH   4   6
HETATM    6  C7  UNL     1     -35.120   5.641   3.745  1.00 20.00     0.007 C 
BRANCH   6   7
HETATM    7  C6  UNL     1     -34.714   4.411   4.561  1.00 20.00    -0.004 C 
HETATM    8  C2  UNL     1     -34.659   4.726   6.048  1.00 20.00     0.005 C 
ENDBRANCH   6   7
ENDBRANCH   4   6
ENDBRANCH   2   4
BRANCH   2   9
HETATM    9  N11 UNL     1     -32.202   7.811   2.538  1.00 20.00     0.098 N 
HETATM   10  C4  UNL     1     -31.233   8.354   3.487  1.00 20.00     0.311 C 
HETATM   11  C5  UNL     1     -32.423   8.746   1.438  1.00 20.00     0.311 C 
ENDBRANCH   2   9
TORSDOF 4
ENDMDL
MODEL 2
REMARK VINA RESULT:      -4.6      1.460      4.501
REMARK  4 active torsions:
REMARK  status: ('A' for Active; 'I' for Inactive)
REMARK    1  A    between atoms: C6_6  and  C7_7 
REMARK    2  A    between atoms: C7_7  and  C9_9 
REMARK    3  A    between atoms: C8_8  and  C9_9 
REMARK    4  A    between atoms: C8_8  and  N11_11 
ROOT
HETATM    1  C1  UNL     1     -33.299   5.387   2.925  1.00 20.00     0.095 C 
HETATM    2  C8  UNL     1     -33.781   6.558   3.680  1.00 20.00     0.331 C 
HETATM    3  N10 UNL     1     -32.924   4.464   2.330  1.00 20.00    -0.195 NA
ENDROOT
BRANCH   2   4
HETATM    4  C9  UNL     1     -33.043   7.868   3.284  1.00 20.00     0.029 C 
HETATM    5  C3  UNL     1     -31.575   7.890   3.738  1.00 20.00     0.013 C 
BRANCH   4   6
HETATM    6  C7  UNL     1     -33.173   8.132   1.765  1.00 20.00     0.007 C 
BRANCH   6   7
HETATM    7  C6  UNL     1     -32.072   9.039   1.206  1.00 20.00    -0.004 C 
HETATM    8  C2  UNL     1     -32.575  10.461   1.004  1.00 20.00     0.005 C 
ENDBRANCH   6   7
ENDBRANCH   4   6
ENDBRANCH   2   4
BRANCH   2   9
HETATM    9  N11 UNL     1     -33.656   6.302   5.116  1.00 20.00     0.098 N 
HETATM   10  C4  UNL     1     -34.564   5.232   5.523  1.00 20.00     0.311 C 
HETATM   11  C5  UNL     1     -33.925   7.520   5.877  1.00 20.00     0.311 C 
ENDBRANCH   2   9
TORSDOF 4
ENDMDL
MODEL 3
REMARK VINA RESULT:      -4.6      1.448      4.210
REMARK  4 active torsions:
REMARK  status: ('A' for Active; 'I' for Inactive)
REMARK    1  A    between atoms: C6_6  and  C7_7 
REMARK    2  A    between atoms: C7_7  and  C9_9 
REMARK    3  A    between atoms: C8_8  and  C9_9 
REMARK    4  A    between atoms: C8_8  and  N11_11 
ROOT
HETATM    1  C1  UNL     1     -33.571   7.052   5.189  1.00 20.00     0.095 C 
HETATM    2  C8  UNL     1     -32.939   6.792   3.883  1.00 20.00     0.331 C 
HETATM    3  N10 UNL     1     -34.066   7.253   6.220  1.00 20.00    -0.195 NA
ENDROOT
BRANCH   2   4
HETATM    4  C9  UNL     1     -32.486   8.098   3.170  1.00 20.00     0.029 C 
HETATM    5  C3  UNL     1     -31.064   8.532   3.562  1.00 20.00     0.013 C 
BRANCH   4   6
HETATM    6  C7  UNL     1     -32.638   7.966   1.636  1.00 20.00     0.007 C 
BRANCH   6   7
HETATM    7  C6  UNL     1     -31.853   9.022   0.851  1.00 20.00    -0.004 C 
HETATM    8  C2  UNL     1     -32.620  10.333   0.767  1.00 20.00     0.005 C 
ENDBRANCH   6   7
ENDBRANCH   4   6
ENDBRANCH   2   4
BRANCH   2   9
HETATM    9  N11 UNL     1     -33.857   6.027   3.037  1.00 20.00     0.098 N 
HETATM   10  C4  UNL     1     -35.163   5.908   3.682  1.00 20.00     0.311 C 
HETATM   11  C5  UNL     1     -33.304   4.707   2.748  1.00 20.00     0.311 C 
ENDBRANCH   2   9
TORSDOF 4
ENDMDL
MODEL 4
REMARK VINA RESULT:      -4.5     11.592     12.396
REMARK  4 active torsions:
REMARK  status: ('A' for Active; 'I' for Inactive)
REMARK    1  A    between atoms: C6_6  and  C7_7 
REMARK    2  A    between atoms: C7_7  and  C9_9 
REMARK    3  A    between atoms: C8_8  and  C9_9 
REMARK    4  A    between atoms: C8_8  and  N11_11 
ROOT
HETATM    1  C1  UNL     1     -36.768  13.978  -5.128  1.00 20.00     0.095 C 
HETATM    2  C8  UNL     1     -35.307  13.909  -5.312  1.00 20.00     0.331 C 
HETATM    3  N10 UNL     1     -37.918  14.027  -4.983  1.00 20.00    -0.195 NA
ENDROOT
BRANCH   2   4
HETATM    4  C9  UNL     1     -34.525  14.481  -4.096  1.00 20.00     0.029 C 
HETATM    5  C3  UNL     1     -33.038  14.724  -4.399  1.00 20.00     0.013 C 
BRANCH   4   6
HETATM    6  C7  UNL     1     -35.211  15.757  -3.553  1.00 20.00     0.007 C 
BRANCH   6   7
HETATM    7  C6  UNL     1     -34.382  16.495  -2.498  1.00 20.00    -0.004 C 
HETATM    8  C2  UNL     1     -35.245  16.938  -1.326  1.00 20.00     0.005 C 
ENDBRANCH   6   7
ENDBRANCH   4   6
ENDBRANCH   2   4
BRANCH   2   9
HETATM    9  N11 UNL     1     -34.935  14.606  -6.546  1.00 20.00     0.098 N 
HETATM   10  C4  UNL     1     -36.027  15.469  -6.990  1.00 20.00     0.311 C 
HETATM   11  C5  UNL     1     -34.583  13.644  -7.588  1.00 20.00     0.311 C 
ENDBRANCH   2   9
TORSDOF 4
ENDMDL
MODEL 5
REMARK VINA RESULT:      -4.5     11.453     12.479
REMARK  4 active torsions:
REMARK  status: ('A' for Active; 'I' for Inactive)
REMARK    1  A    between atoms: C6_6  and  C7_7 
REMARK    2  A    between atoms: C7_7  and  C9_9 
REMARK    3  A    between atoms: C8_8  and  C9_9 
REMARK    4  A    between atoms: C8_8  and  N11_11 
ROOT
HETATM    1  C1  UNL     1     -35.562  13.835  -5.287  1.00 20.00     0.095 C 
HETATM    2  C8  UNL     1     -35.037  15.201  -5.110  1.00 20.00     0.331 C 
HETATM    3  N10 UNL     1     -35.974  12.760  -5.431  1.00 20.00    -0.195 NA
ENDROOT
BRANCH   2   4
HETATM    4  C9  UNL     1     -34.017  15.301  -3.941  1.00 20.00     0.029 C 
HETATM    5  C3  UNL     1     -32.740  14.482  -4.188  1.00 20.00     0.013 C 
BRANCH   4   6
HETATM    6  C7  UNL     1     -33.692  16.780  -3.621  1.00 20.00     0.007 C 
BRANCH   6   7
HETATM    7  C6  UNL     1     -33.597  17.074  -2.121  1.00 20.00    -0.004 C 
HETATM    8  C2  UNL     1     -34.955  16.957  -1.446  1.00 20.00     0.005 C 
ENDBRANCH   6   7
ENDBRANCH   4   6
ENDBRANCH   2   4
BRANCH   2   9
HETATM    9  N11 UNL     1     -36.150  16.133  -4.913  1.00 20.00     0.098 N 
HETATM   10  C4  UNL     1     -37.188  15.517  -4.089  1.00 20.00     0.311 C 
HETATM   11  C5  UNL     1     -36.697  16.553  -6.200  1.00 20.00     0.311 C 
ENDBRANCH   2   9
TORSDOF 4
ENDMDL
MODEL 6
REMARK VINA RESULT:      -4.4     11.710     12.815
REMARK  4 active torsions:
REMARK  status: ('A' for Active; 'I' for Inactive)
REMARK    1  A    between atoms: C6_6  and  C7_7 
REMARK    2  A    between atoms: C7_7  and  C9_9 
REMARK    3  A    between atoms: C8_8  and  C9_9 
REMARK    4  A    between atoms: C8_8  and  N11_11 
ROOT
HETATM    1  C1  UNL     1     -35.280  13.817  -5.313  1.00 20.00     0.095 C 
HETATM    2  C8  UNL     1     -34.464  15.040  -5.424  1.00 20.00     0.331 C 
HETATM    3  N10 UNL     1     -35.919  12.852  -5.226  1.00 20.00    -0.195 NA
ENDROOT
BRANCH   2   4
HETATM    4  C9  UNL     1     -34.820  16.095  -4.338  1.00 20.00     0.029 C 
HETATM    5  C3  UNL     1     -36.251  15.940  -3.798  1.00 20.00     0.013 C 
BRANCH   4   6
HETATM    6  C7  UNL     1     -33.776  16.081  -3.196  1.00 20.00     0.007 C 
BRANCH   6   7
HETATM    7  C6  UNL     1     -34.195  16.905  -1.975  1.00 20.00    -0.004 C 
HETATM    8  C2  UNL     1     -33.071  17.819  -1.511  1.00 20.00     0.005 C 
ENDBRANCH   6   7
ENDBRANCH   4   6
ENDBRANCH   2   4
BRANCH   2   9
HETATM    9  N11 UNL     1     -34.605  15.605  -6.767  1.00 20.00     0.098 N 
HETATM   10  C4  UNL     1     -34.055  14.688  -7.764  1.00 20.00     0.311 C 
HETATM   11  C5  UNL     1     -33.944  16.905  -6.845  1.00 20.00     0.311 C 
ENDBRANCH   2   9
TORSDOF 4
ENDMDL
MODEL 7
REMARK VINA RESULT:      -4.2     11.979     12.753
REMARK  4 active torsions:
REMARK  status: ('A' for Active; 'I' for Inactive)
REMARK    1  A    between atoms: C6_6  and  C7_7 
REMARK    2  A    between atoms: C7_7  and  C9_9 
REMARK    3  A    between atoms: C8_8  and  C9_9 
REMARK    4  A    between atoms: C8_8  and  N11_11 
ROOT
HETATM    1  C1  UNL     1     -36.703  14.395  -4.988  1.00 20.00     0.095 C 
HETATM    2  C8  UNL     1     -35.340  14.954  -4.956  1.00 20.00     0.331 C 
HETATM    3  N10 UNL     1     -37.775  13.951  -5.011  1.00 20.00    -0.195 NA
ENDROOT
BRANCH   2   4
HETATM    4  C9  UNL     1     -35.278  16.335  -4.246  1.00 20.00     0.029 C 
HETATM    5  C3  UNL     1     -36.520  17.201  -4.510  1.00 20.00     0.013 C 
BRANCH   4   6
HETATM    6  C7  UNL     1     -35.018  16.162  -2.730  1.00 20.00     0.007 C 
BRANCH   6   7
HETATM    7  C6  UNL     1     -33.762  16.889  -2.239  1.00 20.00    -0.004 C 
HETATM    8  C2  UNL     1     -34.033  17.652  -0.951  1.00 20.00     0.005 C 
ENDBRANCH   6   7
ENDBRANCH   4   6
ENDBRANCH   2   4
BRANCH   2   9
HETATM    9  N11 UNL     1     -34.814  15.044  -6.320  1.00 20.00     0.098 N 
HETATM   10  C4  UNL     1     -34.679  13.710  -6.902  1.00 20.00     0.311 C 
HETATM   11  C5  UNL     1     -33.529  15.739  -6.326  1.00 20.00     0.311 C 
ENDBRANCH   2   9
TORSDOF 4
ENDMDL
MODEL 8
REMARK VINA RESULT:      -4.2     11.862     12.563
REMARK  4 active torsions:
REMARK  status: ('A' for Active; 'I' for Inactive)
REMARK    1  A    between atoms: C6_6  and  C7_7 
REMARK    2  A    between atoms: C7_7  and  C9_9 
REMARK    3  A    between atoms: C8_8  and  C9_9 
REMARK    4  A    between atoms: C8_8  and  N11_11 
ROOT
HETATM    1  C1  UNL     1     -35.615  15.633  -3.746  1.00 20.00     0.095 C 
HETATM    2  C8  UNL     1     -34.326  16.027  -3.151  1.00 20.00     0.331 C 
HETATM    3  N10 UNL     1     -36.630  15.318  -4.214  1.00 20.00    -0.195 NA
ENDROOT
BRANCH   2   4
HETATM    4  C9  UNL     1     -34.460  17.240  -2.187  1.00 20.00     0.029 C 
HETATM    5  C3  UNL     1     -35.438  16.981  -1.030  1.00 20.00     0.013 C 
BRANCH   4   6
HETATM    6  C7  UNL     1     -33.071  17.686  -1.670  1.00 20.00     0.007 C 
BRANCH   6   7
HETATM    7  C6  UNL     1     -33.129  18.450  -0.344  1.00 20.00    -0.004 C 
HETATM    8  C2  UNL     1     -31.738  18.663   0.234  1.00 20.00     0.005 C 
ENDBRANCH   6   7
ENDBRANCH   4   6
ENDBRANCH   2   4
BRANCH   2   9
HETATM    9  N11 UNL     1     -33.360  16.310  -4.215  1.00 20.00     0.098 N 
HETATM   10  C4  UNL     1     -33.905  17.295  -5.147  1.00 20.00     0.311 C 
HETATM   11  C5  UNL     1     -33.002  15.081  -4.918  1.00 20.00     0.311 C 
ENDBRANCH   2   9
TORSDOF 4
ENDMDL
MODEL 9
REMARK VINA RESULT:      -4.1     11.318     12.355
REMARK  4 active torsions:
REMARK  status: ('A' for Active; 'I' for Inactive)
REMARK    1  A    between atoms: C6_6  and  C7_7 
REMARK    2  A    between atoms: C7_7  and  C9_9 
REMARK    3  A    between atoms: C8_8  and  C9_9 
REMARK    4  A    between atoms: C8_8  and  N11_11 
ROOT
HETATM    1  C1  UNL     1     -34.932  16.592  -5.039  1.00 20.00     0.095 C 
HETATM    2  C8  UNL     1     -35.106  15.831  -3.788  1.00 20.00     0.331 C 
HETATM    3  N10 UNL     1     -34.800  17.192  -6.024  1.00 20.00    -0.195 NA
ENDROOT
BRANCH   2   4
HETATM    4  C9  UNL     1     -34.365  16.482  -2.586  1.00 20.00     0.029 C 
HETATM    5  C3  UNL     1     -33.503  17.688  -2.995  1.00 20.00     0.013 C 
BRANCH   4   6
HETATM    6  C7  UNL     1     -35.363  16.851  -1.462  1.00 20.00     0.007 C 
BRANCH   6   7
HETATM    7  C6  UNL     1     -34.733  17.668  -0.330  1.00 20.00    -0.004 C 
HETATM    8  C2  UNL     1     -35.617  17.671   0.909  1.00 20.00     0.005 C 
ENDBRANCH   6   7
ENDBRANCH   4   6
ENDBRANCH   2   4
BRANCH   2   9
HETATM    9  N11 UNL     1     -34.662  14.450  -3.989  1.00 20.00     0.098 N 
HETATM   10  C4  UNL     1     -33.280  14.425  -4.464  1.00 20.00     0.311 C 
HETATM   11  C5  UNL     1     -35.542  13.763  -4.931  1.00 20.00     0.311 C 
ENDBRANCH   2   9
TORSDOF 4
ENDMDL
