MODEL 1
REMARK VINA RESULT:      -5.7      0.000      0.000
REMARK  3 active torsions:
REMARK  status: ('A' for Active; 'I' for Inactive)
REMARK    1  A    between atoms: C4_4  and  C10_10 
REMARK    2  A    between atoms: C5_5  and  C11_11 
REMARK    3  A    between atoms: C6_6  and  C12_12 
ROOT
HETATM    1  C7  UNL     1     -31.945   8.904   3.345  1.00 20.00     0.009 C 
HETATM    2  C8  UNL     1     -32.249   8.011   4.549  1.00 20.00     0.010 C 
HETATM    3  C9  UNL     1     -33.417   7.436   1.895  1.00 20.00     0.017 C 
HETATM    4  C10 UNL     1     -32.055   8.138   2.019  1.00 20.00     0.008 C 
HETATM    5  C11 UNL     1     -33.618   7.330   4.408  1.00 20.00     0.015 C 
HETATM    6  C12 UNL     1     -33.722   6.516   3.094  1.00 20.00     0.015 C 
ENDROOT
BRANCH   4   7
HETATM    7  C4  UNL     1     -31.832   9.054   0.855  1.00 20.00    -0.032 C 
HETATM    8  C1  UNL     1     -32.505  10.193   0.659  1.00 20.00     0.007 C 
ENDBRANCH   4   7
BRANCH   6   9
HETATM    9  C6  UNL     1     -32.840   5.295   3.055  1.00 20.00    -0.031 C 
HETATM   10  C3  UNL     1     -33.083   4.219   2.301  1.00 20.00     0.007 C 
ENDBRANCH   6   9
BRANCH   5  11
HETATM   11  C5  UNL     1     -33.954   6.519   5.625  1.00 20.00    -0.031 C 
HETATM   12  C2  UNL     1     -34.735   5.434   5.609  1.00 20.00     0.007 C 
ENDBRANCH   5  11
TORSDOF 3
ENDMDL
MODEL 2
REMARK VINA RESULT:      -4.7     10.829     11.974
REMARK  3 active torsions:
REMARK  status: ('A' for Active; 'I' for Inactive)
REMARK    1  A    between atoms: C4_4  and  C10_10 
REMARK    2  A    between atoms: C5_5  and  C11_11 
REMARK    3  A    between atoms: C6_6  and  C12_12 
ROOT
HETATM    1  C7  UNL     1     -32.576  18.149  -1.164  1.00 20.00     0.009 C 
HETATM    2  C8  UNL     1     -33.360  17.634  -2.372  1.00 20.00     0.010 C 
HETATM    3  C9  UNL     1     -34.614  17.793   0.299  1.00 20.00     0.017 C 
HETATM    4  C10 UNL     1     -33.496  18.768  -0.104  1.00 20.00     0.008 C 
HETATM    5  C11 UNL     1     -34.463  16.654  -1.947  1.00 20.00     0.015 C 
HETATM    6  C12 UNL     1     -35.425  17.287  -0.911  1.00 20.00     0.015 C 
ENDROOT
BRANCH   4   7
HETATM    7  C4  UNL     1     -32.712  19.189   1.102  1.00 20.00    -0.032 C 
HETATM    8  C1  UNL     1     -31.413  18.924   1.280  1.00 20.00     0.007 C 
ENDBRANCH   4   7
BRANCH   6   9
HETATM    9  C6  UNL     1     -36.285  18.393  -1.465  1.00 20.00    -0.031 C 
HETATM   10  C3  UNL     1     -37.486  18.722  -0.979  1.00 20.00     0.007 C 
ENDBRANCH   6   9
BRANCH   5  11
HETATM   11  C5  UNL     1     -35.178  16.086  -3.137  1.00 20.00    -0.031 C 
HETATM   12  C2  UNL     1     -34.707  15.081  -3.883  1.00 20.00     0.007 C 
ENDBRANCH   5  11
TORSDOF 3
ENDMDL
MODEL 3
REMARK VINA RESULT:      -4.7     10.925     12.351
REMARK  3 active torsions:
REMARK  status: ('A' for Active; 'I' for Inactive)
REMARK    1  A    between atoms: C4_4  and  C10_10 
REMARK    2  A    between atoms: C5_5  and  C11_11 
REMARK    3  A    between atoms: C6_6  and  C12_12 
ROOT
HETATM    1  C7  UNL     1     -34.978  14.391  -4.765  1.00 20.00     0.009 C 
HETATM    2  C8  UNL     1     -35.062  15.349  -3.576  1.00 20.00     0.010 C 
HETATM    3  C9  UNL     1     -33.229  15.882  -5.831  1.00 20.00     0.017 C 
HETATM    4  C10 UNL     1     -34.538  15.106  -6.049  1.00 20.00     0.008 C 
HETATM    5  C11 UNL     1     -33.741  16.104  -3.371  1.00 20.00     0.015 C 
HETATM    6  C12 UNL     1     -33.312  16.868  -4.649  1.00 20.00     0.015 C 
ENDROOT
BRANCH   4   7
HETATM    7  C4  UNL     1     -34.384  14.131  -7.177  1.00 20.00    -0.032 C 
HETATM    8  C1  UNL     1     -35.112  13.017  -7.306  1.00 20.00     0.007 C 
ENDBRANCH   4   7
BRANCH   6   9
HETATM    9  C6  UNL     1     -34.204  18.031  -4.998  1.00 20.00    -0.031 C 
HETATM   10  C3  UNL     1     -34.005  18.839  -6.045  1.00 20.00     0.007 C 
ENDBRANCH   6   9
BRANCH   5  11
HETATM   11  C5  UNL     1     -33.796  16.983  -2.156  1.00 20.00    -0.031 C 
HETATM   12  C2  UNL     1     -34.857  17.075  -1.347  1.00 20.00     0.007 C 
ENDBRANCH   5  11
TORSDOF 3
ENDMDL
MODEL 4
REMARK VINA RESULT:      -4.6     10.821     11.898
REMARK  3 active torsions:
REMARK  status: ('A' for Active; 'I' for Inactive)
REMARK    1  A    between atoms: C4_4  and  C10_10 
REMARK    2  A    between atoms: C5_5  and  C11_11 
REMARK    3  A    between atoms: C6_6  and  C12_12 
ROOT
HETATM    1  C7  UNL     1     -33.255  15.281  -3.855  1.00 20.00     0.009 C 
HETATM    2  C8  UNL     1     -33.879  14.569  -5.056  1.00 20.00     0.010 C 
HETATM    3  C9  UNL     1     -35.564  15.990  -3.087  1.00 20.00     0.017 C 
HETATM    4  C10 UNL     1     -34.123  16.448  -3.364  1.00 20.00     0.008 C 
HETATM    5  C11 UNL     1     -35.313  14.111  -4.752  1.00 20.00     0.015 C 
HETATM    6  C12 UNL     1     -36.209  15.291  -4.300  1.00 20.00     0.015 C 
ENDROOT
BRANCH   4   7
HETATM    7  C4  UNL     1     -33.530  17.075  -2.139  1.00 20.00    -0.032 C 
HETATM    8  C1  UNL     1     -34.241  17.434  -1.065  1.00 20.00     0.007 C 
ENDBRANCH   4   7
BRANCH   6   9
HETATM    9  C6  UNL     1     -36.501  16.292  -5.388  1.00 20.00    -0.031 C 
HETATM   10  C3  UNL     1     -37.260  17.379  -5.220  1.00 20.00     0.007 C 
ENDBRANCH   6   9
BRANCH   5  11
HETATM   11  C5  UNL     1     -35.896  13.340  -5.899  1.00 20.00    -0.031 C 
HETATM   12  C2  UNL     1     -35.275  13.157  -7.070  1.00 20.00     0.007 C 
ENDBRANCH   5  11
TORSDOF 3
ENDMDL
MODEL 5
REMARK VINA RESULT:      -4.6     10.703     11.903
REMARK  3 active torsions:
REMARK  status: ('A' for Active; 'I' for Inactive)
REMARK    1  A    between atoms: C4_4  and  C10_10 
REMARK    2  A    between atoms: C5_5  and  C11_11 
REMARK    3  A    between atoms: C6_6  and  C12_12 
ROOT
HETATM    1  C7  UNL     1     -32.948  18.061  -0.939  1.00 20.00     0.009 C 
HETATM    2  C8  UNL     1     -33.203  17.596  -2.373  1.00 20.00     0.010 C 
HETATM    3  C9  UNL     1     -35.297  17.354  -0.301  1.00 20.00     0.017 C 
HETATM    4  C10 UNL     1     -34.245  18.473  -0.229  1.00 20.00     0.008 C 
HETATM    5  C11 UNL     1     -34.248  16.471  -2.419  1.00 20.00     0.015 C 
HETATM    6  C12 UNL     1     -35.577  16.894  -1.746  1.00 20.00     0.015 C 
ENDROOT
BRANCH   4   7
HETATM    7  C4  UNL     1     -33.978  18.846   1.197  1.00 20.00    -0.032 C 
HETATM    8  C1  UNL     1     -34.623  18.317   2.242  1.00 20.00     0.007 C 
ENDBRANCH   4   7
BRANCH   6   9
HETATM    9  C6  UNL     1     -36.335  17.958  -2.497  1.00 20.00    -0.031 C 
HETATM   10  C3  UNL     1     -37.552  17.781  -3.020  1.00 20.00     0.007 C 
ENDBRANCH   6   9
BRANCH   5  11
HETATM   11  C5  UNL     1     -34.438  15.958  -3.816  1.00 20.00    -0.031 C 
HETATM   12  C2  UNL     1     -34.744  14.690  -4.112  1.00 20.00     0.007 C 
ENDBRANCH   5  11
TORSDOF 3
ENDMDL
MODEL 6
REMARK VINA RESULT:      -4.6     10.862     11.869
REMARK  3 active torsions:
REMARK  status: ('A' for Active; 'I' for Inactive)
REMARK    1  A    between atoms: C4_4  and  C10_10 
REMARK    2  A    between atoms: C5_5  and  C11_11 
REMARK    3  A    between atoms: C6_6  and  C12_12 
ROOT
HETATM    1  C7  UNL     1     -36.852  16.207  -3.733  1.00 20.00     0.009 C 
HETATM    2  C8  UNL     1     -35.766  17.116  -3.156  1.00 20.00     0.010 C 
HETATM    3  C9  UNL     1     -35.084  14.498  -4.346  1.00 20.00     0.017 C 
HETATM    4  C10 UNL     1     -36.307  15.290  -4.836  1.00 20.00     0.008 C 
HETATM    5  C11 UNL     1     -34.560  16.303  -2.663  1.00 20.00     0.015 C 
HETATM    6  C12 UNL     1     -33.974  15.408  -3.783  1.00 20.00     0.015 C 
ENDROOT
BRANCH   4   7
HETATM    7  C4  UNL     1     -37.371  14.355  -5.326  1.00 20.00    -0.032 C 
HETATM    8  C1  UNL     1     -38.682  14.567  -5.170  1.00 20.00     0.007 C 
ENDBRANCH   4   7
BRANCH   6   9
HETATM    9  C6  UNL     1     -33.309  16.174  -4.897  1.00 20.00    -0.031 C 
HETATM   10  C3  UNL     1     -33.162  15.709  -6.142  1.00 20.00     0.007 C 
ENDBRANCH   6   9
BRANCH   5  11
HETATM   11  C5  UNL     1     -33.530  17.186  -2.022  1.00 20.00    -0.031 C 
HETATM   12  C2  UNL     1     -33.720  17.845  -0.873  1.00 20.00     0.007 C 
ENDBRANCH   5  11
TORSDOF 3
ENDMDL
MODEL 7
REMARK VINA RESULT:      -4.5      1.070      2.593
REMARK  3 active torsions:
REMARK  status: ('A' for Active; 'I' for Inactive)
REMARK    1  A    between atoms: C4_4  and  C10_10 
REMARK    2  A    between atoms: C5_5  and  C11_11 
REMARK    3  A    between atoms: C6_6  and  C12_12 
ROOT
HETATM    1  C7  UNL     1     -33.605   7.168   1.303  1.00 20.00     0.009 C 
HETATM    2  C8  UNL     1     -34.430   6.185   2.135  1.00 20.00     0.010 C 
HETATM    3  C9  UNL     1     -32.096   7.575   3.298  1.00 20.00     0.017 C 
HETATM    4  C10 UNL     1     -32.922   8.228   2.177  1.00 20.00     0.008 C 
HETATM    5  C11 UNL     1     -33.583   5.538   3.239  1.00 20.00     0.015 C 
HETATM    6  C12 UNL     1     -32.926   6.600   4.156  1.00 20.00     0.015 C 
ENDROOT
BRANCH   4   7
HETATM    7  C4  UNL     1     -32.056   9.126   1.347  1.00 20.00    -0.032 C 
HETATM    8  C1  UNL     1     -32.508  10.194   0.681  1.00 20.00     0.007 C 
ENDBRANCH   4   7
BRANCH   6   9
HETATM    9  C6  UNL     1     -33.903   7.359   5.015  1.00 20.00    -0.031 C 
HETATM   10  C3  UNL     1     -33.670   7.709   6.284  1.00 20.00     0.007 C 
ENDBRANCH   6   9
BRANCH   5  11
HETATM   11  C5  UNL     1     -34.369   4.514   4.003  1.00 20.00    -0.031 C 
HETATM   12  C2  UNL     1     -34.385   4.424   5.337  1.00 20.00     0.007 C 
ENDBRANCH   5  11
TORSDOF 3
ENDMDL
MODEL 8
REMARK VINA RESULT:      -4.5     10.992     11.889
REMARK  3 active torsions:
REMARK  status: ('A' for Active; 'I' for Inactive)
REMARK    1  A    between atoms: C4_4  and  C10_10 
REMARK    2  A    between atoms: C5_5  and  C11_11 
REMARK    3  A    between atoms: C6_6  and  C12_12 
ROOT
HETATM    1  C7  UNL     1     -34.513  17.721  -0.687  1.00 20.00     0.009 C 
HETATM    2  C8  UNL     1     -35.445  16.757  -1.422  1.00 20.00     0.010 C 
HETATM    3  C9  UNL     1     -33.240  18.120  -2.842  1.00 20.00     0.017 C 
HETATM    4  C10 UNL     1     -33.128  17.794  -1.344  1.00 20.00     0.008 C 
HETATM    5  C11 UNL     1     -35.551  17.109  -2.913  1.00 20.00     0.015 C 
HETATM    6  C12 UNL     1     -34.161  17.139  -3.596  1.00 20.00     0.015 C 
ENDROOT
BRANCH   4   7
HETATM    7  C4  UNL     1     -32.262  18.804  -0.654  1.00 20.00    -0.032 C 
HETATM    8  C1  UNL     1     -31.654  18.592   0.518  1.00 20.00     0.007 C 
ENDBRANCH   4   7
BRANCH   6   9
HETATM    9  C6  UNL     1     -33.504  15.788  -3.712  1.00 20.00    -0.031 C 
HETATM   10  C3  UNL     1     -33.091  15.253  -4.866  1.00 20.00     0.007 C 
ENDBRANCH   6   9
BRANCH   5  11
HETATM   11  C5  UNL     1     -36.529  16.216  -3.617  1.00 20.00    -0.031 C 
HETATM   12  C2  UNL     1     -37.007  16.450  -4.844  1.00 20.00     0.007 C 
ENDBRANCH   5  11
TORSDOF 3
ENDMDL
MODEL 9
REMARK VINA RESULT:      -4.5     10.272     11.730
REMARK  3 active torsions:
REMARK  status: ('A' for Active; 'I' for Inactive)
REMARK    1  A    between atoms: C4_4  and  C10_10 
REMARK    2  A    between atoms: C5_5  and  C11_11 
REMARK    3  A    between atoms: C6_6  and  C12_12 
ROOT
HETATM    1  C7  UNL     1     -35.934  16.777  -2.489  1.00 20.00     0.009 C 
HETATM    2  C8  UNL     1     -36.436  15.886  -3.626  1.00 20.00     0.010 C 
HETATM    3  C9  UNL     1     -33.626  16.795  -3.535  1.00 20.00     0.017 C 
HETATM    4  C10 UNL     1     -34.430  16.597  -2.240  1.00 20.00     0.008 C 
HETATM    5  C11 UNL     1     -35.626  16.110  -4.911  1.00 20.00     0.015 C 
HETATM    6  C12 UNL     1     -34.111  15.885  -4.682  1.00 20.00     0.015 C 
ENDROOT
BRANCH   4   7
HETATM    7  C4  UNL     1     -33.949  17.538  -1.178  1.00 20.00    -0.032 C 
HETATM    8  C1  UNL     1     -32.767  18.162  -1.212  1.00 20.00     0.007 C 
ENDBRANCH   4   7
BRANCH   6   9
HETATM    9  C6  UNL     1     -33.737  14.452  -4.406  1.00 20.00    -0.031 C 
HETATM   10  C3  UNL     1     -32.488  14.036  -4.172  1.00 20.00     0.007 C 
ENDBRANCH   6   9
BRANCH   5  11
HETATM   11  C5  UNL     1     -36.171  15.299  -6.050  1.00 20.00    -0.031 C 
HETATM   12  C2  UNL     1     -37.144  14.390  -5.922  1.00 20.00     0.007 C 
ENDBRANCH   5  11
TORSDOF 3
ENDMDL
