MODEL 1
REMARK VINA RESULT:      -4.7      0.000      0.000
REMARK  3 active torsions:
REMARK  status: ('A' for Active; 'I' for Inactive)
REMARK    1  A    between atoms: C1_1  and  C3_3 
REMARK    2  A    between atoms: C1_1  and  C4_4 
REMARK    3  A    between atoms: C3_3  and  C5_5 
ROOT
HETATM    1  C1  UNL     1     -34.482   4.990   4.496  1.00 20.00     0.140 C 
HETATM    2  O6  UNL     1     -34.395   3.785   4.271  1.00 20.00    -0.297 OA
ENDROOT
BRANCH   1   3
HETATM    3  C3  UNL     1     -34.416   6.024   3.380  1.00 20.00     0.079 C 
BRANCH   3   4
HETATM    4  C5  UNL     1     -33.048   6.126   2.708  1.00 20.00     0.003 C 
HETATM    5  C2  UNL     1     -32.515   7.552   2.683  1.00 20.00     0.005 C 
ENDBRANCH   3   4
ENDBRANCH   1   3
BRANCH   1   6
HETATM    6  C4  UNL     1     -34.622   5.559   5.891  1.00 20.00     0.192 C 
HETATM    7 CL7  UNL     1     -33.899   7.172   5.987  1.00 20.00    -0.123 Cl
ENDBRANCH   1   6
TORSDOF 3
ENDMDL
MODEL 2
REMARK VINA RESULT:      -4.6      1.797      2.704
REMARK  3 active torsions:
REMARK  status: ('A' for Active; 'I' for Inactive)
REMARK    1  A    between atoms: C1_1  and  C3_3 
REMARK    2  A    between atoms: C1_1  and  C4_4 
REMARK    3  A    between atoms: C3_3  and  C5_5 
ROOT
HETATM    1  C1  UNL     1     -34.077   4.704   3.836  1.00 20.00     0.140 C 
HETATM    2  O6  UNL     1     -34.232   3.557   4.250  1.00 20.00    -0.297 OA
ENDROOT
BRANCH   1   3
HETATM    3  C3  UNL     1     -34.840   5.882   4.426  1.00 20.00     0.079 C 
BRANCH   3   4
HETATM    4  C5  UNL     1     -34.470   6.200   5.873  1.00 20.00     0.003 C 
HETATM    5  C2  UNL     1     -33.594   7.439   5.995  1.00 20.00     0.005 C 
ENDBRANCH   3   4
ENDBRANCH   1   3
BRANCH   1   6
HETATM    6  C4  UNL     1     -33.154   5.048   2.687  1.00 20.00     0.192 C 
HETATM    7 CL7  UNL     1     -32.736   6.767   2.709  1.00 20.00    -0.123 Cl
ENDBRANCH   1   6
TORSDOF 3
ENDMDL
MODEL 3
REMARK VINA RESULT:      -4.6      1.815      3.019
REMARK  3 active torsions:
REMARK  status: ('A' for Active; 'I' for Inactive)
REMARK    1  A    between atoms: C1_1  and  C3_3 
REMARK    2  A    between atoms: C1_1  and  C4_4 
REMARK    3  A    between atoms: C3_3  and  C5_5 
ROOT
HETATM    1  C1  UNL     1     -33.429   6.079   2.946  1.00 20.00     0.140 C 
HETATM    2  O6  UNL     1     -32.817   5.043   2.695  1.00 20.00    -0.297 OA
ENDROOT
BRANCH   1   3
HETATM    3  C3  UNL     1     -34.718   6.077   3.756  1.00 20.00     0.079 C 
BRANCH   3   4
HETATM    4  C5  UNL     1     -34.512   5.836   5.250  1.00 20.00     0.003 C 
HETATM    5  C2  UNL     1     -33.920   7.044   5.961  1.00 20.00     0.005 C 
ENDBRANCH   3   4
ENDBRANCH   1   3
BRANCH   1   6
HETATM    6  C4  UNL     1     -32.987   7.438   2.445  1.00 20.00     0.192 C 
HETATM    7 CL7  UNL     1     -31.635   8.053   3.407  1.00 20.00    -0.123 Cl
ENDBRANCH   1   6
TORSDOF 3
ENDMDL
MODEL 4
REMARK VINA RESULT:      -4.4      2.231      2.314
REMARK  3 active torsions:
REMARK  status: ('A' for Active; 'I' for Inactive)
REMARK    1  A    between atoms: C1_1  and  C3_3 
REMARK    2  A    between atoms: C1_1  and  C4_4 
REMARK    3  A    between atoms: C3_3  and  C5_5 
ROOT
HETATM    1  C1  UNL     1     -34.037   6.616   5.204  1.00 20.00     0.140 C 
HETATM    2  O6  UNL     1     -33.716   7.440   6.059  1.00 20.00    -0.297 OA
ENDROOT
BRANCH   1   3
HETATM    3  C3  UNL     1     -33.853   6.885   3.717  1.00 20.00     0.079 C 
BRANCH   3   4
HETATM    4  C5  UNL     1     -32.461   7.392   3.345  1.00 20.00     0.003 C 
HETATM    5  C2  UNL     1     -32.478   8.301   2.124  1.00 20.00     0.005 C 
ENDBRANCH   3   4
ENDBRANCH   1   3
BRANCH   1   6
HETATM    6  C4  UNL     1     -34.675   5.285   5.542  1.00 20.00     0.192 C 
HETATM    7 CL7  UNL     1     -34.250   4.060   4.337  1.00 20.00    -0.123 Cl
ENDBRANCH   1   6
TORSDOF 3
ENDMDL
MODEL 5
REMARK VINA RESULT:      -4.3      1.436      1.648
REMARK  3 active torsions:
REMARK  status: ('A' for Active; 'I' for Inactive)
REMARK    1  A    between atoms: C1_1  and  C3_3 
REMARK    2  A    between atoms: C1_1  and  C4_4 
REMARK    3  A    between atoms: C3_3  and  C5_5 
ROOT
HETATM    1  C1  UNL     1     -33.665   5.350   3.320  1.00 20.00     0.140 C 
HETATM    2  O6  UNL     1     -32.951   4.708   2.551  1.00 20.00    -0.297 OA
ENDROOT
BRANCH   1   3
HETATM    3  C3  UNL     1     -33.725   6.871   3.282  1.00 20.00     0.079 C 
BRANCH   3   4
HETATM    4  C5  UNL     1     -32.357   7.548   3.331  1.00 20.00     0.003 C 
HETATM    5  C2  UNL     1     -32.046   8.329   2.061  1.00 20.00     0.005 C 
ENDBRANCH   3   4
ENDBRANCH   1   3
BRANCH   1   6
HETATM    6  C4  UNL     1     -34.512   4.700   4.393  1.00 20.00     0.192 C 
HETATM    7 CL7  UNL     1     -34.514   5.675   5.869  1.00 20.00    -0.123 Cl
ENDBRANCH   1   6
TORSDOF 3
ENDMDL
MODEL 6
REMARK VINA RESULT:      -4.3      3.195      4.441
REMARK  3 active torsions:
REMARK  status: ('A' for Active; 'I' for Inactive)
REMARK    1  A    between atoms: C1_1  and  C3_3 
REMARK    2  A    between atoms: C1_1  and  C4_4 
REMARK    3  A    between atoms: C3_3  and  C5_5 
ROOT
HETATM    1  C1  UNL     1     -32.092   8.069   2.669  1.00 20.00     0.140 C 
HETATM    2  O6  UNL     1     -31.408   8.417   3.629  1.00 20.00    -0.297 OA
ENDROOT
BRANCH   1   3
HETATM    3  C3  UNL     1     -33.110   6.941   2.772  1.00 20.00     0.079 C 
BRANCH   3   4
HETATM    4  C5  UNL     1     -33.877   6.916   4.092  1.00 20.00     0.003 C 
HETATM    5  C2  UNL     1     -34.833   5.735   4.190  1.00 20.00     0.005 C 
ENDBRANCH   3   4
ENDBRANCH   1   3
BRANCH   1   6
HETATM    6  C4  UNL     1     -31.963   8.694   1.296  1.00 20.00     0.192 C 
HETATM    7 CL7  UNL     1     -32.647  10.327   1.282  1.00 20.00    -0.123 Cl
ENDBRANCH   1   6
TORSDOF 3
ENDMDL
MODEL 7
REMARK VINA RESULT:      -4.2      2.546      3.632
REMARK  3 active torsions:
REMARK  status: ('A' for Active; 'I' for Inactive)
REMARK    1  A    between atoms: C1_1  and  C3_3 
REMARK    2  A    between atoms: C1_1  and  C4_4 
REMARK    3  A    between atoms: C3_3  and  C5_5 
ROOT
HETATM    1  C1  UNL     1     -32.943   7.365   4.049  1.00 20.00     0.140 C 
HETATM    2  O6  UNL     1     -33.116   7.557   5.251  1.00 20.00    -0.297 OA
ENDROOT
BRANCH   1   3
HETATM    3  C3  UNL     1     -33.811   6.398   3.256  1.00 20.00     0.079 C 
BRANCH   3   4
HETATM    4  C5  UNL     1     -34.916   5.737   4.078  1.00 20.00     0.003 C 
HETATM    5  C2  UNL     1     -34.505   4.376   4.623  1.00 20.00     0.005 C 
ENDBRANCH   3   4
ENDBRANCH   1   3
BRANCH   1   6
HETATM    6  C4  UNL     1     -31.839   8.034   3.259  1.00 20.00     0.192 C 
HETATM    7 CL7  UNL     1     -32.435   8.579   1.684  1.00 20.00    -0.123 Cl
ENDBRANCH   1   6
TORSDOF 3
ENDMDL
MODEL 8
REMARK VINA RESULT:      -4.2      1.813      2.622
REMARK  3 active torsions:
REMARK  status: ('A' for Active; 'I' for Inactive)
REMARK    1  A    between atoms: C1_1  and  C3_3 
REMARK    2  A    between atoms: C1_1  and  C4_4 
REMARK    3  A    between atoms: C3_3  and  C5_5 
ROOT
HETATM    1  C1  UNL     1     -32.954   6.853   3.193  1.00 20.00     0.140 C 
HETATM    2  O6  UNL     1     -32.761   5.781   2.622  1.00 20.00    -0.297 OA
ENDROOT
BRANCH   1   3
HETATM    3  C3  UNL     1     -32.022   8.043   3.009  1.00 20.00     0.079 C 
BRANCH   3   4
HETATM    4  C5  UNL     1     -31.854   8.481   1.556  1.00 20.00     0.003 C 
HETATM    5  C2  UNL     1     -32.508   9.825   1.270  1.00 20.00     0.005 C 
ENDBRANCH   3   4
ENDBRANCH   1   3
BRANCH   1   6
HETATM    6  C4  UNL     1     -34.102   7.079   4.154  1.00 20.00     0.192 C 
HETATM    7 CL7  UNL     1     -33.501   7.393   5.789  1.00 20.00    -0.123 Cl
ENDBRANCH   1   6
TORSDOF 3
ENDMDL
MODEL 9
REMARK VINA RESULT:      -4.2      2.919      4.010
REMARK  3 active torsions:
REMARK  status: ('A' for Active; 'I' for Inactive)
REMARK    1  A    between atoms: C1_1  and  C3_3 
REMARK    2  A    between atoms: C1_1  and  C4_4 
REMARK    3  A    between atoms: C3_3  and  C5_5 
ROOT
HETATM    1  C1  UNL     1     -31.966   8.047   2.838  1.00 20.00     0.140 C 
HETATM    2  O6  UNL     1     -31.338   8.448   3.816  1.00 20.00    -0.297 OA
ENDROOT
BRANCH   1   3
HETATM    3  C3  UNL     1     -31.672   8.548   1.431  1.00 20.00     0.079 C 
BRANCH   3   4
HETATM    4  C5  UNL     1     -32.544   9.724   0.997  1.00 20.00     0.003 C 
HETATM    5  C2  UNL     1     -33.144   9.526  -0.388  1.00 20.00     0.005 C 
ENDBRANCH   3   4
ENDBRANCH   1   3
BRANCH   1   6
HETATM    6  C4  UNL     1     -33.106   7.056   2.941  1.00 20.00     0.192 C 
HETATM    7 CL7  UNL     1     -33.820   7.086   4.560  1.00 20.00    -0.123 Cl
ENDBRANCH   1   6
TORSDOF 3
ENDMDL
