MODEL 1
REMARK VINA RESULT:      -4.1      0.000      0.000
REMARK  2 active torsions:
REMARK  status: ('A' for Active; 'I' for Inactive)
REMARK    1  A    between atoms: C1_1  and  C7_7 
REMARK    2  A    between atoms: C7_7  and  N8_8 
ROOT
HETATM    1  C2  UNL     1     -34.596   5.832   3.053  1.00 20.00     0.040 C 
HETATM    2  C3  UNL     1     -33.158   6.325   2.875  1.00 20.00     0.273 C 
HETATM    3  C4  UNL     1     -32.820   7.639   4.935  1.00 20.00     0.283 C 
HETATM    4  C5  UNL     1     -34.844   4.917   4.248  1.00 20.00     0.075 C 
HETATM    5  C6  UNL     1     -34.081   7.205   5.682  1.00 20.00     0.104 C 
HETATM    6  N8  UNL     1     -32.934   7.650   3.469  1.00 20.00     0.095 N 
HETATM    7  S10 UNL     1     -34.178   5.403   5.865  1.00 20.00    -0.167 SA
ENDROOT
BRANCH   6   8
HETATM    8  C7  UNL     1     -31.726   8.255   2.894  1.00 20.00     0.341 C 
BRANCH   8   9
HETATM    9  C1  UNL     1     -32.090   8.882   1.579  1.00 20.00     0.261 C 
HETATM   10  O9  UNL     1     -31.358   8.823   0.593  1.00 20.00    -0.305 OA
ENDBRANCH   8   9
ENDBRANCH   6   8
TORSDOF 2
ENDMDL
MODEL 2
REMARK VINA RESULT:      -3.9      1.159      2.101
REMARK  2 active torsions:
REMARK  status: ('A' for Active; 'I' for Inactive)
REMARK    1  A    between atoms: C1_1  and  C7_7 
REMARK    2  A    between atoms: C7_7  and  N8_8 
ROOT
HETATM    1  C2  UNL     1     -33.319   6.947   5.763  1.00 20.00     0.040 C 
HETATM    2  C3  UNL     1     -33.044   7.993   4.680  1.00 20.00     0.273 C 
HETATM    3  C4  UNL     1     -32.987   6.603   2.644  1.00 20.00     0.283 C 
HETATM    4  C5  UNL     1     -34.648   6.208   5.653  1.00 20.00     0.075 C 
HETATM    5  C6  UNL     1     -33.520   5.305   3.249  1.00 20.00     0.104 C 
HETATM    6  N8  UNL     1     -32.239   7.465   3.571  1.00 20.00     0.095 N 
HETATM    7  S10 UNL     1     -35.137   5.535   4.040  1.00 20.00    -0.167 SA
ENDROOT
BRANCH   6   8
HETATM    8  C7  UNL     1     -31.635   8.574   2.822  1.00 20.00     0.341 C 
BRANCH   8   9
HETATM    9  C1  UNL     1     -32.444   8.802   1.576  1.00 20.00     0.261 C 
HETATM   10  O9  UNL     1     -32.596   9.916   1.082  1.00 20.00    -0.305 OA
ENDBRANCH   8   9
ENDBRANCH   6   8
TORSDOF 2
ENDMDL
MODEL 3
REMARK VINA RESULT:      -3.7     11.343     12.187
REMARK  2 active torsions:
REMARK  status: ('A' for Active; 'I' for Inactive)
REMARK    1  A    between atoms: C1_1  and  C7_7 
REMARK    2  A    between atoms: C7_7  and  N8_8 
ROOT
HETATM    1  C2  UNL     1     -33.871  17.248  -1.896  1.00 20.00     0.040 C 
HETATM    2  C3  UNL     1     -33.685  16.337  -3.112  1.00 20.00     0.273 C 
HETATM    3  C4  UNL     1     -36.001  16.112  -3.928  1.00 20.00     0.283 C 
HETATM    4  C5  UNL     1     -34.412  18.644  -2.186  1.00 20.00     0.075 C 
HETATM    5  C6  UNL     1     -36.647  17.190  -3.058  1.00 20.00     0.104 C 
HETATM    6  N8  UNL     1     -34.832  15.447  -3.335  1.00 20.00     0.095 N 
HETATM    7  S10 UNL     1     -35.853  18.807  -3.277  1.00 20.00    -0.167 SA
ENDROOT
BRANCH   6   8
HETATM    8  C7  UNL     1     -34.430  14.322  -4.188  1.00 20.00     0.341 C 
BRANCH   8   9
HETATM    9  C1  UNL     1     -35.625  13.875  -4.981  1.00 20.00     0.261 C 
HETATM   10  O9  UNL     1     -35.870  12.691  -5.197  1.00 20.00    -0.305 OA
ENDBRANCH   8   9
ENDBRANCH   6   8
TORSDOF 2
ENDMDL
MODEL 4
REMARK VINA RESULT:      -3.6     11.596     12.233
REMARK  2 active torsions:
REMARK  status: ('A' for Active; 'I' for Inactive)
REMARK    1  A    between atoms: C1_1  and  C7_7 
REMARK    2  A    between atoms: C7_7  and  N8_8 
ROOT
HETATM    1  C2  UNL     1     -35.965  15.924  -3.422  1.00 20.00     0.040 C 
HETATM    2  C3  UNL     1     -35.147  14.925  -4.244  1.00 20.00     0.273 C 
HETATM    3  C4  UNL     1     -33.333  16.354  -5.108  1.00 20.00     0.283 C 
HETATM    4  C5  UNL     1     -35.248  16.555  -2.233  1.00 20.00     0.075 C 
HETATM    5  C6  UNL     1     -33.603  17.593  -4.255  1.00 20.00     0.104 C 
HETATM    6  N8  UNL     1     -34.516  15.539  -5.420  1.00 20.00     0.095 N 
HETATM    7  S10 UNL     1     -33.577  17.217  -2.480  1.00 20.00    -0.167 SA
ENDROOT
BRANCH   6   8
HETATM    8  C7  UNL     1     -34.146  14.497  -6.386  1.00 20.00     0.341 C 
BRANCH   8   9
HETATM    9  C1  UNL     1     -35.293  13.535  -6.509  1.00 20.00     0.261 C 
HETATM   10  O9  UNL     1     -35.128  12.327  -6.660  1.00 20.00    -0.305 OA
ENDBRANCH   8   9
ENDBRANCH   6   8
TORSDOF 2
ENDMDL
MODEL 5
REMARK VINA RESULT:      -3.5     11.793     12.705
REMARK  2 active torsions:
REMARK  status: ('A' for Active; 'I' for Inactive)
REMARK    1  A    between atoms: C1_1  and  C7_7 
REMARK    2  A    between atoms: C7_7  and  N8_8 
ROOT
HETATM    1  C2  UNL     1     -34.451  16.263  -2.742  1.00 20.00     0.040 C 
HETATM    2  C3  UNL     1     -33.892  15.382  -3.861  1.00 20.00     0.273 C 
HETATM    3  C4  UNL     1     -34.314  16.774  -5.853  1.00 20.00     0.283 C 
HETATM    4  C5  UNL     1     -33.757  17.606  -2.540  1.00 20.00     0.075 C 
HETATM    5  C6  UNL     1     -34.711  18.066  -5.138  1.00 20.00     0.104 C 
HETATM    6  N8  UNL     1     -34.625  15.535  -5.125  1.00 20.00     0.095 N 
HETATM    7  S10 UNL     1     -33.422  18.637  -3.996  1.00 20.00    -0.167 SA
ENDROOT
BRANCH   6   8
HETATM    8  C7  UNL     1     -34.362  14.382  -5.995  1.00 20.00     0.341 C 
BRANCH   8   9
HETATM    9  C1  UNL     1     -35.611  13.551  -6.073  1.00 20.00     0.261 C 
HETATM   10  O9  UNL     1     -35.935  12.762  -5.189  1.00 20.00    -0.305 OA
ENDBRANCH   8   9
ENDBRANCH   6   8
TORSDOF 2
ENDMDL
MODEL 6
REMARK VINA RESULT:      -3.5     11.390     12.123
REMARK  2 active torsions:
REMARK  status: ('A' for Active; 'I' for Inactive)
REMARK    1  A    between atoms: C1_1  and  C7_7 
REMARK    2  A    between atoms: C7_7  and  N8_8 
ROOT
HETATM    1  C2  UNL     1     -35.587  16.756  -1.999  1.00 20.00     0.040 C 
HETATM    2  C3  UNL     1     -35.070  15.707  -2.986  1.00 20.00     0.273 C 
HETATM    3  C4  UNL     1     -33.555  17.049  -4.395  1.00 20.00     0.283 C 
HETATM    4  C5  UNL     1     -34.538  17.395  -1.096  1.00 20.00     0.075 C 
HETATM    5  C6  UNL     1     -33.534  18.320  -3.546  1.00 20.00     0.104 C 
HETATM    6  N8  UNL     1     -34.796  16.265  -4.317  1.00 20.00     0.095 N 
HETATM    7  S10 UNL     1     -32.997  17.993  -1.844  1.00 20.00    -0.167 SA
ENDROOT
BRANCH   6   8
HETATM    8  C7  UNL     1     -34.751  15.184  -5.310  1.00 20.00     0.341 C 
BRANCH   8   9
HETATM    9  C1  UNL     1     -35.410  13.970  -4.720  1.00 20.00     0.261 C 
HETATM   10  O9  UNL     1     -35.544  12.922  -5.347  1.00 20.00    -0.305 OA
ENDBRANCH   8   9
ENDBRANCH   6   8
TORSDOF 2
ENDMDL
MODEL 7
REMARK VINA RESULT:      -3.4     11.566     12.794
REMARK  2 active torsions:
REMARK  status: ('A' for Active; 'I' for Inactive)
REMARK    1  A    between atoms: C1_1  and  C7_7 
REMARK    2  A    between atoms: C7_7  and  N8_8 
ROOT
HETATM    1  C2  UNL     1     -34.072  16.718  -6.481  1.00 20.00     0.040 C 
HETATM    2  C3  UNL     1     -35.284  15.807  -6.267  1.00 20.00     0.273 C 
HETATM    3  C4  UNL     1     -34.582  14.494  -4.301  1.00 20.00     0.283 C 
HETATM    4  C5  UNL     1     -33.760  17.688  -5.347  1.00 20.00     0.075 C 
HETATM    5  C6  UNL     1     -33.343  15.306  -3.925  1.00 20.00     0.104 C 
HETATM    6  N8  UNL     1     -34.916  14.489  -5.732  1.00 20.00     0.095 N 
HETATM    7  S10 UNL     1     -33.734  17.056  -3.646  1.00 20.00    -0.167 SA
ENDROOT
BRANCH   6   8
HETATM    8  C7  UNL     1     -36.005  13.533  -5.973  1.00 20.00     0.341 C 
BRANCH   8   9
HETATM    9  C1  UNL     1     -37.313  14.246  -5.782  1.00 20.00     0.261 C 
HETATM   10  O9  UNL     1     -38.121  13.923  -4.914  1.00 20.00    -0.305 OA
ENDBRANCH   8   9
ENDBRANCH   6   8
TORSDOF 2
ENDMDL
MODEL 8
REMARK VINA RESULT:      -3.4     11.617     12.079
REMARK  2 active torsions:
REMARK  status: ('A' for Active; 'I' for Inactive)
REMARK    1  A    between atoms: C1_1  and  C7_7 
REMARK    2  A    between atoms: C7_7  and  N8_8 
ROOT
HETATM    1  C2  UNL     1     -35.517  13.880  -4.921  1.00 20.00     0.040 C 
HETATM    2  C3  UNL     1     -35.873  15.152  -4.148  1.00 20.00     0.273 C 
HETATM    3  C4  UNL     1     -33.726  16.365  -4.163  1.00 20.00     0.283 C 
HETATM    4  C5  UNL     1     -35.092  14.078  -6.371  1.00 20.00     0.075 C 
HETATM    5  C6  UNL     1     -32.984  15.486  -5.170  1.00 20.00     0.104 C 
HETATM    6  N8  UNL     1     -34.747  15.674  -3.362  1.00 20.00     0.095 N 
HETATM    7  S10 UNL     1     -33.868  15.364  -6.749  1.00 20.00    -0.167 SA
ENDROOT
BRANCH   6   8
HETATM    8  C7  UNL     1     -35.245  16.582  -2.322  1.00 20.00     0.341 C 
BRANCH   8   9
HETATM    9  C1  UNL     1     -34.065  17.185  -1.613  1.00 20.00     0.261 C 
HETATM   10  O9  UNL     1     -34.139  17.632  -0.471  1.00 20.00    -0.305 OA
ENDBRANCH   8   9
ENDBRANCH   6   8
TORSDOF 2
ENDMDL
MODEL 9
REMARK VINA RESULT:      -3.4     11.483     12.487
REMARK  2 active torsions:
REMARK  status: ('A' for Active; 'I' for Inactive)
REMARK    1  A    between atoms: C1_1  and  C7_7 
REMARK    2  A    between atoms: C7_7  and  N8_8 
ROOT
HETATM    1  C2  UNL     1     -34.572  14.470  -3.947  1.00 20.00     0.040 C 
HETATM    2  C3  UNL     1     -34.788  15.920  -3.506  1.00 20.00     0.273 C 
HETATM    3  C4  UNL     1     -33.600  17.163  -5.273  1.00 20.00     0.283 C 
HETATM    4  C5  UNL     1     -35.179  14.085  -5.292  1.00 20.00     0.075 C 
HETATM    5  C6  UNL     1     -33.363  16.002  -6.239  1.00 20.00     0.104 C 
HETATM    6  N8  UNL     1     -33.659  16.793  -3.852  1.00 20.00     0.095 N 
HETATM    7  S10 UNL     1     -34.912  15.183  -6.711  1.00 20.00    -0.167 SA
ENDROOT
BRANCH   6   8
HETATM    8  C7  UNL     1     -33.705  18.012  -3.035  1.00 20.00     0.341 C 
BRANCH   8   9
HETATM    9  C1  UNL     1     -33.107  17.706  -1.691  1.00 20.00     0.261 C 
HETATM   10  O9  UNL     1     -32.112  18.287  -1.263  1.00 20.00    -0.305 OA
ENDBRANCH   8   9
ENDBRANCH   6   8
TORSDOF 2
ENDMDL
