MODEL 1
REMARK VINA RESULT:      -4.2      0.000      0.000
REMARK  3 active torsions:
REMARK  status: ('A' for Active; 'I' for Inactive)
REMARK    1  A    between atoms: C1_1  and  C7_7 
REMARK    2  A    between atoms: C5_5  and  N8_8 
REMARK    3  A    between atoms: C7_7  and  N8_8 
ROOT
HETATM    1  C2  UNL     1     -33.562   7.163   5.189  1.00 20.00     0.047 C 
HETATM    2  C3  UNL     1     -34.480   6.030   5.619  1.00 20.00     0.076 C 
HETATM    3  C4  UNL     1     -33.543   5.903   3.103  1.00 20.00     0.109 C 
HETATM    4  C5  UNL     1     -33.735   7.301   3.678  1.00 20.00     0.233 C 
HETATM    5  S10 UNL     1     -34.368   4.800   4.288  1.00 20.00    -0.167 SA
ENDROOT
BRANCH   4   6
HETATM    6  N8  UNL     1     -32.787   8.246   3.100  1.00 20.00     0.096 N 
HETATM    7  C6  UNL     1     -31.482   8.132   3.754  1.00 20.00     0.310 C 
BRANCH   6   8
HETATM    8  C7  UNL     1     -32.652   8.026   1.658  1.00 20.00     0.341 C 
BRANCH   8   9
HETATM    9  C1  UNL     1     -32.168   9.301   1.028  1.00 20.00     0.261 C 
HETATM   10  O9  UNL     1     -32.779  10.361   1.127  1.00 20.00    -0.305 OA
ENDBRANCH   8   9
ENDBRANCH   6   8
ENDBRANCH   4   6
TORSDOF 3
ENDMDL
MODEL 2
REMARK VINA RESULT:      -3.9      0.812      1.407
REMARK  3 active torsions:
REMARK  status: ('A' for Active; 'I' for Inactive)
REMARK    1  A    between atoms: C1_1  and  C7_7 
REMARK    2  A    between atoms: C5_5  and  N8_8 
REMARK    3  A    between atoms: C7_7  and  N8_8 
ROOT
HETATM    1  C2  UNL     1     -33.974   5.998   3.092  1.00 20.00     0.047 C 
HETATM    2  C3  UNL     1     -34.419   4.853   3.988  1.00 20.00     0.076 C 
HETATM    3  C4  UNL     1     -33.750   7.138   5.235  1.00 20.00     0.109 C 
HETATM    4  C5  UNL     1     -33.020   6.847   3.930  1.00 20.00     0.233 C 
HETATM    5  S10 UNL     1     -34.610   5.588   5.637  1.00 20.00    -0.167 SA
ENDROOT
BRANCH   4   6
HETATM    6  N8  UNL     1     -32.640   8.079   3.249  1.00 20.00     0.096 N 
HETATM    7  C6  UNL     1     -31.255   8.435   3.560  1.00 20.00     0.310 C 
BRANCH   6   8
HETATM    8  C7  UNL     1     -32.817   7.946   1.801  1.00 20.00     0.341 C 
BRANCH   8   9
HETATM    9  C1  UNL     1     -32.223   9.155   1.137  1.00 20.00     0.261 C 
HETATM   10  O9  UNL     1     -32.871  10.176   0.921  1.00 20.00    -0.305 OA
ENDBRANCH   8   9
ENDBRANCH   6   8
ENDBRANCH   4   6
TORSDOF 3
ENDMDL
MODEL 3
REMARK VINA RESULT:      -3.9     10.929     11.626
REMARK  3 active torsions:
REMARK  status: ('A' for Active; 'I' for Inactive)
REMARK    1  A    between atoms: C1_1  and  C7_7 
REMARK    2  A    between atoms: C5_5  and  N8_8 
REMARK    3  A    between atoms: C7_7  and  N8_8 
ROOT
HETATM    1  C2  UNL     1     -34.687  16.489  -2.258  1.00 20.00     0.047 C 
HETATM    2  C3  UNL     1     -34.103  17.445  -1.229  1.00 20.00     0.076 C 
HETATM    3  C4  UNL     1     -33.418  17.899  -3.788  1.00 20.00     0.109 C 
HETATM    4  C5  UNL     1     -33.690  16.447  -3.414  1.00 20.00     0.233 C 
HETATM    5  S10 UNL     1     -33.344  18.778  -2.200  1.00 20.00    -0.167 SA
ENDROOT
BRANCH   4   6
HETATM    6  N8  UNL     1     -34.201  15.694  -4.553  1.00 20.00     0.096 N 
HETATM    7  C6  UNL     1     -33.241  15.714  -5.658  1.00 20.00     0.310 C 
BRANCH   6   8
HETATM    8  C7  UNL     1     -34.500  14.313  -4.166  1.00 20.00     0.341 C 
BRANCH   8   9
HETATM    9  C1  UNL     1     -35.705  13.855  -4.938  1.00 20.00     0.261 C 
HETATM   10  O9  UNL     1     -35.877  12.682  -5.260  1.00 20.00    -0.305 OA
ENDBRANCH   8   9
ENDBRANCH   6   8
ENDBRANCH   4   6
TORSDOF 3
ENDMDL
MODEL 4
REMARK VINA RESULT:      -3.6     10.925     11.453
REMARK  3 active torsions:
REMARK  status: ('A' for Active; 'I' for Inactive)
REMARK    1  A    between atoms: C1_1  and  C7_7 
REMARK    2  A    between atoms: C5_5  and  N8_8 
REMARK    3  A    between atoms: C7_7  and  N8_8 
ROOT
HETATM    1  C2  UNL     1     -33.505  16.504  -2.880  1.00 20.00     0.047 C 
HETATM    2  C3  UNL     1     -33.673  17.388  -1.655  1.00 20.00     0.076 C 
HETATM    3  C4  UNL     1     -35.940  16.474  -2.773  1.00 20.00     0.109 C 
HETATM    4  C5  UNL     1     -34.766  16.696  -3.720  1.00 20.00     0.233 C 
HETATM    5  S10 UNL     1     -35.430  17.259  -1.216  1.00 20.00    -0.167 SA
ENDROOT
BRANCH   4   6
HETATM    6  N8  UNL     1     -34.818  15.778  -4.851  1.00 20.00     0.096 N 
HETATM    7  C6  UNL     1     -33.682  15.998  -5.747  1.00 20.00     0.310 C 
BRANCH   6   8
HETATM    8  C7  UNL     1     -34.838  14.388  -4.388  1.00 20.00     0.341 C 
BRANCH   8   9
HETATM    9  C1  UNL     1     -35.833  13.626  -5.216  1.00 20.00     0.261 C 
HETATM   10  O9  UNL     1     -35.559  12.563  -5.766  1.00 20.00    -0.305 OA
ENDBRANCH   8   9
ENDBRANCH   6   8
ENDBRANCH   4   6
TORSDOF 3
ENDMDL
MODEL 5
REMARK VINA RESULT:      -3.5     11.142     11.571
REMARK  3 active torsions:
REMARK  status: ('A' for Active; 'I' for Inactive)
REMARK    1  A    between atoms: C1_1  and  C7_7 
REMARK    2  A    between atoms: C5_5  and  N8_8 
REMARK    3  A    between atoms: C7_7  and  N8_8 
ROOT
HETATM    1  C2  UNL     1     -35.299  16.681  -1.892  1.00 20.00     0.047 C 
HETATM    2  C3  UNL     1     -34.242  17.571  -1.257  1.00 20.00     0.076 C 
HETATM    3  C4  UNL     1     -33.957  17.088  -3.885  1.00 20.00     0.109 C 
HETATM    4  C5  UNL     1     -34.617  15.984  -3.068  1.00 20.00     0.233 C 
HETATM    5  S10 UNL     1     -33.287  18.239  -2.649  1.00 20.00    -0.167 SA
ENDROOT
BRANCH   4   6
HETATM    6  N8  UNL     1     -35.561  15.221  -3.875  1.00 20.00     0.096 N 
HETATM    7  C6  UNL     1     -36.817  15.956  -4.035  1.00 20.00     0.310 C 
BRANCH   6   8
HETATM    8  C7  UNL     1     -34.986  14.908  -5.186  1.00 20.00     0.341 C 
BRANCH   8   9
HETATM    9  C1  UNL     1     -35.749  13.757  -5.776  1.00 20.00     0.261 C 
HETATM   10  O9  UNL     1     -35.892  12.688  -5.189  1.00 20.00    -0.305 OA
ENDBRANCH   8   9
ENDBRANCH   6   8
ENDBRANCH   4   6
TORSDOF 3
ENDMDL
MODEL 6
REMARK VINA RESULT:      -3.3      3.157      4.542
REMARK  3 active torsions:
REMARK  status: ('A' for Active; 'I' for Inactive)
REMARK    1  A    between atoms: C1_1  and  C7_7 
REMARK    2  A    between atoms: C5_5  and  N8_8 
REMARK    3  A    between atoms: C7_7  and  N8_8 
ROOT
HETATM    1  C2  UNL     1     -33.346   6.984   2.342  1.00 20.00     0.047 C 
HETATM    2  C3  UNL     1     -32.796   8.036   1.393  1.00 20.00     0.076 C 
HETATM    3  C4  UNL     1     -31.857   8.107   3.910  1.00 20.00     0.109 C 
HETATM    4  C5  UNL     1     -33.282   7.596   3.740  1.00 20.00     0.233 C 
HETATM    5  S10 UNL     1     -31.424   8.814   2.293  1.00 20.00    -0.167 SA
ENDROOT
BRANCH   4   6
HETATM    6  N8  UNL     1     -33.626   6.632   4.778  1.00 20.00     0.096 N 
HETATM    7  C6  UNL     1     -33.808   7.303   6.066  1.00 20.00     0.310 C 
BRANCH   6   8
HETATM    8  C7  UNL     1     -34.838   5.893   4.415  1.00 20.00     0.341 C 
BRANCH   8   9
HETATM    9  C1  UNL     1     -34.687   4.474   4.883  1.00 20.00     0.261 C 
HETATM   10  O9  UNL     1     -34.165   3.602   4.193  1.00 20.00    -0.305 OA
ENDBRANCH   8   9
ENDBRANCH   6   8
ENDBRANCH   4   6
TORSDOF 3
ENDMDL
MODEL 7
REMARK VINA RESULT:      -3.3     11.468     12.202
REMARK  3 active torsions:
REMARK  status: ('A' for Active; 'I' for Inactive)
REMARK    1  A    between atoms: C1_1  and  C7_7 
REMARK    2  A    between atoms: C5_5  and  N8_8 
REMARK    3  A    between atoms: C7_7  and  N8_8 
ROOT
HETATM    1  C2  UNL     1     -34.545  15.186  -4.011  1.00 20.00     0.047 C 
HETATM    2  C3  UNL     1     -33.646  16.217  -3.348  1.00 20.00     0.076 C 
HETATM    3  C4  UNL     1     -34.430  16.772  -5.858  1.00 20.00     0.109 C 
HETATM    4  C5  UNL     1     -34.283  15.295  -5.512  1.00 20.00     0.233 C 
HETATM    5  S10 UNL     1     -33.669  17.651  -4.462  1.00 20.00    -0.167 SA
ENDROOT
BRANCH   4   6
HETATM    6  N8  UNL     1     -35.202  14.475  -6.291  1.00 20.00     0.096 N 
HETATM    7  C6  UNL     1     -34.465  13.533  -7.135  1.00 20.00     0.310 C 
BRANCH   6   8
HETATM    8  C7  UNL     1     -36.124  13.752  -5.410  1.00 20.00     0.341 C 
BRANCH   8   9
HETATM    9  C1  UNL     1     -37.510  14.286  -5.634  1.00 20.00     0.261 C 
HETATM   10  O9  UNL     1     -38.452  14.006  -4.898  1.00 20.00    -0.305 OA
ENDBRANCH   8   9
ENDBRANCH   6   8
ENDBRANCH   4   6
TORSDOF 3
ENDMDL
MODEL 8
REMARK VINA RESULT:      -3.3     10.769     11.327
REMARK  3 active torsions:
REMARK  status: ('A' for Active; 'I' for Inactive)
REMARK    1  A    between atoms: C1_1  and  C7_7 
REMARK    2  A    between atoms: C5_5  and  N8_8 
REMARK    3  A    between atoms: C7_7  and  N8_8 
ROOT
HETATM    1  C2  UNL     1     -33.291  17.503  -1.614  1.00 20.00     0.047 C 
HETATM    2  C3  UNL     1     -32.921  18.592  -0.619  1.00 20.00     0.076 C 
HETATM    3  C4  UNL     1     -35.330  17.450  -0.280  1.00 20.00     0.109 C 
HETATM    4  C5  UNL     1     -34.815  17.518  -1.713  1.00 20.00     0.233 C 
HETATM    5  S10 UNL     1     -34.201  18.513   0.666  1.00 20.00    -0.167 SA
ENDROOT
BRANCH   4   6
HETATM    6  N8  UNL     1     -35.324  16.409  -2.511  1.00 20.00     0.096 N 
HETATM    7  C6  UNL     1     -36.453  16.842  -3.335  1.00 20.00     0.310 C 
BRANCH   6   8
HETATM    8  C7  UNL     1     -34.265  15.851  -3.355  1.00 20.00     0.341 C 
BRANCH   8   9
HETATM    9  C1  UNL     1     -34.831  14.691  -4.123  1.00 20.00     0.261 C 
HETATM   10  O9  UNL     1     -34.344  13.565  -4.074  1.00 20.00    -0.305 OA
ENDBRANCH   8   9
ENDBRANCH   6   8
ENDBRANCH   4   6
TORSDOF 3
ENDMDL
MODEL 9
REMARK VINA RESULT:      -3.3      3.190      4.416
REMARK  3 active torsions:
REMARK  status: ('A' for Active; 'I' for Inactive)
REMARK    1  A    between atoms: C1_1  and  C7_7 
REMARK    2  A    between atoms: C5_5  and  N8_8 
REMARK    3  A    between atoms: C7_7  and  N8_8 
ROOT
HETATM    1  C2  UNL     1     -31.713   8.171   3.803  1.00 20.00     0.047 C 
HETATM    2  C3  UNL     1     -31.183   8.806   2.527  1.00 20.00     0.076 C 
HETATM    3  C4  UNL     1     -33.657   7.765   2.391  1.00 20.00     0.109 C 
HETATM    4  C5  UNL     1     -32.698   7.090   3.363  1.00 20.00     0.233 C 
HETATM    5  S10 UNL     1     -32.609   8.875   1.406  1.00 20.00    -0.167 SA
ENDROOT
BRANCH   4   6
HETATM    6  N8  UNL     1     -33.413   6.507   4.492  1.00 20.00     0.096 N 
HETATM    7  C6  UNL     1     -33.577   7.491   5.563  1.00 20.00     0.310 C 
BRANCH   6   8
HETATM    8  C7  UNL     1     -34.719   5.995   4.069  1.00 20.00     0.341 C 
BRANCH   8   9
HETATM    9  C1  UNL     1     -34.906   4.626   4.657  1.00 20.00     0.261 C 
HETATM   10  O9  UNL     1     -34.257   3.652   4.284  1.00 20.00    -0.305 OA
ENDBRANCH   8   9
ENDBRANCH   6   8
ENDBRANCH   4   6
TORSDOF 3
ENDMDL
