MODEL 1
REMARK VINA RESULT:      -6.4      0.000      0.000
REMARK  0 active torsions:
REMARK  status: ('A' for Active; 'I' for Inactive)
ROOT
HETATM    1  C1  UNL     1     -33.242   6.993   2.377  1.00 20.00     0.055 A 
HETATM    2  C2  UNL     1     -33.769   6.646   3.596  1.00 20.00    -0.029 A 
HETATM    3  C3  UNL     1     -33.260   7.236   4.741  1.00 20.00     0.063 A 
HETATM    4  C4  UNL     1     -32.211   7.914   2.400  1.00 20.00     0.148 A 
HETATM    5  C5  UNL     1     -34.894   5.722   3.918  1.00 20.00     0.041 C 
HETATM    6  C6  UNL     1     -33.998   6.774   5.962  1.00 20.00     0.062 C 
HETATM    7  C7  UNL     1     -34.675   5.503   5.425  1.00 20.00     0.011 C 
HETATM    8  N8  UNL     1     -32.264   8.136   4.739  1.00 20.00    -0.153 NA
HETATM    9  N9  UNL     1     -31.724   8.475   3.539  1.00 20.00    -0.138 NA
HETATM   10 CL10 UNL     1     -31.451   8.439   0.955  1.00 20.00    -0.060 Cl
ENDROOT
TORSDOF 0
ENDMDL
MODEL 2
REMARK VINA RESULT:      -5.6      1.602      2.044
REMARK  0 active torsions:
REMARK  status: ('A' for Active; 'I' for Inactive)
ROOT
HETATM    1  C1  UNL     1     -32.808   7.964   3.817  1.00 20.00     0.055 A 
HETATM    2  C2  UNL     1     -33.481   7.013   4.544  1.00 20.00    -0.029 A 
HETATM    3  C3  UNL     1     -33.892   5.852   3.912  1.00 20.00     0.063 A 
HETATM    4  C4  UNL     1     -32.608   7.678   2.479  1.00 20.00     0.148 A 
HETATM    5  C5  UNL     1     -33.826   6.992   5.995  1.00 20.00     0.041 C 
HETATM    6  C6  UNL     1     -34.556   4.916   4.878  1.00 20.00     0.062 C 
HETATM    7  C7  UNL     1     -34.888   5.879   6.029  1.00 20.00     0.011 C 
HETATM    8  N8  UNL     1     -33.679   5.591   2.613  1.00 20.00    -0.153 NA
HETATM    9  N9  UNL     1     -33.027   6.532   1.880  1.00 20.00    -0.138 NA
HETATM   10 CL10 UNL     1     -31.787   8.774   1.446  1.00 20.00    -0.060 Cl
ENDROOT
TORSDOF 0
ENDMDL
MODEL 3
REMARK VINA RESULT:      -4.6      2.882      4.203
REMARK  0 active torsions:
REMARK  status: ('A' for Active; 'I' for Inactive)
ROOT
HETATM    1  C1  UNL     1     -33.320   6.949   5.145  1.00 20.00     0.055 A 
HETATM    2  C2  UNL     1     -32.779   7.553   4.037  1.00 20.00    -0.029 A 
HETATM    3  C3  UNL     1     -33.156   7.114   2.779  1.00 20.00     0.063 A 
HETATM    4  C4  UNL     1     -34.207   5.917   4.901  1.00 20.00     0.148 A 
HETATM    5  C5  UNL     1     -31.831   8.702   3.947  1.00 20.00     0.041 C 
HETATM    6  C6  UNL     1     -32.505   7.930   1.703  1.00 20.00     0.062 C 
HETATM    7  C7  UNL     1     -31.355   8.579   2.490  1.00 20.00     0.011 C 
HETATM    8  N8  UNL     1     -34.027   6.116   2.566  1.00 20.00    -0.153 NA
HETATM    9  N9  UNL     1     -34.558   5.499   3.655  1.00 20.00    -0.138 NA
HETATM   10 CL10 UNL     1     -34.959   5.065   6.185  1.00 20.00    -0.060 Cl
ENDROOT
TORSDOF 0
ENDMDL
MODEL 4
REMARK VINA RESULT:      -4.6      2.470      3.722
REMARK  0 active torsions:
REMARK  status: ('A' for Active; 'I' for Inactive)
ROOT
HETATM    1  C1  UNL     1     -33.897   5.922   3.371  1.00 20.00     0.055 A 
HETATM    2  C2  UNL     1     -33.089   6.946   2.944  1.00 20.00    -0.029 A 
HETATM    3  C3  UNL     1     -32.587   7.840   3.875  1.00 20.00     0.063 A 
HETATM    4  C4  UNL     1     -34.158   5.879   4.729  1.00 20.00     0.148 A 
HETATM    5  C5  UNL     1     -32.590   7.256   1.572  1.00 20.00     0.041 C 
HETATM    6  C6  UNL     1     -31.685   8.847   3.227  1.00 20.00     0.062 C 
HETATM    7  C7  UNL     1     -32.105   8.704   1.755  1.00 20.00     0.011 C 
HETATM    8  N8  UNL     1     -32.846   7.774   5.190  1.00 20.00    -0.153 NA
HETATM    9  N9  UNL     1     -33.657   6.773   5.623  1.00 20.00    -0.138 NA
HETATM   10 CL10 UNL     1     -35.155   4.660   5.407  1.00 20.00    -0.060 Cl
ENDROOT
TORSDOF 0
ENDMDL
MODEL 5
REMARK VINA RESULT:      -4.5     11.655     11.847
REMARK  0 active torsions:
REMARK  status: ('A' for Active; 'I' for Inactive)
ROOT
HETATM    1  C1  UNL     1     -33.719  18.395   0.176  1.00 20.00     0.055 A 
HETATM    2  C2  UNL     1     -33.328  18.610   1.474  1.00 20.00    -0.029 A 
HETATM    3  C3  UNL     1     -31.979  18.734   1.758  1.00 20.00     0.063 A 
HETATM    4  C4  UNL     1     -32.702  18.302  -0.758  1.00 20.00     0.148 A 
HETATM    5  C5  UNL     1     -34.159  18.792   2.700  1.00 20.00     0.041 C 
HETATM    6  C6  UNL     1     -31.756  19.021   3.213  1.00 20.00     0.062 C 
HETATM    7  C7  UNL     1     -33.107  18.583   3.802  1.00 20.00     0.011 C 
HETATM    8  N8  UNL     1     -31.009  18.650   0.835  1.00 20.00    -0.153 NA
HETATM    9  N9  UNL     1     -31.383  18.421  -0.452  1.00 20.00    -0.138 NA
HETATM   10 CL10 UNL     1     -33.037  18.029  -2.417  1.00 20.00    -0.060 Cl
ENDROOT
TORSDOF 0
ENDMDL
MODEL 6
REMARK VINA RESULT:      -4.5     11.940     12.234
REMARK  0 active torsions:
REMARK  status: ('A' for Active; 'I' for Inactive)
ROOT
HETATM    1  C1  UNL     1     -32.956  18.774   2.050  1.00 20.00     0.055 A 
HETATM    2  C2  UNL     1     -33.345  18.505   0.762  1.00 20.00    -0.029 A 
HETATM    3  C3  UNL     1     -32.377  18.385  -0.222  1.00 20.00     0.063 A 
HETATM    4  C4  UNL     1     -31.596  18.920   2.257  1.00 20.00     0.148 A 
HETATM    5  C5  UNL     1     -34.709  18.258   0.211  1.00 20.00     0.041 C 
HETATM    6  C6  UNL     1     -32.991  18.035  -1.545  1.00 20.00     0.062 C 
HETATM    7  C7  UNL     1     -34.455  18.430  -1.296  1.00 20.00     0.011 C 
HETATM    8  N8  UNL     1     -31.062  18.521   0.003  1.00 20.00    -0.153 NA
HETATM    9  N9  UNL     1     -30.665  18.803   1.273  1.00 20.00    -0.138 NA
HETATM   10 CL10 UNL     1     -30.962  19.263   3.813  1.00 20.00    -0.060 Cl
ENDROOT
TORSDOF 0
ENDMDL
MODEL 7
REMARK VINA RESULT:      -4.4     11.463     11.644
REMARK  0 active torsions:
REMARK  status: ('A' for Active; 'I' for Inactive)
ROOT
HETATM    1  C1  UNL     1     -35.925  14.927  -4.526  1.00 20.00     0.055 A 
HETATM    2  C2  UNL     1     -35.370  15.764  -3.590  1.00 20.00    -0.029 A 
HETATM    3  C3  UNL     1     -33.992  15.805  -3.456  1.00 20.00     0.063 A 
HETATM    4  C4  UNL     1     -35.036  14.166  -5.263  1.00 20.00     0.148 A 
HETATM    5  C5  UNL     1     -36.032  16.731  -2.666  1.00 20.00     0.041 C 
HETATM    6  C6  UNL     1     -33.578  16.815  -2.428  1.00 20.00     0.062 C 
HETATM    7  C7  UNL     1     -34.898  17.006  -1.665  1.00 20.00     0.011 C 
HETATM    8  N8  UNL     1     -33.148  15.065  -4.190  1.00 20.00    -0.153 NA
HETATM    9  N9  UNL     1     -33.686  14.220  -5.109  1.00 20.00    -0.138 NA
HETATM   10 CL10 UNL     1     -35.582  13.072  -6.465  1.00 20.00    -0.060 Cl
ENDROOT
TORSDOF 0
ENDMDL
MODEL 8
REMARK VINA RESULT:      -4.3     11.535     12.270
REMARK  0 active torsions:
REMARK  status: ('A' for Active; 'I' for Inactive)
ROOT
HETATM    1  C1  UNL     1     -34.869  15.056  -3.796  1.00 20.00     0.055 A 
HETATM    2  C2  UNL     1     -34.974  14.435  -5.016  1.00 20.00    -0.029 A 
HETATM    3  C3  UNL     1     -34.119  14.813  -6.038  1.00 20.00     0.063 A 
HETATM    4  C4  UNL     1     -33.903  16.041  -3.696  1.00 20.00     0.148 A 
HETATM    5  C5  UNL     1     -35.872  13.324  -5.444  1.00 20.00     0.041 C 
HETATM    6  C6  UNL     1     -34.349  13.986  -7.268  1.00 20.00     0.062 C 
HETATM    7  C7  UNL     1     -35.744  13.415  -6.974  1.00 20.00     0.011 C 
HETATM    8  N8  UNL     1     -33.182  15.765  -5.916  1.00 20.00    -0.153 NA
HETATM    9  N9  UNL     1     -33.079  16.398  -4.717  1.00 20.00    -0.138 NA
HETATM   10 CL10 UNL     1     -33.660  16.907  -2.236  1.00 20.00    -0.060 Cl
ENDROOT
TORSDOF 0
ENDMDL
MODEL 9
REMARK VINA RESULT:      -4.2     11.048     12.057
REMARK  0 active torsions:
REMARK  status: ('A' for Active; 'I' for Inactive)
ROOT
HETATM    1  C1  UNL     1     -35.192  15.393  -4.046  1.00 20.00     0.055 A 
HETATM    2  C2  UNL     1     -36.534  15.455  -4.328  1.00 20.00    -0.029 A 
HETATM    3  C3  UNL     1     -37.146  14.368  -4.930  1.00 20.00     0.063 A 
HETATM    4  C4  UNL     1     -34.548  14.224  -4.411  1.00 20.00     0.148 A 
HETATM    5  C5  UNL     1     -37.517  16.539  -4.040  1.00 20.00     0.041 C 
HETATM    6  C6  UNL     1     -38.616  14.603  -5.105  1.00 20.00     0.062 C 
HETATM    7  C7  UNL     1     -38.682  16.131  -4.958  1.00 20.00     0.011 C 
HETATM    8  N8  UNL     1     -36.502  13.240  -5.266  1.00 20.00    -0.153 NA
HETATM    9  N9  UNL     1     -35.170  13.172  -5.006  1.00 20.00    -0.138 NA
HETATM   10 CL10 UNL     1     -32.871  14.004  -4.126  1.00 20.00    -0.060 Cl
ENDROOT
TORSDOF 0
ENDMDL
