MODEL 1
REMARK VINA RESULT:      -7.2      0.000      0.000
REMARK  4 active torsions:
REMARK  status: ('A' for Active; 'I' for Inactive)
REMARK    1  A    between atoms: C2_2  and  C11_11 
REMARK    2  A    between atoms: C9_9  and  C10_10 
REMARK    3  A    between atoms: C10_10  and  C11_11 
REMARK    4  A    between atoms: C11_11  and  O12_12 
ROOT
HETATM    1  C11 UNL     1     -32.258   7.416   2.853  1.00 20.00     0.147 C 
ENDROOT
BRANCH   1   2
HETATM    2  C2  UNL     1     -33.156   6.736   3.843  1.00 20.00    -0.055 C 
HETATM    3  C1  UNL     1     -33.413   7.266   5.051  1.00 20.00    -0.021 C 
HETATM    4  C3  UNL     1     -34.276   6.602   6.084  1.00 20.00     0.027 C 
HETATM    5  C5  UNL     1     -34.566   5.133   5.774  1.00 20.00     0.004 C 
HETATM    6  C6  UNL     1     -34.900   4.941   4.300  1.00 20.00     0.005 C 
HETATM    7  C4  UNL     1     -33.753   5.421   3.405  1.00 20.00     0.036 C 
ENDBRANCH   1   2
BRANCH   1   8
HETATM    8  C10 UNL     1     -33.054   8.159   1.788  1.00 20.00     0.041 C 
BRANCH   8   9
HETATM    9  C9  UNL     1     -32.205   9.148   1.005  1.00 20.00    -0.012 A 
HETATM   10  C7  UNL     1     -32.769   9.837  -0.207  1.00 20.00     0.005 A 
HETATM   11  C8  UNL     1     -32.520  10.618   1.052  1.00 20.00     0.005 A 
ENDBRANCH   8   9
ENDBRANCH   1   8
BRANCH   1  12
HETATM   12  O12 UNL     1     -31.512   8.355   3.611  1.00 20.00    -0.391 OA
HETATM   13  H30 UNL     1     -32.018   9.184   3.611  1.00 20.00     0.210 HD
ENDBRANCH   1  12
TORSDOF 4
ENDMDL
MODEL 2
REMARK VINA RESULT:      -6.9      0.470      1.494
REMARK  4 active torsions:
REMARK  status: ('A' for Active; 'I' for Inactive)
REMARK    1  A    between atoms: C2_2  and  C11_11 
REMARK    2  A    between atoms: C9_9  and  C10_10 
REMARK    3  A    between atoms: C10_10  and  C11_11 
REMARK    4  A    between atoms: C11_11  and  O12_12 
ROOT
HETATM    1  C11 UNL     1     -32.266   7.343   2.750  1.00 20.00     0.147 C 
ENDROOT
BRANCH   1   2
HETATM    2  C2  UNL     1     -33.104   6.450   3.616  1.00 20.00    -0.055 C 
HETATM    3  C1  UNL     1     -33.327   5.162   3.304  1.00 20.00    -0.021 C 
HETATM    4  C3  UNL     1     -34.187   4.244   4.123  1.00 20.00     0.027 C 
HETATM    5  C5  UNL     1     -35.046   4.982   5.152  1.00 20.00     0.004 C 
HETATM    6  C6  UNL     1     -34.243   6.066   5.858  1.00 20.00     0.005 C 
HETATM    7  C4  UNL     1     -33.684   7.082   4.858  1.00 20.00     0.036 C 
ENDBRANCH   1   2
BRANCH   1   8
HETATM    8  C10 UNL     1     -33.120   8.150   1.781  1.00 20.00     0.041 C 
BRANCH   8   9
HETATM    9  C9  UNL     1     -32.295   9.087   0.913  1.00 20.00    -0.012 A 
HETATM   10  C7  UNL     1     -32.923   9.777  -0.267  1.00 20.00     0.005 A 
HETATM   11  C8  UNL     1     -32.544  10.569   0.952  1.00 20.00     0.005 A 
ENDBRANCH   8   9
ENDBRANCH   1   8
BRANCH   1  12
HETATM   12  O12 UNL     1     -31.619   8.231   3.648  1.00 20.00    -0.391 OA
HETATM   13  H30 UNL     1     -32.234   8.967   3.808  1.00 20.00     0.210 HD
ENDBRANCH   1  12
TORSDOF 4
ENDMDL
MODEL 3
REMARK VINA RESULT:      -5.0      0.988      5.198
REMARK  4 active torsions:
REMARK  status: ('A' for Active; 'I' for Inactive)
REMARK    1  A    between atoms: C2_2  and  C11_11 
REMARK    2  A    between atoms: C9_9  and  C10_10 
REMARK    3  A    between atoms: C10_10  and  C11_11 
REMARK    4  A    between atoms: C11_11  and  O12_12 
ROOT
HETATM    1  C11 UNL     1     -33.213   7.719   3.702  1.00 20.00     0.147 C 
ENDROOT
BRANCH   1   2
HETATM    2  C2  UNL     1     -32.798   8.474   2.474  1.00 20.00    -0.055 C 
HETATM    3  C1  UNL     1     -33.187   9.742   2.255  1.00 20.00    -0.021 C 
HETATM    4  C3  UNL     1     -32.825  10.522   1.025  1.00 20.00     0.027 C 
HETATM    5  C5  UNL     1     -32.260   9.650  -0.098  1.00 20.00     0.004 C 
HETATM    6  C6  UNL     1     -31.268   8.631   0.449  1.00 20.00     0.005 C 
HETATM    7  C4  UNL     1     -31.922   7.728   1.499  1.00 20.00     0.036 C 
ENDBRANCH   1   2
BRANCH   1   8
HETATM    8  C10 UNL     1     -33.342   6.227   3.428  1.00 20.00     0.041 C 
BRANCH   8   9
HETATM    9  C9  UNL     1     -34.564   5.612   4.093  1.00 20.00    -0.012 A 
HETATM   10  C7  UNL     1     -34.522   4.195   4.594  1.00 20.00     0.005 A 
HETATM   11  C8  UNL     1     -34.561   5.335   5.571  1.00 20.00     0.005 A 
ENDBRANCH   8   9
ENDBRANCH   1   8
BRANCH   1  12
HETATM   12  O12 UNL     1     -32.166   7.928   4.638  1.00 20.00    -0.391 OA
HETATM   13  H30 UNL     1     -31.446   7.322   4.396  1.00 20.00     0.210 HD
ENDBRANCH   1  12
TORSDOF 4
ENDMDL
MODEL 4
REMARK VINA RESULT:      -4.9     10.769     11.356
REMARK  4 active torsions:
REMARK  status: ('A' for Active; 'I' for Inactive)
REMARK    1  A    between atoms: C2_2  and  C11_11 
REMARK    2  A    between atoms: C9_9  and  C10_10 
REMARK    3  A    between atoms: C10_10  and  C11_11 
REMARK    4  A    between atoms: C11_11  and  O12_12 
ROOT
HETATM    1  C11 UNL     1     -33.754  16.214  -3.316  1.00 20.00     0.147 C 
ENDROOT
BRANCH   1   2
HETATM    2  C2  UNL     1     -33.958  17.001  -2.056  1.00 20.00    -0.055 C 
HETATM    3  C1  UNL     1     -33.002  17.802  -1.555  1.00 20.00    -0.021 C 
HETATM    4  C3  UNL     1     -33.152  18.578  -0.279  1.00 20.00     0.027 C 
HETATM    5  C5  UNL     1     -34.344  18.127   0.565  1.00 20.00     0.004 C 
HETATM    6  C6  UNL     1     -35.573  17.894  -0.305  1.00 20.00     0.005 C 
HETATM    7  C4  UNL     1     -35.298  16.839  -1.381  1.00 20.00     0.036 C 
ENDBRANCH   1   2
BRANCH   1   8
HETATM    8  C10 UNL     1     -35.035  15.522  -3.761  1.00 20.00     0.041 C 
BRANCH   8   9
HETATM    9  C9  UNL     1     -34.774  14.191  -4.449  1.00 20.00    -0.012 A 
HETATM   10  C7  UNL     1     -35.896  13.456  -5.129  1.00 20.00     0.005 A 
HETATM   11  C8  UNL     1     -34.811  14.095  -5.949  1.00 20.00     0.005 A 
ENDBRANCH   8   9
ENDBRANCH   1   8
BRANCH   1  12
HETATM   12  O12 UNL     1     -33.381  17.171  -4.295  1.00 20.00    -0.391 OA
HETATM   13  H30 UNL     1     -32.446  17.009  -4.506  1.00 20.00     0.210 HD
ENDBRANCH   1  12
TORSDOF 4
ENDMDL
MODEL 5
REMARK VINA RESULT:      -4.7      1.378      5.412
REMARK  4 active torsions:
REMARK  status: ('A' for Active; 'I' for Inactive)
REMARK    1  A    between atoms: C2_2  and  C11_11 
REMARK    2  A    between atoms: C9_9  and  C10_10 
REMARK    3  A    between atoms: C10_10  and  C11_11 
REMARK    4  A    between atoms: C11_11  and  O12_12 
ROOT
HETATM    1  C11 UNL     1     -32.848   6.780   2.836  1.00 20.00     0.147 C 
ENDROOT
BRANCH   1   2
HETATM    2  C2  UNL     1     -32.778   8.000   1.965  1.00 20.00    -0.055 C 
HETATM    3  C1  UNL     1     -33.230   7.996   0.699  1.00 20.00    -0.021 C 
HETATM    4  C3  UNL     1     -33.147   9.182  -0.217  1.00 20.00     0.027 C 
HETATM    5  C5  UNL     1     -32.215  10.279   0.300  1.00 20.00     0.004 C 
HETATM    6  C6  UNL     1     -32.418  10.512   1.792  1.00 20.00     0.005 C 
HETATM    7  C4  UNL     1     -32.169   9.230   2.592  1.00 20.00     0.036 C 
ENDBRANCH   1   2
BRANCH   1   8
HETATM    8  C10 UNL     1     -33.573   7.064   4.145  1.00 20.00     0.041 C 
BRANCH   8   9
HETATM    9  C9  UNL     1     -34.650   6.037   4.453  1.00 20.00    -0.012 A 
HETATM   10  C7  UNL     1     -34.298   4.579   4.566  1.00 20.00     0.005 A 
HETATM   11  C8  UNL     1     -34.683   5.355   5.793  1.00 20.00     0.005 A 
ENDBRANCH   8   9
ENDBRANCH   1   8
BRANCH   1  12
HETATM   12  O12 UNL     1     -33.595   5.833   2.089  1.00 20.00    -0.391 OA
HETATM   13  H30 UNL     1     -33.200   5.797   1.202  1.00 20.00     0.210 HD
ENDBRANCH   1  12
TORSDOF 4
ENDMDL
MODEL 6
REMARK VINA RESULT:      -4.7     11.069     11.599
REMARK  4 active torsions:
REMARK  status: ('A' for Active; 'I' for Inactive)
REMARK    1  A    between atoms: C2_2  and  C11_11 
REMARK    2  A    between atoms: C9_9  and  C10_10 
REMARK    3  A    between atoms: C10_10  and  C11_11 
REMARK    4  A    between atoms: C11_11  and  O12_12 
ROOT
HETATM    1  C11 UNL     1     -33.176  15.673  -4.453  1.00 20.00     0.147 C 
ENDROOT
BRANCH   1   2
HETATM    2  C2  UNL     1     -33.905  16.299  -3.302  1.00 20.00    -0.055 C 
HETATM    3  C1  UNL     1     -33.267  17.017  -2.361  1.00 20.00    -0.021 C 
HETATM    4  C3  UNL     1     -33.952  17.629  -1.175  1.00 20.00     0.027 C 
HETATM    5  C5  UNL     1     -35.369  17.095  -0.954  1.00 20.00     0.004 C 
HETATM    6  C6  UNL     1     -36.126  16.992  -2.272  1.00 20.00     0.005 C 
HETATM    7  C4  UNL     1     -35.397  16.076  -3.260  1.00 20.00     0.036 C 
ENDBRANCH   1   2
BRANCH   1   8
HETATM    8  C10 UNL     1     -33.919  14.462  -4.999  1.00 20.00     0.041 C 
BRANCH   8   9
HETATM    9  C9  UNL     1     -34.280  14.609  -6.469  1.00 20.00    -0.012 A 
HETATM   10  C7  UNL     1     -34.648  13.400  -7.284  1.00 20.00     0.005 A 
HETATM   11  C8  UNL     1     -35.700  14.410  -6.923  1.00 20.00     0.005 A 
ENDBRANCH   8   9
ENDBRANCH   1   8
BRANCH   1  12
HETATM   12  O12 UNL     1     -33.130  16.678  -5.454  1.00 20.00    -0.391 OA
HETATM   13  H30 UNL     1     -33.957  16.612  -5.959  1.00 20.00     0.210 HD
ENDBRANCH   1  12
TORSDOF 4
ENDMDL
MODEL 7
REMARK VINA RESULT:      -4.7     10.626     11.461
REMARK  4 active torsions:
REMARK  status: ('A' for Active; 'I' for Inactive)
REMARK    1  A    between atoms: C2_2  and  C11_11 
REMARK    2  A    between atoms: C9_9  and  C10_10 
REMARK    3  A    between atoms: C10_10  and  C11_11 
REMARK    4  A    between atoms: C11_11  and  O12_12 
ROOT
HETATM    1  C11 UNL     1     -33.391  17.109  -2.563  1.00 20.00     0.147 C 
ENDROOT
BRANCH   1   2
HETATM    2  C2  UNL     1     -33.483  17.755  -1.213  1.00 20.00    -0.055 C 
HETATM    3  C1  UNL     1     -32.470  18.470  -0.696  1.00 20.00    -0.021 C 
HETATM    4  C3  UNL     1     -32.507  19.103   0.664  1.00 20.00     0.027 C 
HETATM    5  C5  UNL     1     -33.655  18.592   1.536  1.00 20.00     0.004 C 
HETATM    6  C6  UNL     1     -34.946  18.489   0.734  1.00 20.00     0.005 C 
HETATM    7  C4  UNL     1     -34.780  17.554  -0.468  1.00 20.00     0.036 C 
ENDBRANCH   1   2
BRANCH   1   8
HETATM    8  C10 UNL     1     -34.581  16.199  -2.835  1.00 20.00     0.041 C 
BRANCH   8   9
HETATM    9  C9  UNL     1     -34.487  15.495  -4.179  1.00 20.00    -0.012 A 
HETATM   10  C7  UNL     1     -33.355  14.545  -4.460  1.00 20.00     0.005 A 
HETATM   11  C8  UNL     1     -34.750  14.017  -4.279  1.00 20.00     0.005 A 
ENDBRANCH   8   9
ENDBRANCH   1   8
BRANCH   1  12
HETATM   12  O12 UNL     1     -33.408  18.182  -3.491  1.00 20.00    -0.391 OA
HETATM   13  H30 UNL     1     -34.337  18.446  -3.600  1.00 20.00     0.210 HD
ENDBRANCH   1  12
TORSDOF 4
ENDMDL
MODEL 8
REMARK VINA RESULT:      -4.6     10.820     11.849
REMARK  4 active torsions:
REMARK  status: ('A' for Active; 'I' for Inactive)
REMARK    1  A    between atoms: C2_2  and  C11_11 
REMARK    2  A    between atoms: C9_9  and  C10_10 
REMARK    3  A    between atoms: C10_10  and  C11_11 
REMARK    4  A    between atoms: C11_11  and  O12_12 
ROOT
HETATM    1  C11 UNL     1     -33.479  16.163  -4.763  1.00 20.00     0.147 C 
ENDROOT
BRANCH   1   2
HETATM    2  C2  UNL     1     -34.757  15.501  -5.184  1.00 20.00    -0.055 C 
HETATM    3  C1  UNL     1     -35.623  16.095  -6.024  1.00 20.00    -0.021 C 
HETATM    4  C3  UNL     1     -36.928  15.483  -6.443  1.00 20.00     0.027 C 
HETATM    5  C5  UNL     1     -37.337  14.286  -5.582  1.00 20.00     0.004 C 
HETATM    6  C6  UNL     1     -36.147  13.374  -5.314  1.00 20.00     0.005 C 
HETATM    7  C4  UNL     1     -35.016  14.130  -4.610  1.00 20.00     0.036 C 
ENDBRANCH   1   2
BRANCH   1   8
HETATM    8  C10 UNL     1     -33.337  16.200  -3.247  1.00 20.00     0.041 C 
BRANCH   8   9
HETATM    9  C9  UNL     1     -34.275  17.203  -2.595  1.00 20.00    -0.012 A 
HETATM   10  C7  UNL     1     -35.428  16.728  -1.754  1.00 20.00     0.005 A 
HETATM   11  C8  UNL     1     -34.252  17.401  -1.104  1.00 20.00     0.005 A 
ENDBRANCH   8   9
ENDBRANCH   1   8
BRANCH   1  12
HETATM   12  O12 UNL     1     -32.446  15.356  -5.305  1.00 20.00    -0.391 OA
HETATM   13  H30 UNL     1     -31.657  15.919  -5.378  1.00 20.00     0.210 HD
ENDBRANCH   1  12
TORSDOF 4
ENDMDL
MODEL 9
REMARK VINA RESULT:      -4.6     10.904     11.651
REMARK  4 active torsions:
REMARK  status: ('A' for Active; 'I' for Inactive)
REMARK    1  A    between atoms: C2_2  and  C11_11 
REMARK    2  A    between atoms: C9_9  and  C10_10 
REMARK    3  A    between atoms: C10_10  and  C11_11 
REMARK    4  A    between atoms: C11_11  and  O12_12 
ROOT
HETATM    1  C11 UNL     1     -35.332  16.747  -3.069  1.00 20.00     0.147 C 
ENDROOT
BRANCH   1   2
HETATM    2  C2  UNL     1     -34.631  17.341  -1.883  1.00 20.00    -0.055 C 
HETATM    3  C1  UNL     1     -35.205  17.387  -0.669  1.00 20.00    -0.021 C 
HETATM    4  C3  UNL     1     -34.554  18.003   0.535  1.00 20.00     0.027 C 
HETATM    5  C5  UNL     1     -33.335  18.859   0.190  1.00 20.00     0.004 C 
HETATM    6  C6  UNL     1     -32.460  18.171  -0.850  1.00 20.00     0.005 C 
HETATM    7  C4  UNL     1     -33.246  17.884  -2.133  1.00 20.00     0.036 C 
ENDBRANCH   1   2
BRANCH   1   8
HETATM    8  C10 UNL     1     -34.703  15.427  -3.492  1.00 20.00     0.041 C 
BRANCH   8   9
HETATM    9  C9  UNL     1     -34.305  15.411  -4.960  1.00 20.00    -0.012 A 
HETATM   10  C7  UNL     1     -33.744  16.647  -5.607  1.00 20.00     0.005 A 
HETATM   11  C8  UNL     1     -32.853  15.465  -5.350  1.00 20.00     0.005 A 
ENDBRANCH   8   9
ENDBRANCH   1   8
BRANCH   1  12
HETATM   12  O12 UNL     1     -36.661  16.508  -2.634  1.00 20.00    -0.391 OA
HETATM   13  H30 UNL     1     -37.201  17.250  -2.955  1.00 20.00     0.210 HD
ENDBRANCH   1  12
TORSDOF 4
ENDMDL
