MODEL 1
REMARK VINA RESULT:      -6.9      0.000      0.000
REMARK  2 active torsions:
REMARK  status: ('A' for Active; 'I' for Inactive)
REMARK    1  A    between atoms: C2_2  and  C3_3 
REMARK    2  A    between atoms: C3_3  and  C9_9 
ROOT
HETATM    1  C1  UNL     1     -34.022   6.121   3.257  1.00 20.00    -0.016 C 
HETATM    2  C2  UNL     1     -33.292   7.111   3.784  1.00 20.00    -0.016 C 
HETATM    3  C4  UNL     1     -34.930   5.507   4.269  1.00 20.00     0.028 C 
HETATM    4  C5  UNL     1     -33.598   7.316   5.234  1.00 20.00     0.042 C 
HETATM    5  C6  UNL     1     -34.389   6.056   5.589  1.00 20.00     0.009 C 
ENDROOT
BRANCH   2   6
HETATM    6  C3  UNL     1     -32.339   7.920   3.092  1.00 20.00     0.159 C 
HETATM    7  O10 UNL     1     -31.273   8.258   3.629  1.00 20.00    -0.292 OA
BRANCH   6   8
HETATM    8  C9  UNL     1     -32.652   8.354   1.676  1.00 20.00     0.060 A 
HETATM    9  C7  UNL     1     -32.501   9.791   1.343  1.00 20.00     0.013 A 
HETATM   10  C8  UNL     1     -31.521   8.785   0.820  1.00 20.00     0.013 A 
ENDBRANCH   6   8
ENDBRANCH   2   6
TORSDOF 2
ENDMDL
MODEL 2
REMARK VINA RESULT:      -6.8      0.248      1.277
REMARK  2 active torsions:
REMARK  status: ('A' for Active; 'I' for Inactive)
REMARK    1  A    between atoms: C2_2  and  C3_3 
REMARK    2  A    between atoms: C3_3  and  C9_9 
ROOT
HETATM    1  C1  UNL     1     -33.493   7.235   4.962  1.00 20.00    -0.016 C 
HETATM    2  C2  UNL     1     -33.189   7.153   3.661  1.00 20.00    -0.016 C 
HETATM    3  C4  UNL     1     -34.438   6.157   5.376  1.00 20.00     0.028 C 
HETATM    4  C5  UNL     1     -33.884   6.005   3.000  1.00 20.00     0.042 C 
HETATM    5  C6  UNL     1     -34.933   5.606   4.039  1.00 20.00     0.009 C 
ENDROOT
BRANCH   2   6
HETATM    6  C3  UNL     1     -32.302   8.013   2.945  1.00 20.00     0.159 C 
HETATM    7  O10 UNL     1     -31.197   8.329   3.412  1.00 20.00    -0.292 OA
BRANCH   6   8
HETATM    8  C9  UNL     1     -32.733   8.529   1.588  1.00 20.00     0.060 A 
HETATM    9  C7  UNL     1     -32.601   9.982   1.328  1.00 20.00     0.013 A 
HETATM   10  C8  UNL     1     -31.677   9.007   0.664  1.00 20.00     0.013 A 
ENDBRANCH   6   8
ENDBRANCH   2   6
TORSDOF 2
ENDMDL
MODEL 3
REMARK VINA RESULT:      -5.7      1.476      4.247
REMARK  2 active torsions:
REMARK  status: ('A' for Active; 'I' for Inactive)
REMARK    1  A    between atoms: C2_2  and  C3_3 
REMARK    2  A    between atoms: C3_3  and  C9_9 
ROOT
HETATM    1  C1  UNL     1     -33.378   7.391   2.448  1.00 20.00    -0.016 C 
HETATM    2  C2  UNL     1     -32.987   7.468   3.725  1.00 20.00    -0.016 C 
HETATM    3  C4  UNL     1     -32.388   8.025   1.530  1.00 20.00     0.028 C 
HETATM    4  C5  UNL     1     -31.671   8.166   3.863  1.00 20.00     0.042 C 
HETATM    5  C6  UNL     1     -31.489   8.808   2.486  1.00 20.00     0.009 C 
ENDROOT
BRANCH   2   6
HETATM    6  C3  UNL     1     -33.688   6.947   4.857  1.00 20.00     0.159 C 
HETATM    7  O10 UNL     1     -33.479   7.385   5.999  1.00 20.00    -0.292 OA
BRANCH   6   8
HETATM    8  C9  UNL     1     -34.705   5.848   4.635  1.00 20.00     0.060 A 
HETATM    9  C7  UNL     1     -34.203   4.513   4.230  1.00 20.00     0.013 A 
HETATM   10  C8  UNL     1     -34.741   4.734   5.612  1.00 20.00     0.013 A 
ENDBRANCH   6   8
ENDBRANCH   2   6
TORSDOF 2
ENDMDL
MODEL 4
REMARK VINA RESULT:      -5.6      1.522      4.447
REMARK  2 active torsions:
REMARK  status: ('A' for Active; 'I' for Inactive)
REMARK    1  A    between atoms: C2_2  and  C3_3 
REMARK    2  A    between atoms: C3_3  and  C9_9 
ROOT
HETATM    1  C1  UNL     1     -31.948   7.716   3.551  1.00 20.00    -0.016 C 
HETATM    2  C2  UNL     1     -32.865   7.059   2.831  1.00 20.00    -0.016 C 
HETATM    3  C4  UNL     1     -31.526   8.982   2.883  1.00 20.00     0.028 C 
HETATM    4  C5  UNL     1     -33.202   7.784   1.567  1.00 20.00     0.042 C 
HETATM    5  C6  UNL     1     -32.083   8.822   1.469  1.00 20.00     0.009 C 
ENDROOT
BRANCH   2   6
HETATM    6  C3  UNL     1     -33.494   5.827   3.187  1.00 20.00     0.159 C 
HETATM    7  O10 UNL     1     -33.111   4.748   2.709  1.00 20.00    -0.292 OA
BRANCH   6   8
HETATM    8  C9  UNL     1     -34.643   5.859   4.172  1.00 20.00     0.060 A 
HETATM    9  C7  UNL     1     -34.687   4.810   5.219  1.00 20.00     0.013 A 
HETATM   10  C8  UNL     1     -34.338   6.224   5.576  1.00 20.00     0.013 A 
ENDBRANCH   6   8
ENDBRANCH   2   6
TORSDOF 2
ENDMDL
MODEL 5
REMARK VINA RESULT:      -5.5      1.294      1.898
REMARK  2 active torsions:
REMARK  status: ('A' for Active; 'I' for Inactive)
REMARK    1  A    between atoms: C2_2  and  C3_3 
REMARK    2  A    between atoms: C3_3  and  C9_9 
ROOT
HETATM    1  C1  UNL     1     -33.427   7.556   4.980  1.00 20.00    -0.016 C 
HETATM    2  C2  UNL     1     -33.535   6.816   3.870  1.00 20.00    -0.016 C 
HETATM    3  C4  UNL     1     -33.963   6.839   6.174  1.00 20.00     0.028 C 
HETATM    4  C5  UNL     1     -34.160   5.486   4.148  1.00 20.00     0.042 C 
HETATM    5  C6  UNL     1     -34.732   5.673   5.554  1.00 20.00     0.009 C 
ENDROOT
BRANCH   2   6
HETATM    6  C3  UNL     1     -33.103   7.190   2.561  1.00 20.00     0.159 C 
HETATM    7  O10 UNL     1     -33.502   6.582   1.555  1.00 20.00    -0.292 OA
BRANCH   6   8
HETATM    8  C9  UNL     1     -32.149   8.356   2.418  1.00 20.00     0.060 A 
HETATM    9  C7  UNL     1     -31.498   8.561   1.103  1.00 20.00     0.013 A 
HETATM   10  C8  UNL     1     -32.573   9.495   1.571  1.00 20.00     0.013 A 
ENDBRANCH   6   8
ENDBRANCH   2   6
TORSDOF 2
ENDMDL
MODEL 6
REMARK VINA RESULT:      -4.9      1.171      4.329
REMARK  2 active torsions:
REMARK  status: ('A' for Active; 'I' for Inactive)
REMARK    1  A    between atoms: C2_2  and  C3_3 
REMARK    2  A    between atoms: C3_3  and  C9_9 
ROOT
HETATM    1  C1  UNL     1     -31.726   8.087   1.197  1.00 20.00    -0.016 C 
HETATM    2  C2  UNL     1     -32.602   8.344   2.175  1.00 20.00    -0.016 C 
HETATM    3  C4  UNL     1     -31.517   9.275   0.318  1.00 20.00     0.028 C 
HETATM    4  C5  UNL     1     -33.117   9.748   2.105  1.00 20.00     0.042 C 
HETATM    5  C6  UNL     1     -32.668  10.198   0.714  1.00 20.00     0.009 C 
ENDROOT
BRANCH   2   6
HETATM    6  C3  UNL     1     -33.016   7.438   3.199  1.00 20.00     0.159 C 
HETATM    7  O10 UNL     1     -32.676   7.605   4.380  1.00 20.00    -0.292 OA
BRANCH   6   8
HETATM    8  C9  UNL     1     -33.892   6.264   2.815  1.00 20.00     0.060 A 
HETATM    9  C7  UNL     1     -33.394   4.902   3.116  1.00 20.00     0.013 A 
HETATM   10  C8  UNL     1     -34.522   5.488   3.909  1.00 20.00     0.013 A 
ENDBRANCH   6   8
ENDBRANCH   2   6
TORSDOF 2
ENDMDL
MODEL 7
REMARK VINA RESULT:      -4.5     10.778     11.350
REMARK  2 active torsions:
REMARK  status: ('A' for Active; 'I' for Inactive)
REMARK    1  A    between atoms: C2_2  and  C3_3 
REMARK    2  A    between atoms: C3_3  and  C9_9 
ROOT
HETATM    1  C1  UNL     1     -35.585  16.150  -2.630  1.00 20.00    -0.016 C 
HETATM    2  C2  UNL     1     -34.332  16.036  -3.086  1.00 20.00    -0.016 C 
HETATM    3  C4  UNL     1     -35.685  17.162  -1.539  1.00 20.00     0.028 C 
HETATM    4  C5  UNL     1     -33.395  16.956  -2.370  1.00 20.00     0.042 C 
HETATM    5  C6  UNL     1     -34.223  17.403  -1.164  1.00 20.00     0.009 C 
ENDROOT
BRANCH   2   6
HETATM    6  C3  UNL     1     -33.890  15.175  -4.137  1.00 20.00     0.159 C 
HETATM    7  O10 UNL     1     -34.130  13.958  -4.115  1.00 20.00    -0.292 OA
BRANCH   6   8
HETATM    8  C9  UNL     1     -33.123  15.781  -5.293  1.00 20.00     0.060 A 
HETATM    9  C7  UNL     1     -33.588  15.477  -6.667  1.00 20.00     0.013 A 
HETATM   10  C8  UNL     1     -33.789  16.843  -6.083  1.00 20.00     0.013 A 
ENDBRANCH   6   8
ENDBRANCH   2   6
TORSDOF 2
ENDMDL
MODEL 8
REMARK VINA RESULT:      -4.4     10.854     11.526
REMARK  2 active torsions:
REMARK  status: ('A' for Active; 'I' for Inactive)
REMARK    1  A    between atoms: C2_2  and  C3_3 
REMARK    2  A    between atoms: C3_3  and  C9_9 
ROOT
HETATM    1  C1  UNL     1     -36.431  15.498  -3.972  1.00 20.00    -0.016 C 
HETATM    2  C2  UNL     1     -35.312  14.884  -4.370  1.00 20.00    -0.016 C 
HETATM    3  C4  UNL     1     -36.143  16.588  -2.994  1.00 20.00     0.028 C 
HETATM    4  C5  UNL     1     -34.096  15.467  -3.722  1.00 20.00     0.042 C 
HETATM    5  C6  UNL     1     -34.693  16.315  -2.598  1.00 20.00     0.009 C 
ENDROOT
BRANCH   2   6
HETATM    6  C3  UNL     1     -35.225  13.813  -5.312  1.00 20.00     0.159 C 
HETATM    7  O10 UNL     1     -35.918  12.791  -5.189  1.00 20.00    -0.292 OA
BRANCH   6   8
HETATM    8  C9  UNL     1     -34.270  13.950  -6.479  1.00 20.00     0.060 A 
HETATM    9  C7  UNL     1     -34.810  13.746  -7.843  1.00 20.00     0.013 A 
HETATM   10  C8  UNL     1     -34.437  15.120  -7.373  1.00 20.00     0.013 A 
ENDBRANCH   6   8
ENDBRANCH   2   6
TORSDOF 2
ENDMDL
MODEL 9
REMARK VINA RESULT:      -4.4     10.782     11.250
REMARK  2 active torsions:
REMARK  status: ('A' for Active; 'I' for Inactive)
REMARK    1  A    between atoms: C2_2  and  C3_3 
REMARK    2  A    between atoms: C3_3  and  C9_9 
ROOT
HETATM    1  C1  UNL     1     -33.227  17.465  -1.915  1.00 20.00    -0.016 C 
HETATM    2  C2  UNL     1     -34.363  16.783  -2.108  1.00 20.00    -0.016 C 
HETATM    3  C4  UNL     1     -33.259  18.236  -0.638  1.00 20.00     0.028 C 
HETATM    4  C5  UNL     1     -35.333  16.991  -0.989  1.00 20.00     0.042 C 
HETATM    5  C6  UNL     1     -34.736  18.187  -0.247  1.00 20.00     0.009 C 
ENDROOT
BRANCH   2   6
HETATM    6  C3  UNL     1     -34.658  15.931  -3.216  1.00 20.00     0.159 C 
HETATM    7  O10 UNL     1     -35.828  15.721  -3.572  1.00 20.00    -0.292 OA
BRANCH   6   8
HETATM    8  C9  UNL     1     -33.508  15.287  -3.961  1.00 20.00     0.060 A 
HETATM    9  C7  UNL     1     -33.823  14.510  -5.183  1.00 20.00     0.013 A 
HETATM   10  C8  UNL     1     -33.147  15.844  -5.287  1.00 20.00     0.013 A 
ENDBRANCH   6   8
ENDBRANCH   2   6
TORSDOF 2
ENDMDL
