MODEL 1
REMARK VINA RESULT:      -7.3      0.000      0.000
REMARK  2 active torsions:
REMARK  status: ('A' for Active; 'I' for Inactive)
REMARK    1  A    between atoms: C2_2  and  C3_3 
REMARK    2  A    between atoms: C3_3  and  C8_8 
ROOT
HETATM    1  C3  UNL     1     -32.305   7.906   3.207  1.00 20.00     0.159 C 
HETATM    2  O11 UNL     1     -31.351   8.391   3.832  1.00 20.00    -0.292 OA
ENDROOT
BRANCH   1   3
HETATM    3  C2  UNL     1     -33.289   7.105   3.864  1.00 20.00    -0.016 C 
HETATM    4  C1  UNL     1     -34.036   6.150   3.300  1.00 20.00    -0.016 C 
HETATM    5  C4  UNL     1     -34.977   5.534   4.282  1.00 20.00     0.028 C 
HETATM    6  C6  UNL     1     -34.440   6.032   5.623  1.00 20.00     0.009 C 
HETATM    7  C5  UNL     1     -33.611   7.279   5.313  1.00 20.00     0.042 C 
ENDBRANCH   1   3
BRANCH   1   8
HETATM    8  C8  UNL     1     -32.443   8.145   1.717  1.00 20.00     0.064 A 
HETATM    9  C7  UNL     1     -31.235   8.574   0.972  1.00 20.00     0.018 A 
HETATM   10  C9  UNL     1     -32.345   9.555   1.235  1.00 20.00    -0.006 A 
HETATM   11  C10 UNL     1     -33.234   9.999   0.124  1.00 20.00     0.011 C 
ENDBRANCH   1   8
TORSDOF 2
ENDMDL
MODEL 2
REMARK VINA RESULT:      -5.5      1.091      4.527
REMARK  2 active torsions:
REMARK  status: ('A' for Active; 'I' for Inactive)
REMARK    1  A    between atoms: C2_2  and  C3_3 
REMARK    2  A    between atoms: C3_3  and  C8_8 
ROOT
HETATM    1  C3  UNL     1     -32.540   7.593   3.377  1.00 20.00     0.159 C 
HETATM    2  O11 UNL     1     -32.235   7.988   4.512  1.00 20.00    -0.292 OA
ENDROOT
BRANCH   1   3
HETATM    3  C2  UNL     1     -32.367   8.429   2.231  1.00 20.00    -0.016 C 
HETATM    4  C1  UNL     1     -31.601   8.164   1.167  1.00 20.00    -0.016 C 
HETATM    5  C4  UNL     1     -31.642   9.273   0.168  1.00 20.00     0.028 C 
HETATM    6  C6  UNL     1     -32.831  10.109   0.639  1.00 20.00     0.009 C 
HETATM    7  C5  UNL     1     -33.042   9.757   2.113  1.00 20.00     0.042 C 
ENDBRANCH   1   3
BRANCH   1   8
HETATM    8  C8  UNL     1     -33.116   6.207   3.180  1.00 20.00     0.064 A 
HETATM    9  C7  UNL     1     -34.416   6.093   2.475  1.00 20.00     0.018 A 
HETATM   10  C9  UNL     1     -34.341   5.854   3.959  1.00 20.00    -0.006 A 
HETATM   11  C10 UNL     1     -34.474   4.474   4.505  1.00 20.00     0.011 C 
ENDBRANCH   1   8
TORSDOF 2
ENDMDL
MODEL 3
REMARK VINA RESULT:      -5.4      1.630      2.216
REMARK  2 active torsions:
REMARK  status: ('A' for Active; 'I' for Inactive)
REMARK    1  A    between atoms: C2_2  and  C3_3 
REMARK    2  A    between atoms: C3_3  and  C8_8 
ROOT
HETATM    1  C3  UNL     1     -33.666   6.410   2.539  1.00 20.00     0.159 C 
HETATM    2  O11 UNL     1     -34.461   6.050   1.659  1.00 20.00    -0.292 OA
ENDROOT
BRANCH   1   3
HETATM    3  C2  UNL     1     -33.931   6.162   3.921  1.00 20.00    -0.016 C 
HETATM    4  C1  UNL     1     -33.930   7.073   4.902  1.00 20.00    -0.016 C 
HETATM    5  C4  UNL     1     -34.228   6.454   6.227  1.00 20.00     0.028 C 
HETATM    6  C6  UNL     1     -34.754   5.071   5.846  1.00 20.00     0.009 C 
HETATM    7  C5  UNL     1     -34.232   4.791   4.435  1.00 20.00     0.042 C 
ENDBRANCH   1   3
BRANCH   1   8
HETATM    8  C8  UNL     1     -32.390   7.135   2.166  1.00 20.00     0.064 A 
HETATM    9  C7  UNL     1     -31.883   8.168   3.101  1.00 20.00     0.018 A 
HETATM   10  C9  UNL     1     -32.501   8.576   1.790  1.00 20.00    -0.006 A 
HETATM   11  C10 UNL     1     -31.647   9.101   0.689  1.00 20.00     0.011 C 
ENDBRANCH   1   8
TORSDOF 2
ENDMDL
MODEL 4
REMARK VINA RESULT:      -5.4      1.098      4.606
REMARK  2 active torsions:
REMARK  status: ('A' for Active; 'I' for Inactive)
REMARK    1  A    between atoms: C2_2  and  C3_3 
REMARK    2  A    between atoms: C3_3  and  C8_8 
ROOT
HETATM    1  C3  UNL     1     -32.579   7.548   3.384  1.00 20.00     0.159 C 
HETATM    2  O11 UNL     1     -32.205   7.930   4.503  1.00 20.00    -0.292 OA
ENDROOT
BRANCH   1   3
HETATM    3  C2  UNL     1     -32.497   8.405   2.244  1.00 20.00    -0.016 C 
HETATM    4  C1  UNL     1     -33.142   9.566   2.079  1.00 20.00    -0.016 C 
HETATM    5  C4  UNL     1     -32.835  10.182   0.755  1.00 20.00     0.028 C 
HETATM    6  C6  UNL     1     -31.626   9.379   0.278  1.00 20.00     0.009 C 
HETATM    7  C5  UNL     1     -31.655   8.063   1.057  1.00 20.00     0.042 C 
ENDBRANCH   1   3
BRANCH   1   8
HETATM    8  C8  UNL     1     -33.145   6.155   3.203  1.00 20.00     0.064 A 
HETATM    9  C7  UNL     1     -34.450   6.025   2.511  1.00 20.00     0.018 A 
HETATM   10  C9  UNL     1     -34.359   5.797   3.996  1.00 20.00    -0.006 A 
HETATM   11  C10 UNL     1     -34.474   4.420   4.553  1.00 20.00     0.011 C 
ENDBRANCH   1   8
TORSDOF 2
ENDMDL
MODEL 5
REMARK VINA RESULT:      -5.2      0.768      4.516
REMARK  2 active torsions:
REMARK  status: ('A' for Active; 'I' for Inactive)
REMARK    1  A    between atoms: C2_2  and  C3_3 
REMARK    2  A    between atoms: C3_3  and  C8_8 
ROOT
HETATM    1  C3  UNL     1     -32.356   8.182   3.256  1.00 20.00     0.159 C 
HETATM    2  O11 UNL     1     -31.276   8.083   3.856  1.00 20.00    -0.292 OA
ENDROOT
BRANCH   1   3
HETATM    3  C2  UNL     1     -32.422   8.731   1.938  1.00 20.00    -0.016 C 
HETATM    4  C1  UNL     1     -32.200   8.072   0.795  1.00 20.00    -0.016 C 
HETATM    5  C4  UNL     1     -32.336   8.968  -0.392  1.00 20.00     0.028 C 
HETATM    6  C6  UNL     1     -33.017  10.204   0.192  1.00 20.00     0.009 C 
HETATM    7  C5  UNL     1     -32.743  10.171   1.697  1.00 20.00     0.042 C 
ENDBRANCH   1   3
BRANCH   1   8
HETATM    8  C8  UNL     1     -33.641   7.729   3.916  1.00 20.00     0.064 A 
HETATM    9  C7  UNL     1     -33.567   7.255   5.320  1.00 20.00     0.018 A 
HETATM   10  C9  UNL     1     -33.790   6.270   4.203  1.00 20.00    -0.006 A 
HETATM   11  C10 UNL     1     -35.124   5.634   4.020  1.00 20.00     0.011 C 
ENDBRANCH   1   8
TORSDOF 2
ENDMDL
MODEL 6
REMARK VINA RESULT:      -4.9      1.284      4.638
REMARK  2 active torsions:
REMARK  status: ('A' for Active; 'I' for Inactive)
REMARK    1  A    between atoms: C2_2  and  C3_3 
REMARK    2  A    between atoms: C3_3  and  C8_8 
ROOT
HETATM    1  C3  UNL     1     -32.887   7.147   2.792  1.00 20.00     0.159 C 
HETATM    2  O11 UNL     1     -32.242   6.108   2.588  1.00 20.00    -0.292 OA
ENDROOT
BRANCH   1   3
HETATM    3  C2  UNL     1     -32.757   8.280   1.932  1.00 20.00    -0.016 C 
HETATM    4  C1  UNL     1     -33.131   8.347   0.649  1.00 20.00    -0.016 C 
HETATM    5  C4  UNL     1     -32.823   9.681   0.054  1.00 20.00     0.028 C 
HETATM    6  C6  UNL     1     -32.514  10.537   1.281  1.00 20.00     0.009 C 
HETATM    7  C5  UNL     1     -32.141   9.560   2.398  1.00 20.00     0.042 C 
ENDBRANCH   1   3
BRANCH   1   8
HETATM    8  C8  UNL     1     -33.829   7.241   3.974  1.00 20.00     0.064 A 
HETATM    9  C7  UNL     1     -33.262   7.663   5.278  1.00 20.00     0.018 A 
HETATM   10  C9  UNL     1     -33.671   6.230   5.063  1.00 20.00    -0.006 A 
HETATM   11  C10 UNL     1     -34.890   5.690   5.726  1.00 20.00     0.011 C 
ENDBRANCH   1   8
TORSDOF 2
ENDMDL
MODEL 7
REMARK VINA RESULT:      -4.9     10.744     11.376
REMARK  2 active torsions:
REMARK  status: ('A' for Active; 'I' for Inactive)
REMARK    1  A    between atoms: C2_2  and  C3_3 
REMARK    2  A    between atoms: C3_3  and  C8_8 
ROOT
HETATM    1  C3  UNL     1     -32.221  18.469   0.072  1.00 20.00     0.159 C 
HETATM    2  O11 UNL     1     -31.078  18.326  -0.387  1.00 20.00    -0.292 OA
ENDROOT
BRANCH   1   3
HETATM    3  C2  UNL     1     -33.364  17.958  -0.616  1.00 20.00    -0.016 C 
HETATM    4  C1  UNL     1     -33.358  17.309  -1.786  1.00 20.00    -0.016 C 
HETATM    5  C4  UNL     1     -34.739  16.940  -2.218  1.00 20.00     0.028 C 
HETATM    6  C6  UNL     1     -35.562  17.164  -0.950  1.00 20.00     0.009 C 
HETATM    7  C5  UNL     1     -34.749  18.124  -0.079  1.00 20.00     0.042 C 
ENDBRANCH   1   3
BRANCH   1   8
HETATM    8  C8  UNL     1     -32.432  19.204   1.380  1.00 20.00     0.064 A 
HETATM    9  C7  UNL     1     -31.295  19.263   2.330  1.00 20.00     0.018 A 
HETATM   10  C9  UNL     1     -32.481  18.386   2.629  1.00 20.00    -0.006 A 
HETATM   11  C10 UNL     1     -33.444  18.766   3.699  1.00 20.00     0.011 C 
ENDBRANCH   1   8
TORSDOF 2
ENDMDL
MODEL 8
REMARK VINA RESULT:      -4.8     10.468     11.023
REMARK  2 active torsions:
REMARK  status: ('A' for Active; 'I' for Inactive)
REMARK    1  A    between atoms: C2_2  and  C3_3 
REMARK    2  A    between atoms: C3_3  and  C8_8 
ROOT
HETATM    1  C3  UNL     1     -33.810  16.610  -3.411  1.00 20.00     0.159 C 
HETATM    2  O11 UNL     1     -33.422  17.297  -4.367  1.00 20.00    -0.292 OA
ENDROOT
BRANCH   1   3
HETATM    3  C2  UNL     1     -33.934  17.166  -2.101  1.00 20.00    -0.016 C 
HETATM    4  C1  UNL     1     -33.021  17.913  -1.470  1.00 20.00    -0.016 C 
HETATM    5  C4  UNL     1     -33.480  18.305  -0.104  1.00 20.00     0.028 C 
HETATM    6  C6  UNL     1     -34.969  17.965  -0.135  1.00 20.00     0.009 C 
HETATM    7  C5  UNL     1     -35.148  16.942  -1.258  1.00 20.00     0.042 C 
ENDBRANCH   1   3
BRANCH   1   8
HETATM    8  C8  UNL     1     -34.155  15.148  -3.612  1.00 20.00     0.064 A 
HETATM    9  C7  UNL     1     -33.280  14.349  -4.503  1.00 20.00     0.018 A 
HETATM   10  C9  UNL     1     -34.662  14.739  -4.956  1.00 20.00    -0.006 A 
HETATM   11  C10 UNL     1     -35.742  13.717  -5.037  1.00 20.00     0.011 C 
ENDBRANCH   1   8
TORSDOF 2
ENDMDL
MODEL 9
REMARK VINA RESULT:      -4.8      1.537      4.680
REMARK  2 active torsions:
REMARK  status: ('A' for Active; 'I' for Inactive)
REMARK    1  A    between atoms: C2_2  and  C3_3 
REMARK    2  A    between atoms: C3_3  and  C8_8 
ROOT
HETATM    1  C3  UNL     1     -33.659   7.124   4.866  1.00 20.00     0.159 C 
HETATM    2  O11 UNL     1     -33.648   7.722   5.952  1.00 20.00    -0.292 OA
ENDROOT
BRANCH   1   3
HETATM    3  C2  UNL     1     -32.913   7.606   3.747  1.00 20.00    -0.016 C 
HETATM    4  C1  UNL     1     -33.243   7.468   2.458  1.00 20.00    -0.016 C 
HETATM    5  C4  UNL     1     -32.219   8.078   1.560  1.00 20.00     0.028 C 
HETATM    6  C6  UNL     1     -31.380   8.918   2.522  1.00 20.00     0.009 C 
HETATM    7  C5  UNL     1     -31.617   8.333   3.915  1.00 20.00     0.042 C 
ENDBRANCH   1   3
BRANCH   1   8
HETATM    8  C8  UNL     1     -34.479   5.861   4.699  1.00 20.00     0.064 A 
HETATM    9  C7  UNL     1     -34.732   5.037   5.905  1.00 20.00     0.018 A 
HETATM   10  C9  UNL     1     -33.771   4.555   4.852  1.00 20.00    -0.006 A 
HETATM   11  C10 UNL     1     -34.145   3.425   3.956  1.00 20.00     0.011 C 
ENDBRANCH   1   8
TORSDOF 2
ENDMDL
