MODEL 1
REMARK VINA RESULT:      -6.3      0.000      0.000
REMARK  2 active torsions:
REMARK  status: ('A' for Active; 'I' for Inactive)
REMARK    1  A    between atoms: C2_2  and  C3_3 
REMARK    2  A    between atoms: C3_3  and  C11_11 
ROOT
HETATM    1  C7  UNL     1     -32.563   9.547  -0.719  1.00 20.00     0.005 C 
HETATM    2  C8  UNL     1     -33.868   9.154  -0.008  1.00 20.00     0.006 C 
HETATM    3  C9  UNL     1     -31.214   8.499   1.119  1.00 20.00     0.017 C 
HETATM    4  C10 UNL     1     -32.544  10.438   1.486  1.00 20.00     0.010 C 
HETATM    5  C11 UNL     1     -32.527   8.058   1.790  1.00 20.00     0.065 C 
HETATM    6  C12 UNL     1     -31.603   9.831   0.449  1.00 20.00    -0.013 C 
HETATM    7  C13 UNL     1     -33.483   9.228   1.480  1.00 20.00    -0.003 C 
ENDROOT
BRANCH   5   8
HETATM    8  C3  UNL     1     -32.351   7.858   3.264  1.00 20.00     0.159 C 
HETATM    9  O14 UNL     1     -31.405   8.346   3.878  1.00 20.00    -0.292 OA
BRANCH   8  10
HETATM   10  C2  UNL     1     -33.322   7.065   3.949  1.00 20.00    -0.016 C 
HETATM   11  C1  UNL     1     -34.060   6.084   3.418  1.00 20.00    -0.016 C 
HETATM   12  C4  UNL     1     -34.988   5.486   4.422  1.00 20.00     0.028 C 
HETATM   13  C6  UNL     1     -34.453   6.032   5.746  1.00 20.00     0.009 C 
HETATM   14  C5  UNL     1     -33.641   7.280   5.394  1.00 20.00     0.042 C 
ENDBRANCH   8  10
ENDBRANCH   5   8
TORSDOF 2
ENDMDL
MODEL 2
REMARK VINA RESULT:      -5.9      0.741      1.275
REMARK  2 active torsions:
REMARK  status: ('A' for Active; 'I' for Inactive)
REMARK    1  A    between atoms: C2_2  and  C3_3 
REMARK    2  A    between atoms: C3_3  and  C11_11 
ROOT
HETATM    1  C7  UNL     1     -33.169   9.917  -0.293  1.00 20.00     0.005 C 
HETATM    2  C8  UNL     1     -32.783  10.681   0.984  1.00 20.00     0.006 C 
HETATM    3  C9  UNL     1     -33.395   7.789   1.016  1.00 20.00     0.017 C 
HETATM    4  C10 UNL     1     -31.290   8.856   0.706  1.00 20.00     0.010 C 
HETATM    5  C11 UNL     1     -33.066   8.576   2.296  1.00 20.00     0.065 C 
HETATM    6  C12 UNL     1     -32.568   8.521  -0.059  1.00 20.00    -0.013 C 
HETATM    7  C13 UNL     1     -32.037   9.616   1.807  1.00 20.00    -0.003 C 
ENDROOT
BRANCH   5   8
HETATM    8  C3  UNL     1     -32.497   7.687   3.359  1.00 20.00     0.159 C 
HETATM    9  O14 UNL     1     -31.312   7.733   3.679  1.00 20.00    -0.292 OA
BRANCH   8  10
HETATM   10  C2  UNL     1     -33.379   6.761   3.995  1.00 20.00    -0.016 C 
HETATM   11  C1  UNL     1     -33.830   5.613   3.477  1.00 20.00    -0.016 C 
HETATM   12  C4  UNL     1     -34.753   4.909   4.415  1.00 20.00     0.028 C 
HETATM   13  C6  UNL     1     -34.524   5.648   5.734  1.00 20.00     0.009 C 
HETATM   14  C5  UNL     1     -33.931   7.008   5.363  1.00 20.00     0.042 C 
ENDBRANCH   8  10
ENDBRANCH   5   8
TORSDOF 2
ENDMDL
MODEL 3
REMARK VINA RESULT:      -5.6      0.815      4.887
REMARK  2 active torsions:
REMARK  status: ('A' for Active; 'I' for Inactive)
REMARK    1  A    between atoms: C2_2  and  C3_3 
REMARK    2  A    between atoms: C3_3  and  C11_11 
ROOT
HETATM    1  C7  UNL     1     -35.203   5.431   4.741  1.00 20.00     0.005 C 
HETATM    2  C8  UNL     1     -35.391   6.005   3.328  1.00 20.00     0.006 C 
HETATM    3  C9  UNL     1     -33.272   6.981   5.144  1.00 20.00     0.017 C 
HETATM    4  C10 UNL     1     -33.159   5.224   3.543  1.00 20.00     0.010 C 
HETATM    5  C11 UNL     1     -33.508   7.590   3.751  1.00 20.00     0.065 C 
HETATM    6  C12 UNL     1     -33.681   5.508   4.949  1.00 20.00    -0.013 C 
HETATM    7  C13 UNL     1     -33.954   6.373   2.914  1.00 20.00    -0.003 C 
ENDROOT
BRANCH   5   8
HETATM    8  C3  UNL     1     -32.261   8.214   3.204  1.00 20.00     0.159 C 
HETATM    9  O14 UNL     1     -31.216   8.251   3.849  1.00 20.00    -0.292 OA
BRANCH   8  10
HETATM   10  C2  UNL     1     -32.320   8.782   1.895  1.00 20.00    -0.016 C 
HETATM   11  C1  UNL     1     -31.661   8.351   0.814  1.00 20.00    -0.016 C 
HETATM   12  C4  UNL     1     -31.945   9.198  -0.381  1.00 20.00     0.028 C 
HETATM   13  C6  UNL     1     -33.157  10.017   0.065  1.00 20.00     0.009 C 
HETATM   14  C5  UNL     1     -33.151   9.989   1.594  1.00 20.00     0.042 C 
ENDBRANCH   8  10
ENDBRANCH   5   8
TORSDOF 2
ENDMDL
MODEL 4
REMARK VINA RESULT:      -5.4      9.892     10.633
REMARK  2 active torsions:
REMARK  status: ('A' for Active; 'I' for Inactive)
REMARK    1  A    between atoms: C2_2  and  C3_3 
REMARK    2  A    between atoms: C3_3  and  C11_11 
ROOT
HETATM    1  C7  UNL     1     -35.916  13.380  -5.438  1.00 20.00     0.005 C 
HETATM    2  C8  UNL     1     -36.770  14.464  -4.763  1.00 20.00     0.006 C 
HETATM    3  C9  UNL     1     -33.834  14.356  -4.436  1.00 20.00     0.017 C 
HETATM    4  C10 UNL     1     -35.101  15.520  -6.080  1.00 20.00     0.010 C 
HETATM    5  C11 UNL     1     -34.706  15.400  -3.716  1.00 20.00     0.065 C 
HETATM    6  C12 UNL     1     -34.601  14.116  -5.750  1.00 20.00    -0.013 C 
HETATM    7  C13 UNL     1     -35.825  15.679  -4.740  1.00 20.00    -0.003 C 
ENDROOT
BRANCH   5   8
HETATM    8  C3  UNL     1     -33.927  16.638  -3.391  1.00 20.00     0.159 C 
HETATM    9  O14 UNL     1     -33.208  17.190  -4.220  1.00 20.00    -0.292 OA
BRANCH   8  10
HETATM   10  C2  UNL     1     -34.037  17.165  -2.068  1.00 20.00    -0.016 C 
HETATM   11  C1  UNL     1     -33.120  17.899  -1.429  1.00 20.00    -0.016 C 
HETATM   12  C4  UNL     1     -33.563  18.260  -0.051  1.00 20.00     0.028 C 
HETATM   13  C6  UNL     1     -35.053  17.916  -0.073  1.00 20.00     0.009 C 
HETATM   14  C5  UNL     1     -35.242  16.918  -1.217  1.00 20.00     0.042 C 
ENDBRANCH   8  10
ENDBRANCH   5   8
TORSDOF 2
ENDMDL
MODEL 5
REMARK VINA RESULT:      -5.2      9.795     11.025
REMARK  2 active torsions:
REMARK  status: ('A' for Active; 'I' for Inactive)
REMARK    1  A    between atoms: C2_2  and  C3_3 
REMARK    2  A    between atoms: C3_3  and  C11_11 
ROOT
HETATM    1  C7  UNL     1     -34.028  18.141  -0.036  1.00 20.00     0.005 C 
HETATM    2  C8  UNL     1     -32.736  18.258  -0.860  1.00 20.00     0.006 C 
HETATM    3  C9  UNL     1     -35.041  16.653  -1.784  1.00 20.00     0.017 C 
HETATM    4  C10 UNL     1     -34.565  18.945  -2.208  1.00 20.00     0.010 C 
HETATM    5  C11 UNL     1     -33.720  16.728  -2.570  1.00 20.00     0.065 C 
HETATM    6  C12 UNL     1     -35.121  18.038  -1.114  1.00 20.00    -0.013 C 
HETATM    7  C13 UNL     1     -33.246  18.173  -2.309  1.00 20.00    -0.003 C 
ENDROOT
BRANCH   5   8
HETATM    8  C3  UNL     1     -33.933  16.467  -4.030  1.00 20.00     0.159 C 
HETATM    9  O14 UNL     1     -33.283  17.047  -4.895  1.00 20.00    -0.292 OA
BRANCH   8  10
HETATM   10  C2  UNL     1     -34.934  15.516  -4.396  1.00 20.00    -0.016 C 
HETATM   11  C1  UNL     1     -36.165  15.794  -4.840  1.00 20.00    -0.016 C 
HETATM   12  C4  UNL     1     -36.949  14.552  -5.106  1.00 20.00     0.028 C 
HETATM   13  C6  UNL     1     -35.877  13.462  -5.080  1.00 20.00     0.009 C 
HETATM   14  C5  UNL     1     -34.699  14.043  -4.295  1.00 20.00     0.042 C 
ENDBRANCH   8  10
ENDBRANCH   5   8
TORSDOF 2
ENDMDL
MODEL 6
REMARK VINA RESULT:      -5.2      9.956     10.661
REMARK  2 active torsions:
REMARK  status: ('A' for Active; 'I' for Inactive)
REMARK    1  A    between atoms: C2_2  and  C3_3 
REMARK    2  A    between atoms: C3_3  and  C11_11 
ROOT
HETATM    1  C7  UNL     1     -36.271  13.582  -5.444  1.00 20.00     0.005 C 
HETATM    2  C8  UNL     1     -37.031  14.661  -4.657  1.00 20.00     0.006 C 
HETATM    3  C9  UNL     1     -34.090  14.391  -4.505  1.00 20.00     0.017 C 
HETATM    4  C10 UNL     1     -35.382  15.716  -6.001  1.00 20.00     0.010 C 
HETATM    5  C11 UNL     1     -34.867  15.428  -3.675  1.00 20.00     0.065 C 
HETATM    6  C12 UNL     1     -34.939  14.271  -5.785  1.00 20.00    -0.013 C 
HETATM    7  C13 UNL     1     -36.024  15.825  -4.615  1.00 20.00    -0.003 C 
ENDROOT
BRANCH   5   8
HETATM    8  C3  UNL     1     -34.009  16.604  -3.321  1.00 20.00     0.159 C 
HETATM    9  O14 UNL     1     -33.175  17.058  -4.100  1.00 20.00    -0.292 OA
BRANCH   8  10
HETATM   10  C2  UNL     1     -34.183  17.189  -2.029  1.00 20.00    -0.016 C 
HETATM   11  C1  UNL     1     -35.211  16.985  -1.198  1.00 20.00    -0.016 C 
HETATM   12  C4  UNL     1     -35.072  17.777   0.058  1.00 20.00     0.028 C 
HETATM   13  C6  UNL     1     -33.615  18.239   0.008  1.00 20.00     0.009 C 
HETATM   14  C5  UNL     1     -33.191  18.153  -1.459  1.00 20.00     0.042 C 
ENDBRANCH   8  10
ENDBRANCH   5   8
TORSDOF 2
ENDMDL
MODEL 7
REMARK VINA RESULT:      -5.0      9.792     10.908
REMARK  2 active torsions:
REMARK  status: ('A' for Active; 'I' for Inactive)
REMARK    1  A    between atoms: C2_2  and  C3_3 
REMARK    2  A    between atoms: C3_3  and  C11_11 
ROOT
HETATM    1  C7  UNL     1     -33.899  15.065  -6.305  1.00 20.00     0.005 C 
HETATM    2  C8  UNL     1     -32.838  15.361  -5.234  1.00 20.00     0.006 C 
HETATM    3  C9  UNL     1     -35.618  16.337  -4.994  1.00 20.00     0.017 C 
HETATM    4  C10 UNL     1     -34.689  14.296  -4.199  1.00 20.00     0.010 C 
HETATM    5  C11 UNL     1     -34.532  16.678  -3.958  1.00 20.00     0.065 C 
HETATM    6  C12 UNL     1     -35.195  14.940  -5.486  1.00 20.00    -0.013 C 
HETATM    7  C13 UNL     1     -33.664  15.403  -3.936  1.00 20.00    -0.003 C 
ENDROOT
BRANCH   5   8
HETATM    8  C3  UNL     1     -35.125  16.971  -2.614  1.00 20.00     0.159 C 
HETATM    9  O14 UNL     1     -36.291  16.694  -2.344  1.00 20.00    -0.292 OA
BRANCH   8  10
HETATM   10  C2  UNL     1     -34.289  17.599  -1.641  1.00 20.00    -0.016 C 
HETATM   11  C1  UNL     1     -34.547  17.717  -0.333  1.00 20.00    -0.016 C 
HETATM   12  C4  UNL     1     -33.461  18.451   0.379  1.00 20.00     0.028 C 
HETATM   13  C6  UNL     1     -32.329  18.462  -0.648  1.00 20.00     0.009 C 
HETATM   14  C5  UNL     1     -32.987  18.236  -2.010  1.00 20.00     0.042 C 
ENDBRANCH   8  10
ENDBRANCH   5   8
TORSDOF 2
ENDMDL
MODEL 8
REMARK VINA RESULT:      -5.0      9.988     10.846
REMARK  2 active torsions:
REMARK  status: ('A' for Active; 'I' for Inactive)
REMARK    1  A    between atoms: C2_2  and  C3_3 
REMARK    2  A    between atoms: C3_3  and  C11_11 
ROOT
HETATM    1  C7  UNL     1     -36.714  14.377  -7.062  1.00 20.00     0.005 C 
HETATM    2  C8  UNL     1     -36.507  15.875  -6.789  1.00 20.00     0.006 C 
HETATM    3  C9  UNL     1     -35.496  13.795  -4.948  1.00 20.00     0.017 C 
HETATM    4  C10 UNL     1     -34.390  14.802  -6.798  1.00 20.00     0.010 C 
HETATM    5  C11 UNL     1     -35.348  15.298  -4.655  1.00 20.00     0.065 C 
HETATM    6  C12 UNL     1     -35.439  13.739  -6.486  1.00 20.00    -0.013 C 
HETATM    7  C13 UNL     1     -35.153  15.906  -6.059  1.00 20.00    -0.003 C 
ENDROOT
BRANCH   5   8
HETATM    8  C3  UNL     1     -34.177  15.572  -3.762  1.00 20.00     0.159 C 
HETATM    9  O14 UNL     1     -33.074  15.070  -3.964  1.00 20.00    -0.292 OA
BRANCH   8  10
HETATM   10  C2  UNL     1     -34.380  16.440  -2.645  1.00 20.00    -0.016 C 
HETATM   11  C1  UNL     1     -35.505  16.563  -1.932  1.00 20.00    -0.016 C 
HETATM   12  C4  UNL     1     -35.364  17.580  -0.850  1.00 20.00     0.028 C 
HETATM   13  C6  UNL     1     -33.854  17.815  -0.799  1.00 20.00     0.009 C 
HETATM   14  C5  UNL     1     -33.306  17.358  -2.152  1.00 20.00     0.042 C 
ENDBRANCH   8  10
ENDBRANCH   5   8
TORSDOF 2
ENDMDL
MODEL 9
REMARK VINA RESULT:      -4.9     10.173     10.987
REMARK  2 active torsions:
REMARK  status: ('A' for Active; 'I' for Inactive)
REMARK    1  A    between atoms: C2_2  and  C3_3 
REMARK    2  A    between atoms: C3_3  and  C11_11 
ROOT
HETATM    1  C7  UNL     1     -35.056  14.084  -7.379  1.00 20.00     0.005 C 
HETATM    2  C8  UNL     1     -34.003  14.087  -6.261  1.00 20.00     0.006 C 
HETATM    3  C9  UNL     1     -36.465  15.716  -6.096  1.00 20.00     0.017 C 
HETATM    4  C10 UNL     1     -36.103  13.492  -5.328  1.00 20.00     0.010 C 
HETATM    5  C11 UNL     1     -35.375  15.757  -5.011  1.00 20.00     0.065 C 
HETATM    6  C12 UNL     1     -36.378  14.267  -6.614  1.00 20.00    -0.013 C 
HETATM    7  C13 UNL     1     -34.849  14.307  -4.994  1.00 20.00    -0.003 C 
ENDROOT
BRANCH   5   8
HETATM    8  C3  UNL     1     -35.936  16.161  -3.682  1.00 20.00     0.159 C 
HETATM    9  O14 UNL     1     -37.133  16.061  -3.424  1.00 20.00    -0.292 OA
BRANCH   8  10
HETATM   10  C2  UNL     1     -35.030  16.683  -2.708  1.00 20.00    -0.016 C 
HETATM   11  C1  UNL     1     -33.758  17.036  -2.919  1.00 20.00    -0.016 C 
HETATM   12  C4  UNL     1     -33.105  17.520  -1.667  1.00 20.00     0.028 C 
HETATM   13  C6  UNL     1     -34.290  17.730  -0.726  1.00 20.00     0.009 C 
HETATM   14  C5  UNL     1     -35.431  16.875  -1.279  1.00 20.00     0.042 C 
ENDBRANCH   8  10
ENDBRANCH   5   8
TORSDOF 2
ENDMDL
