MODEL 1
REMARK VINA RESULT:      -7.5      0.000      0.000
REMARK  2 active torsions:
REMARK  status: ('A' for Active; 'I' for Inactive)
REMARK    1  A    between atoms: C2_2  and  C3_3 
REMARK    2  A    between atoms: C3_3  and  C9_9 
ROOT
HETATM    1  C1  UNL     1     -33.306   7.349   4.876  1.00 20.00    -0.016 C 
HETATM    2  C2  UNL     1     -33.034   7.061   3.595  1.00 20.00    -0.016 C 
HETATM    3  C4  UNL     1     -34.186   6.481   5.728  1.00 20.00     0.028 C 
HETATM    4  C5  UNL     1     -33.543   5.843   2.887  1.00 20.00     0.042 C 
HETATM    5  C6  UNL     1     -34.974   5.441   4.926  1.00 20.00     0.004 C 
HETATM    6  C7  UNL     1     -34.106   4.793   3.851  1.00 20.00     0.005 C 
ENDROOT
BRANCH   2   7
HETATM    7  C3  UNL     1     -32.170   7.987   2.858  1.00 20.00     0.159 C 
HETATM    8  O12 UNL     1     -31.288   8.622   3.441  1.00 20.00    -0.292 OA
BRANCH   7   9
HETATM    9  C9  UNL     1     -32.390   8.133   1.373  1.00 20.00     0.064 A 
HETATM   10  C8  UNL     1     -31.354   8.848   0.580  1.00 20.00     0.018 A 
HETATM   11  C10 UNL     1     -32.701   9.472   0.802  1.00 20.00    -0.006 A 
HETATM   12  C11 UNL     1     -32.823  10.710   1.625  1.00 20.00     0.011 C 
ENDBRANCH   7   9
ENDBRANCH   2   7
TORSDOF 2
ENDMDL
MODEL 2
REMARK VINA RESULT:      -7.5      0.437      1.500
REMARK  2 active torsions:
REMARK  status: ('A' for Active; 'I' for Inactive)
REMARK    1  A    between atoms: C2_2  and  C3_3 
REMARK    2  A    between atoms: C3_3  and  C9_9 
ROOT
HETATM    1  C1  UNL     1     -33.773   6.306   3.197  1.00 20.00    -0.016 C 
HETATM    2  C2  UNL     1     -33.026   7.244   3.799  1.00 20.00    -0.016 C 
HETATM    3  C4  UNL     1     -34.719   5.420   3.955  1.00 20.00     0.028 C 
HETATM    4  C5  UNL     1     -33.072   7.531   5.269  1.00 20.00     0.042 C 
HETATM    5  C6  UNL     1     -34.518   5.473   5.472  1.00 20.00     0.004 C 
HETATM    6  C7  UNL     1     -34.291   6.903   5.954  1.00 20.00     0.005 C 
ENDROOT
BRANCH   2   7
HETATM    7  C3  UNL     1     -32.130   8.043   2.959  1.00 20.00     0.159 C 
HETATM    8  O12 UNL     1     -31.148   8.607   3.447  1.00 20.00    -0.292 OA
BRANCH   7   9
HETATM    9  C9  UNL     1     -32.442   8.146   1.487  1.00 20.00     0.064 A 
HETATM   10  C8  UNL     1     -31.458   8.836   0.611  1.00 20.00     0.018 A 
HETATM   11  C10 UNL     1     -32.788   9.469   0.899  1.00 20.00    -0.006 A 
HETATM   12  C11 UNL     1     -32.858  10.730   1.692  1.00 20.00     0.011 C 
ENDBRANCH   7   9
ENDBRANCH   2   7
TORSDOF 2
ENDMDL
MODEL 3
REMARK VINA RESULT:      -5.9      1.172      2.095
REMARK  2 active torsions:
REMARK  status: ('A' for Active; 'I' for Inactive)
REMARK    1  A    between atoms: C2_2  and  C3_3 
REMARK    2  A    between atoms: C3_3  and  C9_9 
ROOT
HETATM    1  C1  UNL     1     -33.947   6.608   2.835  1.00 20.00    -0.016 C 
HETATM    2  C2  UNL     1     -32.986   7.469   3.202  1.00 20.00    -0.016 C 
HETATM    3  C4  UNL     1     -34.815   5.896   3.832  1.00 20.00     0.028 C 
HETATM    4  C5  UNL     1     -32.695   7.837   4.625  1.00 20.00     0.042 C 
HETATM    5  C6  UNL     1     -34.302   6.002   5.271  1.00 20.00     0.004 C 
HETATM    6  C7  UNL     1     -33.812   7.413   5.584  1.00 20.00     0.005 C 
ENDROOT
BRANCH   2   7
HETATM    7  C3  UNL     1     -32.194   8.097   2.142  1.00 20.00     0.159 C 
HETATM    8  O12 UNL     1     -31.486   7.414   1.398  1.00 20.00    -0.292 OA
BRANCH   7   9
HETATM    9  C9  UNL     1     -32.276   9.595   1.987  1.00 20.00     0.064 A 
HETATM   10  C8  UNL     1     -33.623  10.208   1.833  1.00 20.00     0.018 A 
HETATM   11  C10 UNL     1     -32.668  10.180   0.675  1.00 20.00    -0.006 A 
HETATM   12  C11 UNL     1     -32.983   9.360  -0.530  1.00 20.00     0.011 C 
ENDBRANCH   7   9
ENDBRANCH   2   7
TORSDOF 2
ENDMDL
MODEL 4
REMARK VINA RESULT:      -5.4      1.076      4.775
REMARK  2 active torsions:
REMARK  status: ('A' for Active; 'I' for Inactive)
REMARK    1  A    between atoms: C2_2  and  C3_3 
REMARK    2  A    between atoms: C3_3  and  C9_9 
ROOT
HETATM    1  C1  UNL     1     -31.687   7.974   1.927  1.00 20.00    -0.016 C 
HETATM    2  C2  UNL     1     -32.787   8.373   2.582  1.00 20.00    -0.016 C 
HETATM    3  C4  UNL     1     -31.223   8.629   0.658  1.00 20.00     0.028 C 
HETATM    4  C5  UNL     1     -33.648   9.519   2.148  1.00 20.00     0.042 C 
HETATM    5  C6  UNL     1     -32.270   9.557   0.034  1.00 20.00     0.004 C 
HETATM    6  C7  UNL     1     -32.968  10.402   1.097  1.00 20.00     0.005 C 
ENDROOT
BRANCH   2   7
HETATM    7  C3  UNL     1     -33.148   7.651   3.805  1.00 20.00     0.159 C 
HETATM    8  O12 UNL     1     -32.459   7.754   4.822  1.00 20.00    -0.292 OA
BRANCH   7   9
HETATM    9  C9  UNL     1     -34.387   6.791   3.782  1.00 20.00     0.064 A 
HETATM   10  C8  UNL     1     -34.484   5.679   4.764  1.00 20.00     0.018 A 
HETATM   11  C10 UNL     1     -34.298   5.384   3.304  1.00 20.00    -0.006 A 
HETATM   12  C11 UNL     1     -33.034   4.756   2.825  1.00 20.00     0.011 C 
ENDBRANCH   7   9
ENDBRANCH   2   7
TORSDOF 2
ENDMDL
MODEL 5
REMARK VINA RESULT:      -5.3      1.039      4.842
REMARK  2 active torsions:
REMARK  status: ('A' for Active; 'I' for Inactive)
REMARK    1  A    between atoms: C2_2  and  C3_3 
REMARK    2  A    between atoms: C3_3  and  C9_9 
ROOT
HETATM    1  C1  UNL     1     -31.722   7.914   1.637  1.00 20.00    -0.016 C 
HETATM    2  C2  UNL     1     -32.715   8.253   2.473  1.00 20.00    -0.016 C 
HETATM    3  C4  UNL     1     -31.385   8.723   0.417  1.00 20.00     0.028 C 
HETATM    4  C5  UNL     1     -33.566   9.474   2.307  1.00 20.00     0.042 C 
HETATM    5  C6  UNL     1     -32.454   9.759   0.060  1.00 20.00     0.004 C 
HETATM    6  C7  UNL     1     -32.977  10.472   1.305  1.00 20.00     0.005 C 
ENDROOT
BRANCH   2   7
HETATM    7  C3  UNL     1     -32.960   7.382   3.626  1.00 20.00     0.159 C 
HETATM    8  O12 UNL     1     -32.624   7.731   4.759  1.00 20.00    -0.292 OA
BRANCH   7   9
HETATM    9  C9  UNL     1     -33.639   6.057   3.382  1.00 20.00     0.064 A 
HETATM   10  C8  UNL     1     -35.126   6.029   3.350  1.00 20.00     0.018 A 
HETATM   11  C10 UNL     1     -34.382   5.395   4.490  1.00 20.00    -0.006 A 
HETATM   12  C11 UNL     1     -34.494   5.966   5.862  1.00 20.00     0.011 C 
ENDBRANCH   7   9
ENDBRANCH   2   7
TORSDOF 2
ENDMDL
MODEL 6
REMARK VINA RESULT:      -5.1     10.484     11.220
REMARK  2 active torsions:
REMARK  status: ('A' for Active; 'I' for Inactive)
REMARK    1  A    between atoms: C2_2  and  C3_3 
REMARK    2  A    between atoms: C3_3  and  C9_9 
ROOT
HETATM    1  C1  UNL     1     -32.998  17.747  -1.689  1.00 20.00    -0.016 C 
HETATM    2  C2  UNL     1     -34.008  17.125  -2.315  1.00 20.00    -0.016 C 
HETATM    3  C4  UNL     1     -33.149  18.356  -0.324  1.00 20.00     0.028 C 
HETATM    4  C5  UNL     1     -35.372  16.943  -1.723  1.00 20.00     0.042 C 
HETATM    5  C6  UNL     1     -34.606  18.474   0.131  1.00 20.00     0.004 C 
HETATM    6  C7  UNL     1     -35.402  17.218  -0.216  1.00 20.00     0.005 C 
ENDROOT
BRANCH   2   7
HETATM    7  C3  UNL     1     -33.747  16.578  -3.649  1.00 20.00     0.159 C 
HETATM    8  O12 UNL     1     -33.651  17.324  -4.626  1.00 20.00    -0.292 OA
BRANCH   7   9
HETATM    9  C9  UNL     1     -33.594  15.084  -3.785  1.00 20.00     0.064 A 
HETATM   10  C8  UNL     1     -33.582  14.505  -5.156  1.00 20.00     0.018 A 
HETATM   11  C10 UNL     1     -34.750  14.263  -4.242  1.00 20.00    -0.006 A 
HETATM   12  C11 UNL     1     -36.086  14.836  -4.574  1.00 20.00     0.011 C 
ENDBRANCH   7   9
ENDBRANCH   2   7
TORSDOF 2
ENDMDL
MODEL 7
REMARK VINA RESULT:      -5.0     10.561     11.284
REMARK  2 active torsions:
REMARK  status: ('A' for Active; 'I' for Inactive)
REMARK    1  A    between atoms: C2_2  and  C3_3 
REMARK    2  A    between atoms: C3_3  and  C9_9 
ROOT
HETATM    1  C1  UNL     1     -35.263  16.817  -1.688  1.00 20.00    -0.016 C 
HETATM    2  C2  UNL     1     -34.064  16.993  -2.263  1.00 20.00    -0.016 C 
HETATM    3  C4  UNL     1     -35.613  17.409  -0.354  1.00 20.00     0.028 C 
HETATM    4  C5  UNL     1     -32.965  17.816  -1.664  1.00 20.00     0.042 C 
HETATM    5  C6  UNL     1     -34.400  17.951   0.408  1.00 20.00     0.004 C 
HETATM    6  C7  UNL     1     -33.454  18.710  -0.519  1.00 20.00     0.005 C 
ENDROOT
BRANCH   2   7
HETATM    7  C3  UNL     1     -33.832  16.358  -3.562  1.00 20.00     0.159 C 
HETATM    8  O12 UNL     1     -33.267  16.972  -4.470  1.00 20.00    -0.292 OA
BRANCH   7   9
HETATM    9  C9  UNL     1     -34.299  14.936  -3.751  1.00 20.00     0.064 A 
HETATM   10  C8  UNL     1     -34.200  14.343  -5.111  1.00 20.00     0.018 A 
HETATM   11  C10 UNL     1     -35.543  14.664  -4.521  1.00 20.00    -0.006 A 
HETATM   12  C11 UNL     1     -36.386  15.734  -5.128  1.00 20.00     0.011 C 
ENDBRANCH   7   9
ENDBRANCH   2   7
TORSDOF 2
ENDMDL
MODEL 8
REMARK VINA RESULT:      -4.9     10.712     11.474
REMARK  2 active torsions:
REMARK  status: ('A' for Active; 'I' for Inactive)
REMARK    1  A    between atoms: C2_2  and  C3_3 
REMARK    2  A    between atoms: C3_3  and  C9_9 
ROOT
HETATM    1  C1  UNL     1     -35.802  16.224  -2.539  1.00 20.00    -0.016 C 
HETATM    2  C2  UNL     1     -34.761  15.809  -3.277  1.00 20.00    -0.016 C 
HETATM    3  C4  UNL     1     -35.658  17.238  -1.441  1.00 20.00     0.028 C 
HETATM    4  C5  UNL     1     -33.364  16.326  -3.115  1.00 20.00     0.042 C 
HETATM    5  C6  UNL     1     -34.203  17.507  -1.048  1.00 20.00     0.004 C 
HETATM    6  C7  UNL     1     -33.303  17.608  -2.277  1.00 20.00     0.005 C 
ENDROOT
BRANCH   2   7
HETATM    7  C3  UNL     1     -35.019  14.808  -4.314  1.00 20.00     0.159 C 
HETATM    8  O12 UNL     1     -34.610  13.652  -4.187  1.00 20.00    -0.292 OA
BRANCH   7   9
HETATM    9  C9  UNL     1     -35.802  15.232  -5.532  1.00 20.00     0.064 A 
HETATM   10  C8  UNL     1     -35.727  14.375  -6.745  1.00 20.00     0.018 A 
HETATM   11  C10 UNL     1     -35.080  15.729  -6.736  1.00 20.00    -0.006 A 
HETATM   12  C11 UNL     1     -33.596  15.847  -6.815  1.00 20.00     0.011 C 
ENDBRANCH   7   9
ENDBRANCH   2   7
TORSDOF 2
ENDMDL
MODEL 9
REMARK VINA RESULT:      -4.9      1.406      4.603
REMARK  2 active torsions:
REMARK  status: ('A' for Active; 'I' for Inactive)
REMARK    1  A    between atoms: C2_2  and  C3_3 
REMARK    2  A    between atoms: C3_3  and  C9_9 
ROOT
HETATM    1  C1  UNL     1     -31.731   7.980   3.776  1.00 20.00    -0.016 C 
HETATM    2  C2  UNL     1     -33.032   7.674   3.669  1.00 20.00    -0.016 C 
HETATM    3  C4  UNL     1     -30.956   8.610   2.655  1.00 20.00     0.028 C 
HETATM    4  C5  UNL     1     -33.857   7.950   2.449  1.00 20.00     0.042 C 
HETATM    5  C6  UNL     1     -31.693   8.577   1.313  1.00 20.00     0.004 C 
HETATM    6  C7  UNL     1     -33.171   8.919   1.481  1.00 20.00     0.005 C 
ENDROOT
BRANCH   2   7
HETATM    7  C3  UNL     1     -33.682   7.052   4.826  1.00 20.00     0.159 C 
HETATM    8  O12 UNL     1     -33.374   7.383   5.973  1.00 20.00    -0.292 OA
BRANCH   7   9
HETATM    9  C9  UNL     1     -34.738   6.006   4.569  1.00 20.00     0.064 A 
HETATM   10  C8  UNL     1     -34.607   4.696   5.260  1.00 20.00     0.018 A 
HETATM   11  C10 UNL     1     -34.396   4.793   3.777  1.00 20.00    -0.006 A 
HETATM   12  C11 UNL     1     -33.045   4.541   3.198  1.00 20.00     0.011 C 
ENDBRANCH   7   9
ENDBRANCH   2   7
TORSDOF 2
ENDMDL
