MODEL 1
REMARK VINA RESULT:      -4.8      0.000      0.000
REMARK  4 active torsions:
REMARK  status: ('A' for Active; 'I' for Inactive)
REMARK    1  A    between atoms: C4_4  and  C6_6 
REMARK    2  A    between atoms: C5_5  and  C7_7 
REMARK    3  A    between atoms: C6_6  and  C7_7 
REMARK    4  A    between atoms: C7_7  and  N8_8 
ROOT
HETATM    1  C1  UNL     1     -32.390   8.729   1.724  1.00 20.00     0.158 C 
HETATM    2  N8  UNL     1     -32.211   7.802   2.419  1.00 20.00    -0.270 NA
HETATM    3  S9  UNL     1     -32.598   9.986   0.768  1.00 20.00    -0.055 SA
ENDROOT
BRANCH   2   4
HETATM    4  C7  UNL     1     -33.374   7.407   3.227  1.00 20.00     0.109 C 
BRANCH   4   5
HETATM    5  C5  UNL     1     -33.969   6.115   2.651  1.00 20.00     0.023 C 
HETATM    6  C3  UNL     1     -32.981   4.957   2.672  1.00 20.00     0.007 C 
ENDBRANCH   4   5
BRANCH   4   7
HETATM    7  C6  UNL     1     -32.931   7.207   4.682  1.00 20.00     0.027 C 
BRANCH   7   8
HETATM    8  C4  UNL     1     -34.117   7.091   5.643  1.00 20.00    -0.002 C 
HETATM    9  C2  UNL     1     -34.481   5.638   5.903  1.00 20.00     0.005 C 
ENDBRANCH   7   8
ENDBRANCH   4   7
ENDBRANCH   2   4
TORSDOF 4
ENDMDL
MODEL 2
REMARK VINA RESULT:      -4.6      0.903      2.388
REMARK  4 active torsions:
REMARK  status: ('A' for Active; 'I' for Inactive)
REMARK    1  A    between atoms: C4_4  and  C6_6 
REMARK    2  A    between atoms: C5_5  and  C7_7 
REMARK    3  A    between atoms: C6_6  and  C7_7 
REMARK    4  A    between atoms: C7_7  and  N8_8 
ROOT
HETATM    1  C1  UNL     1     -32.087   8.627   2.193  1.00 20.00     0.158 C 
HETATM    2  N8  UNL     1     -31.648   7.971   3.061  1.00 20.00    -0.270 NA
HETATM    3  S9  UNL     1     -32.650   9.532   1.010  1.00 20.00    -0.055 SA
ENDROOT
BRANCH   2   4
HETATM    4  C7  UNL     1     -32.615   7.059   3.690  1.00 20.00     0.109 C 
BRANCH   4   5
HETATM    5  C5  UNL     1     -33.593   7.878   4.542  1.00 20.00     0.023 C 
HETATM    6  C3  UNL     1     -33.761   7.311   5.946  1.00 20.00     0.007 C 
ENDBRANCH   4   5
BRANCH   4   7
HETATM    7  C6  UNL     1     -33.357   6.281   2.596  1.00 20.00     0.027 C 
BRANCH   7   8
HETATM    8  C4  UNL     1     -33.261   4.766   2.791  1.00 20.00    -0.002 C 
HETATM    9  C2  UNL     1     -34.114   4.302   3.962  1.00 20.00     0.005 C 
ENDBRANCH   7   8
ENDBRANCH   4   7
ENDBRANCH   2   4
TORSDOF 4
ENDMDL
MODEL 3
REMARK VINA RESULT:      -4.4      2.626      4.104
REMARK  4 active torsions:
REMARK  status: ('A' for Active; 'I' for Inactive)
REMARK    1  A    between atoms: C4_4  and  C6_6 
REMARK    2  A    between atoms: C5_5  and  C7_7 
REMARK    3  A    between atoms: C6_6  and  C7_7 
REMARK    4  A    between atoms: C7_7  and  N8_8 
ROOT
HETATM    1  C1  UNL     1     -33.865   6.721   5.142  1.00 20.00     0.158 C 
HETATM    2  N8  UNL     1     -33.278   7.601   4.636  1.00 20.00    -0.270 NA
HETATM    3  S9  UNL     1     -34.678   5.550   5.854  1.00 20.00    -0.055 SA
ENDROOT
BRANCH   2   4
HETATM    4  C7  UNL     1     -32.450   7.204   3.487  1.00 20.00     0.109 C 
BRANCH   4   5
HETATM    5  C5  UNL     1     -33.321   6.442   2.481  1.00 20.00     0.023 C 
HETATM    6  C3  UNL     1     -33.023   4.949   2.462  1.00 20.00     0.007 C 
ENDBRANCH   4   5
BRANCH   4   7
HETATM    7  C6  UNL     1     -31.842   8.460   2.848  1.00 20.00     0.027 C 
BRANCH   7   8
HETATM    8  C4  UNL     1     -32.297   8.655   1.399  1.00 20.00    -0.002 C 
HETATM    9  C2  UNL     1     -32.644  10.109   1.118  1.00 20.00     0.005 C 
ENDBRANCH   7   8
ENDBRANCH   4   7
ENDBRANCH   2   4
TORSDOF 4
ENDMDL
MODEL 4
REMARK VINA RESULT:      -4.4      0.899      1.197
REMARK  4 active torsions:
REMARK  status: ('A' for Active; 'I' for Inactive)
REMARK    1  A    between atoms: C4_4  and  C6_6 
REMARK    2  A    between atoms: C5_5  and  C7_7 
REMARK    3  A    between atoms: C6_6  and  C7_7 
REMARK    4  A    between atoms: C7_7  and  N8_8 
ROOT
HETATM    1  C1  UNL     1     -32.264   8.171   1.935  1.00 20.00     0.158 C 
HETATM    2  N8  UNL     1     -32.244   7.297   2.715  1.00 20.00    -0.270 NA
HETATM    3  S9  UNL     1     -32.257   9.370   0.886  1.00 20.00    -0.055 SA
ENDROOT
BRANCH   2   4
HETATM    4  C7  UNL     1     -33.444   6.447   2.715  1.00 20.00     0.109 C 
BRANCH   4   5
HETATM    5  C5  UNL     1     -33.019   4.980   2.857  1.00 20.00     0.023 C 
HETATM    6  C3  UNL     1     -33.926   4.196   3.797  1.00 20.00     0.007 C 
ENDBRANCH   4   5
BRANCH   4   7
HETATM    7  C6  UNL     1     -34.360   6.868   3.871  1.00 20.00     0.027 C 
BRANCH   7   8
HETATM    8  C4  UNL     1     -33.579   7.459   5.048  1.00 20.00    -0.002 C 
HETATM    9  C2  UNL     1     -34.030   6.858   6.370  1.00 20.00     0.005 C 
ENDBRANCH   7   8
ENDBRANCH   4   7
ENDBRANCH   2   4
TORSDOF 4
ENDMDL
MODEL 5
REMARK VINA RESULT:      -4.1      2.585      4.434
REMARK  4 active torsions:
REMARK  status: ('A' for Active; 'I' for Inactive)
REMARK    1  A    between atoms: C4_4  and  C6_6 
REMARK    2  A    between atoms: C5_5  and  C7_7 
REMARK    3  A    between atoms: C6_6  and  C7_7 
REMARK    4  A    between atoms: C7_7  and  N8_8 
ROOT
HETATM    1  C1  UNL     1     -33.637   5.433   3.354  1.00 20.00     0.158 C 
HETATM    2  N8  UNL     1     -33.031   6.108   2.612  1.00 20.00    -0.270 NA
HETATM    3  S9  UNL     1     -34.453   4.486   4.342  1.00 20.00    -0.055 SA
ENDROOT
BRANCH   2   4
HETATM    4  C7  UNL     1     -32.971   7.529   2.984  1.00 20.00     0.109 C 
BRANCH   4   5
HETATM    5  C5  UNL     1     -32.441   7.649   4.419  1.00 20.00     0.023 C 
HETATM    6  C3  UNL     1     -33.555   7.827   5.442  1.00 20.00     0.007 C 
ENDBRANCH   4   5
BRANCH   4   7
HETATM    7  C6  UNL     1     -32.059   8.270   1.997  1.00 20.00     0.027 C 
BRANCH   7   8
HETATM    8  C4  UNL     1     -32.704   9.546   1.451  1.00 20.00    -0.002 C 
HETATM    9  C2  UNL     1     -32.875   9.479  -0.058  1.00 20.00     0.005 C 
ENDBRANCH   7   8
ENDBRANCH   4   7
ENDBRANCH   2   4
TORSDOF 4
ENDMDL
MODEL 6
REMARK VINA RESULT:      -3.8      2.414      3.511
REMARK  4 active torsions:
REMARK  status: ('A' for Active; 'I' for Inactive)
REMARK    1  A    between atoms: C4_4  and  C6_6 
REMARK    2  A    between atoms: C5_5  and  C7_7 
REMARK    3  A    between atoms: C6_6  and  C7_7 
REMARK    4  A    between atoms: C7_7  and  N8_8 
ROOT
HETATM    1  C1  UNL     1     -32.908   7.721   4.935  1.00 20.00     0.158 C 
HETATM    2  N8  UNL     1     -32.210   8.054   4.053  1.00 20.00    -0.270 NA
HETATM    3  S9  UNL     1     -33.830   7.281   6.157  1.00 20.00    -0.055 SA
ENDROOT
BRANCH   2   4
HETATM    4  C7  UNL     1     -32.729   7.748   2.712  1.00 20.00     0.109 C 
BRANCH   4   5
HETATM    5  C5  UNL     1     -31.842   8.432   1.664  1.00 20.00     0.023 C 
HETATM    6  C3  UNL     1     -32.521   9.633   1.017  1.00 20.00     0.007 C 
ENDBRANCH   4   5
BRANCH   4   7
HETATM    7  C6  UNL     1     -32.741   6.226   2.512  1.00 20.00     0.027 C 
BRANCH   7   8
HETATM    8  C4  UNL     1     -34.126   5.618   2.747  1.00 20.00    -0.002 C 
HETATM    9  C2  UNL     1     -34.071   4.496   3.774  1.00 20.00     0.005 C 
ENDBRANCH   7   8
ENDBRANCH   4   7
ENDBRANCH   2   4
TORSDOF 4
ENDMDL
MODEL 7
REMARK VINA RESULT:      -3.8     10.924     11.607
REMARK  4 active torsions:
REMARK  status: ('A' for Active; 'I' for Inactive)
REMARK    1  A    between atoms: C4_4  and  C6_6 
REMARK    2  A    between atoms: C5_5  and  C7_7 
REMARK    3  A    between atoms: C6_6  and  C7_7 
REMARK    4  A    between atoms: C7_7  and  N8_8 
ROOT
HETATM    1  C1  UNL     1     -35.397  13.908  -4.818  1.00 20.00     0.158 C 
HETATM    2  N8  UNL     1     -34.449  13.855  -4.129  1.00 20.00    -0.270 NA
HETATM    3  S9  UNL     1     -36.688  13.942  -5.751  1.00 20.00    -0.055 SA
ENDROOT
BRANCH   2   4
HETATM    4  C7  UNL     1     -33.816  15.154  -3.857  1.00 20.00     0.109 C 
BRANCH   4   5
HETATM    5  C5  UNL     1     -33.098  15.636  -5.124  1.00 20.00     0.023 C 
HETATM    6  C3  UNL     1     -33.608  16.987  -5.608  1.00 20.00     0.007 C 
ENDBRANCH   4   5
BRANCH   4   7
HETATM    7  C6  UNL     1     -34.893  16.157  -3.421  1.00 20.00     0.027 C 
BRANCH   7   8
HETATM    8  C4  UNL     1     -34.695  16.635  -1.981  1.00 20.00    -0.002 C 
HETATM    9  C2  UNL     1     -33.390  17.401  -1.825  1.00 20.00     0.005 C 
ENDBRANCH   7   8
ENDBRANCH   4   7
ENDBRANCH   2   4
TORSDOF 4
ENDMDL
MODEL 8
REMARK VINA RESULT:      -3.6     10.923     11.851
REMARK  4 active torsions:
REMARK  status: ('A' for Active; 'I' for Inactive)
REMARK    1  A    between atoms: C4_4  and  C6_6 
REMARK    2  A    between atoms: C5_5  and  C7_7 
REMARK    3  A    between atoms: C6_6  and  C7_7 
REMARK    4  A    between atoms: C7_7  and  N8_8 
ROOT
HETATM    1  C1  UNL     1     -36.595  13.754  -5.309  1.00 20.00     0.158 C 
HETATM    2  N8  UNL     1     -35.634  13.109  -5.493  1.00 20.00    -0.270 NA
HETATM    3  S9  UNL     1     -37.922  14.600  -5.062  1.00 20.00    -0.055 SA
ENDROOT
BRANCH   2   4
HETATM    4  C7  UNL     1     -34.372  13.863  -5.452  1.00 20.00     0.109 C 
BRANCH   4   5
HETATM    5  C5  UNL     1     -34.388  14.927  -6.557  1.00 20.00     0.023 C 
HETATM    6  C3  UNL     1     -34.001  14.363  -7.918  1.00 20.00     0.007 C 
ENDBRANCH   4   5
BRANCH   4   7
HETATM    7  C6  UNL     1     -34.217  14.509  -4.069  1.00 20.00     0.027 C 
BRANCH   7   8
HETATM    8  C4  UNL     1     -33.789  15.976  -4.155  1.00 20.00    -0.002 C 
HETATM    9  C2  UNL     1     -33.757  16.625  -2.780  1.00 20.00     0.005 C 
ENDBRANCH   7   8
ENDBRANCH   4   7
ENDBRANCH   2   4
TORSDOF 4
ENDMDL
MODEL 9
REMARK VINA RESULT:      -3.6      2.612      3.433
REMARK  4 active torsions:
REMARK  status: ('A' for Active; 'I' for Inactive)
REMARK    1  A    between atoms: C4_4  and  C6_6 
REMARK    2  A    between atoms: C5_5  and  C7_7 
REMARK    3  A    between atoms: C6_6  and  C7_7 
REMARK    4  A    between atoms: C7_7  and  N8_8 
ROOT
HETATM    1  C1  UNL     1     -33.602   5.075   3.218  1.00 20.00     0.158 C 
HETATM    2  N8  UNL     1     -33.111   5.750   2.395  1.00 20.00    -0.270 NA
HETATM    3  S9  UNL     1     -34.278   4.133   4.311  1.00 20.00    -0.055 SA
ENDROOT
BRANCH   2   4
HETATM    4  C7  UNL     1     -32.507   6.992   2.900  1.00 20.00     0.109 C 
BRANCH   4   5
HETATM    5  C5  UNL     1     -32.085   7.863   1.711  1.00 20.00     0.023 C 
HETATM    6  C3  UNL     1     -32.502   9.319   1.875  1.00 20.00     0.007 C 
ENDBRANCH   4   5
BRANCH   4   7
HETATM    7  C6  UNL     1     -33.527   7.724   3.783  1.00 20.00     0.027 C 
BRANCH   7   8
HETATM    8  C4  UNL     1     -33.052   7.860   5.232  1.00 20.00    -0.002 C 
HETATM    9  C2  UNL     1     -34.001   7.162   6.194  1.00 20.00     0.005 C 
ENDBRANCH   7   8
ENDBRANCH   4   7
ENDBRANCH   2   4
TORSDOF 4
ENDMDL
