MODEL 1
REMARK VINA RESULT:      -4.8      0.000      0.000
REMARK  4 active torsions:
REMARK  status: ('A' for Active; 'I' for Inactive)
REMARK    1  A    between atoms: C4_4  and  C6_6 
REMARK    2  A    between atoms: C5_5  and  C7_7 
REMARK    3  A    between atoms: C6_6  and  C7_7 
REMARK    4  A    between atoms: C7_7  and  N8_8 
ROOT
HETATM    1  C1  UNL     1     -32.429   8.289   1.867  1.00 20.00     0.158 C 
HETATM    2  N8  UNL     1     -32.532   7.372   2.588  1.00 20.00    -0.270 NA
HETATM    3  S9  UNL     1     -32.259   9.521   0.870  1.00 20.00    -0.055 SA
ENDROOT
BRANCH   2   4
HETATM    4  C7  UNL     1     -33.607   7.494   3.585  1.00 20.00     0.109 C 
BRANCH   4   5
HETATM    5  C5  UNL     1     -32.985   7.591   4.983  1.00 20.00     0.023 C 
HETATM    6  C3  UNL     1     -33.950   7.169   6.084  1.00 20.00     0.007 C 
ENDBRANCH   4   5
BRANCH   4   7
HETATM    7  C6  UNL     1     -34.531   6.274   3.480  1.00 20.00     0.027 C 
BRANCH   7   8
HETATM    8  C4  UNL     1     -33.753   4.966   3.301  1.00 20.00    -0.002 C 
HETATM    9  C2  UNL     1     -34.138   3.943   4.359  1.00 20.00     0.005 C 
ENDBRANCH   7   8
ENDBRANCH   4   7
ENDBRANCH   2   4
TORSDOF 4
ENDMDL
MODEL 2
REMARK VINA RESULT:      -4.7      1.191      2.370
REMARK  4 active torsions:
REMARK  status: ('A' for Active; 'I' for Inactive)
REMARK    1  A    between atoms: C4_4  and  C6_6 
REMARK    2  A    between atoms: C5_5  and  C7_7 
REMARK    3  A    between atoms: C6_6  and  C7_7 
REMARK    4  A    between atoms: C7_7  and  N8_8 
ROOT
HETATM    1  C1  UNL     1     -32.059   8.701   2.169  1.00 20.00     0.158 C 
HETATM    2  N8  UNL     1     -31.690   8.150   3.135  1.00 20.00    -0.270 NA
HETATM    3  S9  UNL     1     -32.531   9.470   0.857  1.00 20.00    -0.055 SA
ENDROOT
BRANCH   2   4
HETATM    4  C7  UNL     1     -32.593   7.097   3.623  1.00 20.00     0.109 C 
BRANCH   4   5
HETATM    5  C5  UNL     1     -33.167   6.333   2.423  1.00 20.00     0.023 C 
HETATM    6  C3  UNL     1     -33.082   4.822   2.596  1.00 20.00     0.007 C 
ENDBRANCH   4   5
BRANCH   4   7
HETATM    7  C6  UNL     1     -33.714   7.739   4.451  1.00 20.00     0.027 C 
BRANCH   7   8
HETATM    8  C4  UNL     1     -33.825   7.134   5.854  1.00 20.00    -0.002 C 
HETATM    9  C2  UNL     1     -34.528   5.786   5.822  1.00 20.00     0.005 C 
ENDBRANCH   7   8
ENDBRANCH   4   7
ENDBRANCH   2   4
TORSDOF 4
ENDMDL
MODEL 3
REMARK VINA RESULT:      -4.1      2.421      3.947
REMARK  4 active torsions:
REMARK  status: ('A' for Active; 'I' for Inactive)
REMARK    1  A    between atoms: C4_4  and  C6_6 
REMARK    2  A    between atoms: C5_5  and  C7_7 
REMARK    3  A    between atoms: C6_6  and  C7_7 
REMARK    4  A    between atoms: C7_7  and  N8_8 
ROOT
HETATM    1  C1  UNL     1     -33.585   5.353   3.325  1.00 20.00     0.158 C 
HETATM    2  N8  UNL     1     -33.090   6.250   2.754  1.00 20.00    -0.270 NA
HETATM    3  S9  UNL     1     -34.267   4.121   4.069  1.00 20.00    -0.055 SA
ENDROOT
BRANCH   2   4
HETATM    4  C7  UNL     1     -32.504   7.281   3.623  1.00 20.00     0.109 C 
BRANCH   4   5
HETATM    5  C5  UNL     1     -33.614   7.904   4.480  1.00 20.00     0.023 C 
HETATM    6  C3  UNL     1     -33.576   7.425   5.926  1.00 20.00     0.007 C 
ENDBRANCH   4   5
BRANCH   4   7
HETATM    7  C6  UNL     1     -31.822   8.344   2.752  1.00 20.00     0.027 C 
BRANCH   7   8
HETATM    8  C4  UNL     1     -32.589   8.614   1.454  1.00 20.00    -0.002 C 
HETATM    9  C2  UNL     1     -32.625  10.100   1.130  1.00 20.00     0.005 C 
ENDBRANCH   7   8
ENDBRANCH   4   7
ENDBRANCH   2   4
TORSDOF 4
ENDMDL
MODEL 4
REMARK VINA RESULT:      -4.0      2.707      4.426
REMARK  4 active torsions:
REMARK  status: ('A' for Active; 'I' for Inactive)
REMARK    1  A    between atoms: C4_4  and  C6_6 
REMARK    2  A    between atoms: C5_5  and  C7_7 
REMARK    3  A    between atoms: C6_6  and  C7_7 
REMARK    4  A    between atoms: C7_7  and  N8_8 
ROOT
HETATM    1  C1  UNL     1     -33.670   6.871   5.240  1.00 20.00     0.158 C 
HETATM    2  N8  UNL     1     -32.941   7.645   4.746  1.00 20.00    -0.270 NA
HETATM    3  S9  UNL     1     -34.649   5.831   5.944  1.00 20.00    -0.055 SA
ENDROOT
BRANCH   2   4
HETATM    4  C7  UNL     1     -32.943   7.636   3.275  1.00 20.00     0.109 C 
BRANCH   4   5
HETATM    5  C5  UNL     1     -32.865   6.185   2.783  1.00 20.00     0.023 C 
HETATM    6  C3  UNL     1     -34.159   5.722   2.124  1.00 20.00     0.007 C 
ENDBRANCH   4   5
BRANCH   4   7
HETATM    7  C6  UNL     1     -31.747   8.452   2.767  1.00 20.00     0.027 C 
BRANCH   7   8
HETATM    8  C4  UNL     1     -31.869   8.802   1.280  1.00 20.00    -0.002 C 
HETATM    9  C2  UNL     1     -32.645  10.094   1.077  1.00 20.00     0.005 C 
ENDBRANCH   7   8
ENDBRANCH   4   7
ENDBRANCH   2   4
TORSDOF 4
ENDMDL
MODEL 5
REMARK VINA RESULT:      -3.8      2.219      3.340
REMARK  4 active torsions:
REMARK  status: ('A' for Active; 'I' for Inactive)
REMARK    1  A    between atoms: C4_4  and  C6_6 
REMARK    2  A    between atoms: C5_5  and  C7_7 
REMARK    3  A    between atoms: C6_6  and  C7_7 
REMARK    4  A    between atoms: C7_7  and  N8_8 
ROOT
HETATM    1  C1  UNL     1     -32.863   7.653   4.861  1.00 20.00     0.158 C 
HETATM    2  N8  UNL     1     -32.099   7.986   4.037  1.00 20.00    -0.270 NA
HETATM    3  S9  UNL     1     -33.881   7.218   6.006  1.00 20.00    -0.055 SA
ENDROOT
BRANCH   2   4
HETATM    4  C7  UNL     1     -32.374   7.452   2.694  1.00 20.00     0.109 C 
BRANCH   4   5
HETATM    5  C5  UNL     1     -32.656   8.619   1.739  1.00 20.00     0.023 C 
HETATM    6  C3  UNL     1     -31.538   8.827   0.725  1.00 20.00     0.007 C 
ENDBRANCH   4   5
BRANCH   4   7
HETATM    7  C6  UNL     1     -33.577   6.502   2.768  1.00 20.00     0.027 C 
BRANCH   7   8
HETATM    8  C4  UNL     1     -33.157   5.028   2.770  1.00 20.00    -0.002 C 
HETATM    9  C2  UNL     1     -33.956   4.225   3.785  1.00 20.00     0.005 C 
ENDBRANCH   7   8
ENDBRANCH   4   7
ENDBRANCH   2   4
TORSDOF 4
ENDMDL
MODEL 6
REMARK VINA RESULT:      -3.6     11.073     12.084
REMARK  4 active torsions:
REMARK  status: ('A' for Active; 'I' for Inactive)
REMARK    1  A    between atoms: C4_4  and  C6_6 
REMARK    2  A    between atoms: C5_5  and  C7_7 
REMARK    3  A    between atoms: C6_6  and  C7_7 
REMARK    4  A    between atoms: C7_7  and  N8_8 
ROOT
HETATM    1  C1  UNL     1     -34.822  13.543  -6.875  1.00 20.00     0.158 C 
HETATM    2  N8  UNL     1     -35.431  12.882  -6.123  1.00 20.00    -0.270 NA
HETATM    3  S9  UNL     1     -33.990  14.414  -7.918  1.00 20.00    -0.055 SA
ENDROOT
BRANCH   2   4
HETATM    4  C7  UNL     1     -35.834  13.570  -4.888  1.00 20.00     0.109 C 
BRANCH   4   5
HETATM    5  C5  UNL     1     -36.716  14.772  -5.249  1.00 20.00     0.023 C 
HETATM    6  C3  UNL     1     -38.203  14.459  -5.143  1.00 20.00     0.007 C 
ENDBRANCH   4   5
BRANCH   4   7
HETATM    7  C6  UNL     1     -34.578  14.020  -4.130  1.00 20.00     0.027 C 
BRANCH   7   8
HETATM    8  C4  UNL     1     -34.669  15.475  -3.661  1.00 20.00    -0.002 C 
HETATM    9  C2  UNL     1     -33.525  16.310  -4.216  1.00 20.00     0.005 C 
ENDBRANCH   7   8
ENDBRANCH   4   7
ENDBRANCH   2   4
TORSDOF 4
ENDMDL
MODEL 7
REMARK VINA RESULT:      -3.5      2.473      3.803
REMARK  4 active torsions:
REMARK  status: ('A' for Active; 'I' for Inactive)
REMARK    1  A    between atoms: C4_4  and  C6_6 
REMARK    2  A    between atoms: C5_5  and  C7_7 
REMARK    3  A    between atoms: C6_6  and  C7_7 
REMARK    4  A    between atoms: C7_7  and  N8_8 
ROOT
HETATM    1  C1  UNL     1     -33.521   4.967   3.367  1.00 20.00     0.158 C 
HETATM    2  N8  UNL     1     -32.913   5.585   2.578  1.00 20.00    -0.270 NA
HETATM    3  S9  UNL     1     -34.331   4.096   4.427  1.00 20.00    -0.055 SA
ENDROOT
BRANCH   2   4
HETATM    4  C7  UNL     1     -33.215   7.025   2.564  1.00 20.00     0.109 C 
BRANCH   4   5
HETATM    5  C5  UNL     1     -31.898   7.811   2.523  1.00 20.00     0.023 C 
HETATM    6  C3  UNL     1     -31.846   8.804   1.369  1.00 20.00     0.007 C 
ENDBRANCH   4   5
BRANCH   4   7
HETATM    7  C6  UNL     1     -34.027   7.380   3.816  1.00 20.00     0.027 C 
BRANCH   7   8
HETATM    8  C4  UNL     1     -33.135   7.747   5.006  1.00 20.00    -0.002 C 
HETATM    9  C2  UNL     1     -33.757   7.303   6.322  1.00 20.00     0.005 C 
ENDBRANCH   7   8
ENDBRANCH   4   7
ENDBRANCH   2   4
TORSDOF 4
ENDMDL
MODEL 8
REMARK VINA RESULT:      -3.5     11.174     12.319
REMARK  4 active torsions:
REMARK  status: ('A' for Active; 'I' for Inactive)
REMARK    1  A    between atoms: C4_4  and  C6_6 
REMARK    2  A    between atoms: C5_5  and  C7_7 
REMARK    3  A    between atoms: C6_6  and  C7_7 
REMARK    4  A    between atoms: C7_7  and  N8_8 
ROOT
HETATM    1  C1  UNL     1     -35.347  13.925  -4.758  1.00 20.00     0.158 C 
HETATM    2  N8  UNL     1     -34.353  13.825  -4.144  1.00 20.00    -0.270 NA
HETATM    3  S9  UNL     1     -36.702  14.024  -5.589  1.00 20.00    -0.055 SA
ENDROOT
BRANCH   2   4
HETATM    4  C7  UNL     1     -33.619  15.086  -3.958  1.00 20.00     0.109 C 
BRANCH   4   5
HETATM    5  C5  UNL     1     -34.574  16.142  -3.386  1.00 20.00     0.023 C 
HETATM    6  C3  UNL     1     -34.023  16.813  -2.134  1.00 20.00     0.007 C 
ENDBRANCH   4   5
BRANCH   4   7
HETATM    7  C6  UNL     1     -33.047  15.538  -5.307  1.00 20.00     0.027 C 
BRANCH   7   8
HETATM    8  C4  UNL     1     -33.645  16.867  -5.780  1.00 20.00    -0.002 C 
HETATM    9  C2  UNL     1     -34.087  16.791  -7.233  1.00 20.00     0.005 C 
ENDBRANCH   7   8
ENDBRANCH   4   7
ENDBRANCH   2   4
TORSDOF 4
ENDMDL
MODEL 9
REMARK VINA RESULT:      -3.4     11.267     12.370
REMARK  4 active torsions:
REMARK  status: ('A' for Active; 'I' for Inactive)
REMARK    1  A    between atoms: C4_4  and  C6_6 
REMARK    2  A    between atoms: C5_5  and  C7_7 
REMARK    3  A    between atoms: C6_6  and  C7_7 
REMARK    4  A    between atoms: C7_7  and  N8_8 
ROOT
HETATM    1  C1  UNL     1     -37.653  14.427  -5.019  1.00 20.00     0.158 C 
HETATM    2  N8  UNL     1     -36.827  13.636  -5.276  1.00 20.00    -0.270 NA
HETATM    3  S9  UNL     1     -38.800  15.475  -4.668  1.00 20.00    -0.055 SA
ENDROOT
BRANCH   2   4
HETATM    4  C7  UNL     1     -35.505  14.207  -5.577  1.00 20.00     0.109 C 
BRANCH   4   5
HETATM    5  C5  UNL     1     -34.906  13.472  -6.783  1.00 20.00     0.023 C 
HETATM    6  C3  UNL     1     -34.117  14.399  -7.699  1.00 20.00     0.007 C 
ENDBRANCH   4   5
BRANCH   4   7
HETATM    7  C6  UNL     1     -34.603  14.063  -4.344  1.00 20.00     0.027 C 
BRANCH   7   8
HETATM    8  C4  UNL     1     -34.011  15.403  -3.895  1.00 20.00    -0.002 C 
HETATM    9  C2  UNL     1     -34.939  16.124  -2.930  1.00 20.00     0.005 C 
ENDBRANCH   7   8
ENDBRANCH   4   7
ENDBRANCH   2   4
TORSDOF 4
ENDMDL
