MODEL 1
REMARK VINA RESULT:      -5.3      0.000      0.000
REMARK  3 active torsions:
REMARK  status: ('A' for Active; 'I' for Inactive)
REMARK    1  A    between atoms: C6_6  and  N10_10 
REMARK    2  A    between atoms: C7_7  and  C8_8 
REMARK    3  A    between atoms: C8_8  and  N10_10 
ROOT
HETATM    1  C1  UNL     1     -32.431   9.077   1.328  1.00 20.00     0.094 C 
HETATM    2  C2  UNL     1     -31.391   8.106   3.341  1.00 20.00     0.059 C 
HETATM    3  C6  UNL     1     -32.692   8.455   2.632  1.00 20.00     0.322 C 
HETATM    4  N9  UNL     1     -32.225   9.573   0.299  1.00 20.00    -0.195 NA
ENDROOT
BRANCH   3   5
HETATM    5  N10 UNL     1     -33.520   7.264   2.457  1.00 20.00     0.105 N 
HETATM    6  H26 UNL     1     -33.346   6.875   1.528  1.00 20.00     0.318 HD
BRANCH   5   7
HETATM    7  C8  UNL     1     -33.225   6.268   3.467  1.00 20.00     0.221 C 
HETATM    8  C5  UNL     1     -33.056   4.910   2.790  1.00 20.00     0.043 C 
BRANCH   7   9
HETATM    9  C7  UNL     1     -34.308   6.264   4.571  1.00 20.00     0.010 C 
HETATM   10  C3  UNL     1     -34.724   4.863   5.029  1.00 20.00     0.011 C 
HETATM   11  C4  UNL     1     -33.868   7.096   5.782  1.00 20.00     0.011 C 
ENDBRANCH   7   9
ENDBRANCH   5   7
ENDBRANCH   3   5
TORSDOF 3
ENDMDL
MODEL 2
REMARK VINA RESULT:      -4.8      0.759      1.645
REMARK  3 active torsions:
REMARK  status: ('A' for Active; 'I' for Inactive)
REMARK    1  A    between atoms: C6_6  and  N10_10 
REMARK    2  A    between atoms: C7_7  and  C8_8 
REMARK    3  A    between atoms: C8_8  and  N10_10 
ROOT
HETATM    1  C1  UNL     1     -32.521   8.736   1.639  1.00 20.00     0.094 C 
HETATM    2  C2  UNL     1     -31.015   8.326   3.547  1.00 20.00     0.059 C 
HETATM    3  C6  UNL     1     -32.443   8.258   3.025  1.00 20.00     0.322 C 
HETATM    4  N9  UNL     1     -32.584   9.118   0.544  1.00 20.00    -0.195 NA
ENDROOT
BRANCH   3   5
HETATM    5  N10 UNL     1     -32.959   6.895   3.110  1.00 20.00     0.105 N 
HETATM    6  H26 UNL     1     -32.205   6.275   3.415  1.00 20.00     0.318 HD
BRANCH   5   7
HETATM    7  C8  UNL     1     -34.066   6.811   4.041  1.00 20.00     0.221 C 
HETATM    8  C5  UNL     1     -33.636   7.405   5.380  1.00 20.00     0.043 C 
BRANCH   7   9
HETATM    9  C7  UNL     1     -34.578   5.356   4.159  1.00 20.00     0.010 C 
HETATM   10  C3  UNL     1     -33.759   4.341   3.357  1.00 20.00     0.011 C 
HETATM   11  C4  UNL     1     -34.658   4.914   5.625  1.00 20.00     0.011 C 
ENDBRANCH   7   9
ENDBRANCH   5   7
ENDBRANCH   3   5
TORSDOF 3
ENDMDL
MODEL 3
REMARK VINA RESULT:      -4.8      1.140      1.750
REMARK  3 active torsions:
REMARK  status: ('A' for Active; 'I' for Inactive)
REMARK    1  A    between atoms: C6_6  and  N10_10 
REMARK    2  A    between atoms: C7_7  and  C8_8 
REMARK    3  A    between atoms: C8_8  and  N10_10 
ROOT
HETATM    1  C1  UNL     1     -31.614   8.361   3.265  1.00 20.00     0.094 C 
HETATM    2  C2  UNL     1     -32.621   9.071   1.130  1.00 20.00     0.059 C 
HETATM    3  C6  UNL     1     -32.314   7.905   2.058  1.00 20.00     0.322 C 
HETATM    4  N9  UNL     1     -31.056   8.721   4.218  1.00 20.00    -0.195 NA
ENDROOT
BRANCH   3   5
HETATM    5  N10 UNL     1     -33.541   7.206   2.431  1.00 20.00     0.105 N 
HETATM    6  H26 UNL     1     -33.964   6.809   1.589  1.00 20.00     0.318 HD
BRANCH   5   7
HETATM    7  C8  UNL     1     -33.274   6.150   3.387  1.00 20.00     0.221 C 
HETATM    8  C5  UNL     1     -33.149   4.824   2.641  1.00 20.00     0.043 C 
BRANCH   7   9
HETATM    9  C7  UNL     1     -34.354   6.123   4.494  1.00 20.00     0.010 C 
HETATM   10  C3  UNL     1     -34.685   4.717   5.005  1.00 20.00     0.011 C 
HETATM   11  C4  UNL     1     -33.963   7.023   5.672  1.00 20.00     0.011 C 
ENDBRANCH   7   9
ENDBRANCH   5   7
ENDBRANCH   3   5
TORSDOF 3
ENDMDL
MODEL 4
REMARK VINA RESULT:      -4.7      1.518      4.633
REMARK  3 active torsions:
REMARK  status: ('A' for Active; 'I' for Inactive)
REMARK    1  A    between atoms: C6_6  and  N10_10 
REMARK    2  A    between atoms: C7_7  and  C8_8 
REMARK    3  A    between atoms: C8_8  and  N10_10 
ROOT
HETATM    1  C1  UNL     1     -34.437   5.671   4.584  1.00 20.00     0.094 C 
HETATM    2  C2  UNL     1     -33.029   5.288   2.596  1.00 20.00     0.059 C 
HETATM    3  C6  UNL     1     -34.110   6.148   3.234  1.00 20.00     0.322 C 
HETATM    4  N9  UNL     1     -34.698   5.291   5.649  1.00 20.00    -0.195 NA
ENDROOT
BRANCH   3   5
HETATM    5  N10 UNL     1     -33.691   7.546   3.290  1.00 20.00     0.105 N 
HETATM    6  H26 UNL     1     -33.617   7.829   4.270  1.00 20.00     0.318 HD
BRANCH   5   7
HETATM    7  C8  UNL     1     -32.416   7.738   2.630  1.00 20.00     0.221 C 
HETATM    8  C5  UNL     1     -31.409   8.279   3.642  1.00 20.00     0.043 C 
BRANCH   7   9
HETATM    9  C7  UNL     1     -32.570   8.642   1.385  1.00 20.00     0.010 C 
HETATM   10  C3  UNL     1     -32.884  10.105   1.714  1.00 20.00     0.011 C 
HETATM   11  C4  UNL     1     -31.328   8.568   0.488  1.00 20.00     0.011 C 
ENDBRANCH   7   9
ENDBRANCH   5   7
ENDBRANCH   3   5
TORSDOF 3
ENDMDL
MODEL 5
REMARK VINA RESULT:      -4.4      1.421      4.470
REMARK  3 active torsions:
REMARK  status: ('A' for Active; 'I' for Inactive)
REMARK    1  A    between atoms: C6_6  and  N10_10 
REMARK    2  A    between atoms: C7_7  and  C8_8 
REMARK    3  A    between atoms: C8_8  and  N10_10 
ROOT
HETATM    1  C1  UNL     1     -33.139   5.570   2.934  1.00 20.00     0.094 C 
HETATM    2  C2  UNL     1     -34.240   7.169   4.454  1.00 20.00     0.059 C 
HETATM    3  C6  UNL     1     -33.145   6.957   3.419  1.00 20.00     0.322 C 
HETATM    4  N9  UNL     1     -33.132   4.474   2.554  1.00 20.00    -0.195 NA
ENDROOT
BRANCH   3   5
HETATM    5  N10 UNL     1     -33.313   7.874   2.295  1.00 20.00     0.105 N 
HETATM    6  H26 UNL     1     -33.877   8.670   2.600  1.00 20.00     0.318 HD
BRANCH   5   7
HETATM    7  C8  UNL     1     -32.032   8.343   1.805  1.00 20.00     0.221 C 
HETATM    8  C5  UNL     1     -31.129   8.654   2.996  1.00 20.00     0.043 C 
BRANCH   7   9
HETATM    9  C7  UNL     1     -32.213   9.546   0.851  1.00 20.00     0.010 C 
HETATM   10  C3  UNL     1     -33.026   9.226  -0.407  1.00 20.00     0.011 C 
HETATM   11  C4  UNL     1     -32.837  10.743   1.580  1.00 20.00     0.011 C 
ENDBRANCH   7   9
ENDBRANCH   5   7
ENDBRANCH   3   5
TORSDOF 3
ENDMDL
MODEL 6
REMARK VINA RESULT:      -4.0     10.931     11.918
REMARK  3 active torsions:
REMARK  status: ('A' for Active; 'I' for Inactive)
REMARK    1  A    between atoms: C6_6  and  N10_10 
REMARK    2  A    between atoms: C7_7  and  C8_8 
REMARK    3  A    between atoms: C8_8  and  N10_10 
ROOT
HETATM    1  C1  UNL     1     -35.849  13.885  -4.904  1.00 20.00     0.094 C 
HETATM    2  C2  UNL     1     -36.572  16.204  -5.331  1.00 20.00     0.059 C 
HETATM    3  C6  UNL     1     -35.859  15.256  -4.377  1.00 20.00     0.322 C 
HETATM    4  N9  UNL     1     -35.846  12.801  -5.318  1.00 20.00    -0.195 NA
ENDROOT
BRANCH   3   5
HETATM    5  N10 UNL     1     -34.490  15.703  -4.133  1.00 20.00     0.105 N 
HETATM    6  H26 UNL     1     -33.994  15.750  -5.026  1.00 20.00     0.318 HD
BRANCH   5   7
HETATM    7  C8  UNL     1     -34.469  17.004  -3.494  1.00 20.00     0.221 C 
HETATM    8  C5  UNL     1     -33.513  17.917  -4.258  1.00 20.00     0.043 C 
BRANCH   7   9
HETATM    9  C7  UNL     1     -34.116  16.876  -1.994  1.00 20.00     0.010 C 
HETATM   10  C3  UNL     1     -33.017  17.836  -1.530  1.00 20.00     0.011 C 
HETATM   11  C4  UNL     1     -35.360  17.049  -1.115  1.00 20.00     0.011 C 
ENDBRANCH   7   9
ENDBRANCH   5   7
ENDBRANCH   3   5
TORSDOF 3
ENDMDL
MODEL 7
REMARK VINA RESULT:      -4.0     11.031     12.003
REMARK  3 active torsions:
REMARK  status: ('A' for Active; 'I' for Inactive)
REMARK    1  A    between atoms: C6_6  and  N10_10 
REMARK    2  A    between atoms: C7_7  and  C8_8 
REMARK    3  A    between atoms: C8_8  and  N10_10 
ROOT
HETATM    1  C1  UNL     1     -35.317  13.893  -5.415  1.00 20.00     0.094 C 
HETATM    2  C2  UNL     1     -33.897  15.141  -6.998  1.00 20.00     0.059 C 
HETATM    3  C6  UNL     1     -34.676  15.185  -5.691  1.00 20.00     0.322 C 
HETATM    4  N9  UNL     1     -35.827  12.873  -5.199  1.00 20.00    -0.195 NA
ENDROOT
BRANCH   3   5
HETATM    5  N10 UNL     1     -33.800  15.552  -4.581  1.00 20.00     0.105 N 
HETATM    6  H26 UNL     1     -32.855  15.697  -4.941  1.00 20.00     0.318 HD
BRANCH   5   7
HETATM    7  C8  UNL     1     -34.264  16.758  -3.925  1.00 20.00     0.221 C 
HETATM    8  C5  UNL     1     -33.525  17.958  -4.512  1.00 20.00     0.043 C 
BRANCH   7   9
HETATM    9  C7  UNL     1     -34.110  16.644  -2.390  1.00 20.00     0.010 C 
HETATM   10  C3  UNL     1     -33.105  17.632  -1.791  1.00 20.00     0.011 C 
HETATM   11  C4  UNL     1     -35.464  16.790  -1.685  1.00 20.00     0.011 C 
ENDBRANCH   7   9
ENDBRANCH   5   7
ENDBRANCH   3   5
TORSDOF 3
ENDMDL
MODEL 8
REMARK VINA RESULT:      -4.0     10.922     11.667
REMARK  3 active torsions:
REMARK  status: ('A' for Active; 'I' for Inactive)
REMARK    1  A    between atoms: C6_6  and  N10_10 
REMARK    2  A    between atoms: C7_7  and  C8_8 
REMARK    3  A    between atoms: C8_8  and  N10_10 
ROOT
HETATM    1  C1  UNL     1     -35.386  13.912  -5.181  1.00 20.00     0.094 C 
HETATM    2  C2  UNL     1     -33.635  15.362  -6.135  1.00 20.00     0.059 C 
HETATM    3  C6  UNL     1     -34.761  15.239  -5.118  1.00 20.00     0.322 C 
HETATM    4  N9  UNL     1     -35.882  12.864  -5.233  1.00 20.00    -0.195 NA
ENDROOT
BRANCH   3   5
HETATM    5  N10 UNL     1     -34.267  15.492  -3.768  1.00 20.00     0.105 N 
HETATM    6  H26 UNL     1     -33.375  15.989  -3.830  1.00 20.00     0.318 HD
BRANCH   5   7
HETATM    7  C8  UNL     1     -35.212  16.280  -3.002  1.00 20.00     0.221 C 
HETATM    8  C5  UNL     1     -35.690  17.451  -3.858  1.00 20.00     0.043 C 
BRANCH   7   9
HETATM    9  C7  UNL     1     -34.595  16.727  -1.656  1.00 20.00     0.010 C 
HETATM   10  C3  UNL     1     -33.342  17.595  -1.803  1.00 20.00     0.011 C 
HETATM   11  C4  UNL     1     -35.628  17.452  -0.786  1.00 20.00     0.011 C 
ENDBRANCH   7   9
ENDBRANCH   5   7
ENDBRANCH   3   5
TORSDOF 3
ENDMDL
MODEL 9
REMARK VINA RESULT:      -4.0     10.709     11.916
REMARK  3 active torsions:
REMARK  status: ('A' for Active; 'I' for Inactive)
REMARK    1  A    between atoms: C6_6  and  N10_10 
REMARK    2  A    between atoms: C7_7  and  C8_8 
REMARK    3  A    between atoms: C8_8  and  N10_10 
ROOT
HETATM    1  C1  UNL     1     -36.348  13.790  -5.011  1.00 20.00     0.094 C 
HETATM    2  C2  UNL     1     -38.035  15.524  -5.491  1.00 20.00     0.059 C 
HETATM    3  C6  UNL     1     -36.932  15.057  -4.551  1.00 20.00     0.322 C 
HETATM    4  N9  UNL     1     -35.889  12.788  -5.372  1.00 20.00    -0.195 NA
ENDROOT
BRANCH   3   5
HETATM    5  N10 UNL     1     -35.889  16.072  -4.436  1.00 20.00     0.105 N 
HETATM    6  H26 UNL     1     -36.320  16.959  -4.168  1.00 20.00     0.318 HD
BRANCH   5   7
HETATM    7  C8  UNL     1     -34.896  15.694  -3.450  1.00 20.00     0.221 C 
HETATM    8  C5  UNL     1     -35.080  16.558  -2.204  1.00 20.00     0.043 C 
BRANCH   7   9
HETATM    9  C7  UNL     1     -33.470  15.779  -4.042  1.00 20.00     0.010 C 
HETATM   10  C3  UNL     1     -32.812  14.417  -4.278  1.00 20.00     0.011 C 
HETATM   11  C4  UNL     1     -33.457  16.592  -5.343  1.00 20.00     0.011 C 
ENDBRANCH   7   9
ENDBRANCH   5   7
ENDBRANCH   3   5
TORSDOF 3
ENDMDL
