MODEL 1
REMARK VINA RESULT:      -5.8      0.000      0.000
REMARK  5 active torsions:
REMARK  status: ('A' for Active; 'I' for Inactive)
REMARK    1  A    between atoms: C5_5  and  N10_10 
REMARK    2  A    between atoms: C6_6  and  C7_7 
REMARK    3  A    between atoms: C6_6  and  C8_8 
REMARK    4  A    between atoms: C7_7  and  C9_9 
REMARK    5  A    between atoms: C8_8  and  N10_10 
ROOT
HETATM    1  C1  UNL     1     -33.236   9.446  -0.640  1.00 20.00     0.013 C 
HETATM    2  C2  UNL     1     -32.726   9.445   0.447  1.00 20.00    -0.087 C 
HETATM    3  C5  UNL     1     -32.103   9.448   1.773  1.00 20.00     0.362 C 
ENDROOT
BRANCH   3   4
HETATM    4  N10 UNL     1     -31.699   8.094   2.159  1.00 20.00     0.094 N 
HETATM    5  H27 UNL     1     -30.712   8.120   2.438  1.00 20.00     0.317 HD
BRANCH   4   6
HETATM    6  C8  UNL     1     -32.507   7.586   3.233  1.00 20.00     0.270 C 
BRANCH   6   7
HETATM    7  C6  UNL     1     -33.200   6.275   2.869  1.00 20.00     0.030 C 
BRANCH   7   8
HETATM    8  C7  UNL     1     -34.665   6.242   3.322  1.00 20.00     0.005 C 
BRANCH   8   9
HETATM    9  C9  UNL     1     -34.897   5.380   4.578  1.00 20.00    -0.023 C 
HETATM   10  C3  UNL     1     -34.176   4.038   4.425  1.00 20.00     0.009 C 
HETATM   11  C4  UNL     1     -34.429   6.074   5.857  1.00 20.00     0.009 C 
ENDBRANCH   8   9
ENDBRANCH   7   8
ENDBRANCH   6   7
ENDBRANCH   4   6
ENDBRANCH   3   4
TORSDOF 5
ENDMDL
MODEL 2
REMARK VINA RESULT:      -5.7      1.442      5.384
REMARK  5 active torsions:
REMARK  status: ('A' for Active; 'I' for Inactive)
REMARK    1  A    between atoms: C5_5  and  N10_10 
REMARK    2  A    between atoms: C6_6  and  C7_7 
REMARK    3  A    between atoms: C6_6  and  C8_8 
REMARK    4  A    between atoms: C7_7  and  C9_9 
REMARK    5  A    between atoms: C8_8  and  N10_10 
ROOT
HETATM    1  C1  UNL     1     -34.664   4.771   5.117  1.00 20.00     0.013 C 
HETATM    2  C2  UNL     1     -34.328   5.888   5.402  1.00 20.00    -0.087 C 
HETATM    3  C5  UNL     1     -33.922   7.251   5.751  1.00 20.00     0.362 C 
ENDROOT
BRANCH   3   4
HETATM    4  N10 UNL     1     -32.685   7.617   5.057  1.00 20.00     0.094 N 
HETATM    5  H27 UNL     1     -31.951   6.958   5.340  1.00 20.00     0.317 HD
BRANCH   4   6
HETATM    6  C8  UNL     1     -32.853   7.594   3.630  1.00 20.00     0.270 C 
BRANCH   6   7
HETATM    7  C6  UNL     1     -31.818   8.455   2.910  1.00 20.00     0.030 C 
BRANCH   7   8
HETATM    8  C7  UNL     1     -31.883   8.296   1.385  1.00 20.00     0.005 C 
BRANCH   8   9
HETATM    9  C9  UNL     1     -32.181   9.614   0.646  1.00 20.00    -0.023 C 
HETATM   10  C3  UNL     1     -33.141   9.351  -0.517  1.00 20.00     0.009 C 
HETATM   11  C4  UNL     1     -32.770  10.681   1.569  1.00 20.00     0.009 C 
ENDBRANCH   8   9
ENDBRANCH   7   8
ENDBRANCH   6   7
ENDBRANCH   4   6
ENDBRANCH   3   4
TORSDOF 5
ENDMDL
MODEL 3
REMARK VINA RESULT:      -5.7      1.132      5.301
REMARK  5 active torsions:
REMARK  status: ('A' for Active; 'I' for Inactive)
REMARK    1  A    between atoms: C5_5  and  N10_10 
REMARK    2  A    between atoms: C6_6  and  C7_7 
REMARK    3  A    between atoms: C6_6  and  C8_8 
REMARK    4  A    between atoms: C7_7  and  C9_9 
REMARK    5  A    between atoms: C8_8  and  N10_10 
ROOT
HETATM    1  C1  UNL     1     -34.602   5.005   5.632  1.00 20.00     0.013 C 
HETATM    2  C2  UNL     1     -34.563   5.474   4.527  1.00 20.00    -0.087 C 
HETATM    3  C5  UNL     1     -34.520   6.045   3.179  1.00 20.00     0.362 C 
ENDROOT
BRANCH   3   4
HETATM    4  N10 UNL     1     -33.154   6.437   2.827  1.00 20.00     0.094 N 
HETATM    5  H27 UNL     1     -33.150   6.747   1.849  1.00 20.00     0.317 HD
BRANCH   4   6
HETATM    6  C8  UNL     1     -32.665   7.483   3.683  1.00 20.00     0.270 C 
BRANCH   6   7
HETATM    7  C6  UNL     1     -31.804   8.495   2.931  1.00 20.00     0.030 C 
BRANCH   7   8
HETATM    8  C7  UNL     1     -31.866   8.301   1.411  1.00 20.00     0.005 C 
BRANCH   8   9
HETATM    9  C9  UNL     1     -32.166   9.601   0.641  1.00 20.00    -0.023 C 
HETATM   10  C3  UNL     1     -33.139   9.312  -0.506  1.00 20.00     0.009 C 
HETATM   11  C4  UNL     1     -32.742  10.693   1.542  1.00 20.00     0.009 C 
ENDBRANCH   8   9
ENDBRANCH   7   8
ENDBRANCH   6   7
ENDBRANCH   4   6
ENDBRANCH   3   4
TORSDOF 5
ENDMDL
MODEL 4
REMARK VINA RESULT:      -5.6      1.446      5.403
REMARK  5 active torsions:
REMARK  status: ('A' for Active; 'I' for Inactive)
REMARK    1  A    between atoms: C5_5  and  N10_10 
REMARK    2  A    between atoms: C6_6  and  C7_7 
REMARK    3  A    between atoms: C6_6  and  C8_8 
REMARK    4  A    between atoms: C7_7  and  C9_9 
REMARK    5  A    between atoms: C8_8  and  N10_10 
ROOT
HETATM    1  C1  UNL     1     -34.599   4.644   4.614  1.00 20.00     0.013 C 
HETATM    2  C2  UNL     1     -34.347   5.691   5.144  1.00 20.00    -0.087 C 
HETATM    3  C5  UNL     1     -34.044   6.969   5.793  1.00 20.00     0.362 C 
ENDROOT
BRANCH   3   4
HETATM    4  N10 UNL     1     -32.844   7.574   5.209  1.00 20.00     0.094 N 
HETATM    5  H27 UNL     1     -32.023   7.092   5.590  1.00 20.00     0.317 HD
BRANCH   4   6
HETATM    6  C8  UNL     1     -32.852   7.487   3.774  1.00 20.00     0.270 C 
BRANCH   6   7
HETATM    7  C6  UNL     1     -31.737   8.311   3.136  1.00 20.00     0.030 C 
BRANCH   7   8
HETATM    8  C7  UNL     1     -31.846   8.360   1.607  1.00 20.00     0.005 C 
BRANCH   8   9
HETATM    9  C9  UNL     1     -32.867   9.396   1.100  1.00 20.00    -0.023 C 
HETATM   10  C3  UNL     1     -32.397  10.807   1.464  1.00 20.00     0.009 C 
HETATM   11  C4  UNL     1     -33.094   9.302  -0.409  1.00 20.00     0.009 C 
ENDBRANCH   8   9
ENDBRANCH   7   8
ENDBRANCH   6   7
ENDBRANCH   4   6
ENDBRANCH   3   4
TORSDOF 5
ENDMDL
MODEL 5
REMARK VINA RESULT:      -5.4      2.022      5.041
REMARK  5 active torsions:
REMARK  status: ('A' for Active; 'I' for Inactive)
REMARK    1  A    between atoms: C5_5  and  N10_10 
REMARK    2  A    between atoms: C6_6  and  C7_7 
REMARK    3  A    between atoms: C6_6  and  C8_8 
REMARK    4  A    between atoms: C7_7  and  C9_9 
REMARK    5  A    between atoms: C8_8  and  N10_10 
ROOT
HETATM    1  C1  UNL     1     -33.708   7.537   6.062  1.00 20.00     0.013 C 
HETATM    2  C2  UNL     1     -34.129   6.416   5.978  1.00 20.00    -0.087 C 
HETATM    3  C5  UNL     1     -34.641   5.047   5.879  1.00 20.00     0.362 C 
ENDROOT
BRANCH   3   4
HETATM    4  N10 UNL     1     -35.094   4.761   4.516  1.00 20.00     0.094 N 
HETATM    5  H27 UNL     1     -35.754   5.495   4.236  1.00 20.00     0.317 HD
BRANCH   4   6
HETATM    6  C8  UNL     1     -33.994   4.701   3.594  1.00 20.00     0.270 C 
BRANCH   6   7
HETATM    7  C6  UNL     1     -33.964   5.898   2.647  1.00 20.00     0.030 C 
BRANCH   7   8
HETATM    8  C7  UNL     1     -32.554   6.482   2.485  1.00 20.00     0.005 C 
BRANCH   8   9
HETATM    9  C9  UNL     1     -32.504   8.012   2.651  1.00 20.00    -0.023 C 
HETATM   10  C3  UNL     1     -31.342   8.396   3.571  1.00 20.00     0.009 C 
HETATM   11  C4  UNL     1     -32.365   8.740   1.314  1.00 20.00     0.009 C 
ENDBRANCH   8   9
ENDBRANCH   7   8
ENDBRANCH   6   7
ENDBRANCH   4   6
ENDBRANCH   3   4
TORSDOF 5
ENDMDL
MODEL 6
REMARK VINA RESULT:      -5.3      1.008      1.432
REMARK  5 active torsions:
REMARK  status: ('A' for Active; 'I' for Inactive)
REMARK    1  A    between atoms: C5_5  and  N10_10 
REMARK    2  A    between atoms: C6_6  and  C7_7 
REMARK    3  A    between atoms: C6_6  and  C8_8 
REMARK    4  A    between atoms: C7_7  and  C9_9 
REMARK    5  A    between atoms: C8_8  and  N10_10 
ROOT
HETATM    1  C1  UNL     1     -33.023   9.901  -0.344  1.00 20.00     0.013 C 
HETATM    2  C2  UNL     1     -32.500   9.408   0.618  1.00 20.00    -0.087 C 
HETATM    3  C5  UNL     1     -31.859   8.808   1.790  1.00 20.00     0.362 C 
ENDROOT
BRANCH   3   4
HETATM    4  N10 UNL     1     -32.836   8.071   2.595  1.00 20.00     0.094 N 
HETATM    5  H27 UNL     1     -33.772   8.271   2.226  1.00 20.00     0.317 HD
BRANCH   4   6
HETATM    6  C8  UNL     1     -32.582   6.657   2.573  1.00 20.00     0.270 C 
BRANCH   6   7
HETATM    7  C6  UNL     1     -33.866   5.835   2.651  1.00 20.00     0.030 C 
BRANCH   7   8
HETATM    8  C7  UNL     1     -34.725   6.204   3.868  1.00 20.00     0.005 C 
BRANCH   8   9
HETATM    9  C9  UNL     1     -34.026   5.934   5.214  1.00 20.00    -0.023 C 
HETATM   10  C3  UNL     1     -33.891   7.241   6.000  1.00 20.00     0.009 C 
HETATM   11  C4  UNL     1     -34.767   4.898   6.059  1.00 20.00     0.009 C 
ENDBRANCH   8   9
ENDBRANCH   7   8
ENDBRANCH   6   7
ENDBRANCH   4   6
ENDBRANCH   3   4
TORSDOF 5
ENDMDL
MODEL 7
REMARK VINA RESULT:      -4.7      0.747      1.221
REMARK  5 active torsions:
REMARK  status: ('A' for Active; 'I' for Inactive)
REMARK    1  A    between atoms: C5_5  and  N10_10 
REMARK    2  A    between atoms: C6_6  and  C7_7 
REMARK    3  A    between atoms: C6_6  and  C8_8 
REMARK    4  A    between atoms: C7_7  and  C9_9 
REMARK    5  A    between atoms: C8_8  and  N10_10 
ROOT
HETATM    1  C1  UNL     1     -33.243   9.478  -0.733  1.00 20.00     0.013 C 
HETATM    2  C2  UNL     1     -32.833   9.525   0.395  1.00 20.00    -0.087 C 
HETATM    3  C5  UNL     1     -32.336   9.586   1.771  1.00 20.00     0.362 C 
ENDROOT
BRANCH   3   4
HETATM    4  N10 UNL     1     -31.497   8.423   2.071  1.00 20.00     0.094 N 
HETATM    5  H27 UNL     1     -30.514   8.706   1.989  1.00 20.00     0.317 HD
BRANCH   4   6
HETATM    6  C8  UNL     1     -31.759   7.906   3.386  1.00 20.00     0.270 C 
BRANCH   6   7
HETATM    7  C6  UNL     1     -33.193   7.405   3.538  1.00 20.00     0.030 C 
BRANCH   7   8
HETATM    8  C7  UNL     1     -33.305   5.886   3.357  1.00 20.00     0.005 C 
BRANCH   8   9
HETATM    9  C9  UNL     1     -34.536   5.276   4.055  1.00 20.00    -0.023 C 
HETATM   10  C3  UNL     1     -34.353   5.338   5.574  1.00 20.00     0.009 C 
HETATM   11  C4  UNL     1     -35.836   5.978   3.664  1.00 20.00     0.009 C 
ENDBRANCH   8   9
ENDBRANCH   7   8
ENDBRANCH   6   7
ENDBRANCH   4   6
ENDBRANCH   3   4
TORSDOF 5
ENDMDL
MODEL 8
REMARK VINA RESULT:      -4.4      1.616      2.535
REMARK  5 active torsions:
REMARK  status: ('A' for Active; 'I' for Inactive)
REMARK    1  A    between atoms: C5_5  and  N10_10 
REMARK    2  A    between atoms: C6_6  and  C7_7 
REMARK    3  A    between atoms: C6_6  and  C8_8 
REMARK    4  A    between atoms: C7_7  and  C9_9 
REMARK    5  A    between atoms: C8_8  and  N10_10 
ROOT
HETATM    1  C1  UNL     1     -31.689   8.412   1.522  1.00 20.00     0.013 C 
HETATM    2  C2  UNL     1     -31.804   8.264   2.708  1.00 20.00    -0.087 C 
HETATM    3  C5  UNL     1     -31.940   8.083   4.155  1.00 20.00     0.362 C 
ENDROOT
BRANCH   3   4
HETATM    4  N10 UNL     1     -33.350   7.962   4.532  1.00 20.00     0.094 N 
HETATM    5  H27 UNL     1     -33.829   7.410   3.811  1.00 20.00     0.317 HD
BRANCH   4   6
HETATM    6  C8  UNL     1     -33.504   7.341   5.819  1.00 20.00     0.270 C 
BRANCH   6   7
HETATM    7  C6  UNL     1     -34.447   6.142   5.777  1.00 20.00     0.030 C 
BRANCH   7   8
HETATM    8  C7  UNL     1     -34.971   5.858   4.363  1.00 20.00     0.005 C 
BRANCH   8   9
HETATM    9  C9  UNL     1     -34.364   4.591   3.730  1.00 20.00    -0.023 C 
HETATM   10  C3  UNL     1     -33.309   4.985   2.692  1.00 20.00     0.009 C 
HETATM   11  C4  UNL     1     -33.740   3.660   4.771  1.00 20.00     0.009 C 
ENDBRANCH   8   9
ENDBRANCH   7   8
ENDBRANCH   6   7
ENDBRANCH   4   6
ENDBRANCH   3   4
TORSDOF 5
ENDMDL
MODEL 9
REMARK VINA RESULT:      -4.4      2.080      4.723
REMARK  5 active torsions:
REMARK  status: ('A' for Active; 'I' for Inactive)
REMARK    1  A    between atoms: C5_5  and  N10_10 
REMARK    2  A    between atoms: C6_6  and  C7_7 
REMARK    3  A    between atoms: C6_6  and  C8_8 
REMARK    4  A    between atoms: C7_7  and  C9_9 
REMARK    5  A    between atoms: C8_8  and  N10_10 
ROOT
HETATM    1  C1  UNL     1     -32.984   4.391   2.528  1.00 20.00     0.013 C 
HETATM    2  C2  UNL     1     -33.716   4.358   3.479  1.00 20.00    -0.087 C 
HETATM    3  C5  UNL     1     -34.609   4.314   4.639  1.00 20.00     0.362 C 
ENDROOT
BRANCH   3   4
HETATM    4  N10 UNL     1     -35.030   5.664   5.021  1.00 20.00     0.094 N 
HETATM    5  H27 UNL     1     -35.900   5.589   5.560  1.00 20.00     0.317 HD
BRANCH   4   6
HETATM    6  C8  UNL     1     -34.021   6.334   5.794  1.00 20.00     0.270 C 
BRANCH   6   7
HETATM    7  C6  UNL     1     -33.655   7.698   5.213  1.00 20.00     0.030 C 
BRANCH   7   8
HETATM    8  C7  UNL     1     -33.755   7.729   3.683  1.00 20.00     0.005 C 
BRANCH   8   9
HETATM    9  C9  UNL     1     -32.384   7.740   2.981  1.00 20.00    -0.023 C 
HETATM   10  C3  UNL     1     -32.486   8.500   1.656  1.00 20.00     0.009 C 
HETATM   11  C4  UNL     1     -31.289   8.361   3.849  1.00 20.00     0.009 C 
ENDBRANCH   8   9
ENDBRANCH   7   8
ENDBRANCH   6   7
ENDBRANCH   4   6
ENDBRANCH   3   4
TORSDOF 5
ENDMDL
