MODEL 1
REMARK VINA RESULT:      -4.0      0.000      0.000
REMARK  3 active torsions:
REMARK  status: ('A' for Active; 'I' for Inactive)
REMARK    1  A    between atoms: C3_3  and  C5_5 
REMARK    2  A    between atoms: C5_5  and  C6_6 
REMARK    3  A    between atoms: C6_6  and  S9_9 
ROOT
HETATM    1  C1  UNL     1     -33.993   6.701   5.751  1.00 20.00     0.281 C 
HETATM    2  C2  UNL     1     -34.534   5.280   5.751  1.00 20.00     0.106 C 
HETATM    3  C3  UNL     1     -34.055   6.387   3.408  1.00 20.00     0.282 C 
HETATM    4  N7  UNL     1     -34.376   7.338   4.483  1.00 20.00     0.098 N 
HETATM    5  S8  UNL     1     -34.232   4.702   4.068  1.00 20.00    -0.132 SA
HETATM    6  H22 UNL     1     -35.369   7.557   4.478  1.00 20.00     0.317 HD
ENDROOT
BRANCH   3   7
HETATM    7  C5  UNL     1     -32.638   6.610   2.888  1.00 20.00     0.056 C 
BRANCH   7   8
HETATM    8  C6  UNL     1     -32.291   8.095   2.855  1.00 20.00     0.076 C 
BRANCH   8   9
HETATM    9  S9  UNL     1     -31.868   8.615   1.168  1.00 20.00    -0.173 SA
HETATM   10  C4  UNL     1     -32.725  10.207   1.162  1.00 20.00     0.089 C 
ENDBRANCH   8   9
ENDBRANCH   7   8
ENDBRANCH   3   7
TORSDOF 3
ENDMDL
MODEL 2
REMARK VINA RESULT:      -3.9      1.688      1.880
REMARK  3 active torsions:
REMARK  status: ('A' for Active; 'I' for Inactive)
REMARK    1  A    between atoms: C3_3  and  C5_5 
REMARK    2  A    between atoms: C5_5  and  C6_6 
REMARK    3  A    between atoms: C6_6  and  S9_9 
ROOT
HETATM    1  C1  UNL     1     -34.771   5.466   3.905  1.00 20.00     0.281 C 
HETATM    2  C2  UNL     1     -34.579   5.858   5.361  1.00 20.00     0.106 C 
HETATM    3  C3  UNL     1     -32.907   6.891   3.606  1.00 20.00     0.282 C 
HETATM    4  N7  UNL     1     -33.475   5.589   3.223  1.00 20.00     0.098 N 
HETATM    5  S8  UNL     1     -33.484   7.291   5.283  1.00 20.00    -0.132 SA
HETATM    6  H22 UNL     1     -32.851   4.835   3.500  1.00 20.00     0.317 HD
ENDROOT
BRANCH   3   7
HETATM    7  C5  UNL     1     -33.328   7.980   2.623  1.00 20.00     0.056 C 
BRANCH   7   8
HETATM    8  C6  UNL     1     -32.117   8.591   1.927  1.00 20.00     0.076 C 
BRANCH   8   9
HETATM    9  S9  UNL     1     -32.583  10.115   1.057  1.00 20.00    -0.173 SA
HETATM   10  C4  UNL     1     -33.113   9.374  -0.505  1.00 20.00     0.089 C 
ENDBRANCH   8   9
ENDBRANCH   7   8
ENDBRANCH   3   7
TORSDOF 3
ENDMDL
MODEL 3
REMARK VINA RESULT:      -3.5     11.087     11.781
REMARK  3 active torsions:
REMARK  status: ('A' for Active; 'I' for Inactive)
REMARK    1  A    between atoms: C3_3  and  C5_5 
REMARK    2  A    between atoms: C5_5  and  C6_6 
REMARK    3  A    between atoms: C6_6  and  S9_9 
ROOT
HETATM    1  C1  UNL     1     -34.050  14.341  -6.596  1.00 20.00     0.281 C 
HETATM    2  C2  UNL     1     -35.287  13.487  -6.824  1.00 20.00     0.106 C 
HETATM    3  C3  UNL     1     -34.695  14.108  -4.332  1.00 20.00     0.282 C 
HETATM    4  N7  UNL     1     -33.542  14.060  -5.245  1.00 20.00     0.098 N 
HETATM    5  S8  UNL     1     -36.171  13.577  -5.253  1.00 20.00    -0.132 SA
HETATM    6  H22 UNL     1     -33.101  13.145  -5.212  1.00 20.00     0.317 HD
ENDROOT
BRANCH   3   7
HETATM    7  C5  UNL     1     -34.891  15.515  -3.775  1.00 20.00     0.056 C 
BRANCH   7   8
HETATM    8  C6  UNL     1     -33.551  16.187  -3.492  1.00 20.00     0.076 C 
BRANCH   8   9
HETATM    9  S9  UNL     1     -33.667  17.247  -2.023  1.00 20.00    -0.173 SA
HETATM   10  C4  UNL     1     -35.361  16.840  -1.539  1.00 20.00     0.089 C 
ENDBRANCH   8   9
ENDBRANCH   7   8
ENDBRANCH   3   7
TORSDOF 3
ENDMDL
MODEL 4
REMARK VINA RESULT:      -3.5     11.100     11.839
REMARK  3 active torsions:
REMARK  status: ('A' for Active; 'I' for Inactive)
REMARK    1  A    between atoms: C3_3  and  C5_5 
REMARK    2  A    between atoms: C5_5  and  C6_6 
REMARK    3  A    between atoms: C6_6  and  S9_9 
ROOT
HETATM    1  C1  UNL     1     -34.118  14.431  -6.582  1.00 20.00     0.281 C 
HETATM    2  C2  UNL     1     -35.554  13.934  -6.648  1.00 20.00     0.106 C 
HETATM    3  C3  UNL     1     -34.476  14.189  -4.256  1.00 20.00     0.282 C 
HETATM    4  N7  UNL     1     -33.515  13.926  -5.340  1.00 20.00     0.098 N 
HETATM    5  S8  UNL     1     -36.153  14.118  -4.955  1.00 20.00    -0.132 SA
HETATM    6  H22 UNL     1     -33.326  12.930  -5.412  1.00 20.00     0.317 HD
ENDROOT
BRANCH   3   7
HETATM    7  C5  UNL     1     -34.220  15.551  -3.620  1.00 20.00     0.056 C 
BRANCH   7   8
HETATM    8  C6  UNL     1     -35.521  16.186  -3.136  1.00 20.00     0.076 C 
BRANCH   8   9
HETATM    9  S9  UNL     1     -35.288  16.959  -1.511  1.00 20.00    -0.173 SA
HETATM   10  C4  UNL     1     -33.547  17.416  -1.684  1.00 20.00     0.089 C 
ENDBRANCH   8   9
ENDBRANCH   7   8
ENDBRANCH   3   7
TORSDOF 3
ENDMDL
MODEL 5
REMARK VINA RESULT:      -3.4     11.108     12.120
REMARK  3 active torsions:
REMARK  status: ('A' for Active; 'I' for Inactive)
REMARK    1  A    between atoms: C3_3  and  C5_5 
REMARK    2  A    between atoms: C5_5  and  C6_6 
REMARK    3  A    between atoms: C6_6  and  S9_9 
ROOT
HETATM    1  C1  UNL     1     -36.529  13.830  -5.401  1.00 20.00     0.281 C 
HETATM    2  C2  UNL     1     -37.131  14.929  -4.539  1.00 20.00     0.106 C 
HETATM    3  C3  UNL     1     -34.590  14.349  -4.150  1.00 20.00     0.282 C 
HETATM    4  N7  UNL     1     -35.403  13.237  -4.666  1.00 20.00     0.098 N 
HETATM    5  S8  UNL     1     -35.694  15.758  -3.828  1.00 20.00    -0.132 SA
HETATM    6  H22 UNL     1     -35.740  12.658  -3.901  1.00 20.00     0.317 HD
ENDROOT
BRANCH   3   7
HETATM    7  C5  UNL     1     -33.504  14.740  -5.148  1.00 20.00     0.056 C 
BRANCH   7   8
HETATM    8  C6  UNL     1     -33.510  16.243  -5.408  1.00 20.00     0.076 C 
BRANCH   8   9
HETATM    9  S9  UNL     1     -33.944  16.590  -7.136  1.00 20.00    -0.173 SA
HETATM   10  C4  UNL     1     -33.872  14.898  -7.769  1.00 20.00     0.089 C 
ENDBRANCH   8   9
ENDBRANCH   7   8
ENDBRANCH   3   7
TORSDOF 3
ENDMDL
MODEL 6
REMARK VINA RESULT:      -3.3     11.117     12.250
REMARK  3 active torsions:
REMARK  status: ('A' for Active; 'I' for Inactive)
REMARK    1  A    between atoms: C3_3  and  C5_5 
REMARK    2  A    between atoms: C5_5  and  C6_6 
REMARK    3  A    between atoms: C6_6  and  S9_9 
ROOT
HETATM    1  C1  UNL     1     -34.189  14.374  -6.665  1.00 20.00     0.281 C 
HETATM    2  C2  UNL     1     -35.581  13.787  -6.840  1.00 20.00     0.106 C 
HETATM    3  C3  UNL     1     -34.678  14.031  -4.376  1.00 20.00     0.282 C 
HETATM    4  N7  UNL     1     -33.635  13.869  -5.400  1.00 20.00     0.098 N 
HETATM    5  S8  UNL     1     -36.299  13.874  -5.186  1.00 20.00    -0.132 SA
HETATM    6  H22 UNL     1     -33.374  12.890  -5.489  1.00 20.00     0.317 HD
ENDROOT
BRANCH   3   7
HETATM    7  C5  UNL     1     -34.557  15.385  -3.684  1.00 20.00     0.056 C 
BRANCH   7   8
HETATM    8  C6  UNL     1     -35.806  16.232  -3.908  1.00 20.00     0.076 C 
BRANCH   8   9
HETATM    9  S9  UNL     1     -35.413  17.699  -4.902  1.00 20.00    -0.173 SA
HETATM   10  C4  UNL     1     -33.610  17.610  -4.799  1.00 20.00     0.089 C 
ENDBRANCH   8   9
ENDBRANCH   7   8
ENDBRANCH   3   7
TORSDOF 3
ENDMDL
MODEL 7
REMARK VINA RESULT:      -3.3     11.815     12.554
REMARK  3 active torsions:
REMARK  status: ('A' for Active; 'I' for Inactive)
REMARK    1  A    between atoms: C3_3  and  C5_5 
REMARK    2  A    between atoms: C5_5  and  C6_6 
REMARK    3  A    between atoms: C6_6  and  S9_9 
ROOT
HETATM    1  C1  UNL     1     -33.300  15.200  -4.545  1.00 20.00     0.281 C 
HETATM    2  C2  UNL     1     -33.323  16.270  -5.625  1.00 20.00     0.106 C 
HETATM    3  C3  UNL     1     -34.433  13.951  -6.205  1.00 20.00     0.282 C 
HETATM    4  N7  UNL     1     -33.359  13.886  -5.202  1.00 20.00     0.098 N 
HETATM    5  S8  UNL     1     -34.539  15.662  -6.812  1.00 20.00    -0.132 SA
HETATM    6  H22 UNL     1     -32.470  13.668  -5.647  1.00 20.00     0.317 HD
ENDROOT
BRANCH   3   7
HETATM    7  C5  UNL     1     -35.766  13.514  -5.605  1.00 20.00     0.056 C 
BRANCH   7   8
HETATM    8  C6  UNL     1     -36.929  14.273  -6.236  1.00 20.00     0.076 C 
BRANCH   8   9
HETATM    9  S9  UNL     1     -38.120  14.787  -4.967  1.00 20.00    -0.173 SA
HETATM   10  C4  UNL     1     -37.003  15.770  -3.941  1.00 20.00     0.089 C 
ENDBRANCH   8   9
ENDBRANCH   7   8
ENDBRANCH   3   7
TORSDOF 3
ENDMDL
MODEL 8
REMARK VINA RESULT:      -3.1     11.532     12.753
REMARK  3 active torsions:
REMARK  status: ('A' for Active; 'I' for Inactive)
REMARK    1  A    between atoms: C3_3  and  C5_5 
REMARK    2  A    between atoms: C5_5  and  C6_6 
REMARK    3  A    between atoms: C6_6  and  S9_9 
ROOT
HETATM    1  C1  UNL     1     -33.995  16.607  -6.246  1.00 20.00     0.281 C 
HETATM    2  C2  UNL     1     -34.031  15.882  -7.582  1.00 20.00     0.106 C 
HETATM    3  C3  UNL     1     -33.765  14.404  -5.416  1.00 20.00     0.282 C 
HETATM    4  N7  UNL     1     -33.246  15.775  -5.294  1.00 20.00     0.098 N 
HETATM    5  S8  UNL     1     -34.318  14.158  -7.131  1.00 20.00    -0.132 SA
HETATM    6  H22 UNL     1     -32.251  15.798  -5.503  1.00 20.00     0.317 HD
ENDROOT
BRANCH   3   7
HETATM    7  C5  UNL     1     -34.917  14.169  -4.445  1.00 20.00     0.056 C 
BRANCH   7   8
HETATM    8  C6  UNL     1     -36.109  13.527  -5.149  1.00 20.00     0.076 C 
BRANCH   8   9
HETATM    9  S9  UNL     1     -37.576  14.587  -5.015  1.00 20.00    -0.173 SA
HETATM   10  C4  UNL     1     -36.880  15.865  -3.942  1.00 20.00     0.089 C 
ENDBRANCH   8   9
ENDBRANCH   7   8
ENDBRANCH   3   7
TORSDOF 3
ENDMDL
MODEL 9
REMARK VINA RESULT:      -2.9     11.403     12.356
REMARK  3 active torsions:
REMARK  status: ('A' for Active; 'I' for Inactive)
REMARK    1  A    between atoms: C3_3  and  C5_5 
REMARK    2  A    between atoms: C5_5  and  C6_6 
REMARK    3  A    between atoms: C6_6  and  S9_9 
ROOT
HETATM    1  C1  UNL     1     -34.987  17.055  -3.866  1.00 20.00     0.281 C 
HETATM    2  C2  UNL     1     -33.839  17.422  -4.793  1.00 20.00     0.106 C 
HETATM    3  C3  UNL     1     -34.018  14.904  -4.036  1.00 20.00     0.282 C 
HETATM    4  N7  UNL     1     -34.587  15.873  -3.088  1.00 20.00     0.098 N 
HETATM    5  S8  UNL     1     -33.245  15.828  -5.398  1.00 20.00    -0.132 SA
HETATM    6  H22 UNL     1     -33.899  16.125  -2.382  1.00 20.00     0.317 HD
ENDROOT
BRANCH   3   7
HETATM    7  C5  UNL     1     -35.097  13.967  -4.572  1.00 20.00     0.056 C 
BRANCH   7   8
HETATM    8  C6  UNL     1     -35.205  14.063  -6.090  1.00 20.00     0.076 C 
BRANCH   8   9
HETATM    9  S9  UNL     1     -36.855  14.641  -6.578  1.00 20.00    -0.173 SA
HETATM   10  C4  UNL     1     -37.653  14.553  -4.958  1.00 20.00     0.089 C 
ENDBRANCH   8   9
ENDBRANCH   7   8
ENDBRANCH   3   7
TORSDOF 3
ENDMDL
