MODEL 1
REMARK VINA RESULT:      -5.1      0.000      0.000
REMARK  1 active torsions:
REMARK  status: ('A' for Active; 'I' for Inactive)
REMARK    1  A    between atoms: C9_9  and  O11_11 
ROOT
HETATM    1  C1  UNL     1     -33.931   6.821   5.620  1.00 20.00     0.052 A 
HETATM    2  C2  UNL     1     -34.341   4.806   4.317  1.00 20.00     0.049 A 
HETATM    3  C3  UNL     1     -33.174   7.307   4.566  1.00 20.00    -0.020 A 
HETATM    4  C4  UNL     1     -33.005   6.556   3.395  1.00 20.00    -0.043 A 
HETATM    5  C5  UNL     1     -33.588   5.308   3.254  1.00 20.00    -0.052 A 
HETATM    6  C6  UNL     1     -34.512   5.556   5.491  1.00 20.00     0.117 A 
HETATM    7  C7  UNL     1     -32.192   7.310   2.389  1.00 20.00     0.042 C 
HETATM    8  C8  UNL     1     -31.517   8.360   3.283  1.00 20.00     0.041 C 
HETATM    9  C9  UNL     1     -32.489   8.635   4.442  1.00 20.00     0.152 C 
HETATM   10  C10 UNL     1     -33.428   4.509   2.007  1.00 20.00     0.049 C 
HETATM   11  F12 UNL     1     -35.246   5.058   6.495  1.00 20.00    -0.206 F 
ENDROOT
BRANCH   9  12
HETATM   12  O11 UNL     1     -31.789   8.984   5.620  1.00 20.00    -0.391 OA
HETATM   13  H23 UNL     1     -32.216   8.515   6.357  1.00 20.00     0.210 HD
ENDBRANCH   9  12
TORSDOF 1
ENDMDL
MODEL 2
REMARK VINA RESULT:      -4.9     11.794     12.419
REMARK  1 active torsions:
REMARK  status: ('A' for Active; 'I' for Inactive)
REMARK    1  A    between atoms: C9_9  and  O11_11 
ROOT
HETATM    1  C1  UNL     1     -36.961  15.731  -3.936  1.00 20.00     0.052 A 
HETATM    2  C2  UNL     1     -35.351  14.122  -4.799  1.00 20.00     0.049 A 
HETATM    3  C3  UNL     1     -35.930  16.338  -3.237  1.00 20.00    -0.020 A 
HETATM    4  C4  UNL     1     -34.620  15.849  -3.320  1.00 20.00    -0.043 A 
HETATM    5  C5  UNL     1     -34.314  14.747  -4.102  1.00 20.00    -0.052 A 
HETATM    6  C6  UNL     1     -36.664  14.611  -4.717  1.00 20.00     0.117 A 
HETATM    7  C7  UNL     1     -33.681  16.697  -2.519  1.00 20.00     0.042 C 
HETATM    8  C8  UNL     1     -34.662  17.429  -1.594  1.00 20.00     0.041 C 
HETATM    9  C9  UNL     1     -35.980  17.562  -2.374  1.00 20.00     0.152 C 
HETATM   10  C10 UNL     1     -32.922  14.230  -4.210  1.00 20.00     0.049 C 
HETATM   11  F12 UNL     1     -37.641  14.000  -5.400  1.00 20.00    -0.206 F 
ENDROOT
BRANCH   9  12
HETATM   12  O11 UNL     1     -37.091  17.550  -1.499  1.00 20.00    -0.391 OA
HETATM   13  H23 UNL     1     -37.058  18.373  -0.981  1.00 20.00     0.210 HD
ENDBRANCH   9  12
TORSDOF 1
ENDMDL
MODEL 3
REMARK VINA RESULT:      -4.9     12.320     12.899
REMARK  1 active torsions:
REMARK  status: ('A' for Active; 'I' for Inactive)
REMARK    1  A    between atoms: C9_9  and  O11_11 
ROOT
HETATM    1  C1  UNL     1     -32.151  18.415  -0.454  1.00 20.00     0.052 A 
HETATM    2  C2  UNL     1     -32.732  18.918   1.855  1.00 20.00     0.049 A 
HETATM    3  C3  UNL     1     -33.465  18.030  -0.666  1.00 20.00    -0.020 A 
HETATM    4  C4  UNL     1     -34.408  18.094   0.368  1.00 20.00    -0.043 A 
HETATM    5  C5  UNL     1     -34.058  18.542   1.631  1.00 20.00    -0.052 A 
HETATM    6  C6  UNL     1     -31.785  18.855   0.821  1.00 20.00     0.117 A 
HETATM    7  C7  UNL     1     -35.762  17.676  -0.116  1.00 20.00     0.042 C 
HETATM    8  C8  UNL     1     -35.394  16.915  -1.398  1.00 20.00     0.041 C 
HETATM    9  C9  UNL     1     -34.110  17.566  -1.937  1.00 20.00     0.152 C 
HETATM   10  C10 UNL     1     -35.057  18.629   2.732  1.00 20.00     0.049 C 
HETATM   11  F12 UNL     1     -30.521  19.228   1.057  1.00 20.00    -0.206 F 
ENDROOT
BRANCH   9  12
HETATM   12  O11 UNL     1     -33.312  16.622  -2.624  1.00 20.00    -0.391 OA
HETATM   13  H23 UNL     1     -33.804  15.783  -2.635  1.00 20.00     0.210 HD
ENDBRANCH   9  12
TORSDOF 1
ENDMDL
MODEL 4
REMARK VINA RESULT:      -4.9     12.173     12.596
REMARK  1 active torsions:
REMARK  status: ('A' for Active; 'I' for Inactive)
REMARK    1  A    between atoms: C9_9  and  O11_11 
ROOT
HETATM    1  C1  UNL     1     -35.927  17.594   0.473  1.00 20.00     0.052 A 
HETATM    2  C2  UNL     1     -34.016  18.681   1.519  1.00 20.00     0.049 A 
HETATM    3  C3  UNL     1     -35.146  17.380  -0.652  1.00 20.00    -0.020 A 
HETATM    4  C4  UNL     1     -33.812  17.805  -0.692  1.00 20.00    -0.043 A 
HETATM    5  C5  UNL     1     -33.232  18.450   0.387  1.00 20.00    -0.052 A 
HETATM    6  C6  UNL     1     -35.354  18.255   1.562  1.00 20.00     0.117 A 
HETATM    7  C7  UNL     1     -33.167  17.419  -1.988  1.00 20.00     0.042 C 
HETATM    8  C8  UNL     1     -34.400  17.157  -2.864  1.00 20.00     0.041 C 
HETATM    9  C9  UNL     1     -35.509  16.667  -1.920  1.00 20.00     0.152 C 
HETATM   10  C10 UNL     1     -31.810  18.891   0.360  1.00 20.00     0.049 C 
HETATM   11  F12 UNL     1     -36.085  18.481   2.662  1.00 20.00    -0.206 F 
ENDROOT
BRANCH   9  12
HETATM   12  O11 UNL     1     -36.785  17.046  -2.396  1.00 20.00    -0.391 OA
HETATM   13  H23 UNL     1     -37.269  16.228  -2.606  1.00 20.00     0.210 HD
ENDBRANCH   9  12
TORSDOF 1
ENDMDL
MODEL 5
REMARK VINA RESULT:      -4.9      2.746      4.457
REMARK  1 active torsions:
REMARK  status: ('A' for Active; 'I' for Inactive)
REMARK    1  A    between atoms: C9_9  and  O11_11 
ROOT
HETATM    1  C1  UNL     1     -32.482   6.914   2.649  1.00 20.00     0.052 A 
HETATM    2  C2  UNL     1     -32.586   8.358   4.607  1.00 20.00     0.049 A 
HETATM    3  C3  UNL     1     -33.291   6.008   3.317  1.00 20.00    -0.020 A 
HETATM    4  C4  UNL     1     -33.751   6.274   4.613  1.00 20.00    -0.043 A 
HETATM    5  C5  UNL     1     -33.413   7.447   5.267  1.00 20.00    -0.052 A 
HETATM    6  C6  UNL     1     -32.125   8.094   3.307  1.00 20.00     0.117 A 
HETATM    7  C7  UNL     1     -34.643   5.175   5.100  1.00 20.00     0.042 C 
HETATM    8  C8  UNL     1     -34.261   4.039   4.141  1.00 20.00     0.041 C 
HETATM    9  C9  UNL     1     -33.842   4.705   2.821  1.00 20.00     0.152 C 
HETATM   10  C10 UNL     1     -33.910   7.746   6.639  1.00 20.00     0.049 C 
HETATM   11  F12 UNL     1     -31.339   8.986   2.690  1.00 20.00    -0.206 F 
ENDROOT
BRANCH   9  12
HETATM   12  O11 UNL     1     -32.863   3.935   2.151  1.00 20.00    -0.391 OA
HETATM   13  H23 UNL     1     -33.281   3.569   1.354  1.00 20.00     0.210 HD
ENDBRANCH   9  12
TORSDOF 1
ENDMDL
MODEL 6
REMARK VINA RESULT:      -4.9      2.367      3.690
REMARK  1 active torsions:
REMARK  status: ('A' for Active; 'I' for Inactive)
REMARK    1  A    between atoms: C9_9  and  O11_11 
ROOT
HETATM    1  C1  UNL     1     -33.901   4.726   3.477  1.00 20.00     0.052 A 
HETATM    2  C2  UNL     1     -32.356   6.097   2.189  1.00 20.00     0.049 A 
HETATM    3  C3  UNL     1     -34.013   5.766   4.386  1.00 20.00    -0.020 A 
HETATM    4  C4  UNL     1     -33.311   6.963   4.199  1.00 20.00    -0.043 A 
HETATM    5  C5  UNL     1     -32.484   7.146   3.103  1.00 20.00    -0.052 A 
HETATM    6  C6  UNL     1     -33.059   4.896   2.375  1.00 20.00     0.117 A 
HETATM    7  C7  UNL     1     -33.631   7.946   5.282  1.00 20.00     0.042 C 
HETATM    8  C8  UNL     1     -34.214   7.019   6.358  1.00 20.00     0.041 C 
HETATM    9  C9  UNL     1     -34.871   5.846   5.613  1.00 20.00     0.152 C 
HETATM   10  C10 UNL     1     -31.746   8.421   2.886  1.00 20.00     0.049 C 
HETATM   11  F12 UNL     1     -32.926   3.907   1.481  1.00 20.00    -0.206 F 
ENDROOT
BRANCH   9  12
HETATM   12  O11 UNL     1     -34.812   4.660   6.381  1.00 20.00    -0.391 OA
HETATM   13  H23 UNL     1     -34.076   4.128   6.032  1.00 20.00     0.210 HD
ENDBRANCH   9  12
TORSDOF 1
ENDMDL
MODEL 7
REMARK VINA RESULT:      -4.8     12.257     13.664
REMARK  1 active torsions:
REMARK  status: ('A' for Active; 'I' for Inactive)
REMARK    1  A    between atoms: C9_9  and  O11_11 
ROOT
HETATM    1  C1  UNL     1     -34.157  14.894  -4.070  1.00 20.00     0.052 A 
HETATM    2  C2  UNL     1     -33.627  17.164  -4.771  1.00 20.00     0.049 A 
HETATM    3  C3  UNL     1     -34.606  14.638  -5.356  1.00 20.00    -0.020 A 
HETATM    4  C4  UNL     1     -34.560  15.630  -6.344  1.00 20.00    -0.043 A 
HETATM    5  C5  UNL     1     -34.068  16.895  -6.068  1.00 20.00    -0.052 A 
HETATM    6  C6  UNL     1     -33.671  16.171  -3.779  1.00 20.00     0.117 A 
HETATM    7  C7  UNL     1     -35.051  15.102  -7.656  1.00 20.00     0.042 C 
HETATM    8  C8  UNL     1     -35.824  13.856  -7.201  1.00 20.00     0.041 C 
HETATM    9  C9  UNL     1     -35.128  13.354  -5.926  1.00 20.00     0.152 C 
HETATM   10  C10 UNL     1     -34.000  17.951  -7.116  1.00 20.00     0.049 C 
HETATM   11  F12 UNL     1     -33.235  16.450  -2.543  1.00 20.00    -0.206 F 
ENDROOT
BRANCH   9  12
HETATM   12  O11 UNL     1     -36.051  12.725  -5.058  1.00 20.00    -0.391 OA
HETATM   13  H23 UNL     1     -36.563  13.429  -4.623  1.00 20.00     0.210 HD
ENDBRANCH   9  12
TORSDOF 1
ENDMDL
MODEL 8
REMARK VINA RESULT:      -4.8     12.099     13.133
REMARK  1 active torsions:
REMARK  status: ('A' for Active; 'I' for Inactive)
REMARK    1  A    between atoms: C9_9  and  O11_11 
ROOT
HETATM    1  C1  UNL     1     -34.645  15.215  -3.769  1.00 20.00     0.052 A 
HETATM    2  C2  UNL     1     -35.474  17.201  -2.631  1.00 20.00     0.049 A 
HETATM    3  C3  UNL     1     -35.896  15.065  -4.346  1.00 20.00    -0.020 A 
HETATM    4  C4  UNL     1     -36.926  15.976  -4.076  1.00 20.00    -0.043 A 
HETATM    5  C5  UNL     1     -36.728  17.051  -3.227  1.00 20.00    -0.052 A 
HETATM    6  C6  UNL     1     -34.440  16.290  -2.900  1.00 20.00     0.117 A 
HETATM    7  C7  UNL     1     -38.161  15.632  -4.851  1.00 20.00     0.042 C 
HETATM    8  C8  UNL     1     -37.880  14.168  -5.217  1.00 20.00     0.041 C 
HETATM    9  C9  UNL     1     -36.353  14.033  -5.332  1.00 20.00     0.152 C 
HETATM   10  C10 UNL     1     -37.812  18.034  -2.947  1.00 20.00     0.049 C 
HETATM   11  F12 UNL     1     -33.243  16.458  -2.323  1.00 20.00    -0.206 F 
ENDROOT
BRANCH   9  12
HETATM   12  O11 UNL     1     -35.930  12.732  -4.973  1.00 20.00    -0.391 OA
HETATM   13  H23 UNL     1     -35.000  12.798  -4.697  1.00 20.00     0.210 HD
ENDBRANCH   9  12
TORSDOF 1
ENDMDL
MODEL 9
REMARK VINA RESULT:      -4.7     12.183     12.311
REMARK  1 active torsions:
REMARK  status: ('A' for Active; 'I' for Inactive)
REMARK    1  A    between atoms: C9_9  and  O11_11 
ROOT
HETATM    1  C1  UNL     1     -35.050  18.508   1.350  1.00 20.00     0.052 A 
HETATM    2  C2  UNL     1     -35.475  17.389  -0.770  1.00 20.00     0.049 A 
HETATM    3  C3  UNL     1     -33.716  18.611   0.990  1.00 20.00    -0.020 A 
HETATM    4  C4  UNL     1     -33.263  18.116  -0.240  1.00 20.00    -0.043 A 
HETATM    5  C5  UNL     1     -34.131  17.509  -1.132  1.00 20.00    -0.052 A 
HETATM    6  C6  UNL     1     -35.931  17.885   0.462  1.00 20.00     0.117 A 
HETATM    7  C7  UNL     1     -31.802  18.388  -0.421  1.00 20.00     0.042 C 
HETATM    8  C8  UNL     1     -31.372  18.659   1.028  1.00 20.00     0.041 C 
HETATM    9  C9  UNL     1     -32.593  19.263   1.739  1.00 20.00     0.152 C 
HETATM   10  C10 UNL     1     -33.663  16.995  -2.449  1.00 20.00     0.049 C 
HETATM   11  F12 UNL     1     -37.225  17.766   0.785  1.00 20.00    -0.206 F 
ENDROOT
BRANCH   9  12
HETATM   12  O11 UNL     1     -32.601  18.922   3.111  1.00 20.00    -0.391 OA
HETATM   13  H23 UNL     1     -31.694  19.038   3.442  1.00 20.00     0.210 HD
ENDBRANCH   9  12
TORSDOF 1
ENDMDL
