MODEL 1
REMARK VINA RESULT:      -6.1      0.000      0.000
REMARK  3 active torsions:
REMARK  status: ('A' for Active; 'I' for Inactive)
REMARK    1  A    between atoms: C3_3  and  C4_4 
REMARK    2  A    between atoms: C3_3  and  C5_5 
REMARK    3  A    between atoms: C5_5  and  C6_6 
ROOT
HETATM    1  C1  UNL     1     -32.186   9.356   0.824  1.00 20.00     0.012 C 
HETATM    2  C2  UNL     1     -32.138   8.725   1.844  1.00 20.00    -0.110 C 
HETATM    3  C4  UNL     1     -32.073   7.958   3.094  1.00 20.00     0.171 C 
ENDROOT
BRANCH   3   4
HETATM    4  C3  UNL     1     -33.192   6.940   3.213  1.00 20.00     0.146 C 
HETATM    5  O7  UNL     1     -33.596   6.287   2.251  1.00 20.00    -0.297 OA
BRANCH   4   6
HETATM    6  C5  UNL     1     -33.783   6.779   4.605  1.00 20.00     0.196 C 
BRANCH   6   7
HETATM    7  C6  UNL     1     -34.689   5.576   4.730  1.00 20.00     0.394 C 
HETATM    8  F8  UNL     1     -35.043   5.386   6.021  1.00 20.00    -0.171 F 
HETATM    9  F9  UNL     1     -35.824   5.735   4.017  1.00 20.00    -0.171 F 
HETATM   10  F10 UNL     1     -34.079   4.449   4.306  1.00 20.00    -0.171 F 
ENDBRANCH   6   7
ENDBRANCH   4   6
ENDBRANCH   3   4
TORSDOF 3
ENDMDL
MODEL 2
REMARK VINA RESULT:      -6.1      0.045      1.198
REMARK  3 active torsions:
REMARK  status: ('A' for Active; 'I' for Inactive)
REMARK    1  A    between atoms: C3_3  and  C4_4 
REMARK    2  A    between atoms: C3_3  and  C5_5 
REMARK    3  A    between atoms: C5_5  and  C6_6 
ROOT
HETATM    1  C1  UNL     1     -32.195   9.356   0.794  1.00 20.00     0.012 C 
HETATM    2  C2  UNL     1     -32.135   8.722   1.812  1.00 20.00    -0.110 C 
HETATM    3  C4  UNL     1     -32.054   7.953   3.059  1.00 20.00     0.171 C 
ENDROOT
BRANCH   3   4
HETATM    4  C3  UNL     1     -33.180   6.945   3.197  1.00 20.00     0.146 C 
HETATM    5  O7  UNL     1     -33.575   6.262   2.253  1.00 20.00    -0.297 OA
BRANCH   4   6
HETATM    6  C5  UNL     1     -33.792   6.836   4.585  1.00 20.00     0.196 C 
BRANCH   6   7
HETATM    7  C6  UNL     1     -34.667   5.616   4.755  1.00 20.00     0.394 C 
HETATM    8  F8  UNL     1     -35.804   5.747   4.035  1.00 20.00    -0.171 F 
HETATM    9  F9  UNL     1     -34.043   4.497   4.328  1.00 20.00    -0.171 F 
HETATM   10  F10 UNL     1     -35.021   5.435   6.045  1.00 20.00    -0.171 F 
ENDBRANCH   6   7
ENDBRANCH   4   6
ENDBRANCH   3   4
TORSDOF 3
ENDMDL
MODEL 3
REMARK VINA RESULT:      -6.1      0.074      1.202
REMARK  3 active torsions:
REMARK  status: ('A' for Active; 'I' for Inactive)
REMARK    1  A    between atoms: C3_3  and  C4_4 
REMARK    2  A    between atoms: C3_3  and  C5_5 
REMARK    3  A    between atoms: C5_5  and  C6_6 
ROOT
HETATM    1  C1  UNL     1     -32.197   9.450   0.828  1.00 20.00     0.012 C 
HETATM    2  C2  UNL     1     -32.142   8.781   1.823  1.00 20.00    -0.110 C 
HETATM    3  C4  UNL     1     -32.067   7.969   3.043  1.00 20.00     0.171 C 
ENDROOT
BRANCH   3   4
HETATM    4  C3  UNL     1     -33.209   6.976   3.154  1.00 20.00     0.146 C 
HETATM    5  O7  UNL     1     -33.620   6.332   2.190  1.00 20.00    -0.297 OA
BRANCH   4   6
HETATM    6  C5  UNL     1     -33.815   6.830   4.541  1.00 20.00     0.196 C 
BRANCH   6   7
HETATM    7  C6  UNL     1     -34.683   5.601   4.685  1.00 20.00     0.394 C 
HETATM    8  F8  UNL     1     -34.030   4.508   4.228  1.00 20.00    -0.171 F 
HETATM    9  F9  UNL     1     -35.006   5.371   5.975  1.00 20.00    -0.171 F 
HETATM   10  F10 UNL     1     -35.826   5.716   3.978  1.00 20.00    -0.171 F 
ENDBRANCH   6   7
ENDBRANCH   4   6
ENDBRANCH   3   4
TORSDOF 3
ENDMDL
MODEL 4
REMARK VINA RESULT:      -6.0      3.685      5.102
REMARK  3 active torsions:
REMARK  status: ('A' for Active; 'I' for Inactive)
REMARK    1  A    between atoms: C3_3  and  C4_4 
REMARK    2  A    between atoms: C3_3  and  C5_5 
REMARK    3  A    between atoms: C5_5  and  C6_6 
ROOT
HETATM    1  C1  UNL     1     -33.927   6.971   5.364  1.00 20.00     0.012 C 
HETATM    2  C2  UNL     1     -33.577   7.048   4.218  1.00 20.00    -0.110 C 
HETATM    3  C4  UNL     1     -33.157   7.136   2.815  1.00 20.00     0.171 C 
ENDROOT
BRANCH   3   4
HETATM    4  C3  UNL     1     -32.039   8.141   2.602  1.00 20.00     0.146 C 
HETATM    5  O7  UNL     1     -31.365   8.584   3.530  1.00 20.00    -0.297 OA
BRANCH   4   6
HETATM    6  C5  UNL     1     -31.807   8.564   1.160  1.00 20.00     0.196 C 
BRANCH   6   7
HETATM    7  C6  UNL     1     -32.688   9.715   0.730  1.00 20.00     0.394 C 
HETATM    8  F8  UNL     1     -31.935  10.801   0.442  1.00 20.00    -0.171 F 
HETATM    9  F9  UNL     1     -33.397   9.408  -0.377  1.00 20.00    -0.171 F 
HETATM   10  F10 UNL     1     -33.555  10.067   1.702  1.00 20.00    -0.171 F 
ENDBRANCH   6   7
ENDBRANCH   4   6
ENDBRANCH   3   4
TORSDOF 3
ENDMDL
MODEL 5
REMARK VINA RESULT:      -6.0      3.192      4.759
REMARK  3 active torsions:
REMARK  status: ('A' for Active; 'I' for Inactive)
REMARK    1  A    between atoms: C3_3  and  C4_4 
REMARK    2  A    between atoms: C3_3  and  C5_5 
REMARK    3  A    between atoms: C5_5  and  C6_6 
ROOT
HETATM    1  C1  UNL     1     -34.668   5.149   5.625  1.00 20.00     0.012 C 
HETATM    2  C2  UNL     1     -34.302   6.113   5.010  1.00 20.00    -0.110 C 
HETATM    3  C4  UNL     1     -33.861   7.297   4.264  1.00 20.00     0.171 C 
ENDROOT
BRANCH   3   4
HETATM    4  C3  UNL     1     -32.797   6.973   3.232  1.00 20.00     0.146 C 
HETATM    5  O7  UNL     1     -32.730   5.880   2.673  1.00 20.00    -0.297 OA
BRANCH   4   6
HETATM    6  C5  UNL     1     -31.814   8.095   2.933  1.00 20.00     0.196 C 
BRANCH   6   7
HETATM    7  C6  UNL     1     -32.068   8.769   1.604  1.00 20.00     0.394 C 
HETATM    8  F8  UNL     1     -32.144  10.110   1.764  1.00 20.00    -0.171 F 
HETATM    9  F9  UNL     1     -31.074   8.521   0.726  1.00 20.00    -0.171 F 
HETATM   10  F10 UNL     1     -33.229   8.358   1.054  1.00 20.00    -0.171 F 
ENDBRANCH   6   7
ENDBRANCH   4   6
ENDBRANCH   3   4
TORSDOF 3
ENDMDL
MODEL 6
REMARK VINA RESULT:      -6.0      3.184      4.774
REMARK  3 active torsions:
REMARK  status: ('A' for Active; 'I' for Inactive)
REMARK    1  A    between atoms: C3_3  and  C4_4 
REMARK    2  A    between atoms: C3_3  and  C5_5 
REMARK    3  A    between atoms: C5_5  and  C6_6 
ROOT
HETATM    1  C1  UNL     1     -34.704   5.087   5.560  1.00 20.00     0.012 C 
HETATM    2  C2  UNL     1     -34.314   6.069   4.990  1.00 20.00    -0.110 C 
HETATM    3  C4  UNL     1     -33.843   7.275   4.300  1.00 20.00     0.171 C 
ENDROOT
BRANCH   3   4
HETATM    4  C3  UNL     1     -32.791   6.973   3.249  1.00 20.00     0.146 C 
HETATM    5  O7  UNL     1     -32.728   5.889   2.671  1.00 20.00    -0.297 OA
BRANCH   4   6
HETATM    6  C5  UNL     1     -31.816   8.103   2.957  1.00 20.00     0.196 C 
BRANCH   6   7
HETATM    7  C6  UNL     1     -32.071   8.779   1.629  1.00 20.00     0.394 C 
HETATM    8  F8  UNL     1     -31.070   8.505   0.762  1.00 20.00    -0.171 F 
HETATM    9  F9  UNL     1     -33.222   8.352   1.069  1.00 20.00    -0.171 F 
HETATM   10  F10 UNL     1     -32.139  10.120   1.761  1.00 20.00    -0.171 F 
ENDBRANCH   6   7
ENDBRANCH   4   6
ENDBRANCH   3   4
TORSDOF 3
ENDMDL
MODEL 7
REMARK VINA RESULT:      -5.9      1.023      1.507
REMARK  3 active torsions:
REMARK  status: ('A' for Active; 'I' for Inactive)
REMARK    1  A    between atoms: C3_3  and  C4_4 
REMARK    2  A    between atoms: C3_3  and  C5_5 
REMARK    3  A    between atoms: C5_5  and  C6_6 
ROOT
HETATM    1  C1  UNL     1     -32.241   9.482   0.869  1.00 20.00     0.012 C 
HETATM    2  C2  UNL     1     -32.105   8.659   1.733  1.00 20.00    -0.110 C 
HETATM    3  C4  UNL     1     -31.931   7.655   2.788  1.00 20.00     0.171 C 
ENDROOT
BRANCH   3   4
HETATM    4  C3  UNL     1     -33.251   7.182   3.368  1.00 20.00     0.146 C 
HETATM    5  O7  UNL     1     -34.015   7.934   3.970  1.00 20.00    -0.297 OA
BRANCH   4   6
HETATM    6  C5  UNL     1     -33.568   5.710   3.154  1.00 20.00     0.196 C 
BRANCH   6   7
HETATM    7  C6  UNL     1     -34.493   5.142   4.206  1.00 20.00     0.394 C 
HETATM    8  F8  UNL     1     -35.763   5.553   3.988  1.00 20.00    -0.171 F 
HETATM    9  F9  UNL     1     -34.494   3.793   4.188  1.00 20.00    -0.171 F 
HETATM   10  F10 UNL     1     -34.143   5.547   5.445  1.00 20.00    -0.171 F 
ENDBRANCH   6   7
ENDBRANCH   4   6
ENDBRANCH   3   4
TORSDOF 3
ENDMDL
MODEL 8
REMARK VINA RESULT:      -5.8      3.855      5.046
REMARK  3 active torsions:
REMARK  status: ('A' for Active; 'I' for Inactive)
REMARK    1  A    between atoms: C3_3  and  C4_4 
REMARK    2  A    between atoms: C3_3  and  C5_5 
REMARK    3  A    between atoms: C5_5  and  C6_6 
ROOT
HETATM    1  C1  UNL     1     -34.892   5.845   4.110  1.00 20.00     0.012 C 
HETATM    2  C2  UNL     1     -33.916   6.109   3.462  1.00 20.00    -0.110 C 
HETATM    3  C4  UNL     1     -32.724   6.424   2.667  1.00 20.00     0.171 C 
ENDROOT
BRANCH   3   4
HETATM    4  C3  UNL     1     -32.326   7.885   2.765  1.00 20.00     0.146 C 
HETATM    5  O7  UNL     1     -31.439   8.279   3.521  1.00 20.00    -0.297 OA
BRANCH   4   6
HETATM    6  C5  UNL     1     -33.099   8.835   1.863  1.00 20.00     0.196 C 
BRANCH   6   7
HETATM    7  C6  UNL     1     -32.319   9.261   0.641  1.00 20.00     0.394 C 
HETATM    8  F8  UNL     1     -33.029   9.008  -0.482  1.00 20.00    -0.171 F 
HETATM    9  F9  UNL     1     -32.050  10.584   0.662  1.00 20.00    -0.171 F 
HETATM   10  F10 UNL     1     -31.150   8.595   0.542  1.00 20.00    -0.171 F 
ENDBRANCH   6   7
ENDBRANCH   4   6
ENDBRANCH   3   4
TORSDOF 3
ENDMDL
MODEL 9
REMARK VINA RESULT:      -5.8      2.700      4.322
REMARK  3 active torsions:
REMARK  status: ('A' for Active; 'I' for Inactive)
REMARK    1  A    between atoms: C3_3  and  C4_4 
REMARK    2  A    between atoms: C3_3  and  C5_5 
REMARK    3  A    between atoms: C5_5  and  C6_6 
ROOT
HETATM    1  C1  UNL     1     -34.045   3.639   4.112  1.00 20.00     0.012 C 
HETATM    2  C2  UNL     1     -34.301   4.571   4.824  1.00 20.00    -0.110 C 
HETATM    3  C4  UNL     1     -34.617   5.706   5.699  1.00 20.00     0.171 C 
ENDROOT
BRANCH   3   4
HETATM    4  C3  UNL     1     -33.899   6.978   5.288  1.00 20.00     0.146 C 
HETATM    5  O7  UNL     1     -33.246   7.653   6.083  1.00 20.00    -0.297 OA
BRANCH   4   6
HETATM    6  C5  UNL     1     -34.040   7.365   3.824  1.00 20.00     0.196 C 
BRANCH   6   7
HETATM    7  C6  UNL     1     -32.726   7.356   3.078  1.00 20.00     0.394 C 
HETATM    8  F8  UNL     1     -32.829   8.071   1.935  1.00 20.00    -0.171 F 
HETATM    9  F9  UNL     1     -31.736   7.906   3.813  1.00 20.00    -0.171 F 
HETATM   10  F10 UNL     1     -32.354   6.103   2.742  1.00 20.00    -0.171 F 
ENDBRANCH   6   7
ENDBRANCH   4   6
ENDBRANCH   3   4
TORSDOF 3
ENDMDL
