MODEL 1
REMARK VINA RESULT:      -6.1      0.000      0.000
REMARK  5 active torsions:
REMARK  status: ('A' for Active; 'I' for Inactive)
REMARK    1  A    between atoms: C1_1  and  C9_9 
REMARK    2  A    between atoms: C6_6  and  C7_7 
REMARK    3  A    between atoms: C7_7  and  C10_10 
REMARK    4  A    between atoms: C8_8  and  C9_9 
REMARK    5  A    between atoms: C8_8  and  C10_10 
ROOT
HETATM    1  C8  UNL     1     -33.386   7.064   2.175  1.00 20.00     0.016 C 
ENDROOT
BRANCH   1   2
HETATM    2  C9  UNL     1     -32.632   8.350   2.561  1.00 20.00     0.051 C 
HETATM    3  C4  UNL     1     -31.450   8.088   3.488  1.00 20.00     0.018 C 
BRANCH   2   4
HETATM    4  C1  UNL     1     -32.125   9.057   1.306  1.00 20.00     0.126 C 
HETATM    5  C2  UNL     1     -32.754  10.387   0.974  1.00 20.00     0.091 C 
HETATM    6  O11 UNL     1     -31.227   8.591   0.605  1.00 20.00    -0.298 OA
ENDBRANCH   2   4
ENDBRANCH   1   2
BRANCH   1   7
HETATM    7  C10 UNL     1     -33.395   5.948   3.240  1.00 20.00    -0.018 C 
HETATM    8  C5  UNL     1     -32.993   4.617   2.591  1.00 20.00     0.010 C 
BRANCH   7   9
HETATM    9  C7  UNL     1     -34.721   5.810   4.017  1.00 20.00     0.004 C 
BRANCH   9  10
HETATM   10  C6  UNL     1     -34.592   5.867   5.541  1.00 20.00    -0.004 C 
HETATM   11  C3  UNL     1     -33.876   7.134   5.987  1.00 20.00     0.005 C 
ENDBRANCH   9  10
ENDBRANCH   7   9
ENDBRANCH   1   7
TORSDOF 5
ENDMDL
MODEL 2
REMARK VINA RESULT:      -6.0      1.995      4.943
REMARK  5 active torsions:
REMARK  status: ('A' for Active; 'I' for Inactive)
REMARK    1  A    between atoms: C1_1  and  C9_9 
REMARK    2  A    between atoms: C6_6  and  C7_7 
REMARK    3  A    between atoms: C7_7  and  C10_10 
REMARK    4  A    between atoms: C8_8  and  C9_9 
REMARK    5  A    between atoms: C8_8  and  C10_10 
ROOT
HETATM    1  C8  UNL     1     -33.594   7.644   2.945  1.00 20.00     0.016 C 
ENDROOT
BRANCH   1   2
HETATM    2  C9  UNL     1     -34.125   6.250   3.328  1.00 20.00     0.051 C 
HETATM    3  C4  UNL     1     -33.226   5.119   2.838  1.00 20.00     0.018 C 
BRANCH   2   4
HETATM    4  C1  UNL     1     -34.269   6.142   4.844  1.00 20.00     0.126 C 
HETATM    5  C2  UNL     1     -34.620   4.783   5.398  1.00 20.00     0.091 C 
HETATM    6  O11 UNL     1     -34.081   7.100   5.594  1.00 20.00    -0.298 OA
ENDBRANCH   2   4
ENDBRANCH   1   2
BRANCH   1   7
HETATM    7  C10 UNL     1     -32.083   7.727   2.648  1.00 20.00    -0.018 C 
HETATM    8  C5  UNL     1     -31.358   8.358   3.843  1.00 20.00     0.010 C 
BRANCH   7   9
HETATM    9  C7  UNL     1     -31.725   8.451   1.333  1.00 20.00     0.004 C 
BRANCH   9  10
HETATM   10  C6  UNL     1     -32.586   9.675   1.008  1.00 20.00    -0.004 C 
HETATM   11  C3  UNL     1     -33.177   9.577  -0.391  1.00 20.00     0.005 C 
ENDBRANCH   9  10
ENDBRANCH   7   9
ENDBRANCH   1   7
TORSDOF 5
ENDMDL
MODEL 3
REMARK VINA RESULT:      -5.7      2.182      5.043
REMARK  5 active torsions:
REMARK  status: ('A' for Active; 'I' for Inactive)
REMARK    1  A    between atoms: C1_1  and  C9_9 
REMARK    2  A    between atoms: C6_6  and  C7_7 
REMARK    3  A    between atoms: C7_7  and  C10_10 
REMARK    4  A    between atoms: C8_8  and  C9_9 
REMARK    5  A    between atoms: C8_8  and  C10_10 
ROOT
HETATM    1  C8  UNL     1     -33.719   7.775   3.373  1.00 20.00     0.016 C 
ENDROOT
BRANCH   1   2
HETATM    2  C9  UNL     1     -33.634   6.682   4.454  1.00 20.00     0.051 C 
HETATM    3  C4  UNL     1     -33.821   7.230   5.866  1.00 20.00     0.018 C 
BRANCH   2   4
HETATM    4  C1  UNL     1     -34.692   5.610   4.199  1.00 20.00     0.126 C 
HETATM    5  C2  UNL     1     -34.357   4.208   4.644  1.00 20.00     0.091 C 
HETATM    6  O11 UNL     1     -35.780   5.867   3.684  1.00 20.00    -0.298 OA
ENDBRANCH   2   4
ENDBRANCH   1   2
BRANCH   1   7
HETATM    7  C10 UNL     1     -32.398   8.100   2.644  1.00 20.00    -0.018 C 
HETATM    8  C5  UNL     1     -31.248   8.136   3.658  1.00 20.00     0.010 C 
BRANCH   7   9
HETATM    9  C7  UNL     1     -32.432   9.388   1.795  1.00 20.00     0.004 C 
BRANCH   9  10
HETATM   10  C6  UNL     1     -32.011   9.217   0.333  1.00 20.00    -0.004 C 
HETATM   11  C3  UNL     1     -33.194   9.401  -0.606  1.00 20.00     0.005 C 
ENDBRANCH   9  10
ENDBRANCH   7   9
ENDBRANCH   1   7
TORSDOF 5
ENDMDL
MODEL 4
REMARK VINA RESULT:      -5.4      0.963      1.806
REMARK  5 active torsions:
REMARK  status: ('A' for Active; 'I' for Inactive)
REMARK    1  A    between atoms: C1_1  and  C9_9 
REMARK    2  A    between atoms: C6_6  and  C7_7 
REMARK    3  A    between atoms: C7_7  and  C10_10 
REMARK    4  A    between atoms: C8_8  and  C9_9 
REMARK    5  A    between atoms: C8_8  and  C10_10 
ROOT
HETATM    1  C8  UNL     1     -33.117   7.199   2.930  1.00 20.00     0.016 C 
ENDROOT
BRANCH   1   2
HETATM    2  C9  UNL     1     -32.253   8.474   2.915  1.00 20.00     0.051 C 
HETATM    3  C4  UNL     1     -30.874   8.263   3.530  1.00 20.00     0.018 C 
BRANCH   2   4
HETATM    4  C1  UNL     1     -32.081   8.973   1.482  1.00 20.00     0.126 C 
HETATM    5  C2  UNL     1     -32.898  10.175   1.079  1.00 20.00     0.091 C 
HETATM    6  O11 UNL     1     -31.296   8.450   0.692  1.00 20.00    -0.298 OA
ENDBRANCH   2   4
ENDBRANCH   1   2
BRANCH   1   7
HETATM    7  C10 UNL     1     -34.228   7.155   3.999  1.00 20.00    -0.018 C 
HETATM    8  C5  UNL     1     -33.606   7.314   5.392  1.00 20.00     0.010 C 
BRANCH   7   9
HETATM    9  C7  UNL     1     -35.135   5.909   3.933  1.00 20.00     0.004 C 
BRANCH   9  10
HETATM   10  C6  UNL     1     -34.789   4.797   4.927  1.00 20.00    -0.004 C 
HETATM   11  C3  UNL     1     -33.909   3.736   4.284  1.00 20.00     0.005 C 
ENDBRANCH   9  10
ENDBRANCH   7   9
ENDBRANCH   1   7
TORSDOF 5
ENDMDL
MODEL 5
REMARK VINA RESULT:      -5.0      1.388      1.722
REMARK  5 active torsions:
REMARK  status: ('A' for Active; 'I' for Inactive)
REMARK    1  A    between atoms: C1_1  and  C9_9 
REMARK    2  A    between atoms: C6_6  and  C7_7 
REMARK    3  A    between atoms: C7_7  and  C10_10 
REMARK    4  A    between atoms: C8_8  and  C9_9 
REMARK    5  A    between atoms: C8_8  and  C10_10 
ROOT
HETATM    1  C8  UNL     1     -33.193   7.764   1.967  1.00 20.00     0.016 C 
ENDROOT
BRANCH   1   2
HETATM    2  C9  UNL     1     -32.111   8.832   1.723  1.00 20.00     0.051 C 
HETATM    3  C4  UNL     1     -30.963   8.325   0.855  1.00 20.00     0.018 C 
BRANCH   2   4
HETATM    4  C1  UNL     1     -32.728  10.059   1.055  1.00 20.00     0.126 C 
HETATM    5  C2  UNL     1     -33.305   9.862  -0.325  1.00 20.00     0.091 C 
HETATM    6  O11 UNL     1     -32.785  11.155   1.613  1.00 20.00    -0.298 OA
ENDBRANCH   2   4
ENDBRANCH   1   2
BRANCH   1   7
HETATM    7  C10 UNL     1     -32.906   6.769   3.112  1.00 20.00    -0.018 C 
HETATM    8  C5  UNL     1     -32.953   5.335   2.570  1.00 20.00     0.010 C 
BRANCH   7   9
HETATM    9  C7  UNL     1     -33.818   6.929   4.345  1.00 20.00     0.004 C 
BRANCH   9  10
HETATM   10  C6  UNL     1     -34.879   5.838   4.517  1.00 20.00    -0.004 C 
HETATM   11  C3  UNL     1     -34.614   5.002   5.761  1.00 20.00     0.005 C 
ENDBRANCH   9  10
ENDBRANCH   7   9
ENDBRANCH   1   7
TORSDOF 5
ENDMDL
MODEL 6
REMARK VINA RESULT:      -4.9      1.114      1.872
REMARK  5 active torsions:
REMARK  status: ('A' for Active; 'I' for Inactive)
REMARK    1  A    between atoms: C1_1  and  C9_9 
REMARK    2  A    between atoms: C6_6  and  C7_7 
REMARK    3  A    between atoms: C7_7  and  C10_10 
REMARK    4  A    between atoms: C8_8  and  C9_9 
REMARK    5  A    between atoms: C8_8  and  C10_10 
ROOT
HETATM    1  C8  UNL     1     -31.865   8.562   2.843  1.00 20.00     0.016 C 
ENDROOT
BRANCH   1   2
HETATM    2  C9  UNL     1     -32.701   9.267   1.759  1.00 20.00     0.051 C 
HETATM    3  C4  UNL     1     -32.772  10.778   1.956  1.00 20.00     0.018 C 
BRANCH   2   4
HETATM    4  C1  UNL     1     -32.117   8.979   0.377  1.00 20.00     0.126 C 
HETATM    5  C2  UNL     1     -33.013   9.243  -0.807  1.00 20.00     0.091 C 
HETATM    6  O11 UNL     1     -30.963   8.579   0.220  1.00 20.00    -0.298 OA
ENDBRANCH   2   4
ENDBRANCH   1   2
BRANCH   1   7
HETATM    7  C10 UNL     1     -32.546   7.366   3.541  1.00 20.00    -0.018 C 
HETATM    8  C5  UNL     1     -32.917   6.305   2.496  1.00 20.00     0.010 C 
BRANCH   7   9
HETATM    9  C7  UNL     1     -33.763   7.738   4.413  1.00 20.00     0.004 C 
BRANCH   9  10
HETATM   10  C6  UNL     1     -33.800   7.081   5.795  1.00 20.00    -0.004 C 
HETATM   11  C3  UNL     1     -34.484   5.722   5.741  1.00 20.00     0.005 C 
ENDBRANCH   9  10
ENDBRANCH   7   9
ENDBRANCH   1   7
TORSDOF 5
ENDMDL
MODEL 7
REMARK VINA RESULT:      -4.4     10.429     11.398
REMARK  5 active torsions:
REMARK  status: ('A' for Active; 'I' for Inactive)
REMARK    1  A    between atoms: C1_1  and  C9_9 
REMARK    2  A    between atoms: C6_6  and  C7_7 
REMARK    3  A    between atoms: C7_7  and  C10_10 
REMARK    4  A    between atoms: C8_8  and  C9_9 
REMARK    5  A    between atoms: C8_8  and  C10_10 
ROOT
HETATM    1  C8  UNL     1     -34.495  14.196  -4.251  1.00 20.00     0.016 C 
ENDROOT
BRANCH   1   2
HETATM    2  C9  UNL     1     -35.815  13.701  -4.871  1.00 20.00     0.051 C 
HETATM    3  C4  UNL     1     -36.942  14.723  -4.757  1.00 20.00     0.018 C 
BRANCH   2   4
HETATM    4  C1  UNL     1     -35.606  13.362  -6.346  1.00 20.00     0.126 C 
HETATM    5  C2  UNL     1     -36.098  14.373  -7.351  1.00 20.00     0.091 C 
HETATM    6  O11 UNL     1     -35.040  12.332  -6.711  1.00 20.00    -0.298 OA
ENDBRANCH   2   4
ENDBRANCH   1   2
BRANCH   1   7
HETATM    7  C10 UNL     1     -34.287  15.725  -4.250  1.00 20.00    -0.018 C 
HETATM    8  C5  UNL     1     -33.233  16.100  -5.300  1.00 20.00     0.010 C 
BRANCH   7   9
HETATM    9  C7  UNL     1     -33.938  16.325  -2.873  1.00 20.00     0.004 C 
BRANCH   9  10
HETATM   10  C6  UNL     1     -35.140  16.685  -1.995  1.00 20.00    -0.004 C 
HETATM   11  C3  UNL     1     -34.706  17.450  -0.753  1.00 20.00     0.005 C 
ENDBRANCH   9  10
ENDBRANCH   7   9
ENDBRANCH   1   7
TORSDOF 5
ENDMDL
MODEL 8
REMARK VINA RESULT:      -4.3     10.624     11.480
REMARK  5 active torsions:
REMARK  status: ('A' for Active; 'I' for Inactive)
REMARK    1  A    between atoms: C1_1  and  C9_9 
REMARK    2  A    between atoms: C6_6  and  C7_7 
REMARK    3  A    between atoms: C7_7  and  C10_10 
REMARK    4  A    between atoms: C8_8  and  C9_9 
REMARK    5  A    between atoms: C8_8  and  C10_10 
ROOT
HETATM    1  C8  UNL     1     -33.935  15.520  -3.895  1.00 20.00     0.016 C 
ENDROOT
BRANCH   1   2
HETATM    2  C9  UNL     1     -35.261  14.741  -3.970  1.00 20.00     0.051 C 
HETATM    3  C4  UNL     1     -36.480  15.654  -4.060  1.00 20.00     0.018 C 
BRANCH   2   4
HETATM    4  C1  UNL     1     -35.254  13.810  -5.181  1.00 20.00     0.126 C 
HETATM    5  C2  UNL     1     -34.363  14.204  -6.334  1.00 20.00     0.091 C 
HETATM    6  O11 UNL     1     -35.913  12.772  -5.219  1.00 20.00    -0.298 OA
ENDBRANCH   2   4
ENDBRANCH   1   2
BRANCH   1   7
HETATM    7  C10 UNL     1     -34.033  16.959  -3.347  1.00 20.00    -0.018 C 
HETATM    8  C5  UNL     1     -33.588  17.952  -4.428  1.00 20.00     0.010 C 
BRANCH   7   9
HETATM    9  C7  UNL     1     -33.274  17.197  -2.025  1.00 20.00     0.004 C 
BRANCH   9  10
HETATM   10  C6  UNL     1     -34.117  17.770  -0.883  1.00 20.00    -0.004 C 
HETATM   11  C3  UNL     1     -35.492  17.120  -0.832  1.00 20.00     0.005 C 
ENDBRANCH   9  10
ENDBRANCH   7   9
ENDBRANCH   1   7
TORSDOF 5
ENDMDL
MODEL 9
REMARK VINA RESULT:      -4.3     10.648     11.540
REMARK  5 active torsions:
REMARK  status: ('A' for Active; 'I' for Inactive)
REMARK    1  A    between atoms: C1_1  and  C9_9 
REMARK    2  A    between atoms: C6_6  and  C7_7 
REMARK    3  A    between atoms: C7_7  and  C10_10 
REMARK    4  A    between atoms: C8_8  and  C9_9 
REMARK    5  A    between atoms: C8_8  and  C10_10 
ROOT
HETATM    1  C8  UNL     1     -34.197  14.750  -4.155  1.00 20.00     0.016 C 
ENDROOT
BRANCH   1   2
HETATM    2  C9  UNL     1     -34.797  14.861  -5.569  1.00 20.00     0.051 C 
HETATM    3  C4  UNL     1     -33.777  15.309  -6.611  1.00 20.00     0.018 C 
BRANCH   2   4
HETATM    4  C1  UNL     1     -35.380  13.516  -5.998  1.00 20.00     0.126 C 
HETATM    5  C2  UNL     1     -35.192  13.126  -7.443  1.00 20.00     0.091 C 
HETATM    6  O11 UNL     1     -35.950  12.763  -5.209  1.00 20.00    -0.298 OA
ENDBRANCH   2   4
ENDBRANCH   1   2
BRANCH   1   7
HETATM    7  C10 UNL     1     -34.703  15.785  -3.129  1.00 20.00    -0.018 C 
HETATM    8  C5  UNL     1     -35.970  16.462  -3.665  1.00 20.00     0.010 C 
BRANCH   7   9
HETATM    9  C7  UNL     1     -33.653  16.830  -2.699  1.00 20.00     0.004 C 
BRANCH   9  10
HETATM   10  C6  UNL     1     -33.849  17.413  -1.297  1.00 20.00    -0.004 C 
HETATM   11  C3  UNL     1     -32.712  18.355  -0.927  1.00 20.00     0.005 C 
ENDBRANCH   9  10
ENDBRANCH   7   9
ENDBRANCH   1   7
TORSDOF 5
ENDMDL
