MODEL 1
REMARK VINA RESULT:      -5.9      0.000      0.000
REMARK  5 active torsions:
REMARK  status: ('A' for Active; 'I' for Inactive)
REMARK    1  A    between atoms: C1_1  and  C9_9 
REMARK    2  A    between atoms: C6_6  and  C7_7 
REMARK    3  A    between atoms: C7_7  and  C10_10 
REMARK    4  A    between atoms: C8_8  and  C9_9 
REMARK    5  A    between atoms: C8_8  and  C10_10 
ROOT
HETATM    1  C8  UNL     1     -33.680   7.578   2.789  1.00 20.00     0.016 C 
ENDROOT
BRANCH   1   2
HETATM    2  C9  UNL     1     -32.175   7.758   2.516  1.00 20.00     0.051 C 
HETATM    3  C4  UNL     1     -31.411   8.279   3.730  1.00 20.00     0.018 C 
BRANCH   2   4
HETATM    4  C1  UNL     1     -31.968   8.727   1.353  1.00 20.00     0.126 C 
HETATM    5  C2  UNL     1     -32.828   9.966   1.339  1.00 20.00     0.091 C 
HETATM    6  O11 UNL     1     -31.124   8.534   0.478  1.00 20.00    -0.298 OA
ENDBRANCH   2   4
ENDBRANCH   1   2
BRANCH   1   7
HETATM    7  C10 UNL     1     -34.184   6.118   2.822  1.00 20.00    -0.018 C 
HETATM    8  C5  UNL     1     -32.985   5.161   2.795  1.00 20.00     0.010 C 
BRANCH   7   9
HETATM    9  C7  UNL     1     -35.130   5.798   3.997  1.00 20.00     0.004 C 
BRANCH   9  10
HETATM   10  C6  UNL     1     -34.439   5.543   5.340  1.00 20.00    -0.004 C 
HETATM   11  C3  UNL     1     -34.047   6.851   6.013  1.00 20.00     0.005 C 
ENDBRANCH   9  10
ENDBRANCH   7   9
ENDBRANCH   1   7
TORSDOF 5
ENDMDL
MODEL 2
REMARK VINA RESULT:      -5.9      2.089      4.886
REMARK  5 active torsions:
REMARK  status: ('A' for Active; 'I' for Inactive)
REMARK    1  A    between atoms: C1_1  and  C9_9 
REMARK    2  A    between atoms: C6_6  and  C7_7 
REMARK    3  A    between atoms: C7_7  and  C10_10 
REMARK    4  A    between atoms: C8_8  and  C9_9 
REMARK    5  A    between atoms: C8_8  and  C10_10 
ROOT
HETATM    1  C8  UNL     1     -33.312   7.213   2.337  1.00 20.00     0.016 C 
ENDROOT
BRANCH   1   2
HETATM    2  C9  UNL     1     -33.176   6.091   3.383  1.00 20.00     0.051 C 
HETATM    3  C4  UNL     1     -33.098   4.702   2.755  1.00 20.00     0.018 C 
BRANCH   2   4
HETATM    4  C1  UNL     1     -34.361   6.128   4.347  1.00 20.00     0.126 C 
HETATM    5  C2  UNL     1     -34.103   6.698   5.719  1.00 20.00     0.091 C 
HETATM    6  O11 UNL     1     -35.484   5.742   4.025  1.00 20.00    -0.298 OA
ENDBRANCH   2   4
ENDBRANCH   1   2
BRANCH   1   7
HETATM    7  C10 UNL     1     -32.411   8.447   2.559  1.00 20.00    -0.018 C 
HETATM    8  C5  UNL     1     -31.363   8.131   3.634  1.00 20.00     0.010 C 
BRANCH   7   9
HETATM    9  C7  UNL     1     -31.750   8.992   1.276  1.00 20.00     0.004 C 
BRANCH   9  10
HETATM   10  C6  UNL     1     -32.541  10.083   0.549  1.00 20.00    -0.004 C 
HETATM   11  C3  UNL     1     -33.316   9.508  -0.629  1.00 20.00     0.005 C 
ENDBRANCH   9  10
ENDBRANCH   7   9
ENDBRANCH   1   7
TORSDOF 5
ENDMDL
MODEL 3
REMARK VINA RESULT:      -5.7      2.065      4.955
REMARK  5 active torsions:
REMARK  status: ('A' for Active; 'I' for Inactive)
REMARK    1  A    between atoms: C1_1  and  C9_9 
REMARK    2  A    between atoms: C6_6  and  C7_7 
REMARK    3  A    between atoms: C7_7  and  C10_10 
REMARK    4  A    between atoms: C8_8  and  C9_9 
REMARK    5  A    between atoms: C8_8  and  C10_10 
ROOT
HETATM    1  C8  UNL     1     -32.844   6.732   2.946  1.00 20.00     0.016 C 
ENDROOT
BRANCH   1   2
HETATM    2  C9  UNL     1     -33.993   6.587   3.961  1.00 20.00     0.051 C 
HETATM    3  C4  UNL     1     -33.751   7.374   5.245  1.00 20.00     0.018 C 
BRANCH   2   4
HETATM    4  C1  UNL     1     -34.192   5.114   4.318  1.00 20.00     0.126 C 
HETATM    5  C2  UNL     1     -34.707   4.815   5.704  1.00 20.00     0.091 C 
HETATM    6  O11 UNL     1     -33.975   4.207   3.516  1.00 20.00    -0.298 OA
ENDBRANCH   2   4
ENDBRANCH   1   2
BRANCH   1   7
HETATM    7  C10 UNL     1     -32.284   8.160   2.768  1.00 20.00    -0.018 C 
HETATM    8  C5  UNL     1     -31.126   8.382   3.749  1.00 20.00     0.010 C 
BRANCH   7   9
HETATM    9  C7  UNL     1     -31.869   8.507   1.324  1.00 20.00     0.004 C 
BRANCH   9  10
HETATM   10  C6  UNL     1     -32.500   9.779   0.752  1.00 20.00    -0.004 C 
HETATM   11  C3  UNL     1     -33.220   9.494  -0.559  1.00 20.00     0.005 C 
ENDBRANCH   9  10
ENDBRANCH   7   9
ENDBRANCH   1   7
TORSDOF 5
ENDMDL
MODEL 4
REMARK VINA RESULT:      -5.3      0.969      1.696
REMARK  5 active torsions:
REMARK  status: ('A' for Active; 'I' for Inactive)
REMARK    1  A    between atoms: C1_1  and  C9_9 
REMARK    2  A    between atoms: C6_6  and  C7_7 
REMARK    3  A    between atoms: C7_7  and  C10_10 
REMARK    4  A    between atoms: C8_8  and  C9_9 
REMARK    5  A    between atoms: C8_8  and  C10_10 
ROOT
HETATM    1  C8  UNL     1     -33.524   7.863   3.097  1.00 20.00     0.016 C 
ENDROOT
BRANCH   1   2
HETATM    2  C9  UNL     1     -32.101   7.957   2.516  1.00 20.00     0.051 C 
HETATM    3  C4  UNL     1     -31.069   8.406   3.547  1.00 20.00     0.018 C 
BRANCH   2   4
HETATM    4  C1  UNL     1     -32.079   8.934   1.342  1.00 20.00     0.126 C 
HETATM    5  C2  UNL     1     -32.965  10.150   1.453  1.00 20.00     0.091 C 
HETATM    6  O11 UNL     1     -31.357   8.767   0.359  1.00 20.00    -0.298 OA
ENDBRANCH   2   4
ENDBRANCH   1   2
BRANCH   1   7
HETATM    7  C10 UNL     1     -33.718   6.829   4.228  1.00 20.00    -0.018 C 
HETATM    8  C5  UNL     1     -33.680   7.541   5.586  1.00 20.00     0.010 C 
BRANCH   7   9
HETATM    9  C7  UNL     1     -34.985   5.961   4.086  1.00 20.00     0.004 C 
BRANCH   9  10
HETATM   10  C6  UNL     1     -34.945   4.623   4.830  1.00 20.00    -0.004 C 
HETATM   11  C3  UNL     1     -33.863   3.712   4.265  1.00 20.00     0.005 C 
ENDBRANCH   9  10
ENDBRANCH   7   9
ENDBRANCH   1   7
TORSDOF 5
ENDMDL
MODEL 5
REMARK VINA RESULT:      -5.1      0.720      1.061
REMARK  5 active torsions:
REMARK  status: ('A' for Active; 'I' for Inactive)
REMARK    1  A    between atoms: C1_1  and  C9_9 
REMARK    2  A    between atoms: C6_6  and  C7_7 
REMARK    3  A    between atoms: C7_7  and  C10_10 
REMARK    4  A    between atoms: C8_8  and  C9_9 
REMARK    5  A    between atoms: C8_8  and  C10_10 
ROOT
HETATM    1  C8  UNL     1     -33.602   7.867   2.624  1.00 20.00     0.016 C 
ENDROOT
BRANCH   1   2
HETATM    2  C9  UNL     1     -32.116   8.024   2.250  1.00 20.00     0.051 C 
HETATM    3  C4  UNL     1     -31.260   8.507   3.416  1.00 20.00     0.018 C 
BRANCH   2   4
HETATM    4  C1  UNL     1     -31.970   9.010   1.092  1.00 20.00     0.126 C 
HETATM    5  C2  UNL     1     -32.808  10.262   1.156  1.00 20.00     0.091 C 
HETATM    6  O11 UNL     1     -31.189   8.820   0.159  1.00 20.00    -0.298 OA
ENDBRANCH   2   4
ENDBRANCH   1   2
BRANCH   1   7
HETATM    7  C10 UNL     1     -33.959   6.600   3.431  1.00 20.00    -0.018 C 
HETATM    8  C5  UNL     1     -33.231   5.389   2.832  1.00 20.00     0.010 C 
BRANCH   7   9
HETATM    9  C7  UNL     1     -33.700   6.716   4.947  1.00 20.00     0.004 C 
BRANCH   9  10
HETATM   10  C6  UNL     1     -34.657   5.915   5.835  1.00 20.00    -0.004 C 
HETATM   11  C3  UNL     1     -34.656   4.441   5.454  1.00 20.00     0.005 C 
ENDBRANCH   9  10
ENDBRANCH   7   9
ENDBRANCH   1   7
TORSDOF 5
ENDMDL
MODEL 6
REMARK VINA RESULT:      -4.8      1.198      2.143
REMARK  5 active torsions:
REMARK  status: ('A' for Active; 'I' for Inactive)
REMARK    1  A    between atoms: C1_1  and  C9_9 
REMARK    2  A    between atoms: C6_6  and  C7_7 
REMARK    3  A    between atoms: C7_7  and  C10_10 
REMARK    4  A    between atoms: C8_8  and  C9_9 
REMARK    5  A    between atoms: C8_8  and  C10_10 
ROOT
HETATM    1  C8  UNL     1     -33.400   8.498   2.419  1.00 20.00     0.016 C 
ENDROOT
BRANCH   1   2
HETATM    2  C9  UNL     1     -32.333   9.440   1.829  1.00 20.00     0.051 C 
HETATM    3  C4  UNL     1     -32.796  10.893   1.767  1.00 20.00     0.018 C 
BRANCH   2   4
HETATM    4  C1  UNL     1     -31.955   8.984   0.421  1.00 20.00     0.126 C 
HETATM    5  C2  UNL     1     -32.982   9.200  -0.662  1.00 20.00     0.091 C 
HETATM    6  O11 UNL     1     -30.858   8.490   0.161  1.00 20.00    -0.298 OA
ENDBRANCH   2   4
ENDBRANCH   1   2
BRANCH   1   7
HETATM    7  C10 UNL     1     -32.860   7.309   3.243  1.00 20.00    -0.018 C 
HETATM    8  C5  UNL     1     -32.922   7.649   4.737  1.00 20.00     0.010 C 
BRANCH   7   9
HETATM    9  C7  UNL     1     -33.552   5.962   2.946  1.00 20.00     0.004 C 
BRANCH   9  10
HETATM   10  C6  UNL     1     -34.722   5.613   3.870  1.00 20.00    -0.004 C 
HETATM   11  C3  UNL     1     -34.468   4.305   4.608  1.00 20.00     0.005 C 
ENDBRANCH   9  10
ENDBRANCH   7   9
ENDBRANCH   1   7
TORSDOF 5
ENDMDL
MODEL 7
REMARK VINA RESULT:      -4.6     10.353     11.244
REMARK  5 active torsions:
REMARK  status: ('A' for Active; 'I' for Inactive)
REMARK    1  A    between atoms: C1_1  and  C9_9 
REMARK    2  A    between atoms: C6_6  and  C7_7 
REMARK    3  A    between atoms: C7_7  and  C10_10 
REMARK    4  A    between atoms: C8_8  and  C9_9 
REMARK    5  A    between atoms: C8_8  and  C10_10 
ROOT
HETATM    1  C8  UNL     1     -34.899  15.742  -3.628  1.00 20.00     0.016 C 
ENDROOT
BRANCH   1   2
HETATM    2  C9  UNL     1     -34.456  14.328  -4.047  1.00 20.00     0.051 C 
HETATM    3  C4  UNL     1     -32.982  14.260  -4.435  1.00 20.00     0.018 C 
BRANCH   2   4
HETATM    4  C1  UNL     1     -35.298  13.845  -5.228  1.00 20.00     0.126 C 
HETATM    5  C2  UNL     1     -35.318  14.726  -6.452  1.00 20.00     0.091 C 
HETATM    6  O11 UNL     1     -35.910  12.778  -5.208  1.00 20.00    -0.298 OA
ENDBRANCH   2   4
ENDBRANCH   1   2
BRANCH   1   7
HETATM    7  C10 UNL     1     -33.777  16.670  -3.115  1.00 20.00    -0.018 C 
HETATM    8  C5  UNL     1     -33.626  17.866  -4.064  1.00 20.00     0.010 C 
BRANCH   7   9
HETATM    9  C7  UNL     1     -33.952  17.134  -1.654  1.00 20.00     0.004 C 
BRANCH   9  10
HETATM   10  C6  UNL     1     -35.375  17.021  -1.100  1.00 20.00    -0.004 C 
HETATM   11  C3  UNL     1     -35.464  17.596   0.307  1.00 20.00     0.005 C 
ENDBRANCH   9  10
ENDBRANCH   7   9
ENDBRANCH   1   7
TORSDOF 5
ENDMDL
MODEL 8
REMARK VINA RESULT:      -4.5     10.563     11.471
REMARK  5 active torsions:
REMARK  status: ('A' for Active; 'I' for Inactive)
REMARK    1  A    between atoms: C1_1  and  C9_9 
REMARK    2  A    between atoms: C6_6  and  C7_7 
REMARK    3  A    between atoms: C7_7  and  C10_10 
REMARK    4  A    between atoms: C8_8  and  C9_9 
REMARK    5  A    between atoms: C8_8  and  C10_10 
ROOT
HETATM    1  C8  UNL     1     -34.540  14.913  -3.731  1.00 20.00     0.016 C 
ENDROOT
BRANCH   1   2
HETATM    2  C9  UNL     1     -35.524  14.986  -4.914  1.00 20.00     0.051 C 
HETATM    3  C4  UNL     1     -36.964  15.227  -4.472  1.00 20.00     0.018 C 
BRANCH   2   4
HETATM    4  C1  UNL     1     -35.468  13.690  -5.721  1.00 20.00     0.126 C 
HETATM    5  C2  UNL     1     -34.849  13.770  -7.094  1.00 20.00     0.091 C 
HETATM    6  O11 UNL     1     -35.878  12.618  -5.275  1.00 20.00    -0.298 OA
ENDBRANCH   2   4
ENDBRANCH   1   2
BRANCH   1   7
HETATM    7  C10 UNL     1     -33.565  16.103  -3.597  1.00 20.00    -0.018 C 
HETATM    8  C5  UNL     1     -33.678  17.001  -4.835  1.00 20.00     0.010 C 
BRANCH   7   9
HETATM    9  C7  UNL     1     -33.730  16.918  -2.298  1.00 20.00     0.004 C 
BRANCH   9  10
HETATM   10  C6  UNL     1     -35.101  16.803  -1.626  1.00 20.00    -0.004 C 
HETATM   11  C3  UNL     1     -35.123  17.537  -0.292  1.00 20.00     0.005 C 
ENDBRANCH   9  10
ENDBRANCH   7   9
ENDBRANCH   1   7
TORSDOF 5
ENDMDL
MODEL 9
REMARK VINA RESULT:      -4.1     10.922     11.845
REMARK  5 active torsions:
REMARK  status: ('A' for Active; 'I' for Inactive)
REMARK    1  A    between atoms: C1_1  and  C9_9 
REMARK    2  A    between atoms: C6_6  and  C7_7 
REMARK    3  A    between atoms: C7_7  and  C10_10 
REMARK    4  A    between atoms: C8_8  and  C9_9 
REMARK    5  A    between atoms: C8_8  and  C10_10 
ROOT
HETATM    1  C8  UNL     1     -34.386  16.917  -3.100  1.00 20.00     0.016 C 
ENDROOT
BRANCH   1   2
HETATM    2  C9  UNL     1     -33.864  17.126  -1.666  1.00 20.00     0.051 C 
HETATM    3  C4  UNL     1     -34.983  17.363  -0.657  1.00 20.00     0.018 C 
BRANCH   2   4
HETATM    4  C1  UNL     1     -32.907  18.316  -1.627  1.00 20.00     0.126 C 
HETATM    5  C2  UNL     1     -32.256  18.621  -0.300  1.00 20.00     0.091 C 
HETATM    6  O11 UNL     1     -32.647  18.986  -2.626  1.00 20.00    -0.298 OA
ENDBRANCH   2   4
ENDBRANCH   1   2
BRANCH   1   7
HETATM    7  C10 UNL     1     -34.812  15.476  -3.454  1.00 20.00    -0.018 C 
HETATM    8  C5  UNL     1     -36.216  15.492  -4.070  1.00 20.00     0.010 C 
BRANCH   7   9
HETATM    9  C7  UNL     1     -33.814  14.720  -4.356  1.00 20.00     0.004 C 
BRANCH   9  10
HETATM   10  C6  UNL     1     -32.974  15.604  -5.282  1.00 20.00    -0.004 C 
HETATM   11  C3  UNL     1     -33.537  15.609  -6.697  1.00 20.00     0.005 C 
ENDBRANCH   9  10
ENDBRANCH   7   9
ENDBRANCH   1   7
TORSDOF 5
ENDMDL
