MODEL 1
REMARK VINA RESULT:      -5.5      0.000      0.000
REMARK  4 active torsions:
REMARK  status: ('A' for Active; 'I' for Inactive)
REMARK    1  A    between atoms: C2_2  and  C6_6 
REMARK    2  A    between atoms: C3_3  and  C6_6 
REMARK    3  A    between atoms: C3_3  and  C7_7 
REMARK    4  A    between atoms: C7_7  and  C8_8 
ROOT
HETATM    1  C1  UNL     1     -32.459   7.436   2.498  1.00 20.00    -0.111 C 
HETATM    2  C2  UNL     1     -32.835   6.298   2.580  1.00 20.00    -0.100 C 
HETATM    3  C4  UNL     1     -32.002   8.822   2.398  1.00 20.00     0.112 C 
ENDROOT
BRANCH   2   4
HETATM    4  C6  UNL     1     -33.287   4.907   2.683  1.00 20.00     0.172 C 
BRANCH   4   5
HETATM    5  C3  UNL     1     -34.122   4.656   3.927  1.00 20.00     0.137 C 
HETATM    6  O9  UNL     1     -34.187   3.553   4.469  1.00 20.00    -0.297 OA
BRANCH   5   7
HETATM    7  C7  UNL     1     -34.876   5.865   4.461  1.00 20.00     0.079 C 
BRANCH   7   8
HETATM    8  C8  UNL     1     -34.495   6.206   5.899  1.00 20.00     0.003 C 
HETATM    9  C5  UNL     1     -33.599   7.431   5.962  1.00 20.00     0.005 C 
ENDBRANCH   7   8
ENDBRANCH   5   7
ENDBRANCH   4   5
ENDBRANCH   2   4
TORSDOF 4
ENDMDL
MODEL 2
REMARK VINA RESULT:      -5.5      1.986      2.922
REMARK  4 active torsions:
REMARK  status: ('A' for Active; 'I' for Inactive)
REMARK    1  A    between atoms: C2_2  and  C6_6 
REMARK    2  A    between atoms: C3_3  and  C6_6 
REMARK    3  A    between atoms: C3_3  and  C7_7 
REMARK    4  A    between atoms: C7_7  and  C8_8 
ROOT
HETATM    1  C1  UNL     1     -32.570   9.037   0.994  1.00 20.00    -0.111 C 
HETATM    2  C2  UNL     1     -32.222   8.572   2.046  1.00 20.00    -0.100 C 
HETATM    3  C4  UNL     1     -32.992   9.602  -0.287  1.00 20.00     0.112 C 
ENDROOT
BRANCH   2   4
HETATM    4  C6  UNL     1     -31.803   8.008   3.334  1.00 20.00     0.172 C 
BRANCH   4   5
HETATM    5  C3  UNL     1     -32.948   7.343   4.078  1.00 20.00     0.137 C 
HETATM    6  O9  UNL     1     -33.181   7.562   5.266  1.00 20.00    -0.297 OA
BRANCH   5   7
HETATM    7  C7  UNL     1     -33.791   6.382   3.253  1.00 20.00     0.079 C 
BRANCH   7   8
HETATM    8  C8  UNL     1     -34.902   5.728   4.068  1.00 20.00     0.003 C 
HETATM    9  C5  UNL     1     -34.488   4.357   4.576  1.00 20.00     0.005 C 
ENDBRANCH   7   8
ENDBRANCH   5   7
ENDBRANCH   4   5
ENDBRANCH   2   4
TORSDOF 4
ENDMDL
MODEL 3
REMARK VINA RESULT:      -5.3      1.548      2.186
REMARK  4 active torsions:
REMARK  status: ('A' for Active; 'I' for Inactive)
REMARK    1  A    between atoms: C2_2  and  C6_6 
REMARK    2  A    between atoms: C3_3  and  C6_6 
REMARK    3  A    between atoms: C3_3  and  C7_7 
REMARK    4  A    between atoms: C7_7  and  C8_8 
ROOT
HETATM    1  C1  UNL     1     -32.516   9.049   1.369  1.00 20.00    -0.111 C 
HETATM    2  C2  UNL     1     -32.464   8.240   2.256  1.00 20.00    -0.100 C 
HETATM    3  C4  UNL     1     -32.578  10.035   0.291  1.00 20.00     0.112 C 
ENDROOT
BRANCH   2   4
HETATM    4  C6  UNL     1     -32.407   7.247   3.334  1.00 20.00     0.172 C 
BRANCH   4   5
HETATM    5  C3  UNL     1     -33.267   6.029   3.050  1.00 20.00     0.137 C 
HETATM    6  O9  UNL     1     -32.842   5.044   2.447  1.00 20.00    -0.297 OA
BRANCH   5   7
HETATM    7  C7  UNL     1     -34.698   6.106   3.563  1.00 20.00     0.079 C 
BRANCH   7   8
HETATM    8  C8  UNL     1     -34.783   5.999   5.083  1.00 20.00     0.003 C 
HETATM    9  C5  UNL     1     -34.470   4.590   5.560  1.00 20.00     0.005 C 
ENDBRANCH   7   8
ENDBRANCH   5   7
ENDBRANCH   4   5
ENDBRANCH   2   4
TORSDOF 4
ENDMDL
MODEL 4
REMARK VINA RESULT:      -5.2      2.272      4.788
REMARK  4 active torsions:
REMARK  status: ('A' for Active; 'I' for Inactive)
REMARK    1  A    between atoms: C2_2  and  C6_6 
REMARK    2  A    between atoms: C3_3  and  C6_6 
REMARK    3  A    between atoms: C3_3  and  C7_7 
REMARK    4  A    between atoms: C7_7  and  C8_8 
ROOT
HETATM    1  C1  UNL     1     -34.189   5.706   4.468  1.00 20.00    -0.111 C 
HETATM    2  C2  UNL     1     -33.764   6.256   3.489  1.00 20.00    -0.100 C 
HETATM    3  C4  UNL     1     -34.705   5.036   5.661  1.00 20.00     0.112 C 
ENDROOT
BRANCH   2   4
HETATM    4  C6  UNL     1     -33.253   6.926   2.288  1.00 20.00     0.172 C 
BRANCH   4   5
HETATM    5  C3  UNL     1     -32.167   7.939   2.605  1.00 20.00     0.137 C 
HETATM    6  O9  UNL     1     -31.745   8.123   3.746  1.00 20.00    -0.297 OA
BRANCH   5   7
HETATM    7  C7  UNL     1     -31.632   8.717   1.411  1.00 20.00     0.079 C 
BRANCH   7   8
HETATM    8  C8  UNL     1     -32.601   9.791   0.927  1.00 20.00     0.003 C 
HETATM    9  C5  UNL     1     -33.159   9.460  -0.446  1.00 20.00     0.005 C 
ENDBRANCH   7   8
ENDBRANCH   5   7
ENDBRANCH   4   5
ENDBRANCH   2   4
TORSDOF 4
ENDMDL
MODEL 5
REMARK VINA RESULT:      -4.6      1.230      2.622
REMARK  4 active torsions:
REMARK  status: ('A' for Active; 'I' for Inactive)
REMARK    1  A    between atoms: C2_2  and  C6_6 
REMARK    2  A    between atoms: C3_3  and  C6_6 
REMARK    3  A    between atoms: C3_3  and  C7_7 
REMARK    4  A    between atoms: C7_7  and  C8_8 
ROOT
HETATM    1  C1  UNL     1     -32.407   8.038   3.095  1.00 20.00    -0.111 C 
HETATM    2  C2  UNL     1     -32.916   7.739   4.141  1.00 20.00    -0.100 C 
HETATM    3  C4  UNL     1     -31.786   8.401   1.822  1.00 20.00     0.112 C 
ENDROOT
BRANCH   2   4
HETATM    4  C6  UNL     1     -33.542   7.380   5.418  1.00 20.00     0.172 C 
BRANCH   4   5
HETATM    5  C3  UNL     1     -34.380   6.117   5.321  1.00 20.00     0.137 C 
HETATM    6  O9  UNL     1     -34.785   5.513   6.314  1.00 20.00    -0.297 OA
BRANCH   5   7
HETATM    7  C7  UNL     1     -34.688   5.645   3.907  1.00 20.00     0.079 C 
BRANCH   7   8
HETATM    8  C8  UNL     1     -33.987   4.336   3.560  1.00 20.00     0.003 C 
HETATM    9  C5  UNL     1     -32.948   4.532   2.469  1.00 20.00     0.005 C 
ENDBRANCH   7   8
ENDBRANCH   5   7
ENDBRANCH   4   5
ENDBRANCH   2   4
TORSDOF 4
ENDMDL
MODEL 6
REMARK VINA RESULT:      -4.5      2.037      4.780
REMARK  4 active torsions:
REMARK  status: ('A' for Active; 'I' for Inactive)
REMARK    1  A    between atoms: C2_2  and  C6_6 
REMARK    2  A    between atoms: C3_3  and  C6_6 
REMARK    3  A    between atoms: C3_3  and  C7_7 
REMARK    4  A    between atoms: C7_7  and  C8_8 
ROOT
HETATM    1  C1  UNL     1     -34.048   6.136   5.278  1.00 20.00    -0.111 C 
HETATM    2  C2  UNL     1     -33.420   6.982   4.701  1.00 20.00    -0.100 C 
HETATM    3  C4  UNL     1     -34.813   5.107   5.983  1.00 20.00     0.112 C 
ENDROOT
BRANCH   2   4
HETATM    4  C6  UNL     1     -32.655   8.010   3.989  1.00 20.00     0.172 C 
BRANCH   4   5
HETATM    5  C3  UNL     1     -32.602   7.765   2.491  1.00 20.00     0.137 C 
HETATM    6  O9  UNL     1     -33.183   6.823   1.954  1.00 20.00    -0.297 OA
BRANCH   5   7
HETATM    7  C7  UNL     1     -31.777   8.765   1.695  1.00 20.00     0.079 C 
BRANCH   7   8
HETATM    8  C8  UNL     1     -32.632   9.860   1.063  1.00 20.00     0.003 C 
HETATM    9  C5  UNL     1     -33.079   9.479  -0.338  1.00 20.00     0.005 C 
ENDBRANCH   7   8
ENDBRANCH   5   7
ENDBRANCH   4   5
ENDBRANCH   2   4
TORSDOF 4
ENDMDL
MODEL 7
REMARK VINA RESULT:      -4.3      2.758      5.131
REMARK  4 active torsions:
REMARK  status: ('A' for Active; 'I' for Inactive)
REMARK    1  A    between atoms: C2_2  and  C6_6 
REMARK    2  A    between atoms: C3_3  and  C6_6 
REMARK    3  A    between atoms: C3_3  and  C7_7 
REMARK    4  A    between atoms: C7_7  and  C8_8 
ROOT
HETATM    1  C1  UNL     1     -33.967   6.542   3.867  1.00 20.00    -0.111 C 
HETATM    2  C2  UNL     1     -32.995   7.216   3.653  1.00 20.00    -0.100 C 
HETATM    3  C4  UNL     1     -35.150   5.723   4.126  1.00 20.00     0.112 C 
ENDROOT
BRANCH   2   4
HETATM    4  C6  UNL     1     -31.804   8.034   3.397  1.00 20.00     0.172 C 
BRANCH   4   5
HETATM    5  C3  UNL     1     -31.776   8.595   1.986  1.00 20.00     0.137 C 
HETATM    6  O9  UNL     1     -31.034   8.149   1.111  1.00 20.00    -0.297 OA
BRANCH   5   7
HETATM    7  C7  UNL     1     -32.730   9.751   1.724  1.00 20.00     0.079 C 
BRANCH   7   8
HETATM    8  C8  UNL     1     -32.576  10.333   0.322  1.00 20.00     0.003 C 
HETATM    9  C5  UNL     1     -33.367   9.535  -0.701  1.00 20.00     0.005 C 
ENDBRANCH   7   8
ENDBRANCH   5   7
ENDBRANCH   4   5
ENDBRANCH   2   4
TORSDOF 4
ENDMDL
MODEL 8
REMARK VINA RESULT:      -3.9     11.833     12.911
REMARK  4 active torsions:
REMARK  status: ('A' for Active; 'I' for Inactive)
REMARK    1  A    between atoms: C2_2  and  C6_6 
REMARK    2  A    between atoms: C3_3  and  C6_6 
REMARK    3  A    between atoms: C3_3  and  C7_7 
REMARK    4  A    between atoms: C7_7  and  C8_8 
ROOT
HETATM    1  C1  UNL     1     -33.467  17.337  -1.853  1.00 20.00    -0.111 C 
HETATM    2  C2  UNL     1     -34.159  16.633  -2.538  1.00 20.00    -0.100 C 
HETATM    3  C4  UNL     1     -32.626  18.195  -1.020  1.00 20.00     0.112 C 
ENDROOT
BRANCH   2   4
HETATM    4  C6  UNL     1     -35.002  15.767  -3.370  1.00 20.00     0.172 C 
BRANCH   4   5
HETATM    5  C3  UNL     1     -34.201  14.711  -4.110  1.00 20.00     0.137 C 
HETATM    6  O9  UNL     1     -34.507  13.519  -4.098  1.00 20.00    -0.297 OA
BRANCH   5   7
HETATM    7  C7  UNL     1     -32.989  15.227  -4.872  1.00 20.00     0.079 C 
BRANCH   7   8
HETATM    8  C8  UNL     1     -33.371  15.992  -6.135  1.00 20.00     0.003 C 
HETATM    9  C5  UNL     1     -33.967  15.070  -7.186  1.00 20.00     0.005 C 
ENDBRANCH   7   8
ENDBRANCH   5   7
ENDBRANCH   4   5
ENDBRANCH   2   4
TORSDOF 4
ENDMDL
MODEL 9
REMARK VINA RESULT:      -3.8     12.043     12.919
REMARK  4 active torsions:
REMARK  status: ('A' for Active; 'I' for Inactive)
REMARK    1  A    between atoms: C2_2  and  C6_6 
REMARK    2  A    between atoms: C3_3  and  C6_6 
REMARK    3  A    between atoms: C3_3  and  C7_7 
REMARK    4  A    between atoms: C7_7  and  C8_8 
ROOT
HETATM    1  C1  UNL     1     -34.528  16.594  -2.533  1.00 20.00    -0.111 C 
HETATM    2  C2  UNL     1     -35.183  15.960  -3.316  1.00 20.00    -0.100 C 
HETATM    3  C4  UNL     1     -33.728  17.364  -1.581  1.00 20.00     0.112 C 
ENDROOT
BRANCH   2   4
HETATM    4  C6  UNL     1     -35.990  15.193  -4.271  1.00 20.00     0.172 C 
BRANCH   4   5
HETATM    5  C3  UNL     1     -35.204  14.073  -4.929  1.00 20.00     0.137 C 
HETATM    6  O9  UNL     1     -35.653  12.934  -5.053  1.00 20.00    -0.297 OA
BRANCH   5   7
HETATM    7  C7  UNL     1     -33.818  14.454  -5.428  1.00 20.00     0.079 C 
BRANCH   7   8
HETATM    8  C8  UNL     1     -33.855  15.172  -6.773  1.00 20.00     0.003 C 
HETATM    9  C5  UNL     1     -34.078  14.198  -7.918  1.00 20.00     0.005 C 
ENDBRANCH   7   8
ENDBRANCH   5   7
ENDBRANCH   4   5
ENDBRANCH   2   4
TORSDOF 4
ENDMDL
