MODEL 1
REMARK VINA RESULT:      -5.7      0.000      0.000
REMARK  4 active torsions:
REMARK  status: ('A' for Active; 'I' for Inactive)
REMARK    1  A    between atoms: C1_1  and  C3_3 
REMARK    2  A    between atoms: C4_4  and  C10_10 
REMARK    3  A    between atoms: C8_8  and  C10_10 
REMARK    4  A    between atoms: C9_9  and  C10_10 
ROOT
HETATM    1  C2  UNL     1     -31.360   8.619   3.326  1.00 20.00     0.018 A 
HETATM    2  C3  UNL     1     -31.670   8.295   1.887  1.00 20.00     0.060 A 
HETATM    3  C4  UNL     1     -32.110   7.363   2.989  1.00 20.00     0.002 A 
ENDROOT
BRANCH   3   4
HETATM    4  C10 UNL     1     -33.581   7.216   3.394  1.00 20.00    -0.010 C 
BRANCH   4   5
HETATM    5  C8  UNL     1     -33.769   7.380   4.917  1.00 20.00     0.000 C 
HETATM    6  C6  UNL     1     -34.373   6.159   5.597  1.00 20.00     0.005 C 
ENDBRANCH   4   5
BRANCH   4   7
HETATM    7  C9  UNL     1     -34.155   5.850   2.960  1.00 20.00     0.000 C 
HETATM    8  C7  UNL     1     -33.093   4.832   2.570  1.00 20.00     0.005 C 
ENDBRANCH   4   7
ENDBRANCH   3   4
BRANCH   2   9
HETATM    9  C1  UNL     1     -32.644   9.115   1.158  1.00 20.00     0.127 C 
HETATM   10  C5  UNL     1     -32.808  10.540   1.614  1.00 20.00     0.091 C 
HETATM   11  O11 UNL     1     -33.294   8.661   0.217  1.00 20.00    -0.298 OA
ENDBRANCH   2   9
TORSDOF 4
ENDMDL
MODEL 2
REMARK VINA RESULT:      -4.4      1.848      4.465
REMARK  4 active torsions:
REMARK  status: ('A' for Active; 'I' for Inactive)
REMARK    1  A    between atoms: C1_1  and  C3_3 
REMARK    2  A    between atoms: C4_4  and  C10_10 
REMARK    3  A    between atoms: C8_8  and  C10_10 
REMARK    4  A    between atoms: C9_9  and  C10_10 
ROOT
HETATM    1  C2  UNL     1     -33.539   4.952   2.023  1.00 20.00     0.018 A 
HETATM    2  C3  UNL     1     -33.542   4.851   3.527  1.00 20.00     0.060 A 
HETATM    3  C4  UNL     1     -32.646   5.847   2.832  1.00 20.00     0.002 A 
ENDROOT
BRANCH   3   4
HETATM    4  C10 UNL     1     -32.913   7.356   2.880  1.00 20.00    -0.010 C 
BRANCH   4   5
HETATM    5  C8  UNL     1     -32.539   8.040   1.549  1.00 20.00     0.000 C 
HETATM    6  C6  UNL     1     -32.312   9.540   1.671  1.00 20.00     0.005 C 
ENDBRANCH   4   5
BRANCH   4   7
HETATM    7  C9  UNL     1     -32.137   8.033   4.030  1.00 20.00     0.000 C 
HETATM    8  C7  UNL     1     -32.879   8.028   5.359  1.00 20.00     0.005 C 
ENDBRANCH   4   7
ENDBRANCH   3   4
BRANCH   2   9
HETATM    9  C1  UNL     1     -34.723   5.292   4.277  1.00 20.00     0.127 C 
HETATM   10  C5  UNL     1     -34.719   5.038   5.760  1.00 20.00     0.091 C 
HETATM   11  O11 UNL     1     -35.671   5.846   3.721  1.00 20.00    -0.298 OA
ENDBRANCH   2   9
TORSDOF 4
ENDMDL
MODEL 3
REMARK VINA RESULT:      -4.2     10.499     11.479
REMARK  4 active torsions:
REMARK  status: ('A' for Active; 'I' for Inactive)
REMARK    1  A    between atoms: C1_1  and  C3_3 
REMARK    2  A    between atoms: C4_4  and  C10_10 
REMARK    3  A    between atoms: C8_8  and  C10_10 
REMARK    4  A    between atoms: C9_9  and  C10_10 
ROOT
HETATM    1  C2  UNL     1     -37.221  15.091  -4.554  1.00 20.00     0.018 A 
HETATM    2  C3  UNL     1     -36.397  14.849  -5.794  1.00 20.00     0.060 A 
HETATM    3  C4  UNL     1     -35.959  15.874  -4.776  1.00 20.00     0.002 A 
ENDROOT
BRANCH   3   4
HETATM    4  C10 UNL     1     -34.748  15.650  -3.863  1.00 20.00    -0.010 C 
BRANCH   4   5
HETATM    5  C8  UNL     1     -34.950  16.306  -2.482  1.00 20.00     0.000 C 
HETATM    6  C6  UNL     1     -33.735  17.074  -1.981  1.00 20.00     0.005 C 
ENDBRANCH   4   5
BRANCH   4   7
HETATM    7  C9  UNL     1     -33.452  16.200  -4.496  1.00 20.00     0.000 C 
HETATM    8  C7  UNL     1     -33.689  17.111  -5.692  1.00 20.00     0.005 C 
ENDBRANCH   4   7
ENDBRANCH   3   4
BRANCH   2   9
HETATM    9  C1  UNL     1     -35.678  13.580  -5.945  1.00 20.00     0.127 C 
HETATM   10  C5  UNL     1     -34.676  13.497  -7.065  1.00 20.00     0.091 C 
HETATM   11  O11 UNL     1     -35.881  12.629  -5.191  1.00 20.00    -0.298 OA
ENDBRANCH   2   9
TORSDOF 4
ENDMDL
MODEL 4
REMARK VINA RESULT:      -4.2      1.843      3.951
REMARK  4 active torsions:
REMARK  status: ('A' for Active; 'I' for Inactive)
REMARK    1  A    between atoms: C1_1  and  C3_3 
REMARK    2  A    between atoms: C4_4  and  C10_10 
REMARK    3  A    between atoms: C8_8  and  C10_10 
REMARK    4  A    between atoms: C9_9  and  C10_10 
ROOT
HETATM    1  C2  UNL     1     -35.123   6.525   3.569  1.00 20.00     0.018 A 
HETATM    2  C3  UNL     1     -34.279   5.752   2.588  1.00 20.00     0.060 A 
HETATM    3  C4  UNL     1     -33.868   7.139   3.020  1.00 20.00     0.002 A 
ENDROOT
BRANCH   3   4
HETATM    4  C10 UNL     1     -32.668   7.383   3.941  1.00 20.00    -0.010 C 
BRANCH   4   5
HETATM    5  C8  UNL     1     -33.098   8.028   5.275  1.00 20.00     0.000 C 
HETATM    6  C6  UNL     1     -33.813   7.072   6.219  1.00 20.00     0.005 C 
ENDBRANCH   4   5
BRANCH   4   7
HETATM    7  C9  UNL     1     -31.609   8.281   3.267  1.00 20.00     0.000 C 
HETATM    8  C7  UNL     1     -31.935   8.641   1.824  1.00 20.00     0.005 C 
ENDBRANCH   4   7
ENDBRANCH   3   4
BRANCH   2   9
HETATM    9  C1  UNL     1     -33.542   4.569   3.046  1.00 20.00     0.127 C 
HETATM   10  C5  UNL     1     -34.032   3.913   4.309  1.00 20.00     0.091 C 
HETATM   11  O11 UNL     1     -32.573   4.133   2.426  1.00 20.00    -0.298 OA
ENDBRANCH   2   9
TORSDOF 4
ENDMDL
MODEL 5
REMARK VINA RESULT:      -4.1     10.280     11.580
REMARK  4 active torsions:
REMARK  status: ('A' for Active; 'I' for Inactive)
REMARK    1  A    between atoms: C1_1  and  C3_3 
REMARK    2  A    between atoms: C4_4  and  C10_10 
REMARK    3  A    between atoms: C8_8  and  C10_10 
REMARK    4  A    between atoms: C9_9  and  C10_10 
ROOT
HETATM    1  C2  UNL     1     -34.247  14.389  -5.357  1.00 20.00     0.018 A 
HETATM    2  C3  UNL     1     -35.495  13.716  -4.844  1.00 20.00     0.060 A 
HETATM    3  C4  UNL     1     -34.765  14.723  -3.988  1.00 20.00     0.002 A 
ENDROOT
BRANCH   3   4
HETATM    4  C10 UNL     1     -35.335  16.117  -3.703  1.00 20.00    -0.010 C 
BRANCH   4   5
HETATM    5  C8  UNL     1     -34.689  17.189  -4.605  1.00 20.00     0.000 C 
HETATM    6  C6  UNL     1     -35.675  17.892  -5.529  1.00 20.00     0.005 C 
ENDBRANCH   4   5
BRANCH   4   7
HETATM    7  C9  UNL     1     -35.140  16.518  -2.226  1.00 20.00     0.000 C 
HETATM    8  C7  UNL     1     -33.766  17.098  -1.921  1.00 20.00     0.005 C 
ENDBRANCH   4   7
ENDBRANCH   3   4
BRANCH   2   9
HETATM    9  C1  UNL     1     -36.790  14.040  -5.452  1.00 20.00     0.127 C 
HETATM   10  C5  UNL     1     -36.765  14.569  -6.861  1.00 20.00     0.091 C 
HETATM   11  O11 UNL     1     -37.846  13.885  -4.841  1.00 20.00    -0.298 OA
ENDBRANCH   2   9
TORSDOF 4
ENDMDL
MODEL 6
REMARK VINA RESULT:      -4.1     10.351     11.366
REMARK  4 active torsions:
REMARK  status: ('A' for Active; 'I' for Inactive)
REMARK    1  A    between atoms: C1_1  and  C3_3 
REMARK    2  A    between atoms: C4_4  and  C10_10 
REMARK    3  A    between atoms: C8_8  and  C10_10 
REMARK    4  A    between atoms: C9_9  and  C10_10 
ROOT
HETATM    1  C2  UNL     1     -33.221  15.829  -5.165  1.00 20.00     0.018 A 
HETATM    2  C3  UNL     1     -33.710  14.448  -4.808  1.00 20.00     0.060 A 
HETATM    3  C4  UNL     1     -33.809  15.574  -3.807  1.00 20.00     0.002 A 
ENDROOT
BRANCH   3   4
HETATM    4  C10 UNL     1     -35.150  16.206  -3.420  1.00 20.00    -0.010 C 
BRANCH   4   5
HETATM    5  C8  UNL     1     -35.468  17.438  -4.293  1.00 20.00     0.000 C 
HETATM    6  C6  UNL     1     -36.882  17.444  -4.858  1.00 20.00     0.005 C 
ENDBRANCH   4   5
BRANCH   4   7
HETATM    7  C9  UNL     1     -35.174  16.622  -1.934  1.00 20.00     0.000 C 
HETATM    8  C7  UNL     1     -33.891  17.293  -1.462  1.00 20.00     0.005 C 
ENDBRANCH   4   7
ENDBRANCH   3   4
BRANCH   2   9
HETATM    9  C1  UNL     1     -34.909  13.916  -5.466  1.00 20.00     0.127 C 
HETATM   10  C5  UNL     1     -35.311  14.559  -6.765  1.00 20.00     0.091 C 
HETATM   11  O11 UNL     1     -35.552  12.987  -4.980  1.00 20.00    -0.298 OA
ENDBRANCH   2   9
TORSDOF 4
ENDMDL
MODEL 7
REMARK VINA RESULT:      -4.1     10.174     11.026
REMARK  4 active torsions:
REMARK  status: ('A' for Active; 'I' for Inactive)
REMARK    1  A    between atoms: C1_1  and  C3_3 
REMARK    2  A    between atoms: C4_4  and  C10_10 
REMARK    3  A    between atoms: C8_8  and  C10_10 
REMARK    4  A    between atoms: C9_9  and  C10_10 
ROOT
HETATM    1  C2  UNL     1     -36.393  15.869  -3.832  1.00 20.00     0.018 A 
HETATM    2  C3  UNL     1     -35.071  15.772  -4.550  1.00 20.00     0.060 A 
HETATM    3  C4  UNL     1     -35.267  16.784  -3.447  1.00 20.00     0.002 A 
ENDROOT
BRANCH   3   4
HETATM    4  C10 UNL     1     -34.595  16.638  -2.077  1.00 20.00    -0.010 C 
BRANCH   4   5
HETATM    5  C8  UNL     1     -35.548  17.040  -0.933  1.00 20.00     0.000 C 
HETATM    6  C6  UNL     1     -34.871  17.815   0.189  1.00 20.00     0.005 C 
ENDBRANCH   4   5
BRANCH   4   7
HETATM    7  C9  UNL     1     -33.310  17.488  -1.983  1.00 20.00     0.000 C 
HETATM    8  C7  UNL     1     -33.229  18.601  -3.018  1.00 20.00     0.005 C 
ENDBRANCH   4   7
ENDBRANCH   3   4
BRANCH   2   9
HETATM    9  C1  UNL     1     -34.226  14.590  -4.347  1.00 20.00     0.127 C 
HETATM   10  C5  UNL     1     -32.744  14.776  -4.533  1.00 20.00     0.091 C 
HETATM   11  O11 UNL     1     -34.705  13.500  -4.038  1.00 20.00    -0.298 OA
ENDBRANCH   2   9
TORSDOF 4
ENDMDL
MODEL 8
REMARK VINA RESULT:      -4.0     10.403     11.227
REMARK  4 active torsions:
REMARK  status: ('A' for Active; 'I' for Inactive)
REMARK    1  A    between atoms: C1_1  and  C3_3 
REMARK    2  A    between atoms: C4_4  and  C10_10 
REMARK    3  A    between atoms: C8_8  and  C10_10 
REMARK    4  A    between atoms: C9_9  and  C10_10 
ROOT
HETATM    1  C2  UNL     1     -34.133  17.003  -5.360  1.00 20.00     0.018 A 
HETATM    2  C3  UNL     1     -33.189  15.936  -4.869  1.00 20.00     0.060 A 
HETATM    3  C4  UNL     1     -33.954  16.787  -3.885  1.00 20.00     0.002 A 
ENDROOT
BRANCH   3   4
HETATM    4  C10 UNL     1     -35.109  16.227  -3.047  1.00 20.00    -0.010 C 
BRANCH   4   5
HETATM    5  C8  UNL     1     -36.478  16.554  -3.678  1.00 20.00     0.000 C 
HETATM    6  C6  UNL     1     -37.228  15.332  -4.189  1.00 20.00     0.005 C 
ENDBRANCH   4   5
BRANCH   4   7
HETATM    7  C9  UNL     1     -35.078  16.771  -1.603  1.00 20.00     0.000 C 
HETATM    8  C7  UNL     1     -33.794  17.509  -1.251  1.00 20.00     0.005 C 
ENDBRANCH   4   7
ENDBRANCH   3   4
BRANCH   2   9
HETATM    9  C1  UNL     1     -33.531  14.523  -5.071  1.00 20.00     0.127 C 
HETATM   10  C5  UNL     1     -34.375  14.195  -6.272  1.00 20.00     0.091 C 
HETATM   11  O11 UNL     1     -33.144  13.649  -4.297  1.00 20.00    -0.298 OA
ENDBRANCH   2   9
TORSDOF 4
ENDMDL
MODEL 9
REMARK VINA RESULT:      -4.0     10.601     11.447
REMARK  4 active torsions:
REMARK  status: ('A' for Active; 'I' for Inactive)
REMARK    1  A    between atoms: C1_1  and  C3_3 
REMARK    2  A    between atoms: C4_4  and  C10_10 
REMARK    3  A    between atoms: C8_8  and  C10_10 
REMARK    4  A    between atoms: C9_9  and  C10_10 
ROOT
HETATM    1  C2  UNL     1     -37.219  16.881  -4.522  1.00 20.00     0.018 A 
HETATM    2  C3  UNL     1     -36.687  15.874  -5.509  1.00 20.00     0.060 A 
HETATM    3  C4  UNL     1     -35.744  16.605  -4.584  1.00 20.00     0.002 A 
ENDROOT
BRANCH   3   4
HETATM    4  C10 UNL     1     -35.045  15.906  -3.414  1.00 20.00    -0.010 C 
BRANCH   4   5
HETATM    5  C8  UNL     1     -35.417  16.552  -2.063  1.00 20.00     0.000 C 
HETATM    6  C6  UNL     1     -34.267  17.294  -1.398  1.00 20.00     0.005 C 
ENDBRANCH   4   5
BRANCH   4   7
HETATM    7  C9  UNL     1     -33.510  15.928  -3.575  1.00 20.00     0.000 C 
HETATM    8  C7  UNL     1     -33.022  15.360  -4.901  1.00 20.00     0.005 C 
ENDBRANCH   4   7
ENDBRANCH   3   4
BRANCH   2   9
HETATM    9  C1  UNL     1     -36.981  14.450  -5.315  1.00 20.00     0.127 C 
HETATM   10  C5  UNL     1     -36.015  13.469  -5.923  1.00 20.00     0.091 C 
HETATM   11  O11 UNL     1     -37.968  14.075  -4.684  1.00 20.00    -0.298 OA
ENDBRANCH   2   9
TORSDOF 4
ENDMDL
