MODEL 1
REMARK VINA RESULT:      -5.4      0.000      0.000
REMARK  4 active torsions:
REMARK  status: ('A' for Active; 'I' for Inactive)
REMARK    1  A    between atoms: C2_2  and  C7_7 
REMARK    2  A    between atoms: C5_5  and  C8_8 
REMARK    3  A    between atoms: C7_7  and  C8_8 
REMARK    4  A    between atoms: C8_8  and  O9_9 
ROOT
HETATM    1  C1  UNL     1     -34.130   5.889   4.373  1.00 20.00    -0.111 C 
HETATM    2  C2  UNL     1     -33.606   6.358   3.400  1.00 20.00    -0.104 C 
HETATM    3  C6  UNL     1     -34.767   5.317   5.558  1.00 20.00     0.112 C 
ENDROOT
BRANCH   2   4
HETATM    4  C7  UNL     1     -32.964   6.935   2.207  1.00 20.00     0.126 C 
BRANCH   4   5
HETATM    5  C8  UNL     1     -32.451   8.351   2.481  1.00 20.00     0.133 C 
BRANCH   5   6
HETATM    6  C5  UNL     1     -31.990   9.027   1.196  1.00 20.00     0.015 A 
HETATM    7  C3  UNL     1     -32.944   9.206   0.049  1.00 20.00     0.007 A 
HETATM    8  C4  UNL     1     -32.490  10.400   0.842  1.00 20.00     0.007 A 
ENDBRANCH   5   6
BRANCH   5   9
HETATM    9  O9  UNL     1     -31.344   8.273   3.376  1.00 20.00    -0.394 OA
HETATM   10  H21 UNL     1     -31.601   8.758   4.175  1.00 20.00     0.210 HD
ENDBRANCH   5   9
ENDBRANCH   4   5
ENDBRANCH   2   4
TORSDOF 4
ENDMDL
MODEL 2
REMARK VINA RESULT:      -5.4      1.507      4.913
REMARK  4 active torsions:
REMARK  status: ('A' for Active; 'I' for Inactive)
REMARK    1  A    between atoms: C2_2  and  C7_7 
REMARK    2  A    between atoms: C5_5  and  C8_8 
REMARK    3  A    between atoms: C7_7  and  C8_8 
REMARK    4  A    between atoms: C8_8  and  O9_9 
ROOT
HETATM    1  C1  UNL     1     -32.537   9.136   1.556  1.00 20.00    -0.111 C 
HETATM    2  C2  UNL     1     -32.547   8.211   2.321  1.00 20.00    -0.104 C 
HETATM    3  C6  UNL     1     -32.524  10.263   0.624  1.00 20.00     0.112 C 
ENDROOT
BRANCH   2   4
HETATM    4  C7  UNL     1     -32.560   7.076   3.259  1.00 20.00     0.126 C 
BRANCH   4   5
HETATM    5  C8  UNL     1     -33.636   6.055   2.883  1.00 20.00     0.133 C 
BRANCH   5   6
HETATM    6  C5  UNL     1     -34.690   5.940   3.976  1.00 20.00     0.015 A 
HETATM    7  C3  UNL     1     -34.659   4.787   4.940  1.00 20.00     0.007 A 
HETATM    8  C4  UNL     1     -34.318   6.173   5.414  1.00 20.00     0.007 A 
ENDBRANCH   5   6
BRANCH   5   9
HETATM    9  O9  UNL     1     -33.020   4.781   2.709  1.00 20.00    -0.394 OA
HETATM   10  H21 UNL     1     -32.519   4.605   3.520  1.00 20.00     0.210 HD
ENDBRANCH   5   9
ENDBRANCH   4   5
ENDBRANCH   2   4
TORSDOF 4
ENDMDL
MODEL 3
REMARK VINA RESULT:      -5.1      1.244      4.974
REMARK  4 active torsions:
REMARK  status: ('A' for Active; 'I' for Inactive)
REMARK    1  A    between atoms: C2_2  and  C7_7 
REMARK    2  A    between atoms: C5_5  and  C8_8 
REMARK    3  A    between atoms: C7_7  and  C8_8 
REMARK    4  A    between atoms: C8_8  and  O9_9 
ROOT
HETATM    1  C1  UNL     1     -32.543   8.928   1.614  1.00 20.00    -0.111 C 
HETATM    2  C2  UNL     1     -32.673   7.856   2.138  1.00 20.00    -0.104 C 
HETATM    3  C6  UNL     1     -32.383  10.234   0.976  1.00 20.00     0.112 C 
ENDROOT
BRANCH   2   4
HETATM    4  C7  UNL     1     -32.835   6.540   2.780  1.00 20.00     0.126 C 
BRANCH   4   5
HETATM    5  C8  UNL     1     -33.487   6.671   4.158  1.00 20.00     0.133 C 
BRANCH   5   6
HETATM    6  C5  UNL     1     -34.588   5.635   4.346  1.00 20.00     0.015 A 
HETATM    7  C3  UNL     1     -34.258   4.169   4.346  1.00 20.00     0.007 A 
HETATM    8  C4  UNL     1     -34.674   4.845   5.623  1.00 20.00     0.007 A 
ENDBRANCH   5   6
BRANCH   5   9
HETATM    9  O9  UNL     1     -34.062   7.971   4.273  1.00 20.00    -0.394 OA
HETATM   10  H21 UNL     1     -34.348   8.225   3.382  1.00 20.00     0.210 HD
ENDBRANCH   5   9
ENDBRANCH   4   5
ENDBRANCH   2   4
TORSDOF 4
ENDMDL
MODEL 4
REMARK VINA RESULT:      -4.7      2.193      4.846
REMARK  4 active torsions:
REMARK  status: ('A' for Active; 'I' for Inactive)
REMARK    1  A    between atoms: C2_2  and  C7_7 
REMARK    2  A    between atoms: C5_5  and  C8_8 
REMARK    3  A    between atoms: C7_7  and  C8_8 
REMARK    4  A    between atoms: C8_8  and  O9_9 
ROOT
HETATM    1  C1  UNL     1     -32.633   7.724   2.178  1.00 20.00    -0.111 C 
HETATM    2  C2  UNL     1     -33.078   6.676   2.559  1.00 20.00    -0.104 C 
HETATM    3  C6  UNL     1     -32.092   9.001   1.714  1.00 20.00     0.112 C 
ENDROOT
BRANCH   2   4
HETATM    4  C7  UNL     1     -33.622   5.390   3.026  1.00 20.00     0.126 C 
BRANCH   4   5
HETATM    5  C8  UNL     1     -34.565   5.583   4.215  1.00 20.00     0.133 C 
BRANCH   5   6
HETATM    6  C5  UNL     1     -33.800   6.022   5.458  1.00 20.00     0.015 A 
HETATM    7  C3  UNL     1     -33.431   7.466   5.650  1.00 20.00     0.007 A 
HETATM    8  C4  UNL     1     -34.485   6.838   6.519  1.00 20.00     0.007 A 
ENDBRANCH   5   6
BRANCH   5   9
HETATM    9  O9  UNL     1     -35.213   4.344   4.495  1.00 20.00    -0.394 OA
HETATM   10  H21 UNL     1     -35.955   4.548   5.084  1.00 20.00     0.210 HD
ENDBRANCH   5   9
ENDBRANCH   4   5
ENDBRANCH   2   4
TORSDOF 4
ENDMDL
MODEL 5
REMARK VINA RESULT:      -4.4      1.639      4.922
REMARK  4 active torsions:
REMARK  status: ('A' for Active; 'I' for Inactive)
REMARK    1  A    between atoms: C2_2  and  C7_7 
REMARK    2  A    between atoms: C5_5  and  C8_8 
REMARK    3  A    between atoms: C7_7  and  C8_8 
REMARK    4  A    between atoms: C8_8  and  O9_9 
ROOT
HETATM    1  C1  UNL     1     -32.201   8.340   1.858  1.00 20.00    -0.111 C 
HETATM    2  C2  UNL     1     -33.003   8.048   2.703  1.00 20.00    -0.104 C 
HETATM    3  C6  UNL     1     -31.224   8.696   0.830  1.00 20.00     0.112 C 
ENDROOT
BRANCH   2   4
HETATM    4  C7  UNL     1     -33.987   7.692   3.739  1.00 20.00     0.126 C 
BRANCH   4   5
HETATM    5  C8  UNL     1     -33.362   6.805   4.818  1.00 20.00     0.133 C 
BRANCH   5   6
HETATM    6  C5  UNL     1     -34.345   5.743   5.294  1.00 20.00     0.015 A 
HETATM    7  C3  UNL     1     -35.343   5.152   4.339  1.00 20.00     0.007 A 
HETATM    8  C4  UNL     1     -34.197   4.317   4.839  1.00 20.00     0.007 A 
ENDBRANCH   5   6
BRANCH   5   9
HETATM    9  O9  UNL     1     -33.002   7.621   5.931  1.00 20.00    -0.394 OA
HETATM   10  H21 UNL     1     -32.405   7.089   6.480  1.00 20.00     0.210 HD
ENDBRANCH   5   9
ENDBRANCH   4   5
ENDBRANCH   2   4
TORSDOF 4
ENDMDL
MODEL 6
REMARK VINA RESULT:      -4.1     10.437     11.065
REMARK  4 active torsions:
REMARK  status: ('A' for Active; 'I' for Inactive)
REMARK    1  A    between atoms: C2_2  and  C7_7 
REMARK    2  A    between atoms: C5_5  and  C8_8 
REMARK    3  A    between atoms: C7_7  and  C8_8 
REMARK    4  A    between atoms: C8_8  and  O9_9 
ROOT
HETATM    1  C1  UNL     1     -34.359  16.402  -2.824  1.00 20.00    -0.111 C 
HETATM    2  C2  UNL     1     -35.120  15.762  -3.495  1.00 20.00    -0.104 C 
HETATM    3  C6  UNL     1     -33.431  17.183  -2.006  1.00 20.00     0.112 C 
ENDROOT
BRANCH   2   4
HETATM    4  C7  UNL     1     -36.055  14.976  -4.318  1.00 20.00     0.126 C 
BRANCH   4   5
HETATM    5  C8  UNL     1     -35.316  13.933  -5.159  1.00 20.00     0.133 C 
BRANCH   5   6
HETATM    6  C5  UNL     1     -35.302  14.324  -6.632  1.00 20.00     0.015 A 
HETATM    7  C3  UNL     1     -34.243  15.249  -7.160  1.00 20.00     0.007 A 
HETATM    8  C4  UNL     1     -34.230  13.796  -7.544  1.00 20.00     0.007 A 
ENDBRANCH   5   6
BRANCH   5   9
HETATM    9  O9  UNL     1     -35.983  12.680  -5.028  1.00 20.00    -0.394 OA
HETATM   10  H21 UNL     1     -36.546  12.748  -4.241  1.00 20.00     0.210 HD
ENDBRANCH   5   9
ENDBRANCH   4   5
ENDBRANCH   2   4
TORSDOF 4
ENDMDL
MODEL 7
REMARK VINA RESULT:      -4.0     10.016     10.534
REMARK  4 active torsions:
REMARK  status: ('A' for Active; 'I' for Inactive)
REMARK    1  A    between atoms: C2_2  and  C7_7 
REMARK    2  A    between atoms: C5_5  and  C8_8 
REMARK    3  A    between atoms: C7_7  and  C8_8 
REMARK    4  A    between atoms: C8_8  and  O9_9 
ROOT
HETATM    1  C1  UNL     1     -34.448  16.697  -2.256  1.00 20.00    -0.111 C 
HETATM    2  C2  UNL     1     -33.938  16.389  -3.298  1.00 20.00    -0.104 C 
HETATM    3  C6  UNL     1     -35.068  17.072  -0.986  1.00 20.00     0.112 C 
ENDROOT
BRANCH   2   4
HETATM    4  C7  UNL     1     -33.312  16.012  -4.577  1.00 20.00     0.126 C 
BRANCH   4   5
HETATM    5  C8  UNL     1     -33.664  14.575  -4.967  1.00 20.00     0.133 C 
BRANCH   5   6
HETATM    6  C5  UNL     1     -35.055  14.196  -4.473  1.00 20.00     0.015 A 
HETATM    7  C3  UNL     1     -36.276  14.778  -5.127  1.00 20.00     0.007 A 
HETATM    8  C4  UNL     1     -35.944  13.324  -5.316  1.00 20.00     0.007 A 
ENDBRANCH   5   6
BRANCH   5   9
HETATM    9  O9  UNL     1     -32.715  13.692  -4.372  1.00 20.00    -0.394 OA
HETATM   10  H21 UNL     1     -32.675  12.907  -4.940  1.00 20.00     0.210 HD
ENDBRANCH   5   9
ENDBRANCH   4   5
ENDBRANCH   2   4
TORSDOF 4
ENDMDL
MODEL 8
REMARK VINA RESULT:      -3.9     10.282     10.948
REMARK  4 active torsions:
REMARK  status: ('A' for Active; 'I' for Inactive)
REMARK    1  A    between atoms: C2_2  and  C7_7 
REMARK    2  A    between atoms: C5_5  and  C8_8 
REMARK    3  A    between atoms: C7_7  and  C8_8 
REMARK    4  A    between atoms: C8_8  and  O9_9 
ROOT
HETATM    1  C1  UNL     1     -34.031  16.693  -2.411  1.00 20.00    -0.111 C 
HETATM    2  C2  UNL     1     -34.415  15.893  -3.219  1.00 20.00    -0.104 C 
HETATM    3  C6  UNL     1     -33.564  17.668  -1.426  1.00 20.00     0.112 C 
ENDROOT
BRANCH   2   4
HETATM    4  C7  UNL     1     -34.885  14.910  -4.210  1.00 20.00     0.126 C 
BRANCH   4   5
HETATM    5  C8  UNL     1     -33.805  14.612  -5.253  1.00 20.00     0.133 C 
BRANCH   5   6
HETATM    6  C5  UNL     1     -34.395  13.909  -6.469  1.00 20.00     0.015 A 
HETATM    7  C3  UNL     1     -35.477  14.569  -7.276  1.00 20.00     0.007 A 
HETATM    8  C4  UNL     1     -34.098  14.415  -7.853  1.00 20.00     0.007 A 
ENDBRANCH   5   6
BRANCH   5   9
HETATM    9  O9  UNL     1     -32.824  13.759  -4.667  1.00 20.00    -0.394 OA
HETATM   10  H21 UNL     1     -32.911  12.898  -5.104  1.00 20.00     0.210 HD
ENDBRANCH   5   9
ENDBRANCH   4   5
ENDBRANCH   2   4
TORSDOF 4
ENDMDL
MODEL 9
REMARK VINA RESULT:      -3.8     10.165     11.074
REMARK  4 active torsions:
REMARK  status: ('A' for Active; 'I' for Inactive)
REMARK    1  A    between atoms: C2_2  and  C7_7 
REMARK    2  A    between atoms: C5_5  and  C8_8 
REMARK    3  A    between atoms: C7_7  and  C8_8 
REMARK    4  A    between atoms: C8_8  and  O9_9 
ROOT
HETATM    1  C1  UNL     1     -33.427  17.237  -2.028  1.00 20.00    -0.111 C 
HETATM    2  C2  UNL     1     -33.834  16.378  -2.762  1.00 20.00    -0.104 C 
HETATM    3  C6  UNL     1     -32.933  18.282  -1.133  1.00 20.00     0.112 C 
ENDROOT
BRANCH   2   4
HETATM    4  C7  UNL     1     -34.331  15.325  -3.663  1.00 20.00     0.126 C 
BRANCH   4   5
HETATM    5  C8  UNL     1     -33.317  15.013  -4.767  1.00 20.00     0.133 C 
BRANCH   5   6
HETATM    6  C5  UNL     1     -33.999  14.903  -6.125  1.00 20.00     0.015 A 
HETATM    7  C3  UNL     1     -35.095  15.860  -6.502  1.00 20.00     0.007 A 
HETATM    8  C4  UNL     1     -33.756  15.947  -7.180  1.00 20.00     0.007 A 
ENDBRANCH   5   6
BRANCH   5   9
HETATM    9  O9  UNL     1     -32.688  13.767  -4.473  1.00 20.00    -0.394 OA
HETATM   10  H21 UNL     1     -32.452  13.793  -3.533  1.00 20.00     0.210 HD
ENDBRANCH   5   9
ENDBRANCH   4   5
ENDBRANCH   2   4
TORSDOF 4
ENDMDL
