MODEL 1
REMARK VINA RESULT:      -4.9      0.000      0.000
REMARK  4 active torsions:
REMARK  status: ('A' for Active; 'I' for Inactive)
REMARK    1  A    between atoms: C2_2  and  C7_7 
REMARK    2  A    between atoms: C7_7  and  N11_11 
REMARK    3  A    between atoms: C8_8  and  C9_9 
REMARK    4  A    between atoms: C8_8  and  N11_11 
ROOT
HETATM    1  C1  UNL     1     -32.531   9.177   0.815  1.00 20.00    -0.109 C 
HETATM    2  C2  UNL     1     -32.168   8.648   1.829  1.00 20.00    -0.079 C 
HETATM    3  C4  UNL     1     -32.973   9.821  -0.421  1.00 20.00     0.112 C 
ENDROOT
BRANCH   2   4
HETATM    4  C7  UNL     1     -31.725   8.001   3.062  1.00 20.00     0.327 C 
BRANCH   4   5
HETATM    5  N11 UNL     1     -32.648   6.854   3.394  1.00 20.00    -0.064 N 
HETATM    6  C6  UNL     1     -32.607   5.793   2.323  1.00 20.00     0.270 C 
HETATM    7  H26 UNL     1     -32.262   6.414   4.247  1.00 20.00     0.280 HD
BRANCH   5   8
HETATM    8  C8  UNL     1     -34.028   7.303   3.702  1.00 20.00     0.254 C 
BRANCH   8   9
HETATM    9  C9  UNL     1     -34.560   6.676   4.995  1.00 20.00     0.114 C 
HETATM   10  C3  UNL     1     -34.596   5.203   4.905  1.00 20.00     0.065 C 
HETATM   11  N10 UNL     1     -34.626   4.046   4.835  1.00 20.00    -0.197 NA
HETATM   12  C5  UNL     1     -33.784   7.115   6.236  1.00 20.00     0.027 C 
ENDBRANCH   8   9
ENDBRANCH   5   8
ENDBRANCH   4   5
ENDBRANCH   2   4
TORSDOF 4
ENDMDL
MODEL 2
REMARK VINA RESULT:      -4.4     10.789     11.765
REMARK  4 active torsions:
REMARK  status: ('A' for Active; 'I' for Inactive)
REMARK    1  A    between atoms: C2_2  and  C7_7 
REMARK    2  A    between atoms: C7_7  and  N11_11 
REMARK    3  A    between atoms: C8_8  and  C9_9 
REMARK    4  A    between atoms: C8_8  and  N11_11 
ROOT
HETATM    1  C1  UNL     1     -33.310  17.800  -1.129  1.00 20.00    -0.109 C 
HETATM    2  C2  UNL     1     -34.226  17.202  -1.624  1.00 20.00    -0.079 C 
HETATM    3  C4  UNL     1     -32.195  18.530  -0.527  1.00 20.00     0.112 C 
ENDROOT
BRANCH   2   4
HETATM    4  C7  UNL     1     -35.341  16.478  -2.228  1.00 20.00     0.327 C 
BRANCH   4   5
HETATM    5  N11 UNL     1     -35.596  17.003  -3.620  1.00 20.00    -0.064 N 
HETATM    6  C6  UNL     1     -37.072  17.166  -3.880  1.00 20.00     0.270 C 
HETATM    7  H26 UNL     1     -35.193  17.955  -3.645  1.00 20.00     0.280 HD
BRANCH   5   8
HETATM    8  C8  UNL     1     -34.917  16.197  -4.665  1.00 20.00     0.254 C 
BRANCH   8   9
HETATM    9  C9  UNL     1     -34.523  14.808  -4.152  1.00 20.00     0.114 C 
HETATM   10  C3  UNL     1     -35.335  13.750  -4.783  1.00 20.00     0.065 C 
HETATM   11  N10 UNL     1     -35.973  12.916  -5.277  1.00 20.00    -0.197 NA
HETATM   12  C5  UNL     1     -33.034  14.509  -4.321  1.00 20.00     0.027 C 
ENDBRANCH   8   9
ENDBRANCH   5   8
ENDBRANCH   4   5
ENDBRANCH   2   4
TORSDOF 4
ENDMDL
MODEL 3
REMARK VINA RESULT:      -4.3     11.021     12.116
REMARK  4 active torsions:
REMARK  status: ('A' for Active; 'I' for Inactive)
REMARK    1  A    between atoms: C2_2  and  C7_7 
REMARK    2  A    between atoms: C7_7  and  N11_11 
REMARK    3  A    between atoms: C8_8  and  C9_9 
REMARK    4  A    between atoms: C8_8  and  N11_11 
ROOT
HETATM    1  C1  UNL     1     -34.546  16.679  -2.409  1.00 20.00    -0.109 C 
HETATM    2  C2  UNL     1     -34.007  16.501  -3.467  1.00 20.00    -0.079 C 
HETATM    3  C4  UNL     1     -35.200  16.897  -1.120  1.00 20.00     0.112 C 
ENDROOT
BRANCH   2   4
HETATM    4  C7  UNL     1     -33.349  16.287  -4.754  1.00 20.00     0.327 C 
BRANCH   4   5
HETATM    5  N11 UNL     1     -34.293  15.582  -5.698  1.00 20.00    -0.064 N 
HETATM    6  C6  UNL     1     -33.669  15.401  -7.059  1.00 20.00     0.270 C 
HETATM    7  H26 UNL     1     -34.425  14.631  -5.314  1.00 20.00     0.280 HD
BRANCH   5   8
HETATM    8  C8  UNL     1     -35.625  16.234  -5.762  1.00 20.00     0.254 C 
BRANCH   8   9
HETATM    9  C9  UNL     1     -36.762  15.241  -5.500  1.00 20.00     0.114 C 
HETATM   10  C3  UNL     1     -36.250  13.865  -5.342  1.00 20.00     0.065 C 
HETATM   11  N10 UNL     1     -35.850  12.783  -5.219  1.00 20.00    -0.197 NA
HETATM   12  C5  UNL     1     -37.629  15.628  -4.302  1.00 20.00     0.027 C 
ENDBRANCH   8   9
ENDBRANCH   5   8
ENDBRANCH   4   5
ENDBRANCH   2   4
TORSDOF 4
ENDMDL
MODEL 4
REMARK VINA RESULT:      -4.2      1.801      5.458
REMARK  4 active torsions:
REMARK  status: ('A' for Active; 'I' for Inactive)
REMARK    1  A    between atoms: C2_2  and  C7_7 
REMARK    2  A    between atoms: C7_7  and  N11_11 
REMARK    3  A    between atoms: C8_8  and  C9_9 
REMARK    4  A    between atoms: C8_8  and  N11_11 
ROOT
HETATM    1  C1  UNL     1     -34.297   5.757   4.691  1.00 20.00    -0.109 C 
HETATM    2  C2  UNL     1     -34.004   6.393   3.716  1.00 20.00    -0.079 C 
HETATM    3  C4  UNL     1     -34.656   4.981   5.877  1.00 20.00     0.112 C 
ENDROOT
BRANCH   2   4
HETATM    4  C7  UNL     1     -33.650   7.167   2.528  1.00 20.00     0.327 C 
BRANCH   4   5
HETATM    5  N11 UNL     1     -32.171   7.470   2.540  1.00 20.00    -0.064 N 
HETATM    6  C6  UNL     1     -31.751   8.086   3.850  1.00 20.00     0.270 C 
HETATM    7  H26 UNL     1     -31.691   6.556   2.486  1.00 20.00     0.280 HD
BRANCH   5   8
HETATM    8  C8  UNL     1     -31.746   8.275   1.367  1.00 20.00     0.254 C 
BRANCH   8   9
HETATM    9  C9  UNL     1     -32.833   9.260   0.925  1.00 20.00     0.114 C 
HETATM   10  C3  UNL     1     -32.616  10.600   1.505  1.00 20.00     0.065 C 
HETATM   11  N10 UNL     1     -32.448  11.653   1.961  1.00 20.00    -0.197 NA
HETATM   12  C5  UNL     1     -32.972   9.354  -0.595  1.00 20.00     0.027 C 
ENDBRANCH   8   9
ENDBRANCH   5   8
ENDBRANCH   4   5
ENDBRANCH   2   4
TORSDOF 4
ENDMDL
MODEL 5
REMARK VINA RESULT:      -4.1     11.226     12.194
REMARK  4 active torsions:
REMARK  status: ('A' for Active; 'I' for Inactive)
REMARK    1  A    between atoms: C2_2  and  C7_7 
REMARK    2  A    between atoms: C7_7  and  N11_11 
REMARK    3  A    between atoms: C8_8  and  C9_9 
REMARK    4  A    between atoms: C8_8  and  N11_11 
ROOT
HETATM    1  C1  UNL     1     -34.667  16.525  -2.163  1.00 20.00    -0.109 C 
HETATM    2  C2  UNL     1     -34.107  16.006  -3.090  1.00 20.00    -0.079 C 
HETATM    3  C4  UNL     1     -35.349  17.156  -1.034  1.00 20.00     0.112 C 
ENDROOT
BRANCH   2   4
HETATM    4  C7  UNL     1     -33.430  15.375  -4.220  1.00 20.00     0.327 C 
BRANCH   4   5
HETATM    5  N11 UNL     1     -33.743  16.131  -5.488  1.00 20.00    -0.064 N 
HETATM    6  C6  UNL     1     -33.682  17.621  -5.265  1.00 20.00     0.270 C 
HETATM    7  H26 UNL     1     -32.980  15.908  -6.150  1.00 20.00     0.280 HD
BRANCH   5   8
HETATM    8  C8  UNL     1     -35.020  15.698  -6.108  1.00 20.00     0.254 C 
BRANCH   8   9
HETATM    9  C9  UNL     1     -35.309  14.215  -5.850  1.00 20.00     0.114 C 
HETATM   10  C3  UNL     1     -36.701  14.006  -5.405  1.00 20.00     0.065 C 
HETATM   11  N10 UNL     1     -37.794  13.840  -5.054  1.00 20.00    -0.197 NA
HETATM   12  C5  UNL     1     -34.995  13.327  -7.054  1.00 20.00     0.027 C 
ENDBRANCH   8   9
ENDBRANCH   5   8
ENDBRANCH   4   5
ENDBRANCH   2   4
TORSDOF 4
ENDMDL
MODEL 6
REMARK VINA RESULT:      -4.1      1.060      1.849
REMARK  4 active torsions:
REMARK  status: ('A' for Active; 'I' for Inactive)
REMARK    1  A    between atoms: C2_2  and  C7_7 
REMARK    2  A    between atoms: C7_7  and  N11_11 
REMARK    3  A    between atoms: C8_8  and  C9_9 
REMARK    4  A    between atoms: C8_8  and  N11_11 
ROOT
HETATM    1  C1  UNL     1     -32.607   9.215   0.629  1.00 20.00    -0.109 C 
HETATM    2  C2  UNL     1     -32.249   8.885   1.726  1.00 20.00    -0.079 C 
HETATM    3  C4  UNL     1     -33.044   9.618  -0.707  1.00 20.00     0.112 C 
ENDROOT
BRANCH   2   4
HETATM    4  C7  UNL     1     -31.818   8.484   3.063  1.00 20.00     0.327 C 
BRANCH   4   5
HETATM    5  N11 UNL     1     -32.852   7.575   3.681  1.00 20.00    -0.064 N 
HETATM    6  C6  UNL     1     -32.888   7.731   5.181  1.00 20.00     0.270 C 
HETATM    7  H26 UNL     1     -33.768   7.907   3.336  1.00 20.00     0.280 HD
BRANCH   5   8
HETATM    8  C8  UNL     1     -32.693   6.161   3.258  1.00 20.00     0.254 C 
BRANCH   8   9
HETATM    9  C9  UNL     1     -34.044   5.453   3.110  1.00 20.00     0.114 C 
HETATM   10  C3  UNL     1     -34.416   4.737   4.346  1.00 20.00     0.065 C 
HETATM   11  N10 UNL     1     -34.709   4.173   5.316  1.00 20.00    -0.197 NA
HETATM   12  C5  UNL     1     -35.168   6.395   2.680  1.00 20.00     0.027 C 
ENDBRANCH   8   9
ENDBRANCH   5   8
ENDBRANCH   4   5
ENDBRANCH   2   4
TORSDOF 4
ENDMDL
MODEL 7
REMARK VINA RESULT:      -4.0      1.859      5.200
REMARK  4 active torsions:
REMARK  status: ('A' for Active; 'I' for Inactive)
REMARK    1  A    between atoms: C2_2  and  C7_7 
REMARK    2  A    between atoms: C7_7  and  N11_11 
REMARK    3  A    between atoms: C8_8  and  C9_9 
REMARK    4  A    between atoms: C8_8  and  N11_11 
ROOT
HETATM    1  C1  UNL     1     -34.051   6.150   5.358  1.00 20.00    -0.109 C 
HETATM    2  C2  UNL     1     -33.406   7.019   4.837  1.00 20.00    -0.079 C 
HETATM    3  C4  UNL     1     -34.835   5.092   5.994  1.00 20.00     0.112 C 
ENDROOT
BRANCH   2   4
HETATM    4  C7  UNL     1     -32.619   8.072   4.202  1.00 20.00     0.327 C 
BRANCH   4   5
HETATM    5  N11 UNL     1     -32.797   8.010   2.704  1.00 20.00    -0.064 N 
HETATM    6  C6  UNL     1     -33.121   6.608   2.252  1.00 20.00     0.270 C 
HETATM    7  H26 UNL     1     -33.633   8.580   2.492  1.00 20.00     0.280 HD
BRANCH   5   8
HETATM    8  C8  UNL     1     -31.649   8.597   1.969  1.00 20.00     0.254 C 
BRANCH   8   9
HETATM    9  C9  UNL     1     -32.078   9.768   1.079  1.00 20.00     0.114 C 
HETATM   10  C3  UNL     1     -32.826   9.301  -0.104  1.00 20.00     0.065 C 
HETATM   11  N10 UNL     1     -33.414   8.936  -1.035  1.00 20.00    -0.197 NA
HETATM   12  C5  UNL     1     -32.880  10.829   1.833  1.00 20.00     0.027 C 
ENDBRANCH   8   9
ENDBRANCH   5   8
ENDBRANCH   4   5
ENDBRANCH   2   4
TORSDOF 4
ENDMDL
MODEL 8
REMARK VINA RESULT:      -4.0     11.083     12.346
REMARK  4 active torsions:
REMARK  status: ('A' for Active; 'I' for Inactive)
REMARK    1  A    between atoms: C2_2  and  C7_7 
REMARK    2  A    between atoms: C7_7  and  N11_11 
REMARK    3  A    between atoms: C8_8  and  C9_9 
REMARK    4  A    between atoms: C8_8  and  N11_11 
ROOT
HETATM    1  C1  UNL     1     -35.093  16.641  -2.340  1.00 20.00    -0.109 C 
HETATM    2  C2  UNL     1     -35.918  16.207  -3.095  1.00 20.00    -0.079 C 
HETATM    3  C4  UNL     1     -34.087  17.170  -1.419  1.00 20.00     0.112 C 
ENDROOT
BRANCH   2   4
HETATM    4  C7  UNL     1     -36.923  15.674  -4.013  1.00 20.00     0.327 C 
BRANCH   4   5
HETATM    5  N11 UNL     1     -36.250  15.164  -5.264  1.00 20.00    -0.064 N 
HETATM    6  C6  UNL     1     -37.264  14.811  -6.323  1.00 20.00     0.270 C 
HETATM    7  H26 UNL     1     -35.707  15.959  -5.641  1.00 20.00     0.280 HD
BRANCH   5   8
HETATM    8  C8  UNL     1     -35.301  14.057  -4.990  1.00 20.00     0.254 C 
BRANCH   8   9
HETATM    9  C9  UNL     1     -33.877  14.398  -5.439  1.00 20.00     0.114 C 
HETATM   10  C3  UNL     1     -33.824  15.708  -6.116  1.00 20.00     0.065 C 
HETATM   11  N10 UNL     1     -33.781  16.738  -6.649  1.00 20.00    -0.197 NA
HETATM   12  C5  UNL     1     -32.861  14.347  -4.297  1.00 20.00     0.027 C 
ENDBRANCH   8   9
ENDBRANCH   5   8
ENDBRANCH   4   5
ENDBRANCH   2   4
TORSDOF 4
ENDMDL
MODEL 9
REMARK VINA RESULT:      -3.9     10.855     12.721
REMARK  4 active torsions:
REMARK  status: ('A' for Active; 'I' for Inactive)
REMARK    1  A    between atoms: C2_2  and  C7_7 
REMARK    2  A    between atoms: C7_7  and  N11_11 
REMARK    3  A    between atoms: C8_8  and  C9_9 
REMARK    4  A    between atoms: C8_8  and  N11_11 
ROOT
HETATM    1  C1  UNL     1     -34.069  16.986  -1.992  1.00 20.00    -0.109 C 
HETATM    2  C2  UNL     1     -34.481  16.247  -2.843  1.00 20.00    -0.079 C 
HETATM    3  C4  UNL     1     -33.568  17.886  -0.955  1.00 20.00     0.112 C 
ENDROOT
BRANCH   2   4
HETATM    4  C7  UNL     1     -34.986  15.346  -3.877  1.00 20.00     0.327 C 
BRANCH   4   5
HETATM    5  N11 UNL     1     -33.883  15.026  -4.857  1.00 20.00    -0.064 N 
HETATM    6  C6  UNL     1     -32.777  14.242  -4.197  1.00 20.00     0.270 C 
HETATM    7  H26 UNL     1     -34.301  14.396  -5.562  1.00 20.00     0.280 HD
BRANCH   5   8
HETATM    8  C8  UNL     1     -33.385  16.232  -5.566  1.00 20.00     0.254 C 
BRANCH   8   9
HETATM    9  C9  UNL     1     -33.640  16.155  -7.075  1.00 20.00     0.114 C 
HETATM   10  C3  UNL     1     -34.082  14.805  -7.479  1.00 20.00     0.065 C 
HETATM   11  N10 UNL     1     -34.427  13.745  -7.799  1.00 20.00    -0.197 NA
HETATM   12  C5  UNL     1     -34.631  17.209  -7.568  1.00 20.00     0.027 C 
ENDBRANCH   8   9
ENDBRANCH   5   8
ENDBRANCH   4   5
ENDBRANCH   2   4
TORSDOF 4
ENDMDL
