MODEL 1
REMARK VINA RESULT:      -6.2      0.000      0.000
REMARK  3 active torsions:
REMARK  status: ('A' for Active; 'I' for Inactive)
REMARK    1  A    between atoms: C2_2  and  C11_11 
REMARK    2  A    between atoms: C7_7  and  C11_11 
REMARK    3  A    between atoms: C8_8  and  C12_12 
ROOT
HETATM    1  C1  UNL     1     -32.448   9.167   1.558  1.00 20.00    -0.111 C 
HETATM    2  C2  UNL     1     -32.437   8.161   2.213  1.00 20.00    -0.106 C 
HETATM    3  C9  UNL     1     -32.462  10.394   0.762  1.00 20.00     0.112 C 
ENDROOT
BRANCH   2   4
HETATM    4  C11 UNL     1     -32.429   6.928   3.006  1.00 20.00     0.106 C 
BRANCH   4   5
HETATM    5  C7  UNL     1     -33.657   6.076   2.708  1.00 20.00     0.067 C 
HETATM    6  C3  UNL     1     -33.289   4.603   2.736  1.00 20.00     0.132 C 
HETATM    7  C4  UNL     1     -33.276   3.911   4.080  1.00 20.00     0.079 C 
HETATM    8  O13 UNL     1     -32.915   4.020   1.718  1.00 20.00    -0.298 OA
HETATM    9  C5  UNL     1     -34.568   4.183   4.836  1.00 20.00     0.012 C 
HETATM   10  C8  UNL     1     -34.875   5.678   4.982  1.00 20.00    -0.014 C 
HETATM   11  C6  UNL     1     -34.861   6.373   3.610  1.00 20.00     0.017 C 
BRANCH  10  12
HETATM   12  C12 UNL     1     -33.972   6.355   6.013  1.00 20.00     0.000 C 
HETATM   13  C10 UNL     1     -33.852   7.823   5.762  1.00 20.00     0.005 C 
ENDBRANCH  10  12
ENDBRANCH   4   5
ENDBRANCH   2   4
TORSDOF 3
ENDMDL
MODEL 2
REMARK VINA RESULT:      -5.7     11.435     12.783
REMARK  3 active torsions:
REMARK  status: ('A' for Active; 'I' for Inactive)
REMARK    1  A    between atoms: C2_2  and  C11_11 
REMARK    2  A    between atoms: C7_7  and  C11_11 
REMARK    3  A    between atoms: C8_8  and  C12_12 
ROOT
HETATM    1  C1  UNL     1     -34.877  16.962  -1.563  1.00 20.00    -0.111 C 
HETATM    2  C2  UNL     1     -35.297  16.335  -2.498  1.00 20.00    -0.106 C 
HETATM    3  C9  UNL     1     -34.365  17.723  -0.425  1.00 20.00     0.112 C 
ENDROOT
BRANCH   2   4
HETATM    4  C11 UNL     1     -35.811  15.579  -3.643  1.00 20.00     0.106 C 
BRANCH   4   5
HETATM    5  C7  UNL     1     -34.760  14.617  -4.181  1.00 20.00     0.067 C 
HETATM    6  C3  UNL     1     -35.321  13.836  -5.358  1.00 20.00     0.132 C 
HETATM    7  C4  UNL     1     -35.260  14.486  -6.721  1.00 20.00     0.079 C 
HETATM    8  O13 UNL     1     -35.896  12.760  -5.192  1.00 20.00    -0.298 OA
HETATM    9  C5  UNL     1     -33.858  15.003  -7.007  1.00 20.00     0.012 C 
HETATM   10  C8  UNL     1     -33.332  15.945  -5.916  1.00 20.00    -0.014 C 
HETATM   11  C6  UNL     1     -33.422  15.280  -4.533  1.00 20.00     0.017 C 
BRANCH  10  12
HETATM   12  C12 UNL     1     -33.996  17.321  -5.972  1.00 20.00     0.000 C 
HETATM   13  C10 UNL     1     -33.435  18.246  -4.942  1.00 20.00     0.005 C 
ENDBRANCH  10  12
ENDBRANCH   4   5
ENDBRANCH   2   4
TORSDOF 3
ENDMDL
MODEL 3
REMARK VINA RESULT:      -4.9     11.581     13.135
REMARK  3 active torsions:
REMARK  status: ('A' for Active; 'I' for Inactive)
REMARK    1  A    between atoms: C2_2  and  C11_11 
REMARK    2  A    between atoms: C7_7  and  C11_11 
REMARK    3  A    between atoms: C8_8  and  C12_12 
ROOT
HETATM    1  C1  UNL     1     -34.953  17.272  -0.889  1.00 20.00    -0.111 C 
HETATM    2  C2  UNL     1     -34.960  16.621  -1.898  1.00 20.00    -0.106 C 
HETATM    3  C9  UNL     1     -34.942  18.065   0.340  1.00 20.00     0.112 C 
ENDROOT
BRANCH   2   4
HETATM    4  C11 UNL     1     -34.976  15.821  -3.126  1.00 20.00     0.106 C 
BRANCH   4   5
HETATM    5  C7  UNL     1     -33.634  15.890  -3.843  1.00 20.00     0.067 C 
HETATM    6  C3  UNL     1     -33.450  14.666  -4.724  1.00 20.00     0.132 C 
HETATM    7  C4  UNL     1     -34.061  14.701  -6.106  1.00 20.00     0.079 C 
HETATM    8  O13 UNL     1     -32.913  13.645  -4.292  1.00 20.00    -0.298 OA
HETATM    9  C5  UNL     1     -33.673  15.980  -6.833  1.00 20.00     0.012 C 
HETATM   10  C8  UNL     1     -34.015  17.248  -6.039  1.00 20.00    -0.014 C 
HETATM   11  C6  UNL     1     -33.407  17.187  -4.629  1.00 20.00     0.017 C 
BRANCH  10  12
HETATM   12  C12 UNL     1     -35.515  17.543  -6.041  1.00 20.00     0.000 C 
HETATM   13  C10 UNL     1     -35.840  18.749  -5.221  1.00 20.00     0.005 C 
ENDBRANCH  10  12
ENDBRANCH   4   5
ENDBRANCH   2   4
TORSDOF 3
ENDMDL
MODEL 4
REMARK VINA RESULT:      -4.9     11.464     12.710
REMARK  3 active torsions:
REMARK  status: ('A' for Active; 'I' for Inactive)
REMARK    1  A    between atoms: C2_2  and  C11_11 
REMARK    2  A    between atoms: C7_7  and  C11_11 
REMARK    3  A    between atoms: C8_8  and  C12_12 
ROOT
HETATM    1  C1  UNL     1     -35.546  16.979  -1.625  1.00 20.00    -0.111 C 
HETATM    2  C2  UNL     1     -35.861  16.657  -2.738  1.00 20.00    -0.106 C 
HETATM    3  C9  UNL     1     -35.161  17.372  -0.270  1.00 20.00     0.112 C 
ENDROOT
BRANCH   2   4
HETATM    4  C11 UNL     1     -36.251  16.257  -4.093  1.00 20.00     0.106 C 
BRANCH   4   5
HETATM    5  C7  UNL     1     -36.242  14.741  -4.242  1.00 20.00     0.067 C 
HETATM    6  C3  UNL     1     -37.265  14.313  -5.280  1.00 20.00     0.132 C 
HETATM    7  C4  UNL     1     -36.844  14.344  -6.731  1.00 20.00     0.079 C 
HETATM    8  O13 UNL     1     -38.425  14.049  -4.960  1.00 20.00    -0.298 OA
HETATM    9  C5  UNL     1     -35.516  13.625  -6.920  1.00 20.00     0.012 C 
HETATM   10  C8  UNL     1     -34.408  14.162  -6.007  1.00 20.00    -0.014 C 
HETATM   11  C6  UNL     1     -34.859  14.147  -4.537  1.00 20.00     0.017 C 
BRANCH  10  12
HETATM   12  C12 UNL     1     -33.889  15.525  -6.467  1.00 20.00     0.000 C 
HETATM   13  C10 UNL     1     -33.054  16.181  -5.417  1.00 20.00     0.005 C 
ENDBRANCH  10  12
ENDBRANCH   4   5
ENDBRANCH   2   4
TORSDOF 3
ENDMDL
MODEL 5
REMARK VINA RESULT:      -4.7     11.445     12.914
REMARK  3 active torsions:
REMARK  status: ('A' for Active; 'I' for Inactive)
REMARK    1  A    between atoms: C2_2  and  C11_11 
REMARK    2  A    between atoms: C7_7  and  C11_11 
REMARK    3  A    between atoms: C8_8  and  C12_12 
ROOT
HETATM    1  C1  UNL     1     -33.242  17.833  -1.222  1.00 20.00    -0.111 C 
HETATM    2  C2  UNL     1     -33.395  17.207  -2.236  1.00 20.00    -0.106 C 
HETATM    3  C9  UNL     1     -33.054  18.595   0.012  1.00 20.00     0.112 C 
ENDROOT
BRANCH   2   4
HETATM    4  C11 UNL     1     -33.590  16.446  -3.473  1.00 20.00     0.106 C 
BRANCH   4   5
HETATM    5  C7  UNL     1     -34.831  15.566  -3.386  1.00 20.00     0.067 C 
HETATM    6  C3  UNL     1     -36.056  16.347  -3.828  1.00 20.00     0.132 C 
HETATM    7  C4  UNL     1     -36.347  16.414  -5.309  1.00 20.00     0.079 C 
HETATM    8  O13 UNL     1     -36.729  16.987  -3.019  1.00 20.00    -0.298 OA
HETATM    9  C5  UNL     1     -36.314  15.023  -5.926  1.00 20.00     0.012 C 
HETATM   10  C8  UNL     1     -35.005  14.274  -5.647  1.00 20.00    -0.014 C 
HETATM   11  C6  UNL     1     -34.710  14.235  -4.139  1.00 20.00     0.017 C 
BRANCH  10  12
HETATM   12  C12 UNL     1     -33.842  14.816  -6.478  1.00 20.00     0.000 C 
HETATM   13  C10 UNL     1     -33.970  14.439  -7.918  1.00 20.00     0.005 C 
ENDBRANCH  10  12
ENDBRANCH   4   5
ENDBRANCH   2   4
TORSDOF 3
ENDMDL
MODEL 6
REMARK VINA RESULT:      -4.7     11.855     13.006
REMARK  3 active torsions:
REMARK  status: ('A' for Active; 'I' for Inactive)
REMARK    1  A    between atoms: C2_2  and  C11_11 
REMARK    2  A    between atoms: C7_7  and  C11_11 
REMARK    3  A    between atoms: C8_8  and  C12_12 
ROOT
HETATM    1  C1  UNL     1     -31.976  18.480  -0.127  1.00 20.00    -0.111 C 
HETATM    2  C2  UNL     1     -32.567  18.179  -1.129  1.00 20.00    -0.106 C 
HETATM    3  C9  UNL     1     -31.257  18.846   1.092  1.00 20.00     0.112 C 
ENDROOT
BRANCH   2   4
HETATM    4  C11 UNL     1     -33.295  17.817  -2.349  1.00 20.00     0.106 C 
BRANCH   4   5
HETATM    5  C7  UNL     1     -34.230  16.640  -2.100  1.00 20.00     0.067 C 
HETATM    6  C3  UNL     1     -35.551  17.135  -1.536  1.00 20.00     0.132 C 
HETATM    7  C4  UNL     1     -36.596  17.612  -2.518  1.00 20.00     0.079 C 
HETATM    8  O13 UNL     1     -35.725  17.240  -0.321  1.00 20.00    -0.298 OA
HETATM    9  C5  UNL     1     -36.805  16.585  -3.621  1.00 20.00     0.012 C 
HETATM   10  C8  UNL     1     -35.504  16.199  -4.335  1.00 20.00    -0.014 C 
HETATM   11  C6  UNL     1     -34.443  15.739  -3.322  1.00 20.00     0.017 C 
BRANCH  10  12
HETATM   12  C12 UNL     1     -35.010  17.302  -5.272  1.00 20.00     0.000 C 
HETATM   13  C10 UNL     1     -33.727  16.925  -5.938  1.00 20.00     0.005 C 
ENDBRANCH  10  12
ENDBRANCH   4   5
ENDBRANCH   2   4
TORSDOF 3
ENDMDL
MODEL 7
REMARK VINA RESULT:      -4.5     11.447     12.924
REMARK  3 active torsions:
REMARK  status: ('A' for Active; 'I' for Inactive)
REMARK    1  A    between atoms: C2_2  and  C11_11 
REMARK    2  A    between atoms: C7_7  and  C11_11 
REMARK    3  A    between atoms: C8_8  and  C12_12 
ROOT
HETATM    1  C1  UNL     1     -35.346  17.075  -0.969  1.00 20.00    -0.111 C 
HETATM    2  C2  UNL     1     -35.067  16.784  -2.101  1.00 20.00    -0.106 C 
HETATM    3  C9  UNL     1     -35.685  17.430   0.408  1.00 20.00     0.112 C 
ENDROOT
BRANCH   2   4
HETATM    4  C11 UNL     1     -34.720  16.425  -3.478  1.00 20.00     0.106 C 
BRANCH   4   5
HETATM    5  C7  UNL     1     -35.250  15.041  -3.834  1.00 20.00     0.067 C 
HETATM    6  C3  UNL     1     -36.595  15.162  -4.530  1.00 20.00     0.132 C 
HETATM    7  C4  UNL     1     -36.591  15.419  -6.019  1.00 20.00     0.079 C 
HETATM    8  O13 UNL     1     -37.646  15.153  -3.889  1.00 20.00    -0.298 OA
HETATM    9  C5  UNL     1     -35.676  14.434  -6.732  1.00 20.00     0.012 C 
HETATM   10  C8  UNL     1     -34.251  14.422  -6.165  1.00 20.00    -0.014 C 
HETATM   11  C6  UNL     1     -34.271  14.184  -4.646  1.00 20.00     0.017 C 
BRANCH  10  12
HETATM   12  C12 UNL     1     -33.456  15.663  -6.573  1.00 20.00     0.000 C 
HETATM   13  C10 UNL     1     -33.883  16.177  -7.909  1.00 20.00     0.005 C 
ENDBRANCH  10  12
ENDBRANCH   4   5
ENDBRANCH   2   4
TORSDOF 3
ENDMDL
MODEL 8
REMARK VINA RESULT:      -4.5     11.560     12.865
REMARK  3 active torsions:
REMARK  status: ('A' for Active; 'I' for Inactive)
REMARK    1  A    between atoms: C2_2  and  C11_11 
REMARK    2  A    between atoms: C7_7  and  C11_11 
REMARK    3  A    between atoms: C8_8  and  C12_12 
ROOT
HETATM    1  C1  UNL     1     -37.954  17.803  -3.388  1.00 20.00    -0.111 C 
HETATM    2  C2  UNL     1     -37.448  16.958  -4.076  1.00 20.00    -0.106 C 
HETATM    3  C9  UNL     1     -38.571  18.831  -2.551  1.00 20.00     0.112 C 
ENDROOT
BRANCH   2   4
HETATM    4  C11 UNL     1     -36.822  15.930  -4.912  1.00 20.00     0.106 C 
BRANCH   4   5
HETATM    5  C7  UNL     1     -35.961  14.992  -4.076  1.00 20.00     0.067 C 
HETATM    6  C3  UNL     1     -35.331  13.933  -4.963  1.00 20.00     0.132 C 
HETATM    7  C4  UNL     1     -34.047  14.292  -5.677  1.00 20.00     0.079 C 
HETATM    8  O13 UNL     1     -35.897  12.860  -5.175  1.00 20.00    -0.298 OA
HETATM    9  C5  UNL     1     -33.038  14.882  -4.703  1.00 20.00     0.012 C 
HETATM   10  C8  UNL     1     -33.592  16.077  -3.917  1.00 20.00    -0.014 C 
HETATM   11  C6  UNL     1     -34.909  15.705  -3.217  1.00 20.00     0.017 C 
BRANCH  10  12
HETATM   12  C12 UNL     1     -33.698  17.336  -4.779  1.00 20.00     0.000 C 
HETATM   13  C10 UNL     1     -33.449  18.573  -3.980  1.00 20.00     0.005 C 
ENDBRANCH  10  12
ENDBRANCH   4   5
ENDBRANCH   2   4
TORSDOF 3
ENDMDL
MODEL 9
REMARK VINA RESULT:      -4.4     12.007     13.427
REMARK  3 active torsions:
REMARK  status: ('A' for Active; 'I' for Inactive)
REMARK    1  A    between atoms: C2_2  and  C11_11 
REMARK    2  A    between atoms: C7_7  and  C11_11 
REMARK    3  A    between atoms: C8_8  and  C12_12 
ROOT
HETATM    1  C1  UNL     1     -35.330  17.061  -0.819  1.00 20.00    -0.111 C 
HETATM    2  C2  UNL     1     -35.084  16.568  -1.886  1.00 20.00    -0.106 C 
HETATM    3  C9  UNL     1     -35.630  17.660   0.481  1.00 20.00     0.112 C 
ENDROOT
BRANCH   2   4
HETATM    4  C11 UNL     1     -34.788  15.974  -3.193  1.00 20.00     0.106 C 
BRANCH   4   5
HETATM    5  C7  UNL     1     -35.159  16.925  -4.324  1.00 20.00     0.067 C 
HETATM    6  C3  UNL     1     -33.918  17.306  -5.113  1.00 20.00     0.132 C 
HETATM    7  C4  UNL     1     -33.467  16.363  -6.205  1.00 20.00     0.079 C 
HETATM    8  O13 UNL     1     -33.246  18.291  -4.806  1.00 20.00    -0.298 OA
HETATM    9  C5  UNL     1     -34.628  16.009  -7.122  1.00 20.00     0.012 C 
HETATM   10  C8  UNL     1     -35.839  15.448  -6.365  1.00 20.00    -0.014 C 
HETATM   11  C6  UNL     1     -36.271  16.405  -5.243  1.00 20.00     0.017 C 
BRANCH  10  12
HETATM   12  C12 UNL     1     -35.606  14.015  -5.884  1.00 20.00     0.000 C 
HETATM   13  C10 UNL     1     -35.136  13.131  -6.993  1.00 20.00     0.005 C 
ENDBRANCH  10  12
ENDBRANCH   4   5
ENDBRANCH   2   4
TORSDOF 3
ENDMDL
