MODEL 1
REMARK VINA RESULT:      -5.9      0.000      0.000
REMARK  3 active torsions:
REMARK  status: ('A' for Active; 'I' for Inactive)
REMARK    1  A    between atoms: C2_2  and  C7_7 
REMARK    2  A    between atoms: C3_3  and  C8_8 
REMARK    3  A    between atoms: C7_7  and  C8_8 
ROOT
HETATM    1  C1  UNL     1     -32.536   9.079   1.189  1.00 20.00    -0.111 C 
HETATM    2  C2  UNL     1     -32.478   8.407   2.182  1.00 20.00    -0.106 C 
HETATM    3  C4  UNL     1     -32.612   9.899  -0.019  1.00 20.00     0.112 C 
ENDROOT
BRANCH   2   4
HETATM    4  C7  UNL     1     -32.404   7.585   3.400  1.00 20.00     0.105 C 
BRANCH   4   5
HETATM    5  C8  UNL     1     -33.642   6.703   3.612  1.00 20.00     0.062 C 
HETATM    6  C6  UNL     1     -33.495   5.337   2.937  1.00 20.00     0.018 C 
BRANCH   5   7
HETATM    7  C3  UNL     1     -33.993   6.558   5.094  1.00 20.00     0.127 C 
HETATM    8  C5  UNL     1     -34.645   5.266   5.520  1.00 20.00     0.091 C 
HETATM    9  O9  UNL     1     -33.747   7.437   5.919  1.00 20.00    -0.298 OA
ENDBRANCH   5   7
ENDBRANCH   4   5
ENDBRANCH   2   4
TORSDOF 3
ENDMDL
MODEL 2
REMARK VINA RESULT:      -5.9      0.981      1.151
REMARK  3 active torsions:
REMARK  status: ('A' for Active; 'I' for Inactive)
REMARK    1  A    between atoms: C2_2  and  C7_7 
REMARK    2  A    between atoms: C3_3  and  C8_8 
REMARK    3  A    between atoms: C7_7  and  C8_8 
ROOT
HETATM    1  C1  UNL     1     -32.540   9.035   1.236  1.00 20.00    -0.111 C 
HETATM    2  C2  UNL     1     -32.506   8.312   2.195  1.00 20.00    -0.106 C 
HETATM    3  C4  UNL     1     -32.578   9.912   0.067  1.00 20.00     0.112 C 
ENDROOT
BRANCH   2   4
HETATM    4  C7  UNL     1     -32.468   7.426   3.369  1.00 20.00     0.105 C 
BRANCH   4   5
HETATM    5  C8  UNL     1     -33.636   6.431   3.413  1.00 20.00     0.062 C 
HETATM    6  C6  UNL     1     -33.273   5.091   2.769  1.00 20.00     0.018 C 
BRANCH   5   7
HETATM    7  C3  UNL     1     -34.170   6.240   4.835  1.00 20.00     0.127 C 
HETATM    8  C5  UNL     1     -33.790   7.284   5.854  1.00 20.00     0.091 C 
HETATM    9  O9  UNL     1     -34.893   5.294   5.146  1.00 20.00    -0.298 OA
ENDBRANCH   5   7
ENDBRANCH   4   5
ENDBRANCH   2   4
TORSDOF 3
ENDMDL
MODEL 3
REMARK VINA RESULT:      -5.4      2.182      4.962
REMARK  3 active torsions:
REMARK  status: ('A' for Active; 'I' for Inactive)
REMARK    1  A    between atoms: C2_2  and  C7_7 
REMARK    2  A    between atoms: C3_3  and  C8_8 
REMARK    3  A    between atoms: C7_7  and  C8_8 
ROOT
HETATM    1  C1  UNL     1     -34.206   5.676   4.392  1.00 20.00    -0.111 C 
HETATM    2  C2  UNL     1     -33.734   6.223   3.433  1.00 20.00    -0.106 C 
HETATM    3  C4  UNL     1     -34.777   5.007   5.560  1.00 20.00     0.112 C 
ENDROOT
BRANCH   2   4
HETATM    4  C7  UNL     1     -33.156   6.896   2.260  1.00 20.00     0.105 C 
BRANCH   4   5
HETATM    5  C8  UNL     1     -32.575   8.280   2.581  1.00 20.00     0.062 C 
HETATM    6  C6  UNL     1     -31.459   8.206   3.626  1.00 20.00     0.018 C 
BRANCH   5   7
HETATM    7  C3  UNL     1     -32.112   9.012   1.320  1.00 20.00     0.127 C 
HETATM    8  C5  UNL     1     -32.768  10.335   1.016  1.00 20.00     0.091 C 
HETATM    9  O9  UNL     1     -31.231   8.566   0.585  1.00 20.00    -0.298 OA
ENDBRANCH   5   7
ENDBRANCH   4   5
ENDBRANCH   2   4
TORSDOF 3
ENDMDL
MODEL 4
REMARK VINA RESULT:      -4.9      1.451      1.729
REMARK  3 active torsions:
REMARK  status: ('A' for Active; 'I' for Inactive)
REMARK    1  A    between atoms: C2_2  and  C7_7 
REMARK    2  A    between atoms: C3_3  and  C8_8 
REMARK    3  A    between atoms: C7_7  and  C8_8 
ROOT
HETATM    1  C1  UNL     1     -32.626   8.952   1.713  1.00 20.00    -0.111 C 
HETATM    2  C2  UNL     1     -32.722   7.837   2.151  1.00 20.00    -0.106 C 
HETATM    3  C4  UNL     1     -32.513  10.308   1.179  1.00 20.00     0.112 C 
ENDROOT
BRANCH   2   4
HETATM    4  C7  UNL     1     -32.839   6.474   2.692  1.00 20.00     0.105 C 
BRANCH   4   5
HETATM    5  C8  UNL     1     -33.229   6.443   4.176  1.00 20.00     0.062 C 
HETATM    6  C6  UNL     1     -33.188   7.835   4.809  1.00 20.00     0.018 C 
BRANCH   5   7
HETATM    7  C3  UNL     1     -34.585   5.769   4.396  1.00 20.00     0.127 C 
HETATM    8  C5  UNL     1     -34.724   4.892   5.614  1.00 20.00     0.091 C 
HETATM    9  O9  UNL     1     -35.537   5.938   3.633  1.00 20.00    -0.298 OA
ENDBRANCH   5   7
ENDBRANCH   4   5
ENDBRANCH   2   4
TORSDOF 3
ENDMDL
MODEL 5
REMARK VINA RESULT:      -4.7      1.449      2.078
REMARK  3 active torsions:
REMARK  status: ('A' for Active; 'I' for Inactive)
REMARK    1  A    between atoms: C2_2  and  C7_7 
REMARK    2  A    between atoms: C3_3  and  C8_8 
REMARK    3  A    between atoms: C7_7  and  C8_8 
ROOT
HETATM    1  C1  UNL     1     -32.353   8.131   1.954  1.00 20.00    -0.111 C 
HETATM    2  C2  UNL     1     -33.185   7.622   2.654  1.00 20.00    -0.106 C 
HETATM    3  C4  UNL     1     -31.341   8.747   1.097  1.00 20.00     0.112 C 
ENDROOT
BRANCH   2   4
HETATM    4  C7  UNL     1     -34.206   7.003   3.514  1.00 20.00     0.105 C 
BRANCH   4   5
HETATM    5  C8  UNL     1     -33.636   6.445   4.825  1.00 20.00     0.062 C 
HETATM    6  C6  UNL     1     -33.688   7.473   5.957  1.00 20.00     0.018 C 
BRANCH   5   7
HETATM    7  C3  UNL     1     -34.314   5.134   5.231  1.00 20.00     0.127 C 
HETATM    8  C5  UNL     1     -34.224   3.987   4.257  1.00 20.00     0.091 C 
HETATM    9  O9  UNL     1     -34.896   4.998   6.307  1.00 20.00    -0.298 OA
ENDBRANCH   5   7
ENDBRANCH   4   5
ENDBRANCH   2   4
TORSDOF 3
ENDMDL
MODEL 6
REMARK VINA RESULT:      -4.4      2.226      4.867
REMARK  3 active torsions:
REMARK  status: ('A' for Active; 'I' for Inactive)
REMARK    1  A    between atoms: C2_2  and  C7_7 
REMARK    2  A    between atoms: C3_3  and  C8_8 
REMARK    3  A    between atoms: C7_7  and  C8_8 
ROOT
HETATM    1  C1  UNL     1     -33.427   7.343   4.546  1.00 20.00    -0.111 C 
HETATM    2  C2  UNL     1     -33.136   7.418   3.384  1.00 20.00    -0.106 C 
HETATM    3  C4  UNL     1     -33.777   7.252   5.963  1.00 20.00     0.112 C 
ENDROOT
BRANCH   2   4
HETATM    4  C7  UNL     1     -32.783   7.514   1.959  1.00 20.00     0.105 C 
BRANCH   4   5
HETATM    5  C8  UNL     1     -32.003   8.790   1.613  1.00 20.00     0.062 C 
HETATM    6  C6  UNL     1     -30.788   8.500   0.730  1.00 20.00     0.018 C 
BRANCH   5   7
HETATM    7  C3  UNL     1     -32.904   9.858   0.988  1.00 20.00     0.127 C 
HETATM    8  C5  UNL     1     -33.338   9.637  -0.439  1.00 20.00     0.091 C 
HETATM    9  O9  UNL     1     -33.284  10.849   1.612  1.00 20.00    -0.298 OA
ENDBRANCH   5   7
ENDBRANCH   4   5
ENDBRANCH   2   4
TORSDOF 3
ENDMDL
MODEL 7
REMARK VINA RESULT:      -4.2      2.379      5.118
REMARK  3 active torsions:
REMARK  status: ('A' for Active; 'I' for Inactive)
REMARK    1  A    between atoms: C2_2  and  C7_7 
REMARK    2  A    between atoms: C3_3  and  C8_8 
REMARK    3  A    between atoms: C7_7  and  C8_8 
ROOT
HETATM    1  C1  UNL     1     -33.786   6.679   3.838  1.00 20.00    -0.111 C 
HETATM    2  C2  UNL     1     -33.007   7.469   3.378  1.00 20.00    -0.106 C 
HETATM    3  C4  UNL     1     -34.735   5.720   4.402  1.00 20.00     0.112 C 
ENDROOT
BRANCH   2   4
HETATM    4  C7  UNL     1     -32.055   8.437   2.811  1.00 20.00     0.105 C 
BRANCH   4   5
HETATM    5  C8  UNL     1     -32.677   9.336   1.733  1.00 20.00     0.062 C 
HETATM    6  C6  UNL     1     -32.512  10.822   2.061  1.00 20.00     0.018 C 
BRANCH   5   7
HETATM    7  C3  UNL     1     -32.140   9.010   0.338  1.00 20.00     0.127 C 
HETATM    8  C5  UNL     1     -33.065   9.258  -0.826  1.00 20.00     0.091 C 
HETATM    9  O9  UNL     1     -31.001   8.581   0.153  1.00 20.00    -0.298 OA
ENDBRANCH   5   7
ENDBRANCH   4   5
ENDBRANCH   2   4
TORSDOF 3
ENDMDL
MODEL 8
REMARK VINA RESULT:      -4.2     11.029     11.563
REMARK  3 active torsions:
REMARK  status: ('A' for Active; 'I' for Inactive)
REMARK    1  A    between atoms: C2_2  and  C7_7 
REMARK    2  A    between atoms: C3_3  and  C8_8 
REMARK    3  A    between atoms: C7_7  and  C8_8 
ROOT
HETATM    1  C1  UNL     1     -34.612  16.251  -2.630  1.00 20.00    -0.111 C 
HETATM    2  C2  UNL     1     -34.245  15.634  -3.593  1.00 20.00    -0.106 C 
HETATM    3  C4  UNL     1     -35.062  17.004  -1.460  1.00 20.00     0.112 C 
ENDROOT
BRANCH   2   4
HETATM    4  C7  UNL     1     -33.798  14.876  -4.772  1.00 20.00     0.105 C 
BRANCH   4   5
HETATM    5  C8  UNL     1     -34.889  14.719  -5.840  1.00 20.00     0.062 C 
HETATM    6  C6  UNL     1     -34.316  14.253  -7.181  1.00 20.00     0.018 C 
BRANCH   5   7
HETATM    7  C3  UNL     1     -36.021  13.804  -5.370  1.00 20.00     0.127 C 
HETATM    8  C5  UNL     1     -37.367  14.444  -5.141  1.00 20.00     0.091 C 
HETATM    9  O9  UNL     1     -35.865  12.595  -5.198  1.00 20.00    -0.298 OA
ENDBRANCH   5   7
ENDBRANCH   4   5
ENDBRANCH   2   4
TORSDOF 3
ENDMDL
MODEL 9
REMARK VINA RESULT:      -4.2     10.635     11.287
REMARK  3 active torsions:
REMARK  status: ('A' for Active; 'I' for Inactive)
REMARK    1  A    between atoms: C2_2  and  C7_7 
REMARK    2  A    between atoms: C3_3  and  C8_8 
REMARK    3  A    between atoms: C7_7  and  C8_8 
ROOT
HETATM    1  C1  UNL     1     -33.711  17.186  -1.988  1.00 20.00    -0.111 C 
HETATM    2  C2  UNL     1     -34.540  16.516  -2.541  1.00 20.00    -0.106 C 
HETATM    3  C4  UNL     1     -32.703  18.001  -1.310  1.00 20.00     0.112 C 
ENDROOT
BRANCH   2   4
HETATM    4  C7  UNL     1     -35.552  15.693  -3.221  1.00 20.00     0.105 C 
BRANCH   4   5
HETATM    5  C8  UNL     1     -35.012  14.973  -4.465  1.00 20.00     0.062 C 
HETATM    6  C6  UNL     1     -33.628  14.368  -4.221  1.00 20.00     0.018 C 
BRANCH   5   7
HETATM    7  C3  UNL     1     -35.995  13.925  -4.989  1.00 20.00     0.127 C 
HETATM    8  C5  UNL     1     -37.432  14.353  -5.149  1.00 20.00     0.091 C 
HETATM    9  O9  UNL     1     -35.644  12.784  -5.291  1.00 20.00    -0.298 OA
ENDBRANCH   5   7
ENDBRANCH   4   5
ENDBRANCH   2   4
TORSDOF 3
ENDMDL
