MODEL 1
REMARK VINA RESULT:      -5.8      0.000      0.000
REMARK  3 active torsions:
REMARK  status: ('A' for Active; 'I' for Inactive)
REMARK    1  A    between atoms: C2_2  and  C10_10 
REMARK    2  A    between atoms: C7_7  and  N11_11 
REMARK    3  A    between atoms: C10_10  and  N11_11 
ROOT
HETATM    1  C1  UNL     1     -32.403   9.252   1.242  1.00 20.00    -0.109 C 
HETATM    2  C2  UNL     1     -32.276   8.410   2.090  1.00 20.00    -0.077 C 
HETATM    3  C8  UNL     1     -32.557  10.276   0.210  1.00 20.00     0.112 C 
ENDROOT
BRANCH   2   4
HETATM    4  C10 UNL     1     -32.128   7.387   3.128  1.00 20.00     0.363 C 
BRANCH   4   5
HETATM    5  N11 UNL     1     -32.887   6.194   2.793  1.00 20.00     0.103 N 
HETATM    6  H28 UNL     1     -33.275   6.286   1.858  1.00 20.00     0.318 HD
BRANCH   5   7
HETATM    7  C7  UNL     1     -33.974   6.006   3.727  1.00 20.00     0.155 C 
HETATM    8  C5  UNL     1     -33.768   6.849   4.990  1.00 20.00     0.041 C 
HETATM    9  C3  UNL     1     -34.574   6.144   6.076  1.00 20.00     0.003 C 
HETATM   10  C4  UNL     1     -34.704   4.688   5.633  1.00 20.00     0.003 C 
HETATM   11  C6  UNL     1     -33.970   4.584   4.298  1.00 20.00     0.041 C 
HETATM   12  C9  UNL     1     -35.300   6.335   3.033  1.00 20.00     0.049 C 
ENDBRANCH   5   7
ENDBRANCH   4   5
ENDBRANCH   2   4
TORSDOF 3
ENDMDL
MODEL 2
REMARK VINA RESULT:      -4.6      1.049      1.584
REMARK  3 active torsions:
REMARK  status: ('A' for Active; 'I' for Inactive)
REMARK    1  A    between atoms: C2_2  and  C10_10 
REMARK    2  A    between atoms: C7_7  and  N11_11 
REMARK    3  A    between atoms: C10_10  and  N11_11 
ROOT
HETATM    1  C1  UNL     1     -32.683   9.219   0.487  1.00 20.00    -0.109 C 
HETATM    2  C2  UNL     1     -32.477   8.680   1.540  1.00 20.00    -0.077 C 
HETATM    3  C8  UNL     1     -32.933   9.876  -0.796  1.00 20.00     0.112 C 
ENDROOT
BRANCH   2   4
HETATM    4  C10 UNL     1     -32.224   8.016   2.822  1.00 20.00     0.363 C 
BRANCH   4   5
HETATM    5  N11 UNL     1     -33.454   7.869   3.582  1.00 20.00     0.103 N 
HETATM    6  H28 UNL     1     -33.384   8.391   4.451  1.00 20.00     0.318 HD
BRANCH   5   7
HETATM    7  C7  UNL     1     -33.693   6.479   3.895  1.00 20.00     0.155 C 
HETATM    8  C5  UNL     1     -35.148   6.092   3.612  1.00 20.00     0.041 C 
HETATM    9  C3  UNL     1     -35.420   4.884   4.504  1.00 20.00     0.003 C 
HETATM   10  C4  UNL     1     -34.421   4.972   5.656  1.00 20.00     0.003 C 
HETATM   11  C6  UNL     1     -33.592   6.229   5.404  1.00 20.00     0.041 C 
HETATM   12  C9  UNL     1     -32.708   5.607   3.108  1.00 20.00     0.049 C 
ENDBRANCH   5   7
ENDBRANCH   4   5
ENDBRANCH   2   4
TORSDOF 3
ENDMDL
MODEL 3
REMARK VINA RESULT:      -4.5      0.933      1.693
REMARK  3 active torsions:
REMARK  status: ('A' for Active; 'I' for Inactive)
REMARK    1  A    between atoms: C2_2  and  C10_10 
REMARK    2  A    between atoms: C7_7  and  N11_11 
REMARK    3  A    between atoms: C10_10  and  N11_11 
ROOT
HETATM    1  C1  UNL     1     -32.603   9.287   0.764  1.00 20.00    -0.109 C 
HETATM    2  C2  UNL     1     -32.272   8.744   1.783  1.00 20.00    -0.077 C 
HETATM    3  C8  UNL     1     -33.007   9.948  -0.476  1.00 20.00     0.112 C 
ENDROOT
BRANCH   2   4
HETATM    4  C10 UNL     1     -31.873   8.076   3.024  1.00 20.00     0.363 C 
BRANCH   4   5
HETATM    5  N11 UNL     1     -32.228   6.667   2.993  1.00 20.00     0.103 N 
HETATM    6  H28 UNL     1     -32.486   6.400   2.047  1.00 20.00     0.318 HD
BRANCH   5   7
HETATM    7  C7  UNL     1     -33.348   6.407   3.869  1.00 20.00     0.155 C 
HETATM    8  C5  UNL     1     -33.381   4.936   4.299  1.00 20.00     0.041 C 
HETATM    9  C3  UNL     1     -34.836   4.662   4.669  1.00 20.00     0.003 C 
HETATM   10  C4  UNL     1     -35.669   5.693   3.911  1.00 20.00     0.003 C 
HETATM   11  C6  UNL     1     -34.677   6.543   3.120  1.00 20.00     0.041 C 
HETATM   12  C9  UNL     1     -33.276   7.350   5.074  1.00 20.00     0.049 C 
ENDBRANCH   5   7
ENDBRANCH   4   5
ENDBRANCH   2   4
TORSDOF 3
ENDMDL
MODEL 4
REMARK VINA RESULT:      -4.2      8.931     10.932
REMARK  3 active torsions:
REMARK  status: ('A' for Active; 'I' for Inactive)
REMARK    1  A    between atoms: C2_2  and  C10_10 
REMARK    2  A    between atoms: C7_7  and  N11_11 
REMARK    3  A    between atoms: C10_10  and  N11_11 
ROOT
HETATM    1  C1  UNL     1     -42.450   2.570  -3.316  1.00 20.00    -0.109 C 
HETATM    2  C2  UNL     1     -42.884   3.463  -2.640  1.00 20.00    -0.077 C 
HETATM    3  C8  UNL     1     -41.921   1.484  -4.139  1.00 20.00     0.112 C 
ENDROOT
BRANCH   2   4
HETATM    4  C10 UNL     1     -43.417   4.547  -1.810  1.00 20.00     0.363 C 
BRANCH   4   5
HETATM    5  N11 UNL     1     -42.848   4.505  -0.474  1.00 20.00     0.103 N 
HETATM    6  H28 UNL     1     -43.542   4.158   0.183  1.00 20.00     0.318 HD
BRANCH   5   7
HETATM    7  C7  UNL     1     -42.436   5.825  -0.056  1.00 20.00     0.155 C 
HETATM    8  C5  UNL     1     -43.143   6.909  -0.878  1.00 20.00     0.041 C 
HETATM    9  C3  UNL     1     -42.233   8.131  -0.793  1.00 20.00     0.003 C 
HETATM   10  C4  UNL     1     -40.833   7.599  -0.491  1.00 20.00     0.003 C 
HETATM   11  C6  UNL     1     -40.966   6.080  -0.405  1.00 20.00     0.041 C 
HETATM   12  C9  UNL     1     -42.699   5.986   1.445  1.00 20.00     0.049 C 
ENDBRANCH   5   7
ENDBRANCH   4   5
ENDBRANCH   2   4
TORSDOF 3
ENDMDL
MODEL 5
REMARK VINA RESULT:      -4.2     11.366     12.294
REMARK  3 active torsions:
REMARK  status: ('A' for Active; 'I' for Inactive)
REMARK    1  A    between atoms: C2_2  and  C10_10 
REMARK    2  A    between atoms: C7_7  and  N11_11 
REMARK    3  A    between atoms: C10_10  and  N11_11 
ROOT
HETATM    1  C1  UNL     1     -33.902  16.529  -2.774  1.00 20.00    -0.109 C 
HETATM    2  C2  UNL     1     -33.534  16.088  -3.829  1.00 20.00    -0.077 C 
HETATM    3  C8  UNL     1     -34.351  17.067  -1.491  1.00 20.00     0.112 C 
ENDROOT
BRANCH   2   4
HETATM    4  C10 UNL     1     -33.091  15.544  -5.116  1.00 20.00     0.363 C 
BRANCH   4   5
HETATM    5  N11 UNL     1     -33.558  14.179  -5.291  1.00 20.00     0.103 N 
HETATM    6  H28 UNL     1     -32.867  13.644  -5.808  1.00 20.00     0.318 HD
BRANCH   5   7
HETATM    7  C7  UNL     1     -34.803  14.160  -6.025  1.00 20.00     0.155 C 
HETATM    8  C5  UNL     1     -35.278  15.582  -6.342  1.00 20.00     0.041 C 
HETATM    9  C3  UNL     1     -36.787  15.463  -6.540  1.00 20.00     0.003 C 
HETATM   10  C4  UNL     1     -37.218  14.212  -5.776  1.00 20.00     0.003 C 
HETATM   11  C6  UNL     1     -35.949  13.634  -5.155  1.00 20.00     0.041 C 
HETATM   12  C9  UNL     1     -34.626  13.322  -7.296  1.00 20.00     0.049 C 
ENDBRANCH   5   7
ENDBRANCH   4   5
ENDBRANCH   2   4
TORSDOF 3
ENDMDL
MODEL 6
REMARK VINA RESULT:      -4.1     11.130     12.082
REMARK  3 active torsions:
REMARK  status: ('A' for Active; 'I' for Inactive)
REMARK    1  A    between atoms: C2_2  and  C10_10 
REMARK    2  A    between atoms: C7_7  and  N11_11 
REMARK    3  A    between atoms: C10_10  and  N11_11 
ROOT
HETATM    1  C1  UNL     1     -33.034  17.790  -1.338  1.00 20.00    -0.109 C 
HETATM    2  C2  UNL     1     -33.755  17.185  -2.085  1.00 20.00    -0.077 C 
HETATM    3  C8  UNL     1     -32.156  18.525  -0.429  1.00 20.00     0.112 C 
ENDROOT
BRANCH   2   4
HETATM    4  C10 UNL     1     -34.630  16.450  -3.002  1.00 20.00     0.363 C 
BRANCH   4   5
HETATM    5  N11 UNL     1     -34.055  16.395  -4.336  1.00 20.00     0.103 N 
HETATM    6  H28 UNL     1     -34.561  17.024  -4.953  1.00 20.00     0.318 HD
BRANCH   5   7
HETATM    7  C7  UNL     1     -34.140  15.055  -4.869  1.00 20.00     0.155 C 
HETATM    8  C5  UNL     1     -34.172  15.072  -6.402  1.00 20.00     0.041 C 
HETATM    9  C3  UNL     1     -34.848  13.765  -6.801  1.00 20.00     0.003 C 
HETATM   10  C4  UNL     1     -35.697  13.341  -5.604  1.00 20.00     0.003 C 
HETATM   11  C6  UNL     1     -35.492  14.414  -4.537  1.00 20.00     0.041 C 
HETATM   12  C9  UNL     1     -32.970  14.223  -4.334  1.00 20.00     0.049 C 
ENDBRANCH   5   7
ENDBRANCH   4   5
ENDBRANCH   2   4
TORSDOF 3
ENDMDL
MODEL 7
REMARK VINA RESULT:      -4.1     11.173     12.231
REMARK  3 active torsions:
REMARK  status: ('A' for Active; 'I' for Inactive)
REMARK    1  A    between atoms: C2_2  and  C10_10 
REMARK    2  A    between atoms: C7_7  and  N11_11 
REMARK    3  A    between atoms: C10_10  and  N11_11 
ROOT
HETATM    1  C1  UNL     1     -34.994  17.146  -1.081  1.00 20.00    -0.109 C 
HETATM    2  C2  UNL     1     -34.374  16.838  -2.063  1.00 20.00    -0.077 C 
HETATM    3  C8  UNL     1     -35.749  17.523   0.113  1.00 20.00     0.112 C 
ENDROOT
BRANCH   2   4
HETATM    4  C10 UNL     1     -33.624  16.461  -3.264  1.00 20.00     0.363 C 
BRANCH   4   5
HETATM    5  N11 UNL     1     -34.509  16.341  -4.411  1.00 20.00     0.103 N 
HETATM    6  H28 UNL     1     -35.476  16.376  -4.103  1.00 20.00     0.318 HD
BRANCH   5   7
HETATM    7  C7  UNL     1     -34.287  15.086  -5.093  1.00 20.00     0.155 C 
HETATM    8  C5  UNL     1     -34.002  15.310  -6.582  1.00 20.00     0.041 C 
HETATM    9  C3  UNL     1     -34.384  13.999  -7.262  1.00 20.00     0.003 C 
HETATM   10  C4  UNL     1     -35.393  13.318  -6.339  1.00 20.00     0.003 C 
HETATM   11  C6  UNL     1     -35.570  14.251  -5.143  1.00 20.00     0.041 C 
HETATM   12  C9  UNL     1     -33.145  14.331  -4.403  1.00 20.00     0.049 C 
ENDBRANCH   5   7
ENDBRANCH   4   5
ENDBRANCH   2   4
TORSDOF 3
ENDMDL
MODEL 8
REMARK VINA RESULT:      -4.0     11.377     12.393
REMARK  3 active torsions:
REMARK  status: ('A' for Active; 'I' for Inactive)
REMARK    1  A    between atoms: C2_2  and  C10_10 
REMARK    2  A    between atoms: C7_7  and  N11_11 
REMARK    3  A    between atoms: C10_10  and  N11_11 
ROOT
HETATM    1  C1  UNL     1     -35.053  16.953  -1.321  1.00 20.00    -0.109 C 
HETATM    2  C2  UNL     1     -34.654  16.499  -2.359  1.00 20.00    -0.077 C 
HETATM    3  C8  UNL     1     -35.539  17.505  -0.057  1.00 20.00     0.112 C 
ENDROOT
BRANCH   2   4
HETATM    4  C10 UNL     1     -34.160  15.949  -3.624  1.00 20.00     0.363 C 
BRANCH   4   5
HETATM    5  N11 UNL     1     -34.924  14.776  -4.013  1.00 20.00     0.103 N 
HETATM    6  H28 UNL     1     -34.404  13.935  -3.777  1.00 20.00     0.318 HD
BRANCH   5   7
HETATM    7  C7  UNL     1     -35.172  14.781  -5.437  1.00 20.00     0.155 C 
HETATM    8  C5  UNL     1     -35.689  13.419  -5.911  1.00 20.00     0.041 C 
HETATM    9  C3  UNL     1     -35.337  13.353  -7.394  1.00 20.00     0.003 C 
HETATM   10  C4  UNL     1     -34.163  14.310  -7.596  1.00 20.00     0.003 C 
HETATM   11  C6  UNL     1     -33.863  14.909  -6.224  1.00 20.00     0.041 C 
HETATM   12  C9  UNL     1     -36.150  15.911  -5.775  1.00 20.00     0.049 C 
ENDBRANCH   5   7
ENDBRANCH   4   5
ENDBRANCH   2   4
TORSDOF 3
ENDMDL
MODEL 9
REMARK VINA RESULT:      -4.0      1.059      5.213
REMARK  3 active torsions:
REMARK  status: ('A' for Active; 'I' for Inactive)
REMARK    1  A    between atoms: C2_2  and  C10_10 
REMARK    2  A    between atoms: C7_7  and  N11_11 
REMARK    3  A    between atoms: C10_10  and  N11_11 
ROOT
HETATM    1  C1  UNL     1     -34.467   5.511   4.832  1.00 20.00    -0.109 C 
HETATM    2  C2  UNL     1     -34.224   5.963   3.746  1.00 20.00    -0.077 C 
HETATM    3  C8  UNL     1     -34.763   4.959   6.154  1.00 20.00     0.112 C 
ENDROOT
BRANCH   2   4
HETATM    4  C10 UNL     1     -33.921   6.519   2.425  1.00 20.00     0.363 C 
BRANCH   4   5
HETATM    5  N11 UNL     1     -32.493   6.738   2.269  1.00 20.00     0.103 N 
HETATM    6  H28 UNL     1     -32.001   6.384   3.084  1.00 20.00     0.318 HD
BRANCH   5   7
HETATM    7  C7  UNL     1     -32.209   8.149   2.134  1.00 20.00     0.155 C 
HETATM    8  C5  UNL     1     -33.500   8.960   1.986  1.00 20.00     0.041 C 
HETATM    9  C3  UNL     1     -33.085  10.243   1.272  1.00 20.00     0.003 C 
HETATM   10  C4  UNL     1     -31.800   9.912   0.514  1.00 20.00     0.003 C 
HETATM   11  C6  UNL     1     -31.500   8.444   0.808  1.00 20.00     0.041 C 
HETATM   12  C9  UNL     1     -31.380   8.614   3.336  1.00 20.00     0.049 C 
ENDBRANCH   5   7
ENDBRANCH   4   5
ENDBRANCH   2   4
TORSDOF 3
ENDMDL
