MODEL 1
REMARK VINA RESULT:      -5.0      0.000      0.000
REMARK  4 active torsions:
REMARK  status: ('A' for Active; 'I' for Inactive)
REMARK    1  A    between atoms: C2_2  and  C6_6 
REMARK    2  A    between atoms: C6_6  and  N10_10 
REMARK    3  A    between atoms: C7_7  and  N10_10 
REMARK    4  A    between atoms: C8_8  and  N10_10 
ROOT
HETATM    1  C1  UNL     1     -32.452   9.156   1.303  1.00 20.00    -0.109 C 
HETATM    2  C2  UNL     1     -32.491   8.470   2.288  1.00 20.00    -0.077 C 
HETATM    3  C4  UNL     1     -32.407   9.992   0.106  1.00 20.00     0.112 C 
ENDROOT
BRANCH   2   4
HETATM    4  C6  UNL     1     -32.541   7.626   3.486  1.00 20.00     0.366 C 
BRANCH   4   5
HETATM    5  N10 UNL     1     -33.809   6.901   3.560  1.00 20.00     0.111 N 
BRANCH   5   6
HETATM    6  C7  UNL     1     -33.703   5.613   2.878  1.00 20.00     0.396 C 
HETATM    7  C3  UNL     1     -34.018   4.514   3.790  1.00 20.00     0.089 C 
HETATM    8  N9  UNL     1     -34.267   3.638   4.509  1.00 20.00    -0.195 NA
ENDBRANCH   5   6
BRANCH   5   9
HETATM    9  C8  UNL     1     -34.209   6.710   4.954  1.00 20.00     0.270 C 
HETATM   10  C5  UNL     1     -33.382   7.544   5.871  1.00 20.00     0.037 C 
ENDBRANCH   5   9
ENDBRANCH   4   5
ENDBRANCH   2   4
TORSDOF 4
ENDMDL
MODEL 2
REMARK VINA RESULT:      -4.8      1.183      2.149
REMARK  4 active torsions:
REMARK  status: ('A' for Active; 'I' for Inactive)
REMARK    1  A    between atoms: C2_2  and  C6_6 
REMARK    2  A    between atoms: C6_6  and  N10_10 
REMARK    3  A    between atoms: C7_7  and  N10_10 
REMARK    4  A    between atoms: C8_8  and  N10_10 
ROOT
HETATM    1  C1  UNL     1     -32.540   9.031   0.970  1.00 20.00    -0.109 C 
HETATM    2  C2  UNL     1     -32.197   8.603   2.038  1.00 20.00    -0.077 C 
HETATM    3  C4  UNL     1     -32.959   9.549  -0.331  1.00 20.00     0.112 C 
ENDROOT
BRANCH   2   4
HETATM    4  C6  UNL     1     -31.771   8.078   3.339  1.00 20.00     0.366 C 
BRANCH   4   5
HETATM    5  N10 UNL     1     -32.633   6.976   3.764  1.00 20.00     0.111 N 
BRANCH   5   6
HETATM    6  C7  UNL     1     -33.602   7.437   4.756  1.00 20.00     0.396 C 
HETATM    7  C3  UNL     1     -34.227   6.306   5.440  1.00 20.00     0.089 C 
HETATM    8  N9  UNL     1     -34.724   5.411   5.985  1.00 20.00    -0.195 NA
ENDBRANCH   5   6
BRANCH   5   9
HETATM    9  C8  UNL     1     -33.319   6.390   2.612  1.00 20.00     0.270 C 
HETATM   10  C5  UNL     1     -33.063   4.925   2.521  1.00 20.00     0.037 C 
ENDBRANCH   5   9
ENDBRANCH   4   5
ENDBRANCH   2   4
TORSDOF 4
ENDMDL
MODEL 3
REMARK VINA RESULT:      -4.3     10.883     11.571
REMARK  4 active torsions:
REMARK  status: ('A' for Active; 'I' for Inactive)
REMARK    1  A    between atoms: C2_2  and  C6_6 
REMARK    2  A    between atoms: C6_6  and  N10_10 
REMARK    3  A    between atoms: C7_7  and  N10_10 
REMARK    4  A    between atoms: C8_8  and  N10_10 
ROOT
HETATM    1  C1  UNL     1     -35.069  17.178  -0.857  1.00 20.00    -0.109 C 
HETATM    2  C2  UNL     1     -34.566  16.938  -1.921  1.00 20.00    -0.077 C 
HETATM    3  C4  UNL     1     -35.684  17.470   0.436  1.00 20.00     0.112 C 
ENDROOT
BRANCH   2   4
HETATM    4  C6  UNL     1     -33.949  16.653  -3.220  1.00 20.00     0.366 C 
BRANCH   4   5
HETATM    5  N10 UNL     1     -34.229  15.281  -3.641  1.00 20.00     0.111 N 
BRANCH   5   6
HETATM    6  C7  UNL     1     -35.534  15.202  -4.295  1.00 20.00     0.396 C 
HETATM    7  C3  UNL     1     -35.759  13.868  -4.849  1.00 20.00     0.089 C 
HETATM    8  N9  UNL     1     -35.943  12.811  -5.290  1.00 20.00    -0.195 NA
ENDBRANCH   5   6
BRANCH   5   9
HETATM    9  C8  UNL     1     -33.179  14.796  -4.536  1.00 20.00     0.270 C 
HETATM   10  C5  UNL     1     -32.952  15.742  -5.664  1.00 20.00     0.037 C 
ENDBRANCH   5   9
ENDBRANCH   4   5
ENDBRANCH   2   4
TORSDOF 4
ENDMDL
MODEL 4
REMARK VINA RESULT:      -4.0     11.446     12.238
REMARK  4 active torsions:
REMARK  status: ('A' for Active; 'I' for Inactive)
REMARK    1  A    between atoms: C2_2  and  C6_6 
REMARK    2  A    between atoms: C6_6  and  N10_10 
REMARK    3  A    between atoms: C7_7  and  N10_10 
REMARK    4  A    between atoms: C8_8  and  N10_10 
ROOT
HETATM    1  C1  UNL     1     -34.128  16.281  -2.913  1.00 20.00    -0.109 C 
HETATM    2  C2  UNL     1     -33.899  15.705  -3.941  1.00 20.00    -0.077 C 
HETATM    3  C4  UNL     1     -34.408  16.979  -1.659  1.00 20.00     0.112 C 
ENDROOT
BRANCH   2   4
HETATM    4  C6  UNL     1     -33.625  15.007  -5.201  1.00 20.00     0.366 C 
BRANCH   4   5
HETATM    5  N10 UNL     1     -34.807  14.277  -5.659  1.00 20.00     0.111 N 
BRANCH   5   6
HETATM    6  C7  UNL     1     -35.952  15.177  -5.776  1.00 20.00     0.396 C 
HETATM    7  C3  UNL     1     -37.176  14.529  -5.309  1.00 20.00     0.089 C 
HETATM    8  N9  UNL     1     -38.149  14.018  -4.938  1.00 20.00    -0.195 NA
ENDBRANCH   5   6
BRANCH   5   9
HETATM    9  C8  UNL     1     -34.539  13.621  -6.939  1.00 20.00     0.270 C 
HETATM   10  C5  UNL     1     -33.943  14.574  -7.918  1.00 20.00     0.037 C 
ENDBRANCH   5   9
ENDBRANCH   4   5
ENDBRANCH   2   4
TORSDOF 4
ENDMDL
MODEL 5
REMARK VINA RESULT:      -4.0     11.058     12.109
REMARK  4 active torsions:
REMARK  status: ('A' for Active; 'I' for Inactive)
REMARK    1  A    between atoms: C2_2  and  C6_6 
REMARK    2  A    between atoms: C6_6  and  N10_10 
REMARK    3  A    between atoms: C7_7  and  N10_10 
REMARK    4  A    between atoms: C8_8  and  N10_10 
ROOT
HETATM    1  C1  UNL     1     -34.694  16.960  -1.536  1.00 20.00    -0.109 C 
HETATM    2  C2  UNL     1     -34.277  16.473  -2.552  1.00 20.00    -0.077 C 
HETATM    3  C4  UNL     1     -35.205  17.553  -0.302  1.00 20.00     0.112 C 
ENDROOT
BRANCH   2   4
HETATM    4  C6  UNL     1     -33.764  15.886  -3.793  1.00 20.00     0.366 C 
BRANCH   4   5
HETATM    5  N10 UNL     1     -34.744  16.009  -4.872  1.00 20.00     0.111 N 
BRANCH   5   6
HETATM    6  C7  UNL     1     -35.968  15.283  -4.538  1.00 20.00     0.396 C 
HETATM    7  C3  UNL     1     -35.885  13.891  -4.978  1.00 20.00     0.089 C 
HETATM    8  N9  UNL     1     -35.823  12.786  -5.325  1.00 20.00    -0.195 NA
ENDBRANCH   5   6
BRANCH   5   9
HETATM    9  C8  UNL     1     -35.041  17.417  -5.135  1.00 20.00     0.270 C 
HETATM   10  C5  UNL     1     -36.503  17.631  -5.333  1.00 20.00     0.037 C 
ENDBRANCH   5   9
ENDBRANCH   4   5
ENDBRANCH   2   4
TORSDOF 4
ENDMDL
MODEL 6
REMARK VINA RESULT:      -4.0     11.144     11.903
REMARK  4 active torsions:
REMARK  status: ('A' for Active; 'I' for Inactive)
REMARK    1  A    between atoms: C2_2  and  C6_6 
REMARK    2  A    between atoms: C6_6  and  N10_10 
REMARK    3  A    between atoms: C7_7  and  N10_10 
REMARK    4  A    between atoms: C8_8  and  N10_10 
ROOT
HETATM    1  C1  UNL     1     -33.382  17.363  -1.905  1.00 20.00    -0.109 C 
HETATM    2  C2  UNL     1     -33.808  16.539  -2.667  1.00 20.00    -0.077 C 
HETATM    3  C4  UNL     1     -32.862  18.364  -0.975  1.00 20.00     0.112 C 
ENDROOT
BRANCH   2   4
HETATM    4  C6  UNL     1     -34.336  15.534  -3.595  1.00 20.00     0.366 C 
BRANCH   4   5
HETATM    5  N10 UNL     1     -35.383  16.105  -4.441  1.00 20.00     0.111 N 
BRANCH   5   6
HETATM    6  C7  UNL     1     -35.481  15.372  -5.702  1.00 20.00     0.396 C 
HETATM    7  C3  UNL     1     -35.711  13.949  -5.461  1.00 20.00     0.089 C 
HETATM    8  N9  UNL     1     -35.895  12.819  -5.274  1.00 20.00    -0.195 NA
ENDBRANCH   5   6
BRANCH   5   9
HETATM    9  C8  UNL     1     -36.669  16.093  -3.743  1.00 20.00     0.270 C 
HETATM   10  C5  UNL     1     -37.316  17.434  -3.781  1.00 20.00     0.037 C 
ENDBRANCH   5   9
ENDBRANCH   4   5
ENDBRANCH   2   4
TORSDOF 4
ENDMDL
MODEL 7
REMARK VINA RESULT:      -3.8     10.975     11.899
REMARK  4 active torsions:
REMARK  status: ('A' for Active; 'I' for Inactive)
REMARK    1  A    between atoms: C2_2  and  C6_6 
REMARK    2  A    between atoms: C6_6  and  N10_10 
REMARK    3  A    between atoms: C7_7  and  N10_10 
REMARK    4  A    between atoms: C8_8  and  N10_10 
ROOT
HETATM    1  C1  UNL     1     -34.094  15.533  -3.471  1.00 20.00    -0.109 C 
HETATM    2  C2  UNL     1     -33.773  16.544  -2.908  1.00 20.00    -0.077 C 
HETATM    3  C4  UNL     1     -34.487  14.302  -4.153  1.00 20.00     0.112 C 
ENDROOT
BRANCH   2   4
HETATM    4  C6  UNL     1     -33.372  17.776  -2.221  1.00 20.00     0.366 C 
BRANCH   4   5
HETATM    5  N10 UNL     1     -33.798  17.755  -0.823  1.00 20.00     0.111 N 
BRANCH   5   6
HETATM    6  C7  UNL     1     -33.352  18.964  -0.133  1.00 20.00     0.396 C 
HETATM    7  C3  UNL     1     -31.997  18.798   0.388  1.00 20.00     0.089 C 
HETATM    8  N9  UNL     1     -30.921  18.670   0.802  1.00 20.00    -0.195 NA
ENDBRANCH   5   6
BRANCH   5   9
HETATM    9  C8  UNL     1     -35.252  17.623  -0.733  1.00 20.00     0.270 C 
HETATM   10  C5  UNL     1     -35.695  17.479   0.682  1.00 20.00     0.037 C 
ENDBRANCH   5   9
ENDBRANCH   4   5
ENDBRANCH   2   4
TORSDOF 4
ENDMDL
MODEL 8
REMARK VINA RESULT:      -3.6     10.902     12.250
REMARK  4 active torsions:
REMARK  status: ('A' for Active; 'I' for Inactive)
REMARK    1  A    between atoms: C2_2  and  C6_6 
REMARK    2  A    between atoms: C6_6  and  N10_10 
REMARK    3  A    between atoms: C7_7  and  N10_10 
REMARK    4  A    between atoms: C8_8  and  N10_10 
ROOT
HETATM    1  C1  UNL     1     -35.150  17.139  -0.795  1.00 20.00    -0.109 C 
HETATM    2  C2  UNL     1     -34.760  16.746  -1.860  1.00 20.00    -0.077 C 
HETATM    3  C4  UNL     1     -35.628  17.618   0.501  1.00 20.00     0.112 C 
ENDROOT
BRANCH   2   4
HETATM    4  C6  UNL     1     -34.276  16.273  -3.161  1.00 20.00     0.366 C 
BRANCH   4   5
HETATM    5  N10 UNL     1     -35.215  15.318  -3.749  1.00 20.00     0.111 N 
BRANCH   5   6
HETATM    6  C7  UNL     1     -36.142  16.000  -4.650  1.00 20.00     0.396 C 
HETATM    7  C3  UNL     1     -35.419  16.704  -5.707  1.00 20.00     0.089 C 
HETATM    8  N9  UNL     1     -34.848  17.264  -6.549  1.00 20.00    -0.195 NA
ENDBRANCH   5   6
BRANCH   5   9
HETATM    9  C8  UNL     1     -34.492  14.264  -4.462  1.00 20.00     0.270 C 
HETATM   10  C5  UNL     1     -33.018  14.444  -4.340  1.00 20.00     0.037 C 
ENDBRANCH   5   9
ENDBRANCH   4   5
ENDBRANCH   2   4
TORSDOF 4
ENDMDL
MODEL 9
REMARK VINA RESULT:      -3.5      2.186      4.756
REMARK  4 active torsions:
REMARK  status: ('A' for Active; 'I' for Inactive)
REMARK    1  A    between atoms: C2_2  and  C6_6 
REMARK    2  A    between atoms: C6_6  and  N10_10 
REMARK    3  A    between atoms: C7_7  and  N10_10 
REMARK    4  A    between atoms: C8_8  and  N10_10 
ROOT
HETATM    1  C1  UNL     1     -34.148   5.532   3.829  1.00 20.00    -0.109 C 
HETATM    2  C2  UNL     1     -33.942   6.597   3.314  1.00 20.00    -0.077 C 
HETATM    3  C4  UNL     1     -34.402   4.235   4.454  1.00 20.00     0.112 C 
ENDROOT
BRANCH   2   4
HETATM    4  C6  UNL     1     -33.690   7.901   2.694  1.00 20.00     0.366 C 
BRANCH   4   5
HETATM    5  N10 UNL     1     -32.317   7.986   2.197  1.00 20.00     0.111 N 
BRANCH   5   6
HETATM    6  C7  UNL     1     -32.102   9.254   1.502  1.00 20.00     0.396 C 
HETATM    7  C3  UNL     1     -32.829   9.284   0.235  1.00 20.00     0.089 C 
HETATM    8  N9  UNL     1     -33.406   9.312  -0.771  1.00 20.00    -0.195 NA
ENDBRANCH   5   6
BRANCH   5   9
HETATM    9  C8  UNL     1     -31.365   7.838   3.298  1.00 20.00     0.270 C 
HETATM   10  C5  UNL     1     -31.704   8.748   4.429  1.00 20.00     0.037 C 
ENDBRANCH   5   9
ENDBRANCH   4   5
ENDBRANCH   2   4
TORSDOF 4
ENDMDL
