MODEL 1
REMARK VINA RESULT:      -4.4      0.000      0.000
REMARK  4 active torsions:
REMARK  status: ('A' for Active; 'I' for Inactive)
REMARK    1  A    between atoms: C2_2  and  C7_7 
REMARK    2  A    between atoms: C7_7  and  N11_11 
REMARK    3  A    between atoms: C8_8  and  C9_9 
REMARK    4  A    between atoms: C8_8  and  N11_11 
ROOT
HETATM    1  C1  UNL     1     -34.288   5.734   4.614  1.00 20.00    -0.109 C 
HETATM    2  C2  UNL     1     -33.948   6.560   3.810  1.00 20.00    -0.077 C 
HETATM    3  C4  UNL     1     -34.701   4.728   5.590  1.00 20.00     0.112 C 
ENDROOT
BRANCH   2   4
HETATM    4  C7  UNL     1     -33.539   7.568   2.827  1.00 20.00     0.365 C 
BRANCH   4   5
HETATM    5  N11 UNL     1     -32.079   7.728   2.815  1.00 20.00     0.096 N 
HETATM    6  C6  UNL     1     -31.630   8.284   4.098  1.00 20.00     0.311 C 
BRANCH   5   7
HETATM    7  C8  UNL     1     -31.656   8.559   1.711  1.00 20.00     0.291 C 
BRANCH   7   8
HETATM    8  C9  UNL     1     -32.746   9.552   1.288  1.00 20.00     0.117 C 
HETATM    9  C3  UNL     1     -33.070   9.421  -0.146  1.00 20.00     0.065 C 
HETATM   10  N10 UNL     1     -33.326   9.317  -1.272  1.00 20.00    -0.197 NA
HETATM   11  C5  UNL     1     -32.372  10.995   1.624  1.00 20.00     0.027 C 
ENDBRANCH   7   8
ENDBRANCH   5   7
ENDBRANCH   4   5
ENDBRANCH   2   4
TORSDOF 4
ENDMDL
MODEL 2
REMARK VINA RESULT:      -4.3      9.663     10.749
REMARK  4 active torsions:
REMARK  status: ('A' for Active; 'I' for Inactive)
REMARK    1  A    between atoms: C2_2  and  C7_7 
REMARK    2  A    between atoms: C7_7  and  N11_11 
REMARK    3  A    between atoms: C8_8  and  C9_9 
REMARK    4  A    between atoms: C8_8  and  N11_11 
ROOT
HETATM    1  C1  UNL     1     -33.270  17.608  -1.538  1.00 20.00    -0.109 C 
HETATM    2  C2  UNL     1     -33.936  16.906  -2.249  1.00 20.00    -0.077 C 
HETATM    3  C4  UNL     1     -32.458  18.464  -0.675  1.00 20.00     0.112 C 
ENDROOT
BRANCH   2   4
HETATM    4  C7  UNL     1     -34.745  16.044  -3.116  1.00 20.00     0.365 C 
BRANCH   4   5
HETATM    5  N11 UNL     1     -33.892  15.156  -3.916  1.00 20.00     0.096 N 
HETATM    6  C6  UNL     1     -33.348  15.891  -5.065  1.00 20.00     0.311 C 
BRANCH   5   7
HETATM    7  C8  UNL     1     -34.620  13.984  -4.347  1.00 20.00     0.291 C 
BRANCH   7   8
HETATM    8  C9  UNL     1     -35.504  14.272  -5.567  1.00 20.00     0.117 C 
HETATM    9  C3  UNL     1     -36.937  14.138  -5.241  1.00 20.00     0.065 C 
HETATM   10  N10 UNL     1     -38.064  14.034  -4.985  1.00 20.00    -0.197 NA
HETATM   11  C5  UNL     1     -35.140  13.392  -6.763  1.00 20.00     0.027 C 
ENDBRANCH   7   8
ENDBRANCH   5   7
ENDBRANCH   4   5
ENDBRANCH   2   4
TORSDOF 4
ENDMDL
MODEL 3
REMARK VINA RESULT:      -4.3     10.281     11.125
REMARK  4 active torsions:
REMARK  status: ('A' for Active; 'I' for Inactive)
REMARK    1  A    between atoms: C2_2  and  C7_7 
REMARK    2  A    between atoms: C7_7  and  N11_11 
REMARK    3  A    between atoms: C8_8  and  C9_9 
REMARK    4  A    between atoms: C8_8  and  N11_11 
ROOT
HETATM    1  C1  UNL     1     -33.113  17.745  -1.424  1.00 20.00    -0.109 C 
HETATM    2  C2  UNL     1     -33.545  17.025  -2.283  1.00 20.00    -0.077 C 
HETATM    3  C4  UNL     1     -32.585  18.618  -0.378  1.00 20.00     0.112 C 
ENDROOT
BRANCH   2   4
HETATM    4  C7  UNL     1     -34.078  16.145  -3.328  1.00 20.00     0.365 C 
BRANCH   4   5
HETATM    5  N11 UNL     1     -33.409  16.391  -4.612  1.00 20.00     0.096 N 
HETATM    6  C6  UNL     1     -34.173  17.374  -5.390  1.00 20.00     0.311 C 
BRANCH   5   7
HETATM    7  C8  UNL     1     -33.238  15.162  -5.353  1.00 20.00     0.291 C 
BRANCH   7   8
HETATM    8  C9  UNL     1     -34.441  14.863  -6.257  1.00 20.00     0.117 C 
HETATM    9  C3  UNL     1     -35.267  13.767  -5.714  1.00 20.00     0.065 C 
HETATM   10  N10 UNL     1     -35.917  12.906  -5.287  1.00 20.00    -0.197 NA
HETATM   11  C5  UNL     1     -34.020  14.557  -7.694  1.00 20.00     0.027 C 
ENDBRANCH   7   8
ENDBRANCH   5   7
ENDBRANCH   4   5
ENDBRANCH   2   4
TORSDOF 4
ENDMDL
MODEL 4
REMARK VINA RESULT:      -4.1      2.132      5.009
REMARK  4 active torsions:
REMARK  status: ('A' for Active; 'I' for Inactive)
REMARK    1  A    between atoms: C2_2  and  C7_7 
REMARK    2  A    between atoms: C7_7  and  N11_11 
REMARK    3  A    between atoms: C8_8  and  C9_9 
REMARK    4  A    between atoms: C8_8  and  N11_11 
ROOT
HETATM    1  C1  UNL     1     -32.437   8.909   1.283  1.00 20.00    -0.109 C 
HETATM    2  C2  UNL     1     -32.352   8.413   2.374  1.00 20.00    -0.077 C 
HETATM    3  C4  UNL     1     -32.540   9.514  -0.043  1.00 20.00     0.112 C 
ENDROOT
BRANCH   2   4
HETATM    4  C7  UNL     1     -32.255   7.808   3.706  1.00 20.00     0.365 C 
BRANCH   4   5
HETATM    5  N11 UNL     1     -33.583   7.674   4.319  1.00 20.00     0.096 N 
HETATM    6  C6  UNL     1     -33.444   7.479   5.768  1.00 20.00     0.311 C 
BRANCH   5   7
HETATM    7  C8  UNL     1     -34.327   6.591   3.717  1.00 20.00     0.291 C 
BRANCH   7   8
HETATM    8  C9  UNL     1     -33.687   5.226   4.001  1.00 20.00     0.117 C 
HETATM    9  C3  UNL     1     -33.165   4.607   2.766  1.00 20.00     0.065 C 
HETATM   10  N10 UNL     1     -32.752   4.121   1.797  1.00 20.00    -0.197 NA
HETATM   11  C5  UNL     1     -34.648   4.275   4.713  1.00 20.00     0.027 C 
ENDBRANCH   7   8
ENDBRANCH   5   7
ENDBRANCH   4   5
ENDBRANCH   2   4
TORSDOF 4
ENDMDL
MODEL 5
REMARK VINA RESULT:      -4.1     10.012     10.588
REMARK  4 active torsions:
REMARK  status: ('A' for Active; 'I' for Inactive)
REMARK    1  A    between atoms: C2_2  and  C7_7 
REMARK    2  A    between atoms: C7_7  and  N11_11 
REMARK    3  A    between atoms: C8_8  and  C9_9 
REMARK    4  A    between atoms: C8_8  and  N11_11 
ROOT
HETATM    1  C1  UNL     1     -34.967  17.223  -0.958  1.00 20.00    -0.109 C 
HETATM    2  C2  UNL     1     -34.303  17.084  -1.950  1.00 20.00    -0.077 C 
HETATM    3  C4  UNL     1     -35.776  17.389   0.248  1.00 20.00     0.112 C 
ENDROOT
BRANCH   2   4
HETATM    4  C7  UNL     1     -33.498  16.920  -3.163  1.00 20.00     0.365 C 
BRANCH   4   5
HETATM    5  N11 UNL     1     -34.009  15.816  -3.987  1.00 20.00     0.096 N 
HETATM    6  C6  UNL     1     -33.027  15.473  -5.023  1.00 20.00     0.311 C 
BRANCH   5   7
HETATM    7  C8  UNL     1     -35.287  16.153  -4.572  1.00 20.00     0.291 C 
BRANCH   7   8
HETATM    8  C9  UNL     1     -36.365  15.115  -4.234  1.00 20.00     0.117 C 
HETATM    9  C3  UNL     1     -36.084  13.815  -4.874  1.00 20.00     0.065 C 
HETATM   10  N10 UNL     1     -35.863  12.793  -5.375  1.00 20.00    -0.197 NA
HETATM   11  C5  UNL     1     -37.767  15.601  -4.600  1.00 20.00     0.027 C 
ENDBRANCH   7   8
ENDBRANCH   5   7
ENDBRANCH   4   5
ENDBRANCH   2   4
TORSDOF 4
ENDMDL
MODEL 6
REMARK VINA RESULT:      -4.1     10.103     11.194
REMARK  4 active torsions:
REMARK  status: ('A' for Active; 'I' for Inactive)
REMARK    1  A    between atoms: C2_2  and  C7_7 
REMARK    2  A    between atoms: C7_7  and  N11_11 
REMARK    3  A    between atoms: C8_8  and  C9_9 
REMARK    4  A    between atoms: C8_8  and  N11_11 
ROOT
HETATM    1  C1  UNL     1     -34.673  16.661  -2.118  1.00 20.00    -0.109 C 
HETATM    2  C2  UNL     1     -34.068  16.289  -3.087  1.00 20.00    -0.077 C 
HETATM    3  C4  UNL     1     -35.408  17.110  -0.938  1.00 20.00     0.112 C 
ENDROOT
BRANCH   2   4
HETATM    4  C7  UNL     1     -33.336  15.836  -4.274  1.00 20.00     0.365 C 
BRANCH   4   5
HETATM    5  N11 UNL     1     -33.844  16.491  -5.486  1.00 20.00     0.096 N 
HETATM    6  C6  UNL     1     -33.661  17.944  -5.380  1.00 20.00     0.311 C 
BRANCH   5   7
HETATM    7  C8  UNL     1     -35.232  16.157  -5.714  1.00 20.00     0.291 C 
BRANCH   7   8
HETATM    8  C9  UNL     1     -35.387  14.956  -6.656  1.00 20.00     0.117 C 
HETATM    9  C3  UNL     1     -35.657  13.713  -5.907  1.00 20.00     0.065 C 
HETATM   10  N10 UNL     1     -35.871  12.736  -5.320  1.00 20.00    -0.197 NA
HETATM   11  C5  UNL     1     -34.175  14.780  -7.570  1.00 20.00     0.027 C 
ENDBRANCH   7   8
ENDBRANCH   5   7
ENDBRANCH   4   5
ENDBRANCH   2   4
TORSDOF 4
ENDMDL
MODEL 7
REMARK VINA RESULT:      -4.0      2.043      5.417
REMARK  4 active torsions:
REMARK  status: ('A' for Active; 'I' for Inactive)
REMARK    1  A    between atoms: C2_2  and  C7_7 
REMARK    2  A    between atoms: C7_7  and  N11_11 
REMARK    3  A    between atoms: C8_8  and  C9_9 
REMARK    4  A    between atoms: C8_8  and  N11_11 
ROOT
HETATM    1  C1  UNL     1     -32.706   8.820   1.063  1.00 20.00    -0.109 C 
HETATM    2  C2  UNL     1     -32.473   8.108   2.003  1.00 20.00    -0.077 C 
HETATM    3  C4  UNL     1     -32.986   9.686  -0.080  1.00 20.00     0.112 C 
ENDROOT
BRANCH   2   4
HETATM    4  C7  UNL     1     -32.192   7.244   3.154  1.00 20.00     0.365 C 
BRANCH   4   5
HETATM    5  N11 UNL     1     -33.033   6.040   3.123  1.00 20.00     0.096 N 
HETATM    6  C6  UNL     1     -32.904   5.377   1.819  1.00 20.00     0.311 C 
BRANCH   5   7
HETATM    7  C8  UNL     1     -34.413   6.362   3.409  1.00 20.00     0.291 C 
BRANCH   7   8
HETATM    8  C9  UNL     1     -34.785   6.054   4.865  1.00 20.00     0.117 C 
HETATM    9  C3  UNL     1     -34.084   6.952   5.804  1.00 20.00     0.065 C 
HETATM   10  N10 UNL     1     -33.535   7.659   6.542  1.00 20.00    -0.197 NA
HETATM   11  C5  UNL     1     -34.528   4.592   5.229  1.00 20.00     0.027 C 
ENDBRANCH   7   8
ENDBRANCH   5   7
ENDBRANCH   4   5
ENDBRANCH   2   4
TORSDOF 4
ENDMDL
MODEL 8
REMARK VINA RESULT:      -3.9      1.898      5.348
REMARK  4 active torsions:
REMARK  status: ('A' for Active; 'I' for Inactive)
REMARK    1  A    between atoms: C2_2  and  C7_7 
REMARK    2  A    between atoms: C7_7  and  N11_11 
REMARK    3  A    between atoms: C8_8  and  C9_9 
REMARK    4  A    between atoms: C8_8  and  N11_11 
ROOT
HETATM    1  C1  UNL     1     -32.623   9.268   0.676  1.00 20.00    -0.109 C 
HETATM    2  C2  UNL     1     -32.176   8.802   1.689  1.00 20.00    -0.077 C 
HETATM    3  C4  UNL     1     -33.166   9.834  -0.558  1.00 20.00     0.112 C 
ENDROOT
BRANCH   2   4
HETATM    4  C7  UNL     1     -31.625   8.237   2.924  1.00 20.00     0.365 C 
BRANCH   4   5
HETATM    5  N11 UNL     1     -32.395   7.063   3.353  1.00 20.00     0.096 N 
HETATM    6  C6  UNL     1     -32.844   6.306   2.178  1.00 20.00     0.311 C 
BRANCH   5   7
HETATM    7  C8  UNL     1     -33.515   7.450   4.182  1.00 20.00     0.291 C 
BRANCH   7   8
HETATM    8  C9  UNL     1     -33.659   6.546   5.413  1.00 20.00     0.117 C 
HETATM    9  C3  UNL     1     -34.427   5.325   5.101  1.00 20.00     0.065 C 
HETATM   10  N10 UNL     1     -35.029   4.365   4.856  1.00 20.00    -0.197 NA
HETATM   11  C5  UNL     1     -34.280   7.283   6.599  1.00 20.00     0.027 C 
ENDBRANCH   7   8
ENDBRANCH   5   7
ENDBRANCH   4   5
ENDBRANCH   2   4
TORSDOF 4
ENDMDL
MODEL 9
REMARK VINA RESULT:      -3.9     10.179     11.213
REMARK  4 active torsions:
REMARK  status: ('A' for Active; 'I' for Inactive)
REMARK    1  A    between atoms: C2_2  and  C7_7 
REMARK    2  A    between atoms: C7_7  and  N11_11 
REMARK    3  A    between atoms: C8_8  and  C9_9 
REMARK    4  A    between atoms: C8_8  and  N11_11 
ROOT
HETATM    1  C1  UNL     1     -33.564  17.539  -1.544  1.00 20.00    -0.109 C 
HETATM    2  C2  UNL     1     -34.450  16.986  -2.138  1.00 20.00    -0.077 C 
HETATM    3  C4  UNL     1     -32.488  18.213  -0.820  1.00 20.00     0.112 C 
ENDROOT
BRANCH   2   4
HETATM    4  C7  UNL     1     -35.530  16.316  -2.868  1.00 20.00     0.365 C 
BRANCH   4   5
HETATM    5  N11 UNL     1     -35.877  17.056  -4.088  1.00 20.00     0.096 N 
HETATM    6  C6  UNL     1     -36.962  18.004  -3.802  1.00 20.00     0.311 C 
BRANCH   5   7
HETATM    7  C8  UNL     1     -36.243  16.155  -5.157  1.00 20.00     0.291 C 
BRANCH   7   8
HETATM    8  C9  UNL     1     -36.830  14.841  -4.626  1.00 20.00     0.117 C 
HETATM    9  C3  UNL     1     -36.121  13.670  -5.178  1.00 20.00     0.065 C 
HETATM   10  N10 UNL     1     -35.563  12.749  -5.611  1.00 20.00    -0.197 NA
HETATM   11  C5  UNL     1     -38.332  14.732  -4.889  1.00 20.00     0.027 C 
ENDBRANCH   7   8
ENDBRANCH   5   7
ENDBRANCH   4   5
ENDBRANCH   2   4
TORSDOF 4
ENDMDL
