MODEL 1
REMARK VINA RESULT:      -5.6      0.000      0.000
REMARK  4 active torsions:
REMARK  status: ('A' for Active; 'I' for Inactive)
REMARK    1  A    between atoms: C2_2  and  C7_7 
REMARK    2  A    between atoms: C5_5  and  C8_8 
REMARK    3  A    between atoms: C7_7  and  C8_8 
REMARK    4  A    between atoms: C8_8  and  O9_9 
ROOT
HETATM    1  C1  UNL     1     -32.582   9.052   1.181  1.00 20.00    -0.111 C 
HETATM    2  C2  UNL     1     -32.335   8.434   2.182  1.00 20.00    -0.104 C 
HETATM    3  C6  UNL     1     -32.880   9.804  -0.036  1.00 20.00     0.112 C 
ENDROOT
BRANCH   2   4
HETATM    4  C7  UNL     1     -32.038   7.676   3.408  1.00 20.00     0.126 C 
BRANCH   4   5
HETATM    5  C8  UNL     1     -33.301   7.447   4.241  1.00 20.00     0.133 C 
BRANCH   5   6
HETATM    6  C5  UNL     1     -33.856   6.045   4.020  1.00 20.00     0.015 A 
HETATM    7  C3  UNL     1     -34.638   5.360   5.107  1.00 20.00     0.007 A 
HETATM    8  C4  UNL     1     -35.337   5.834   3.862  1.00 20.00     0.007 A 
ENDBRANCH   5   6
BRANCH   5   9
HETATM    9  O9  UNL     1     -32.974   7.593   5.622  1.00 20.00    -0.394 OA
HETATM   10  H21 UNL     1     -33.815   7.622   6.101  1.00 20.00     0.210 HD
ENDBRANCH   5   9
ENDBRANCH   4   5
ENDBRANCH   2   4
TORSDOF 4
ENDMDL
MODEL 2
REMARK VINA RESULT:      -5.4      0.811      1.057
REMARK  4 active torsions:
REMARK  status: ('A' for Active; 'I' for Inactive)
REMARK    1  A    between atoms: C2_2  and  C7_7 
REMARK    2  A    between atoms: C5_5  and  C8_8 
REMARK    3  A    between atoms: C7_7  and  C8_8 
REMARK    4  A    between atoms: C8_8  and  O9_9 
ROOT
HETATM    1  C1  UNL     1     -32.547   9.042   1.554  1.00 20.00    -0.111 C 
HETATM    2  C2  UNL     1     -32.673   8.072   2.252  1.00 20.00    -0.104 C 
HETATM    3  C6  UNL     1     -32.391  10.222   0.706  1.00 20.00     0.112 C 
ENDROOT
BRANCH   2   4
HETATM    4  C7  UNL     1     -32.832   6.884   3.107  1.00 20.00     0.126 C 
BRANCH   4   5
HETATM    5  C8  UNL     1     -33.899   7.110   4.180  1.00 20.00     0.133 C 
BRANCH   5   6
HETATM    6  C5  UNL     1     -34.790   5.885   4.336  1.00 20.00     0.015 A 
HETATM    7  C3  UNL     1     -34.209   4.504   4.207  1.00 20.00     0.007 A 
HETATM    8  C4  UNL     1     -34.663   5.005   5.549  1.00 20.00     0.007 A 
ENDBRANCH   5   6
BRANCH   5   9
HETATM    9  O9  UNL     1     -33.250   7.360   5.427  1.00 20.00    -0.394 OA
HETATM   10  H21 UNL     1     -32.524   7.974   5.240  1.00 20.00     0.210 HD
ENDBRANCH   5   9
ENDBRANCH   4   5
ENDBRANCH   2   4
TORSDOF 4
ENDMDL
MODEL 3
REMARK VINA RESULT:      -4.9      1.623      4.657
REMARK  4 active torsions:
REMARK  status: ('A' for Active; 'I' for Inactive)
REMARK    1  A    between atoms: C2_2  and  C7_7 
REMARK    2  A    between atoms: C5_5  and  C8_8 
REMARK    3  A    between atoms: C7_7  and  C8_8 
REMARK    4  A    between atoms: C8_8  and  O9_9 
ROOT
HETATM    1  C1  UNL     1     -33.652   7.052   4.898  1.00 20.00    -0.111 C 
HETATM    2  C2  UNL     1     -33.296   6.991   3.752  1.00 20.00    -0.104 C 
HETATM    3  C6  UNL     1     -34.086   7.127   6.292  1.00 20.00     0.112 C 
ENDROOT
BRANCH   2   4
HETATM    4  C7  UNL     1     -32.858   6.912   2.350  1.00 20.00     0.126 C 
BRANCH   4   5
HETATM    5  C8  UNL     1     -32.067   8.159   1.944  1.00 20.00     0.133 C 
BRANCH   5   6
HETATM    6  C5  UNL     1     -32.992   9.244   1.407  1.00 20.00     0.015 A 
HETATM    7  C3  UNL     1     -32.454  10.615   1.101  1.00 20.00     0.007 A 
HETATM    8  C4  UNL     1     -32.871   9.704  -0.020  1.00 20.00     0.007 A 
ENDBRANCH   5   6
BRANCH   5   9
HETATM    9  O9  UNL     1     -31.390   8.667   3.092  1.00 20.00    -0.394 OA
HETATM   10  H21 UNL     1     -30.494   8.299   3.067  1.00 20.00     0.210 HD
ENDBRANCH   5   9
ENDBRANCH   4   5
ENDBRANCH   2   4
TORSDOF 4
ENDMDL
MODEL 4
REMARK VINA RESULT:      -4.9      1.899      2.445
REMARK  4 active torsions:
REMARK  status: ('A' for Active; 'I' for Inactive)
REMARK    1  A    between atoms: C2_2  and  C7_7 
REMARK    2  A    between atoms: C5_5  and  C8_8 
REMARK    3  A    between atoms: C7_7  and  C8_8 
REMARK    4  A    between atoms: C8_8  and  O9_9 
ROOT
HETATM    1  C1  UNL     1     -32.581   7.807   2.201  1.00 20.00    -0.111 C 
HETATM    2  C2  UNL     1     -32.980   6.688   2.380  1.00 20.00    -0.104 C 
HETATM    3  C6  UNL     1     -32.095   9.168   1.983  1.00 20.00     0.112 C 
ENDROOT
BRANCH   2   4
HETATM    4  C7  UNL     1     -33.470   5.318   2.602  1.00 20.00     0.126 C 
BRANCH   4   5
HETATM    5  C8  UNL     1     -33.670   5.034   4.092  1.00 20.00     0.133 C 
BRANCH   5   6
HETATM    6  C5  UNL     1     -34.468   6.147   4.760  1.00 20.00     0.015 A 
HETATM    7  C3  UNL     1     -34.804   6.064   6.224  1.00 20.00     0.007 A 
HETATM    8  C4  UNL     1     -33.800   7.073   5.739  1.00 20.00     0.007 A 
ENDBRANCH   5   6
BRANCH   5   9
HETATM    9  O9  UNL     1     -34.392   3.811   4.233  1.00 20.00    -0.394 OA
HETATM   10  H21 UNL     1     -34.414   3.403   3.355  1.00 20.00     0.210 HD
ENDBRANCH   5   9
ENDBRANCH   4   5
ENDBRANCH   2   4
TORSDOF 4
ENDMDL
MODEL 5
REMARK VINA RESULT:      -4.6      1.352      4.691
REMARK  4 active torsions:
REMARK  status: ('A' for Active; 'I' for Inactive)
REMARK    1  A    between atoms: C2_2  and  C7_7 
REMARK    2  A    between atoms: C5_5  and  C8_8 
REMARK    3  A    between atoms: C7_7  and  C8_8 
REMARK    4  A    between atoms: C8_8  and  O9_9 
ROOT
HETATM    1  C1  UNL     1     -34.087   5.535   3.791  1.00 20.00    -0.111 C 
HETATM    2  C2  UNL     1     -33.845   6.571   3.232  1.00 20.00    -0.104 C 
HETATM    3  C6  UNL     1     -34.382   4.274   4.469  1.00 20.00     0.112 C 
ENDROOT
BRANCH   2   4
HETATM    4  C7  UNL     1     -33.548   7.841   2.552  1.00 20.00     0.126 C 
BRANCH   4   5
HETATM    5  C8  UNL     1     -32.054   7.971   2.243  1.00 20.00     0.133 C 
BRANCH   5   6
HETATM    6  C5  UNL     1     -31.808   8.997   1.145  1.00 20.00     0.015 A 
HETATM    7  C3  UNL     1     -32.864   9.269   0.110  1.00 20.00     0.007 A 
HETATM    8  C4  UNL     1     -32.548  10.306   1.152  1.00 20.00     0.007 A 
ENDBRANCH   5   6
BRANCH   5   9
HETATM    9  O9  UNL     1     -31.376   8.398   3.424  1.00 20.00    -0.394 OA
HETATM   10  H21 UNL     1     -30.662   8.984   3.133  1.00 20.00     0.210 HD
ENDBRANCH   5   9
ENDBRANCH   4   5
ENDBRANCH   2   4
TORSDOF 4
ENDMDL
MODEL 6
REMARK VINA RESULT:      -4.3      1.837      4.803
REMARK  4 active torsions:
REMARK  status: ('A' for Active; 'I' for Inactive)
REMARK    1  A    between atoms: C2_2  and  C7_7 
REMARK    2  A    between atoms: C5_5  and  C8_8 
REMARK    3  A    between atoms: C7_7  and  C8_8 
REMARK    4  A    between atoms: C8_8  and  O9_9 
ROOT
HETATM    1  C1  UNL     1     -33.956   6.326   3.980  1.00 20.00    -0.111 C 
HETATM    2  C2  UNL     1     -33.087   7.045   3.565  1.00 20.00    -0.104 C 
HETATM    3  C6  UNL     1     -35.013   5.452   4.485  1.00 20.00     0.112 C 
ENDROOT
BRANCH   2   4
HETATM    4  C7  UNL     1     -32.022   7.926   3.059  1.00 20.00     0.126 C 
BRANCH   4   5
HETATM    5  C8  UNL     1     -32.145   8.134   1.547  1.00 20.00     0.133 C 
BRANCH   5   6
HETATM    6  C5  UNL     1     -33.060   9.309   1.228  1.00 20.00     0.015 A 
HETATM    7  C3  UNL     1     -32.480  10.623   0.784  1.00 20.00     0.007 A 
HETATM    8  C4  UNL     1     -33.236   9.767  -0.194  1.00 20.00     0.007 A 
ENDBRANCH   5   6
BRANCH   5   9
HETATM    9  O9  UNL     1     -30.850   8.411   1.016  1.00 20.00    -0.394 OA
HETATM   10  H21 UNL     1     -30.960   8.497   0.057  1.00 20.00     0.210 HD
ENDBRANCH   5   9
ENDBRANCH   4   5
ENDBRANCH   2   4
TORSDOF 4
ENDMDL
MODEL 7
REMARK VINA RESULT:      -4.0     10.534     11.083
REMARK  4 active torsions:
REMARK  status: ('A' for Active; 'I' for Inactive)
REMARK    1  A    between atoms: C2_2  and  C7_7 
REMARK    2  A    between atoms: C5_5  and  C8_8 
REMARK    3  A    between atoms: C7_7  and  C8_8 
REMARK    4  A    between atoms: C8_8  and  O9_9 
ROOT
HETATM    1  C1  UNL     1     -34.844  16.857  -1.685  1.00 20.00    -0.111 C 
HETATM    2  C2  UNL     1     -34.280  16.417  -2.650  1.00 20.00    -0.104 C 
HETATM    3  C6  UNL     1     -35.530  17.392  -0.510  1.00 20.00     0.112 C 
ENDROOT
BRANCH   2   4
HETATM    4  C7  UNL     1     -33.590  15.876  -3.832  1.00 20.00     0.126 C 
BRANCH   4   5
HETATM    5  C8  UNL     1     -34.085  14.467  -4.168  1.00 20.00     0.133 C 
BRANCH   5   6
HETATM    6  C5  UNL     1     -35.140  14.503  -5.267  1.00 20.00     0.015 A 
HETATM    7  C3  UNL     1     -35.917  13.263  -5.612  1.00 20.00     0.007 A 
HETATM    8  C4  UNL     1     -36.600  14.409  -4.918  1.00 20.00     0.007 A 
ENDBRANCH   5   6
BRANCH   5   9
HETATM    9  O9  UNL     1     -32.979  13.690  -4.626  1.00 20.00    -0.394 OA
HETATM   10  H21 UNL     1     -33.355  12.911  -5.063  1.00 20.00     0.210 HD
ENDBRANCH   5   9
ENDBRANCH   4   5
ENDBRANCH   2   4
TORSDOF 4
ENDMDL
MODEL 8
REMARK VINA RESULT:      -3.8     10.539     11.799
REMARK  4 active torsions:
REMARK  status: ('A' for Active; 'I' for Inactive)
REMARK    1  A    between atoms: C2_2  and  C7_7 
REMARK    2  A    between atoms: C5_5  and  C8_8 
REMARK    3  A    between atoms: C7_7  and  C8_8 
REMARK    4  A    between atoms: C8_8  and  O9_9 
ROOT
HETATM    1  C1  UNL     1     -35.208  16.414  -2.649  1.00 20.00    -0.111 C 
HETATM    2  C2  UNL     1     -34.831  15.506  -3.339  1.00 20.00    -0.104 C 
HETATM    3  C6  UNL     1     -35.665  17.520  -1.809  1.00 20.00     0.112 C 
ENDROOT
BRANCH   2   4
HETATM    4  C7  UNL     1     -34.372  14.391  -4.183  1.00 20.00     0.126 C 
BRANCH   4   5
HETATM    5  C8  UNL     1     -35.430  14.008  -5.221  1.00 20.00     0.133 C 
BRANCH   5   6
HETATM    6  C5  UNL     1     -34.841  13.997  -6.626  1.00 20.00     0.015 A 
HETATM    7  C3  UNL     1     -35.678  13.559  -7.796  1.00 20.00     0.007 A 
HETATM    8  C4  UNL     1     -35.296  15.005  -7.646  1.00 20.00     0.007 A 
ENDBRANCH   5   6
BRANCH   5   9
HETATM    9  O9  UNL     1     -35.914  12.699  -4.922  1.00 20.00    -0.394 OA
HETATM   10  H21 UNL     1     -36.869  12.717  -5.084  1.00 20.00     0.210 HD
ENDBRANCH   5   9
ENDBRANCH   4   5
ENDBRANCH   2   4
TORSDOF 4
ENDMDL
MODEL 9
REMARK VINA RESULT:      -3.6     10.870     12.474
REMARK  4 active torsions:
REMARK  status: ('A' for Active; 'I' for Inactive)
REMARK    1  A    between atoms: C2_2  and  C7_7 
REMARK    2  A    between atoms: C5_5  and  C8_8 
REMARK    3  A    between atoms: C7_7  and  C8_8 
REMARK    4  A    between atoms: C8_8  and  O9_9 
ROOT
HETATM    1  C1  UNL     1     -34.418  16.302  -2.705  1.00 20.00    -0.111 C 
HETATM    2  C2  UNL     1     -34.058  15.456  -3.478  1.00 20.00    -0.104 C 
HETATM    3  C6  UNL     1     -34.855  17.331  -1.763  1.00 20.00     0.112 C 
ENDROOT
BRANCH   2   4
HETATM    4  C7  UNL     1     -33.620  14.418  -4.426  1.00 20.00     0.126 C 
BRANCH   4   5
HETATM    5  C8  UNL     1     -34.255  14.620  -5.804  1.00 20.00     0.133 C 
BRANCH   5   6
HETATM    6  C5  UNL     1     -33.725  15.882  -6.473  1.00 20.00     0.015 A 
HETATM    7  C3  UNL     1     -34.038  16.163  -7.916  1.00 20.00     0.007 A 
HETATM    8  C4  UNL     1     -34.666  16.998  -6.835  1.00 20.00     0.007 A 
ENDBRANCH   5   6
BRANCH   5   9
HETATM    9  O9  UNL     1     -33.930  13.500  -6.627  1.00 20.00    -0.394 OA
HETATM   10  H21 UNL     1     -33.183  13.774  -7.180  1.00 20.00     0.210 HD
ENDBRANCH   5   9
ENDBRANCH   4   5
ENDBRANCH   2   4
TORSDOF 4
ENDMDL
