MODEL 1
REMARK VINA RESULT:      -6.0      0.000      0.000
REMARK  2 active torsions:
REMARK  status: ('A' for Active; 'I' for Inactive)
REMARK    1  A    between atoms: C2_2  and  C11_11 
REMARK    2  A    between atoms: C7_7  and  C11_11 
ROOT
HETATM    1  C1  UNL     1     -32.588   9.191   0.563  1.00 20.00    -0.111 C 
HETATM    2  C2  UNL     1     -32.238   8.643   1.572  1.00 20.00    -0.106 C 
HETATM    3  C9  UNL     1     -33.015   9.858  -0.666  1.00 20.00     0.112 C 
ENDROOT
BRANCH   2   4
HETATM    4  C11 UNL     1     -31.819   7.974   2.808  1.00 20.00     0.106 C 
BRANCH   4   5
HETATM    5  C7  UNL     1     -33.025   7.486   3.603  1.00 20.00     0.067 C 
HETATM    6  C3  UNL     1     -32.917   7.860   5.078  1.00 20.00     0.132 C 
HETATM    7  C4  UNL     1     -34.001   7.315   5.980  1.00 20.00     0.079 C 
HETATM    8  O12 UNL     1     -32.062   8.630   5.511  1.00 20.00    -0.298 OA
HETATM    9  C5  UNL     1     -34.147   5.811   5.794  1.00 20.00     0.011 C 
HETATM   10  C8  UNL     1     -34.351   5.438   4.319  1.00 20.00    -0.017 C 
HETATM   11  C6  UNL     1     -33.183   5.967   3.470  1.00 20.00     0.017 C 
HETATM   12  C10 UNL     1     -34.484   3.924   4.162  1.00 20.00     0.010 C 
ENDBRANCH   4   5
ENDBRANCH   2   4
TORSDOF 2
ENDMDL
MODEL 2
REMARK VINA RESULT:      -4.9     11.293     12.087
REMARK  2 active torsions:
REMARK  status: ('A' for Active; 'I' for Inactive)
REMARK    1  A    between atoms: C2_2  and  C11_11 
REMARK    2  A    between atoms: C7_7  and  C11_11 
ROOT
HETATM    1  C1  UNL     1     -34.964  17.071  -1.176  1.00 20.00    -0.111 C 
HETATM    2  C2  UNL     1     -34.400  16.755  -2.188  1.00 20.00    -0.106 C 
HETATM    3  C9  UNL     1     -35.649  17.455   0.057  1.00 20.00     0.112 C 
ENDROOT
BRANCH   2   4
HETATM    4  C11 UNL     1     -33.706  16.366  -3.419  1.00 20.00     0.106 C 
BRANCH   4   5
HETATM    5  C7  UNL     1     -34.422  15.211  -4.111  1.00 20.00     0.067 C 
HETATM    6  C3  UNL     1     -33.902  14.991  -5.527  1.00 20.00     0.132 C 
HETATM    7  C4  UNL     1     -34.630  13.949  -6.346  1.00 20.00     0.079 C 
HETATM    8  O12 UNL     1     -32.896  15.548  -5.963  1.00 20.00    -0.298 OA
HETATM    9  C5  UNL     1     -36.129  14.214  -6.337  1.00 20.00     0.011 C 
HETATM   10  C8  UNL     1     -36.675  14.342  -4.908  1.00 20.00    -0.017 C 
HETATM   11  C6  UNL     1     -35.934  15.458  -4.154  1.00 20.00     0.017 C 
HETATM   12  C10 UNL     1     -38.178  14.616  -4.929  1.00 20.00     0.010 C 
ENDBRANCH   4   5
ENDBRANCH   2   4
TORSDOF 2
ENDMDL
MODEL 3
REMARK VINA RESULT:      -4.8     11.232     11.980
REMARK  2 active torsions:
REMARK  status: ('A' for Active; 'I' for Inactive)
REMARK    1  A    between atoms: C2_2  and  C11_11 
REMARK    2  A    between atoms: C7_7  and  C11_11 
ROOT
HETATM    1  C1  UNL     1     -33.701  17.445  -1.500  1.00 20.00    -0.111 C 
HETATM    2  C2  UNL     1     -33.680  16.774  -2.495  1.00 20.00    -0.106 C 
HETATM    3  C9  UNL     1     -33.725  18.263  -0.289  1.00 20.00     0.112 C 
ENDROOT
BRANCH   2   4
HETATM    4  C11 UNL     1     -33.648  15.950  -3.708  1.00 20.00     0.106 C 
BRANCH   4   5
HETATM    5  C7  UNL     1     -34.927  15.131  -3.848  1.00 20.00     0.067 C 
HETATM    6  C3  UNL     1     -34.846  14.154  -5.016  1.00 20.00     0.132 C 
HETATM    7  C4  UNL     1     -36.109  13.380  -5.321  1.00 20.00     0.079 C 
HETATM    8  O12 UNL     1     -33.802  13.927  -5.626  1.00 20.00    -0.298 OA
HETATM    9  C5  UNL     1     -37.294  14.325  -5.465  1.00 20.00     0.011 C 
HETATM   10  C8  UNL     1     -37.435  15.248  -4.246  1.00 20.00    -0.017 C 
HETATM   11  C6  UNL     1     -36.141  16.049  -4.032  1.00 20.00     0.017 C 
HETATM   12  C10 UNL     1     -38.625  16.190  -4.422  1.00 20.00     0.010 C 
ENDBRANCH   4   5
ENDBRANCH   2   4
TORSDOF 2
ENDMDL
MODEL 4
REMARK VINA RESULT:      -4.7     11.429     13.048
REMARK  2 active torsions:
REMARK  status: ('A' for Active; 'I' for Inactive)
REMARK    1  A    between atoms: C2_2  and  C11_11 
REMARK    2  A    between atoms: C7_7  and  C11_11 
ROOT
HETATM    1  C1  UNL     1     -35.088  16.281  -2.841  1.00 20.00    -0.111 C 
HETATM    2  C2  UNL     1     -35.915  15.759  -3.536  1.00 20.00    -0.106 C 
HETATM    3  C9  UNL     1     -34.080  16.916  -1.993  1.00 20.00     0.112 C 
ENDROOT
BRANCH   2   4
HETATM    4  C11 UNL     1     -36.930  15.119  -4.379  1.00 20.00     0.106 C 
BRANCH   4   5
HETATM    5  C7  UNL     1     -36.425  14.942  -5.807  1.00 20.00     0.067 C 
HETATM    6  C3  UNL     1     -35.772  13.579  -6.009  1.00 20.00     0.132 C 
HETATM    7  C4  UNL     1     -35.126  13.347  -7.356  1.00 20.00     0.079 C 
HETATM    8  O12 UNL     1     -35.837  12.676  -5.175  1.00 20.00    -0.298 OA
HETATM    9  C5  UNL     1     -34.166  14.481  -7.691  1.00 20.00     0.011 C 
HETATM   10  C8  UNL     1     -34.847  15.852  -7.580  1.00 20.00    -0.017 C 
HETATM   11  C6  UNL     1     -35.426  16.046  -6.170  1.00 20.00     0.017 C 
HETATM   12  C10 UNL     1     -33.860  16.970  -7.912  1.00 20.00     0.010 C 
ENDBRANCH   4   5
ENDBRANCH   2   4
TORSDOF 2
ENDMDL
MODEL 5
REMARK VINA RESULT:      -4.7     11.349     12.151
REMARK  2 active torsions:
REMARK  status: ('A' for Active; 'I' for Inactive)
REMARK    1  A    between atoms: C2_2  and  C11_11 
REMARK    2  A    between atoms: C7_7  and  C11_11 
ROOT
HETATM    1  C1  UNL     1     -32.764  18.109  -0.731  1.00 20.00    -0.111 C 
HETATM    2  C2  UNL     1     -33.641  17.704  -1.444  1.00 20.00    -0.106 C 
HETATM    3  C9  UNL     1     -31.697  18.603   0.137  1.00 20.00     0.112 C 
ENDROOT
BRANCH   2   4
HETATM    4  C11 UNL     1     -34.710  17.215  -2.321  1.00 20.00     0.106 C 
BRANCH   4   5
HETATM    5  C7  UNL     1     -34.186  16.160  -3.289  1.00 20.00     0.067 C 
HETATM    6  C3  UNL     1     -33.503  16.793  -4.496  1.00 20.00     0.132 C 
HETATM    7  C4  UNL     1     -33.057  15.838  -5.581  1.00 20.00     0.079 C 
HETATM    8  O12 UNL     1     -33.238  17.992  -4.562  1.00 20.00    -0.298 OA
HETATM    9  C5  UNL     1     -34.205  14.931  -6.001  1.00 20.00     0.011 C 
HETATM   10  C8  UNL     1     -34.836  14.218  -4.796  1.00 20.00    -0.017 C 
HETATM   11  C6  UNL     1     -35.323  15.248  -3.764  1.00 20.00     0.017 C 
HETATM   12  C10 UNL     1     -35.990  13.323  -5.246  1.00 20.00     0.010 C 
ENDBRANCH   4   5
ENDBRANCH   2   4
TORSDOF 2
ENDMDL
MODEL 6
REMARK VINA RESULT:      -4.5     11.118     12.809
REMARK  2 active torsions:
REMARK  status: ('A' for Active; 'I' for Inactive)
REMARK    1  A    between atoms: C2_2  and  C11_11 
REMARK    2  A    between atoms: C7_7  and  C11_11 
ROOT
HETATM    1  C1  UNL     1     -35.062  17.154  -1.078  1.00 20.00    -0.111 C 
HETATM    2  C2  UNL     1     -34.390  16.719  -1.973  1.00 20.00    -0.106 C 
HETATM    3  C9  UNL     1     -35.880  17.684   0.012  1.00 20.00     0.112 C 
ENDROOT
BRANCH   2   4
HETATM    4  C11 UNL     1     -33.565  16.183  -3.060  1.00 20.00     0.106 C 
BRANCH   4   5
HETATM    5  C7  UNL     1     -34.378  16.029  -4.341  1.00 20.00     0.067 C 
HETATM    6  C3  UNL     1     -34.451  14.575  -4.791  1.00 20.00     0.132 C 
HETATM    7  C4  UNL     1     -35.129  14.326  -6.120  1.00 20.00     0.079 C 
HETATM    8  O12 UNL     1     -34.071  13.638  -4.090  1.00 20.00    -0.298 OA
HETATM    9  C5  UNL     1     -34.531  15.216  -7.201  1.00 20.00     0.011 C 
HETATM   10  C8  UNL     1     -34.542  16.695  -6.789  1.00 20.00    -0.017 C 
HETATM   11  C6  UNL     1     -33.784  16.885  -5.465  1.00 20.00     0.017 C 
HETATM   12  C10 UNL     1     -33.929  17.563  -7.887  1.00 20.00     0.010 C 
ENDBRANCH   4   5
ENDBRANCH   2   4
TORSDOF 2
ENDMDL
MODEL 7
REMARK VINA RESULT:      -4.4     11.079     12.382
REMARK  2 active torsions:
REMARK  status: ('A' for Active; 'I' for Inactive)
REMARK    1  A    between atoms: C2_2  and  C11_11 
REMARK    2  A    between atoms: C7_7  and  C11_11 
ROOT
HETATM    1  C1  UNL     1     -39.614  16.207  -4.210  1.00 20.00    -0.111 C 
HETATM    2  C2  UNL     1     -38.799  15.400  -4.565  1.00 20.00    -0.106 C 
HETATM    3  C9  UNL     1     -40.607  17.190  -3.778  1.00 20.00     0.112 C 
ENDROOT
BRANCH   2   4
HETATM    4  C11 UNL     1     -37.809  14.408  -4.995  1.00 20.00     0.106 C 
BRANCH   4   5
HETATM    5  C7  UNL     1     -36.401  14.992  -4.969  1.00 20.00     0.067 C 
HETATM    6  C3  UNL     1     -35.345  13.933  -5.267  1.00 20.00     0.132 C 
HETATM    7  C4  UNL     1     -33.905  14.379  -5.143  1.00 20.00     0.079 C 
HETATM    8  O12 UNL     1     -35.625  12.806  -5.674  1.00 20.00    -0.298 OA
HETATM    9  C5  UNL     1     -33.665  15.043  -3.794  1.00 20.00     0.011 C 
HETATM   10  C8  UNL     1     -34.669  16.175  -3.531  1.00 20.00    -0.017 C 
HETATM   11  C6  UNL     1     -36.108  15.639  -3.611  1.00 20.00     0.017 C 
HETATM   12  C10 UNL     1     -34.410  16.816  -2.169  1.00 20.00     0.010 C 
ENDBRANCH   4   5
ENDBRANCH   2   4
TORSDOF 2
ENDMDL
MODEL 8
REMARK VINA RESULT:      -4.2     11.625     12.666
REMARK  2 active torsions:
REMARK  status: ('A' for Active; 'I' for Inactive)
REMARK    1  A    between atoms: C2_2  and  C11_11 
REMARK    2  A    between atoms: C7_7  and  C11_11 
ROOT
HETATM    1  C1  UNL     1     -33.659  17.387  -1.546  1.00 20.00    -0.111 C 
HETATM    2  C2  UNL     1     -34.349  16.739  -2.285  1.00 20.00    -0.106 C 
HETATM    3  C9  UNL     1     -32.818  18.176  -0.647  1.00 20.00     0.112 C 
ENDROOT
BRANCH   2   4
HETATM    4  C11 UNL     1     -35.185  15.944  -3.189  1.00 20.00     0.106 C 
BRANCH   4   5
HETATM    5  C7  UNL     1     -34.421  15.567  -4.453  1.00 20.00     0.067 C 
HETATM    6  C3  UNL     1     -34.287  16.750  -5.405  1.00 20.00     0.132 C 
HETATM    7  C4  UNL     1     -33.654  16.454  -6.746  1.00 20.00     0.079 C 
HETATM    8  O12 UNL     1     -34.584  17.901  -5.087  1.00 20.00    -0.298 OA
HETATM    9  C5  UNL     1     -34.347  15.275  -7.415  1.00 20.00     0.011 C 
HETATM   10  C8  UNL     1     -34.400  14.049  -6.493  1.00 20.00    -0.017 C 
HETATM   11  C6  UNL     1     -35.110  14.404  -5.176  1.00 20.00     0.017 C 
HETATM   12  C10 UNL     1     -35.106  12.885  -7.186  1.00 20.00     0.010 C 
ENDBRANCH   4   5
ENDBRANCH   2   4
TORSDOF 2
ENDMDL
MODEL 9
REMARK VINA RESULT:      -4.1     11.311     12.536
REMARK  2 active torsions:
REMARK  status: ('A' for Active; 'I' for Inactive)
REMARK    1  A    between atoms: C2_2  and  C11_11 
REMARK    2  A    between atoms: C7_7  and  C11_11 
ROOT
HETATM    1  C1  UNL     1     -34.757  18.114   0.991  1.00 20.00    -0.111 C 
HETATM    2  C2  UNL     1     -35.164  17.715  -0.066  1.00 20.00    -0.106 C 
HETATM    3  C9  UNL     1     -34.260  18.600   2.277  1.00 20.00     0.112 C 
ENDROOT
BRANCH   2   4
HETATM    4  C11 UNL     1     -35.654  17.225  -1.358  1.00 20.00     0.106 C 
BRANCH   4   5
HETATM    5  C7  UNL     1     -34.523  17.145  -2.378  1.00 20.00     0.067 C 
HETATM    6  C3  UNL     1     -34.582  18.295  -3.377  1.00 20.00     0.132 C 
HETATM    7  C4  UNL     1     -33.579  18.242  -4.508  1.00 20.00     0.079 C 
HETATM    8  O12 UNL     1     -35.328  19.263  -3.238  1.00 20.00    -0.298 OA
HETATM    9  C5  UNL     1     -33.634  16.891  -5.208  1.00 20.00     0.011 C 
HETATM   10  C8  UNL     1     -33.480  15.730  -4.216  1.00 20.00    -0.017 C 
HETATM   11  C6  UNL     1     -34.567  15.810  -3.131  1.00 20.00     0.017 C 
HETATM   12  C10 UNL     1     -33.547  14.389  -4.944  1.00 20.00     0.010 C 
ENDBRANCH   4   5
ENDBRANCH   2   4
TORSDOF 2
ENDMDL
