MODEL 1
REMARK VINA RESULT:      -5.5      0.000      0.000
REMARK  2 active torsions:
REMARK  status: ('A' for Active; 'I' for Inactive)
REMARK    1  A    between atoms: C1_1  and  C5_5 
REMARK    2  A    between atoms: C6_6  and  C7_7 
ROOT
HETATM    1  C4  UNL     1     -33.986   5.582   2.364  1.00 20.00     0.021 A 
HETATM    2  C5  UNL     1     -34.524   5.986   3.711  1.00 20.00     0.091 A 
HETATM    3  C7  UNL     1     -33.145   6.438   3.273  1.00 20.00     0.005 A 
ENDROOT
BRANCH   2   4
HETATM    4  C1  UNL     1     -34.601   4.966   4.737  1.00 20.00     0.177 C 
HETATM    5  O8  UNL     1     -34.483   3.778   4.326  1.00 20.00    -0.648 OA
HETATM    6  O9  UNL     1     -34.776   5.405   5.909  1.00 20.00    -0.648 OA
ENDBRANCH   2   4
BRANCH   3   7
HETATM    7  C6  UNL     1     -32.826   7.893   2.965  1.00 20.00    -0.010 A 
HETATM    8  C2  UNL     1     -31.454   8.479   3.153  1.00 20.00     0.005 A 
HETATM    9  C3  UNL     1     -32.015   8.311   1.769  1.00 20.00     0.005 A 
ENDBRANCH   3   7
TORSDOF 2
ENDMDL
MODEL 2
REMARK VINA RESULT:      -5.3      1.699      2.879
REMARK  2 active torsions:
REMARK  status: ('A' for Active; 'I' for Inactive)
REMARK    1  A    between atoms: C1_1  and  C5_5 
REMARK    2  A    between atoms: C6_6  and  C7_7 
ROOT
HETATM    1  C4  UNL     1     -31.657   8.109   3.480  1.00 20.00     0.021 A 
HETATM    2  C5  UNL     1     -32.568   7.101   2.830  1.00 20.00     0.091 A 
HETATM    3  C7  UNL     1     -32.604   8.553   2.396  1.00 20.00     0.005 A 
ENDROOT
BRANCH   2   4
HETATM    4  C1  UNL     1     -33.686   6.604   3.607  1.00 20.00     0.177 C 
HETATM    5  O8  UNL     1     -33.691   6.947   4.822  1.00 20.00    -0.648 OA
HETATM    6  O9  UNL     1     -34.507   5.895   2.960  1.00 20.00    -0.648 OA
ENDBRANCH   2   4
BRANCH   3   7
HETATM    7  C6  UNL     1     -32.126   9.005   1.025  1.00 20.00    -0.010 A 
HETATM    8  C2  UNL     1     -33.066   9.241  -0.124  1.00 20.00     0.005 A 
HETATM    9  C3  UNL     1     -32.346  10.400   0.507  1.00 20.00     0.005 A 
ENDBRANCH   3   7
TORSDOF 2
ENDMDL
MODEL 3
REMARK VINA RESULT:      -5.2      3.495      4.752
REMARK  2 active torsions:
REMARK  status: ('A' for Active; 'I' for Inactive)
REMARK    1  A    between atoms: C1_1  and  C5_5 
REMARK    2  A    between atoms: C6_6  and  C7_7 
ROOT
HETATM    1  C4  UNL     1     -31.587   8.157   3.196  1.00 20.00     0.021 A 
HETATM    2  C5  UNL     1     -32.541   8.875   2.279  1.00 20.00     0.091 A 
HETATM    3  C7  UNL     1     -32.878   7.492   2.800  1.00 20.00     0.005 A 
ENDROOT
BRANCH   2   4
HETATM    4  C1  UNL     1     -32.170   8.993   0.882  1.00 20.00     0.177 C 
HETATM    5  O8  UNL     1     -31.023   8.556   0.591  1.00 20.00    -0.648 OA
HETATM    6  O9  UNL     1     -33.050   9.519   0.143  1.00 20.00    -0.648 OA
ENDBRANCH   2   4
BRANCH   3   7
HETATM    7  C6  UNL     1     -34.010   7.248   3.786  1.00 20.00    -0.010 A 
HETATM    8  C2  UNL     1     -34.279   5.899   4.394  1.00 20.00     0.005 A 
HETATM    9  C3  UNL     1     -33.774   7.024   5.254  1.00 20.00     0.005 A 
ENDBRANCH   3   7
TORSDOF 2
ENDMDL
MODEL 4
REMARK VINA RESULT:      -4.8      2.829      4.403
REMARK  2 active torsions:
REMARK  status: ('A' for Active; 'I' for Inactive)
REMARK    1  A    between atoms: C1_1  and  C5_5 
REMARK    2  A    between atoms: C6_6  and  C7_7 
ROOT
HETATM    1  C4  UNL     1     -33.099   7.682   4.840  1.00 20.00     0.021 A 
HETATM    2  C5  UNL     1     -33.377   7.822   3.367  1.00 20.00     0.091 A 
HETATM    3  C7  UNL     1     -33.248   6.447   3.991  1.00 20.00     0.005 A 
ENDROOT
BRANCH   2   4
HETATM    4  C1  UNL     1     -32.293   8.278   2.519  1.00 20.00     0.177 C 
HETATM    5  O8  UNL     1     -32.608   8.506   1.318  1.00 20.00    -0.648 OA
HETATM    6  O9  UNL     1     -31.176   8.386   3.099  1.00 20.00    -0.648 OA
ENDBRANCH   2   4
BRANCH   3   7
HETATM    7  C6  UNL     1     -34.431   5.500   4.124  1.00 20.00    -0.010 A 
HETATM    8  C2  UNL     1     -34.265   4.022   4.344  1.00 20.00     0.005 A 
HETATM    9  C3  UNL     1     -34.836   4.884   5.435  1.00 20.00     0.005 A 
ENDBRANCH   3   7
TORSDOF 2
ENDMDL
MODEL 5
REMARK VINA RESULT:      -4.6     11.620     11.956
REMARK  2 active torsions:
REMARK  status: ('A' for Active; 'I' for Inactive)
REMARK    1  A    between atoms: C1_1  and  C5_5 
REMARK    2  A    between atoms: C6_6  and  C7_7 
ROOT
HETATM    1  C4  UNL     1     -33.965  14.739  -4.854  1.00 20.00     0.021 A 
HETATM    2  C5  UNL     1     -35.454  14.879  -5.028  1.00 20.00     0.091 A 
HETATM    3  C7  UNL     1     -34.815  15.141  -3.678  1.00 20.00     0.005 A 
ENDROOT
BRANCH   2   4
HETATM    4  C1  UNL     1     -36.230  13.664  -5.177  1.00 20.00     0.177 C 
HETATM    5  O8  UNL     1     -37.464  13.781  -4.936  1.00 20.00    -0.648 OA
HETATM    6  O9  UNL     1     -35.565  12.651  -5.531  1.00 20.00    -0.648 OA
ENDBRANCH   2   4
BRANCH   3   7
HETATM    7  C6  UNL     1     -34.755  16.530  -3.062  1.00 20.00    -0.010 A 
HETATM    8  C2  UNL     1     -35.055  16.787  -1.611  1.00 20.00     0.005 A 
HETATM    9  C3  UNL     1     -33.656  16.960  -2.131  1.00 20.00     0.005 A 
ENDBRANCH   3   7
TORSDOF 2
ENDMDL
MODEL 6
REMARK VINA RESULT:      -4.0     11.769     12.388
REMARK  2 active torsions:
REMARK  status: ('A' for Active; 'I' for Inactive)
REMARK    1  A    between atoms: C1_1  and  C5_5 
REMARK    2  A    between atoms: C6_6  and  C7_7 
ROOT
HETATM    1  C4  UNL     1     -33.651  15.503  -5.976  1.00 20.00     0.021 A 
HETATM    2  C5  UNL     1     -35.007  14.906  -5.706  1.00 20.00     0.091 A 
HETATM    3  C7  UNL     1     -34.121  15.340  -4.554  1.00 20.00     0.005 A 
ENDROOT
BRANCH   2   4
HETATM    4  C1  UNL     1     -35.171  13.483  -5.926  1.00 20.00     0.177 C 
HETATM    5  O8  UNL     1     -36.001  12.912  -5.166  1.00 20.00    -0.648 OA
HETATM    6  O9  UNL     1     -34.459  13.005  -6.854  1.00 20.00    -0.648 OA
ENDBRANCH   2   4
BRANCH   3   7
HETATM    7  C6  UNL     1     -34.466  16.524  -3.664  1.00 20.00    -0.010 A 
HETATM    8  C2  UNL     1     -35.086  16.362  -2.304  1.00 20.00     0.005 A 
HETATM    9  C3  UNL     1     -33.677  16.870  -2.432  1.00 20.00     0.005 A 
ENDBRANCH   3   7
TORSDOF 2
ENDMDL
MODEL 7
REMARK VINA RESULT:      -3.9     12.258     12.780
REMARK  2 active torsions:
REMARK  status: ('A' for Active; 'I' for Inactive)
REMARK    1  A    between atoms: C1_1  and  C5_5 
REMARK    2  A    between atoms: C6_6  and  C7_7 
ROOT
HETATM    1  C4  UNL     1     -34.675  17.958  -0.649  1.00 20.00     0.021 A 
HETATM    2  C5  UNL     1     -33.332  18.513  -1.046  1.00 20.00     0.091 A 
HETATM    3  C7  UNL     1     -33.775  17.153  -1.548  1.00 20.00     0.005 A 
ENDROOT
BRANCH   2   4
HETATM    4  C1  UNL     1     -32.294  18.549  -0.035  1.00 20.00     0.177 C 
HETATM    5  O8  UNL     1     -32.686  18.836   1.130  1.00 20.00    -0.648 OA
HETATM    6  O9  UNL     1     -31.133  18.285  -0.458  1.00 20.00    -0.648 OA
ENDBRANCH   2   4
BRANCH   3   7
HETATM    7  C6  UNL     1     -34.100  16.893  -3.011  1.00 20.00    -0.010 A 
HETATM    8  C2  UNL     1     -33.568  15.703  -3.761  1.00 20.00     0.005 A 
HETATM    9  C3  UNL     1     -35.036  15.802  -3.454  1.00 20.00     0.005 A 
ENDBRANCH   3   7
TORSDOF 2
ENDMDL
MODEL 8
REMARK VINA RESULT:      -3.8     11.635     12.349
REMARK  2 active torsions:
REMARK  status: ('A' for Active; 'I' for Inactive)
REMARK    1  A    between atoms: C1_1  and  C5_5 
REMARK    2  A    between atoms: C6_6  and  C7_7 
ROOT
HETATM    1  C4  UNL     1     -34.929  16.681  -4.219  1.00 20.00     0.021 A 
HETATM    2  C5  UNL     1     -34.378  15.338  -3.821  1.00 20.00     0.091 A 
HETATM    3  C7  UNL     1     -34.174  16.543  -2.924  1.00 20.00     0.005 A 
ENDROOT
BRANCH   2   4
HETATM    4  C1  UNL     1     -33.227  14.841  -4.548  1.00 20.00     0.177 C 
HETATM    5  O8  UNL     1     -32.813  13.703  -4.189  1.00 20.00    -0.648 OA
HETATM    6  O9  UNL     1     -32.793  15.615  -5.446  1.00 20.00    -0.648 OA
ENDBRANCH   2   4
BRANCH   3   7
HETATM    7  C6  UNL     1     -34.847  16.670  -1.566  1.00 20.00    -0.010 A 
HETATM    8  C2  UNL     1     -34.448  17.711  -0.557  1.00 20.00     0.005 A 
HETATM    9  C3  UNL     1     -35.791  17.791  -1.229  1.00 20.00     0.005 A 
ENDBRANCH   3   7
TORSDOF 2
ENDMDL
MODEL 9
REMARK VINA RESULT:      -3.6     12.264     12.918
REMARK  2 active torsions:
REMARK  status: ('A' for Active; 'I' for Inactive)
REMARK    1  A    between atoms: C1_1  and  C5_5 
REMARK    2  A    between atoms: C6_6  and  C7_7 
ROOT
HETATM    1  C4  UNL     1     -34.359  19.139   0.922  1.00 20.00     0.021 A 
HETATM    2  C5  UNL     1     -32.953  19.183   0.385  1.00 20.00     0.091 A 
HETATM    3  C7  UNL     1     -33.880  18.045   0.005  1.00 20.00     0.005 A 
ENDROOT
BRANCH   2   4
HETATM    4  C1  UNL     1     -31.872  18.889   1.306  1.00 20.00     0.177 C 
HETATM    5  O8  UNL     1     -30.769  18.601   0.765  1.00 20.00    -0.648 OA
HETATM    6  O9  UNL     1     -32.183  18.962   2.528  1.00 20.00    -0.648 OA
ENDBRANCH   2   4
BRANCH   3   7
HETATM    7  C6  UNL     1     -34.414  17.869  -1.408  1.00 20.00    -0.010 A 
HETATM    8  C2  UNL     1     -33.910  16.799  -2.337  1.00 20.00     0.005 A 
HETATM    9  C3  UNL     1     -35.313  16.729  -1.800  1.00 20.00     0.005 A 
ENDBRANCH   3   7
TORSDOF 2
ENDMDL
