MODEL 1
REMARK VINA RESULT:      -4.9      0.000      0.000
REMARK  2 active torsions:
REMARK  status: ('A' for Active; 'I' for Inactive)
REMARK    1  A    between atoms: C2_2  and  C11_11 
REMARK    2  A    between atoms: C7_7  and  C11_11 
ROOT
HETATM    1  C1  UNL     1     -33.665  16.985  -2.302  1.00 20.00    -0.111 C 
HETATM    2  C2  UNL     1     -33.729  16.072  -3.080  1.00 20.00    -0.106 C 
HETATM    3  C9  UNL     1     -33.585  18.096  -1.356  1.00 20.00     0.112 C 
ENDROOT
BRANCH   2   4
HETATM    4  C11 UNL     1     -33.813  14.953  -4.022  1.00 20.00     0.106 C 
BRANCH   4   5
HETATM    5  C7  UNL     1     -35.072  15.050  -4.877  1.00 20.00     0.067 C 
HETATM    6  C3  UNL     1     -35.255  13.770  -5.675  1.00 20.00     0.132 C 
HETATM    7  C4  UNL     1     -34.403  13.595  -6.912  1.00 20.00     0.079 C 
HETATM    8  O12 UNL     1     -35.995  12.870  -5.277  1.00 20.00    -0.298 OA
HETATM    9  C5  UNL     1     -34.463  14.835  -7.792  1.00 20.00     0.011 C 
HETATM   10  C8  UNL     1     -34.116  16.108  -7.009  1.00 20.00    -0.017 C 
HETATM   11  C6  UNL     1     -35.067  16.266  -5.811  1.00 20.00     0.017 C 
HETATM   12  C10 UNL     1     -34.192  17.334  -7.918  1.00 20.00     0.010 C 
ENDBRANCH   4   5
ENDBRANCH   2   4
TORSDOF 2
ENDMDL
MODEL 2
REMARK VINA RESULT:      -4.7      1.530      1.962
REMARK  2 active torsions:
REMARK  status: ('A' for Active; 'I' for Inactive)
REMARK    1  A    between atoms: C2_2  and  C11_11 
REMARK    2  A    between atoms: C7_7  and  C11_11 
ROOT
HETATM    1  C1  UNL     1     -35.195  16.931  -1.250  1.00 20.00    -0.111 C 
HETATM    2  C2  UNL     1     -34.854  16.378  -2.260  1.00 20.00    -0.106 C 
HETATM    3  C9  UNL     1     -35.608  17.605  -0.020  1.00 20.00     0.112 C 
ENDROOT
BRANCH   2   4
HETATM    4  C11 UNL     1     -34.441  15.693  -3.487  1.00 20.00     0.106 C 
BRANCH   4   5
HETATM    5  C7  UNL     1     -35.446  15.930  -4.611  1.00 20.00     0.067 C 
HETATM    6  C3  UNL     1     -36.514  14.848  -4.585  1.00 20.00     0.132 C 
HETATM    7  C4  UNL     1     -36.150  13.500  -5.166  1.00 20.00     0.079 C 
HETATM    8  O12 UNL     1     -37.596  15.032  -4.027  1.00 20.00    -0.298 OA
HETATM    9  C5  UNL     1     -35.520  13.654  -6.542  1.00 20.00     0.011 C 
HETATM   10  C8  UNL     1     -34.335  14.629  -6.521  1.00 20.00    -0.017 C 
HETATM   11  C6  UNL     1     -34.789  15.999  -5.994  1.00 20.00     0.017 C 
HETATM   12  C10 UNL     1     -33.730  14.766  -7.918  1.00 20.00     0.010 C 
ENDBRANCH   4   5
ENDBRANCH   2   4
TORSDOF 2
ENDMDL
MODEL 3
REMARK VINA RESULT:      -4.7      1.780      2.439
REMARK  2 active torsions:
REMARK  status: ('A' for Active; 'I' for Inactive)
REMARK    1  A    between atoms: C2_2  and  C11_11 
REMARK    2  A    between atoms: C7_7  and  C11_11 
ROOT
HETATM    1  C1  UNL     1     -35.134  17.319  -0.590  1.00 20.00    -0.111 C 
HETATM    2  C2  UNL     1     -34.484  17.008  -1.551  1.00 20.00    -0.106 C 
HETATM    3  C9  UNL     1     -35.924  17.698   0.580  1.00 20.00     0.112 C 
ENDROOT
BRANCH   2   4
HETATM    4  C11 UNL     1     -33.695  16.618  -2.722  1.00 20.00     0.106 C 
BRANCH   4   5
HETATM    5  C7  UNL     1     -34.394  15.516  -3.512  1.00 20.00     0.067 C 
HETATM    6  C3  UNL     1     -33.431  14.913  -4.521  1.00 20.00     0.132 C 
HETATM    7  C4  UNL     1     -33.179  15.693  -5.791  1.00 20.00     0.079 C 
HETATM    8  O12 UNL     1     -32.808  13.881  -4.270  1.00 20.00    -0.298 OA
HETATM    9  C5  UNL     1     -34.490  16.123  -6.434  1.00 20.00     0.011 C 
HETATM   10  C8  UNL     1     -35.388  16.878  -5.444  1.00 20.00    -0.017 C 
HETATM   11  C6  UNL     1     -35.668  16.001  -4.213  1.00 20.00     0.017 C 
HETATM   12  C10 UNL     1     -36.697  17.289  -6.117  1.00 20.00     0.010 C 
ENDBRANCH   4   5
ENDBRANCH   2   4
TORSDOF 2
ENDMDL
MODEL 4
REMARK VINA RESULT:      -4.7      3.045      5.995
REMARK  2 active torsions:
REMARK  status: ('A' for Active; 'I' for Inactive)
REMARK    1  A    between atoms: C2_2  and  C11_11 
REMARK    2  A    between atoms: C7_7  and  C11_11 
ROOT
HETATM    1  C1  UNL     1     -35.231  14.439  -4.472  1.00 20.00    -0.111 C 
HETATM    2  C2  UNL     1     -34.518  15.176  -3.847  1.00 20.00    -0.106 C 
HETATM    3  C9  UNL     1     -36.101  13.542  -5.232  1.00 20.00     0.112 C 
ENDROOT
BRANCH   2   4
HETATM    4  C11 UNL     1     -33.642  16.066  -3.082  1.00 20.00     0.106 C 
BRANCH   4   5
HETATM    5  C7  UNL     1     -34.278  17.442  -2.907  1.00 20.00     0.067 C 
HETATM    6  C3  UNL     1     -33.202  18.474  -2.612  1.00 20.00     0.132 C 
HETATM    7  C4  UNL     1     -32.656  18.524  -1.202  1.00 20.00     0.079 C 
HETATM    8  O12 UNL     1     -32.726  19.174  -3.506  1.00 20.00    -0.298 OA
HETATM    9  C5  UNL     1     -33.785  18.562  -0.183  1.00 20.00     0.011 C 
HETATM   10  C8  UNL     1     -34.782  17.414  -0.392  1.00 20.00    -0.017 C 
HETATM   11  C6  UNL     1     -35.355  17.467  -1.817  1.00 20.00     0.017 C 
HETATM   12  C10 UNL     1     -35.905  17.485   0.641  1.00 20.00     0.010 C 
ENDBRANCH   4   5
ENDBRANCH   2   4
TORSDOF 2
ENDMDL
MODEL 5
REMARK VINA RESULT:      -4.6     11.055     12.624
REMARK  2 active torsions:
REMARK  status: ('A' for Active; 'I' for Inactive)
REMARK    1  A    between atoms: C2_2  and  C11_11 
REMARK    2  A    between atoms: C7_7  and  C11_11 
ROOT
HETATM    1  C1  UNL     1     -32.690   9.650   1.414  1.00 20.00    -0.111 C 
HETATM    2  C2  UNL     1     -33.119   8.550   1.636  1.00 20.00    -0.106 C 
HETATM    3  C9  UNL     1     -32.168  10.989   1.147  1.00 20.00     0.112 C 
ENDROOT
BRANCH   2   4
HETATM    4  C11 UNL     1     -33.649   7.210   1.897  1.00 20.00     0.106 C 
BRANCH   4   5
HETATM    5  C7  UNL     1     -32.788   6.469   2.915  1.00 20.00     0.067 C 
HETATM    6  C3  UNL     1     -33.297   5.047   3.085  1.00 20.00     0.132 C 
HETATM    7  C4  UNL     1     -34.524   4.849   3.948  1.00 20.00     0.079 C 
HETATM    8  O12 UNL     1     -32.791   4.109   2.469  1.00 20.00    -0.298 OA
HETATM    9  C5  UNL     1     -34.374   5.571   5.279  1.00 20.00     0.011 C 
HETATM   10  C8  UNL     1     -34.018   7.051   5.089  1.00 20.00    -0.017 C 
HETATM   11  C6  UNL     1     -32.723   7.180   4.271  1.00 20.00     0.017 C 
HETATM   12  C10 UNL     1     -33.868   7.744   6.442  1.00 20.00     0.010 C 
ENDBRANCH   4   5
ENDBRANCH   2   4
TORSDOF 2
ENDMDL
MODEL 6
REMARK VINA RESULT:      -4.6      2.289      3.372
REMARK  2 active torsions:
REMARK  status: ('A' for Active; 'I' for Inactive)
REMARK    1  A    between atoms: C2_2  and  C11_11 
REMARK    2  A    between atoms: C7_7  and  C11_11 
ROOT
HETATM    1  C1  UNL     1     -33.022  18.047  -0.753  1.00 20.00    -0.111 C 
HETATM    2  C2  UNL     1     -33.722  17.366  -1.454  1.00 20.00    -0.106 C 
HETATM    3  C9  UNL     1     -32.169  18.874   0.098  1.00 20.00     0.112 C 
ENDROOT
BRANCH   2   4
HETATM    4  C11 UNL     1     -34.582  16.536  -2.300  1.00 20.00     0.106 C 
BRANCH   4   5
HETATM    5  C7  UNL     1     -33.865  16.136  -3.585  1.00 20.00     0.067 C 
HETATM    6  C3  UNL     1     -34.085  17.196  -4.651  1.00 20.00     0.132 C 
HETATM    7  C4  UNL     1     -35.417  17.192  -5.369  1.00 20.00     0.079 C 
HETATM    8  O12 UNL     1     -33.253  18.080  -4.854  1.00 20.00    -0.298 OA
HETATM    9  C5  UNL     1     -35.762  15.796  -5.865  1.00 20.00     0.011 C 
HETATM   10  C8  UNL     1     -35.694  14.757  -4.738  1.00 20.00    -0.017 C 
HETATM   11  C6  UNL     1     -34.294  14.759  -4.104  1.00 20.00     0.017 C 
HETATM   12  C10 UNL     1     -36.039  13.366  -5.271  1.00 20.00     0.010 C 
ENDBRANCH   4   5
ENDBRANCH   2   4
TORSDOF 2
ENDMDL
MODEL 7
REMARK VINA RESULT:      -4.6      1.362      1.560
REMARK  2 active torsions:
REMARK  status: ('A' for Active; 'I' for Inactive)
REMARK    1  A    between atoms: C2_2  and  C11_11 
REMARK    2  A    between atoms: C7_7  and  C11_11 
ROOT
HETATM    1  C1  UNL     1     -34.435  16.901  -1.848  1.00 20.00    -0.111 C 
HETATM    2  C2  UNL     1     -34.411  16.160  -2.793  1.00 20.00    -0.106 C 
HETATM    3  C9  UNL     1     -34.463  17.802  -0.696  1.00 20.00     0.112 C 
ENDROOT
BRANCH   2   4
HETATM    4  C11 UNL     1     -34.392  15.254  -3.944  1.00 20.00     0.106 C 
BRANCH   4   5
HETATM    5  C7  UNL     1     -35.808  14.886  -4.374  1.00 20.00     0.067 C 
HETATM    6  C3  UNL     1     -35.758  13.842  -5.478  1.00 20.00     0.132 C 
HETATM    7  C4  UNL     1     -35.436  14.324  -6.875  1.00 20.00     0.079 C 
HETATM    8  O12 UNL     1     -35.878  12.642  -5.227  1.00 20.00    -0.298 OA
HETATM    9  C5  UNL     1     -36.302  15.517  -7.251  1.00 20.00     0.011 C 
HETATM   10  C8  UNL     1     -36.217  16.636  -6.204  1.00 20.00    -0.017 C 
HETATM   11  C6  UNL     1     -36.630  16.100  -4.824  1.00 20.00     0.017 C 
HETATM   12  C10 UNL     1     -37.102  17.814  -6.607  1.00 20.00     0.010 C 
ENDBRANCH   4   5
ENDBRANCH   2   4
TORSDOF 2
ENDMDL
MODEL 8
REMARK VINA RESULT:      -4.3      2.494      3.310
REMARK  2 active torsions:
REMARK  status: ('A' for Active; 'I' for Inactive)
REMARK    1  A    between atoms: C2_2  and  C11_11 
REMARK    2  A    between atoms: C7_7  and  C11_11 
ROOT
HETATM    1  C1  UNL     1     -33.789  18.122  -0.304  1.00 20.00    -0.111 C 
HETATM    2  C2  UNL     1     -34.566  17.517  -0.991  1.00 20.00    -0.106 C 
HETATM    3  C9  UNL     1     -32.842  18.859   0.532  1.00 20.00     0.112 C 
ENDROOT
BRANCH   2   4
HETATM    4  C11 UNL     1     -35.517  16.773  -1.821  1.00 20.00     0.106 C 
BRANCH   4   5
HETATM    5  C7  UNL     1     -35.241  16.998  -3.305  1.00 20.00     0.067 C 
HETATM    6  C3  UNL     1     -36.430  16.529  -4.128  1.00 20.00     0.132 C 
HETATM    7  C4  UNL     1     -36.570  15.041  -4.358  1.00 20.00     0.079 C 
HETATM    8  O12 UNL     1     -37.294  17.318  -4.508  1.00 20.00    -0.298 OA
HETATM    9  C5  UNL     1     -35.260  14.440  -4.846  1.00 20.00     0.011 C 
HETATM   10  C8  UNL     1     -34.091  14.787  -3.913  1.00 20.00    -0.017 C 
HETATM   11  C6  UNL     1     -33.956  16.313  -3.784  1.00 20.00     0.017 C 
HETATM   12  C10 UNL     1     -32.791  14.177  -4.434  1.00 20.00     0.010 C 
ENDBRANCH   4   5
ENDBRANCH   2   4
TORSDOF 2
ENDMDL
MODEL 9
REMARK VINA RESULT:      -4.2      2.042      4.977
REMARK  2 active torsions:
REMARK  status: ('A' for Active; 'I' for Inactive)
REMARK    1  A    between atoms: C2_2  and  C11_11 
REMARK    2  A    between atoms: C7_7  and  C11_11 
ROOT
HETATM    1  C1  UNL     1     -34.721  13.903  -6.077  1.00 20.00    -0.111 C 
HETATM    2  C2  UNL     1     -34.353  14.425  -5.060  1.00 20.00    -0.106 C 
HETATM    3  C9  UNL     1     -35.168  13.266  -7.315  1.00 20.00     0.112 C 
ENDROOT
BRANCH   2   4
HETATM    4  C11 UNL     1     -33.897  15.068  -3.825  1.00 20.00     0.106 C 
BRANCH   4   5
HETATM    5  C7  UNL     1     -34.815  16.224  -3.439  1.00 20.00     0.067 C 
HETATM    6  C3  UNL     1     -34.744  17.316  -4.494  1.00 20.00     0.132 C 
HETATM    7  C4  UNL     1     -33.542  18.232  -4.463  1.00 20.00     0.079 C 
HETATM    8  O12 UNL     1     -35.580  17.389  -5.394  1.00 20.00    -0.298 OA
HETATM    9  C5  UNL     1     -33.306  18.772  -3.059  1.00 20.00     0.011 C 
HETATM   10  C8  UNL     1     -33.217  17.644  -2.022  1.00 20.00    -0.017 C 
HETATM   11  C6  UNL     1     -34.500  16.798  -2.053  1.00 20.00     0.017 C 
HETATM   12  C10 UNL     1     -32.987  18.218  -0.625  1.00 20.00     0.010 C 
ENDBRANCH   4   5
ENDBRANCH   2   4
TORSDOF 2
ENDMDL
