MODEL 1
REMARK VINA RESULT:      -5.8      0.000      0.000
REMARK  6 active torsions:
REMARK  status: ('A' for Active; 'I' for Inactive)
REMARK    1  A    between atoms: C2_2  and  C5_5 
REMARK    2  A    between atoms: C5_5  and  C7_7 
REMARK    3  A    between atoms: C6_6  and  C8_8 
REMARK    4  A    between atoms: C7_7  and  C9_9 
REMARK    5  A    between atoms: C8_8  and  C9_9 
REMARK    6  A    between atoms: C9_9  and  O10_10 
ROOT
HETATM    1  C1  UNL     1     -32.566   9.156   0.857  1.00 20.00    -0.111 C 
HETATM    2  C2  UNL     1     -32.263   8.657   1.906  1.00 20.00    -0.107 C 
HETATM    3  C3  UNL     1     -32.934   9.760  -0.423  1.00 20.00     0.112 C 
ENDROOT
BRANCH   2   4
HETATM    4  C5  UNL     1     -31.890   8.047   3.190  1.00 20.00     0.096 C 
BRANCH   4   5
HETATM    5  C7  UNL     1     -32.915   7.017   3.664  1.00 20.00     0.044 C 
BRANCH   5   6
HETATM    6  C9  UNL     1     -33.655   7.369   4.966  1.00 20.00     0.119 C 
BRANCH   6   7
HETATM    7  C8  UNL     1     -34.413   6.183   5.577  1.00 20.00     0.031 C 
BRANCH   7   8
HETATM    8  C6  UNL     1     -34.998   5.255   4.507  1.00 20.00    -0.002 C 
HETATM    9  C4  UNL     1     -34.210   3.959   4.406  1.00 20.00     0.005 C 
ENDBRANCH   7   8
ENDBRANCH   6   7
BRANCH   6  10
HETATM   10  O10 UNL     1     -32.684   7.845   5.902  1.00 20.00    -0.396 OA
HETATM   11  H26 UNL     1     -32.685   8.811   5.827  1.00 20.00     0.210 HD
ENDBRANCH   6  10
ENDBRANCH   5   6
ENDBRANCH   4   5
ENDBRANCH   2   4
TORSDOF 6
ENDMDL
MODEL 2
REMARK VINA RESULT:      -5.3      1.683      2.353
REMARK  6 active torsions:
REMARK  status: ('A' for Active; 'I' for Inactive)
REMARK    1  A    between atoms: C2_2  and  C5_5 
REMARK    2  A    between atoms: C5_5  and  C7_7 
REMARK    3  A    between atoms: C6_6  and  C8_8 
REMARK    4  A    between atoms: C7_7  and  C9_9 
REMARK    5  A    between atoms: C8_8  and  C9_9 
REMARK    6  A    between atoms: C9_9  and  O10_10 
ROOT
HETATM    1  C1  UNL     1     -32.542   9.008   1.596  1.00 20.00    -0.111 C 
HETATM    2  C2  UNL     1     -32.576   7.980   2.216  1.00 20.00    -0.107 C 
HETATM    3  C3  UNL     1     -32.504  10.258   0.839  1.00 20.00     0.112 C 
ENDROOT
BRANCH   2   4
HETATM    4  C5  UNL     1     -32.617   6.722   2.973  1.00 20.00     0.096 C 
BRANCH   4   5
HETATM    5  C7  UNL     1     -33.781   5.825   2.550  1.00 20.00     0.044 C 
BRANCH   5   6
HETATM    6  C9  UNL     1     -34.562   5.167   3.699  1.00 20.00     0.119 C 
BRANCH   6   7
HETATM    7  C8  UNL     1     -33.835   5.230   5.048  1.00 20.00     0.031 C 
BRANCH   7   8
HETATM    8  C6  UNL     1     -34.471   6.246   6.003  1.00 20.00    -0.002 C 
HETATM    9  C4  UNL     1     -33.654   7.525   6.077  1.00 20.00     0.005 C 
ENDBRANCH   7   8
ENDBRANCH   6   7
BRANCH   6  10
HETATM   10  O10 UNL     1     -35.823   5.835   3.807  1.00 20.00    -0.396 OA
HETATM   11  H26 UNL     1     -35.678   6.596   4.389  1.00 20.00     0.210 HD
ENDBRANCH   6  10
ENDBRANCH   5   6
ENDBRANCH   4   5
ENDBRANCH   2   4
TORSDOF 6
ENDMDL
MODEL 3
REMARK VINA RESULT:      -5.1      1.511      1.841
REMARK  6 active torsions:
REMARK  status: ('A' for Active; 'I' for Inactive)
REMARK    1  A    between atoms: C2_2  and  C5_5 
REMARK    2  A    between atoms: C5_5  and  C7_7 
REMARK    3  A    between atoms: C6_6  and  C8_8 
REMARK    4  A    between atoms: C7_7  and  C9_9 
REMARK    5  A    between atoms: C8_8  and  C9_9 
REMARK    6  A    between atoms: C9_9  and  O10_10 
ROOT
HETATM    1  C1  UNL     1     -32.589   9.121   0.834  1.00 20.00    -0.111 C 
HETATM    2  C2  UNL     1     -32.275   8.618   1.878  1.00 20.00    -0.107 C 
HETATM    3  C3  UNL     1     -32.976   9.734  -0.435  1.00 20.00     0.112 C 
ENDROOT
BRANCH   2   4
HETATM    4  C5  UNL     1     -31.891   8.000   3.155  1.00 20.00     0.096 C 
BRANCH   4   5
HETATM    5  C7  UNL     1     -33.051   7.255   3.814  1.00 20.00     0.044 C 
BRANCH   5   6
HETATM    6  C9  UNL     1     -33.683   6.133   2.972  1.00 20.00     0.119 C 
BRANCH   6   7
HETATM    7  C8  UNL     1     -33.401   4.727   3.517  1.00 20.00     0.031 C 
BRANCH   7   8
HETATM    8  C6  UNL     1     -34.532   4.218   4.417  1.00 20.00    -0.002 C 
HETATM    9  C4  UNL     1     -34.457   4.833   5.805  1.00 20.00     0.005 C 
ENDBRANCH   7   8
ENDBRANCH   6   7
BRANCH   6  10
HETATM   10  O10 UNL     1     -35.095   6.357   2.940  1.00 20.00    -0.396 OA
HETATM   11  H26 UNL     1     -35.219   7.282   2.683  1.00 20.00     0.210 HD
ENDBRANCH   6  10
ENDBRANCH   5   6
ENDBRANCH   4   5
ENDBRANCH   2   4
TORSDOF 6
ENDMDL
MODEL 4
REMARK VINA RESULT:      -4.9      1.436      5.314
REMARK  6 active torsions:
REMARK  status: ('A' for Active; 'I' for Inactive)
REMARK    1  A    between atoms: C2_2  and  C5_5 
REMARK    2  A    between atoms: C5_5  and  C7_7 
REMARK    3  A    between atoms: C6_6  and  C8_8 
REMARK    4  A    between atoms: C7_7  and  C9_9 
REMARK    5  A    between atoms: C8_8  and  C9_9 
REMARK    6  A    between atoms: C9_9  and  O10_10 
ROOT
HETATM    1  C1  UNL     1     -34.447   5.302   4.848  1.00 20.00    -0.111 C 
HETATM    2  C2  UNL     1     -34.136   5.699   3.759  1.00 20.00    -0.107 C 
HETATM    3  C3  UNL     1     -34.831   4.817   6.173  1.00 20.00     0.112 C 
ENDROOT
BRANCH   2   4
HETATM    4  C5  UNL     1     -33.754   6.186   2.426  1.00 20.00     0.096 C 
BRANCH   4   5
HETATM    5  C7  UNL     1     -33.313   7.650   2.445  1.00 20.00     0.044 C 
BRANCH   5   6
HETATM    6  C9  UNL     1     -31.803   7.890   2.288  1.00 20.00     0.119 C 
BRANCH   6   7
HETATM    7  C8  UNL     1     -31.450   8.816   1.117  1.00 20.00     0.031 C 
BRANCH   7   8
HETATM    8  C6  UNL     1     -32.582   9.795   0.791  1.00 20.00    -0.002 C 
HETATM    9  C4  UNL     1     -33.192   9.504  -0.571  1.00 20.00     0.005 C 
ENDBRANCH   7   8
ENDBRANCH   6   7
BRANCH   6  10
HETATM   10  O10 UNL     1     -31.324   8.463   3.509  1.00 20.00    -0.396 OA
HETATM   11  H26 UNL     1     -30.630   9.091   3.260  1.00 20.00     0.210 HD
ENDBRANCH   6  10
ENDBRANCH   5   6
ENDBRANCH   4   5
ENDBRANCH   2   4
TORSDOF 6
ENDMDL
MODEL 5
REMARK VINA RESULT:      -4.8      1.490      5.200
REMARK  6 active torsions:
REMARK  status: ('A' for Active; 'I' for Inactive)
REMARK    1  A    between atoms: C2_2  and  C5_5 
REMARK    2  A    between atoms: C5_5  and  C7_7 
REMARK    3  A    between atoms: C6_6  and  C8_8 
REMARK    4  A    between atoms: C7_7  and  C9_9 
REMARK    5  A    between atoms: C8_8  and  C9_9 
REMARK    6  A    between atoms: C9_9  and  O10_10 
ROOT
HETATM    1  C1  UNL     1     -34.218   5.899   5.438  1.00 20.00    -0.111 C 
HETATM    2  C2  UNL     1     -33.618   6.932   5.318  1.00 20.00    -0.107 C 
HETATM    3  C3  UNL     1     -34.952   4.644   5.586  1.00 20.00     0.112 C 
ENDROOT
BRANCH   2   4
HETATM    4  C5  UNL     1     -32.883   8.196   5.171  1.00 20.00     0.096 C 
BRANCH   4   5
HETATM    5  C7  UNL     1     -31.910   8.171   3.992  1.00 20.00     0.044 C 
BRANCH   5   6
HETATM    6  C9  UNL     1     -32.546   7.932   2.612  1.00 20.00     0.119 C 
BRANCH   6   7
HETATM    7  C8  UNL     1     -31.775   8.593   1.462  1.00 20.00     0.031 C 
BRANCH   7   8
HETATM    8  C6  UNL     1     -32.520   9.799   0.882  1.00 20.00    -0.002 C 
HETATM    9  C4  UNL     1     -33.155   9.467  -0.459  1.00 20.00     0.005 C 
ENDBRANCH   7   8
ENDBRANCH   6   7
BRANCH   6  10
HETATM   10  O10 UNL     1     -32.601   6.519   2.398  1.00 20.00    -0.396 OA
HETATM   11  H26 UNL     1     -31.742   6.168   2.676  1.00 20.00     0.210 HD
ENDBRANCH   6  10
ENDBRANCH   5   6
ENDBRANCH   4   5
ENDBRANCH   2   4
TORSDOF 6
ENDMDL
MODEL 6
REMARK VINA RESULT:      -4.6     10.733     11.961
REMARK  6 active torsions:
REMARK  status: ('A' for Active; 'I' for Inactive)
REMARK    1  A    between atoms: C2_2  and  C5_5 
REMARK    2  A    between atoms: C5_5  and  C7_7 
REMARK    3  A    between atoms: C6_6  and  C8_8 
REMARK    4  A    between atoms: C7_7  and  C9_9 
REMARK    5  A    between atoms: C8_8  and  C9_9 
REMARK    6  A    between atoms: C9_9  and  O10_10 
ROOT
HETATM    1  C1  UNL     1     -34.865  16.742  -1.853  1.00 20.00    -0.111 C 
HETATM    2  C2  UNL     1     -34.336  16.232  -2.802  1.00 20.00    -0.107 C 
HETATM    3  C3  UNL     1     -35.512  17.365  -0.700  1.00 20.00     0.112 C 
ENDROOT
BRANCH   2   4
HETATM    4  C5  UNL     1     -33.687  15.609  -3.964  1.00 20.00     0.096 C 
BRANCH   4   5
HETATM    5  C7  UNL     1     -34.185  14.187  -4.216  1.00 20.00     0.044 C 
BRANCH   5   6
HETATM    6  C9  UNL     1     -35.597  14.075  -4.817  1.00 20.00     0.119 C 
BRANCH   6   7
HETATM    7  C8  UNL     1     -35.736  14.760  -6.182  1.00 20.00     0.031 C 
BRANCH   7   8
HETATM    8  C6  UNL     1     -35.234  13.877  -7.328  1.00 20.00    -0.002 C 
HETATM    9  C4  UNL     1     -33.940  14.415  -7.917  1.00 20.00     0.005 C 
ENDBRANCH   7   8
ENDBRANCH   6   7
BRANCH   6  10
HETATM   10  O10 UNL     1     -35.903  12.684  -4.950  1.00 20.00    -0.396 OA
HETATM   11  H26 UNL     1     -36.690  12.525  -4.409  1.00 20.00     0.210 HD
ENDBRANCH   6  10
ENDBRANCH   5   6
ENDBRANCH   4   5
ENDBRANCH   2   4
TORSDOF 6
ENDMDL
MODEL 7
REMARK VINA RESULT:      -4.4     10.763     11.850
REMARK  6 active torsions:
REMARK  status: ('A' for Active; 'I' for Inactive)
REMARK    1  A    between atoms: C2_2  and  C5_5 
REMARK    2  A    between atoms: C5_5  and  C7_7 
REMARK    3  A    between atoms: C6_6  and  C8_8 
REMARK    4  A    between atoms: C7_7  and  C9_9 
REMARK    5  A    between atoms: C8_8  and  C9_9 
REMARK    6  A    between atoms: C9_9  and  O10_10 
ROOT
HETATM    1  C1  UNL     1     -34.867  16.707  -1.823  1.00 20.00    -0.111 C 
HETATM    2  C2  UNL     1     -34.357  16.218  -2.794  1.00 20.00    -0.107 C 
HETATM    3  C3  UNL     1     -35.491  17.306  -0.645  1.00 20.00     0.112 C 
ENDROOT
BRANCH   2   4
HETATM    4  C5  UNL     1     -33.730  15.620  -3.981  1.00 20.00     0.096 C 
BRANCH   4   5
HETATM    5  C7  UNL     1     -34.217  14.195  -4.240  1.00 20.00     0.044 C 
BRANCH   5   6
HETATM    6  C9  UNL     1     -35.670  14.068  -4.727  1.00 20.00     0.119 C 
BRANCH   6   7
HETATM    7  C8  UNL     1     -35.976  14.917  -5.967  1.00 20.00     0.031 C 
BRANCH   7   8
HETATM    8  C6  UNL     1     -37.036  15.988  -5.690  1.00 20.00    -0.002 C 
HETATM    9  C4  UNL     1     -37.743  15.739  -4.367  1.00 20.00     0.005 C 
ENDBRANCH   7   8
ENDBRANCH   6   7
BRANCH   6  10
HETATM   10  O10 UNL     1     -35.910  12.689  -5.024  1.00 20.00    -0.396 OA
HETATM   11  H26 UNL     1     -35.527  12.182  -4.293  1.00 20.00     0.210 HD
ENDBRANCH   6  10
ENDBRANCH   5   6
ENDBRANCH   4   5
ENDBRANCH   2   4
TORSDOF 6
ENDMDL
MODEL 8
REMARK VINA RESULT:      -4.3     10.887     12.248
REMARK  6 active torsions:
REMARK  status: ('A' for Active; 'I' for Inactive)
REMARK    1  A    between atoms: C2_2  and  C5_5 
REMARK    2  A    between atoms: C5_5  and  C7_7 
REMARK    3  A    between atoms: C6_6  and  C8_8 
REMARK    4  A    between atoms: C7_7  and  C9_9 
REMARK    5  A    between atoms: C8_8  and  C9_9 
REMARK    6  A    between atoms: C9_9  and  O10_10 
ROOT
HETATM    1  C1  UNL     1     -33.623  17.167  -2.022  1.00 20.00    -0.111 C 
HETATM    2  C2  UNL     1     -34.399  16.502  -2.653  1.00 20.00    -0.107 C 
HETATM    3  C3  UNL     1     -32.679  17.972  -1.250  1.00 20.00     0.112 C 
ENDROOT
BRANCH   2   4
HETATM    4  C5  UNL     1     -35.350  15.690  -3.424  1.00 20.00     0.096 C 
BRANCH   4   5
HETATM    5  C7  UNL     1     -34.683  14.485  -4.086  1.00 20.00     0.044 C 
BRANCH   5   6
HETATM    6  C9  UNL     1     -35.368  13.964  -5.361  1.00 20.00     0.119 C 
BRANCH   6   7
HETATM    7  C8  UNL     1     -34.422  13.862  -6.564  1.00 20.00     0.031 C 
BRANCH   7   8
HETATM    8  C6  UNL     1     -34.620  15.013  -7.556  1.00 20.00    -0.002 C 
HETATM    9  C4  UNL     1     -33.895  16.269  -7.099  1.00 20.00     0.005 C 
ENDBRANCH   7   8
ENDBRANCH   6   7
BRANCH   6  10
HETATM   10  O10 UNL     1     -35.905  12.670  -5.068  1.00 20.00    -0.396 OA
HETATM   11  H26 UNL     1     -36.122  12.266  -5.921  1.00 20.00     0.210 HD
ENDBRANCH   6  10
ENDBRANCH   5   6
ENDBRANCH   4   5
ENDBRANCH   2   4
TORSDOF 6
ENDMDL
MODEL 9
REMARK VINA RESULT:      -4.2     11.018     12.119
REMARK  6 active torsions:
REMARK  status: ('A' for Active; 'I' for Inactive)
REMARK    1  A    between atoms: C2_2  and  C5_5 
REMARK    2  A    between atoms: C5_5  and  C7_7 
REMARK    3  A    between atoms: C6_6  and  C8_8 
REMARK    4  A    between atoms: C7_7  and  C9_9 
REMARK    5  A    between atoms: C8_8  and  C9_9 
REMARK    6  A    between atoms: C9_9  and  O10_10 
ROOT
HETATM    1  C1  UNL     1     -34.569  17.365  -0.907  1.00 20.00    -0.111 C 
HETATM    2  C2  UNL     1     -34.171  16.989  -1.975  1.00 20.00    -0.107 C 
HETATM    3  C3  UNL     1     -35.056  17.819   0.395  1.00 20.00     0.112 C 
ENDROOT
BRANCH   2   4
HETATM    4  C5  UNL     1     -33.686  16.530  -3.284  1.00 20.00     0.096 C 
BRANCH   4   5
HETATM    5  C7  UNL     1     -34.377  15.247  -3.744  1.00 20.00     0.044 C 
BRANCH   5   6
HETATM    6  C9  UNL     1     -33.723  14.532  -4.938  1.00 20.00     0.119 C 
BRANCH   6   7
HETATM    7  C8  UNL     1     -33.204  15.492  -6.016  1.00 20.00     0.031 C 
BRANCH   7   8
HETATM    8  C6  UNL     1     -33.840  15.227  -7.384  1.00 20.00    -0.002 C 
HETATM    9  C4  UNL     1     -34.379  13.809  -7.480  1.00 20.00     0.005 C 
ENDBRANCH   7   8
ENDBRANCH   6   7
BRANCH   6  10
HETATM   10  O10 UNL     1     -32.636  13.750  -4.435  1.00 20.00    -0.396 OA
HETATM   11  H26 UNL     1     -32.177  14.307  -3.788  1.00 20.00     0.210 HD
ENDBRANCH   6  10
ENDBRANCH   5   6
ENDBRANCH   4   5
ENDBRANCH   2   4
TORSDOF 6
ENDMDL
