MODEL 1
REMARK VINA RESULT:      -6.0      0.000      0.000
REMARK  4 active torsions:
REMARK  status: ('A' for Active; 'I' for Inactive)
REMARK    1  A    between atoms: C2_2  and  C6_6 
REMARK    2  A    between atoms: C6_6  and  C7_7 
REMARK    3  A    between atoms: C7_7  and  C8_8 
REMARK    4  A    between atoms: C8_8  and  O9_9 
ROOT
HETATM    1  C1  UNL     1     -32.531   9.149   1.586  1.00 20.00    -0.111 C 
HETATM    2  C2  UNL     1     -32.525   8.233   2.363  1.00 20.00    -0.107 C 
HETATM    3  C3  UNL     1     -32.537  10.262   0.638  1.00 20.00     0.112 C 
ENDROOT
BRANCH   2   4
HETATM    4  C6  UNL     1     -32.516   7.114   3.317  1.00 20.00     0.100 C 
BRANCH   4   5
HETATM    5  C7  UNL     1     -33.813   6.999   4.141  1.00 20.00     0.021 C 
HETATM    6  C4  UNL     1     -33.572   7.407   5.604  1.00 20.00     0.013 C 
BRANCH   5   7
HETATM    7  C8  UNL     1     -34.491   5.611   4.061  1.00 20.00     0.118 C 
HETATM    8  C5  UNL     1     -34.677   4.945   5.420  1.00 20.00     0.040 C 
BRANCH   7   9
HETATM    9  O9  UNL     1     -33.673   4.753   3.262  1.00 20.00    -0.396 OA
HETATM   10  H23 UNL     1     -34.197   3.956   3.095  1.00 20.00     0.210 HD
ENDBRANCH   7   9
ENDBRANCH   5   7
ENDBRANCH   4   5
ENDBRANCH   2   4
TORSDOF 4
ENDMDL
MODEL 2
REMARK VINA RESULT:      -5.2      1.193      1.777
REMARK  4 active torsions:
REMARK  status: ('A' for Active; 'I' for Inactive)
REMARK    1  A    between atoms: C2_2  and  C6_6 
REMARK    2  A    between atoms: C6_6  and  C7_7 
REMARK    3  A    between atoms: C7_7  and  C8_8 
REMARK    4  A    between atoms: C8_8  and  O9_9 
ROOT
HETATM    1  C1  UNL     1     -32.617   9.013   1.170  1.00 20.00    -0.111 C 
HETATM    2  C2  UNL     1     -32.414   8.380   2.170  1.00 20.00    -0.107 C 
HETATM    3  C3  UNL     1     -32.865   9.780  -0.049  1.00 20.00     0.112 C 
ENDROOT
BRANCH   2   4
HETATM    4  C6  UNL     1     -32.162   7.608   3.396  1.00 20.00     0.100 C 
BRANCH   4   5
HETATM    5  C7  UNL     1     -33.146   6.440   3.600  1.00 20.00     0.021 C 
HETATM    6  C4  UNL     1     -33.675   5.926   2.250  1.00 20.00     0.013 C 
BRANCH   5   7
HETATM    7  C8  UNL     1     -34.313   6.758   4.563  1.00 20.00     0.118 C 
HETATM    8  C5  UNL     1     -33.857   7.191   5.952  1.00 20.00     0.040 C 
BRANCH   7   9
HETATM    9  O9  UNL     1     -35.111   5.580   4.712  1.00 20.00    -0.396 OA
HETATM   10  H23 UNL     1     -34.680   4.891   4.185  1.00 20.00     0.210 HD
ENDBRANCH   7   9
ENDBRANCH   5   7
ENDBRANCH   4   5
ENDBRANCH   2   4
TORSDOF 4
ENDMDL
MODEL 3
REMARK VINA RESULT:      -4.7      2.034      4.734
REMARK  4 active torsions:
REMARK  status: ('A' for Active; 'I' for Inactive)
REMARK    1  A    between atoms: C2_2  and  C6_6 
REMARK    2  A    between atoms: C6_6  and  C7_7 
REMARK    3  A    between atoms: C7_7  and  C8_8 
REMARK    4  A    between atoms: C8_8  and  O9_9 
ROOT
HETATM    1  C1  UNL     1     -34.272   5.888   4.446  1.00 20.00    -0.111 C 
HETATM    2  C2  UNL     1     -33.954   6.612   3.541  1.00 20.00    -0.107 C 
HETATM    3  C3  UNL     1     -34.655   5.008   5.548  1.00 20.00     0.112 C 
ENDROOT
BRANCH   2   4
HETATM    4  C6  UNL     1     -33.568   7.495   2.431  1.00 20.00     0.100 C 
BRANCH   4   5
HETATM    5  C7  UNL     1     -32.090   7.929   2.476  1.00 20.00     0.021 C 
HETATM    6  C4  UNL     1     -31.656   8.249   3.916  1.00 20.00     0.013 C 
BRANCH   5   7
HETATM    7  C8  UNL     1     -31.746   9.098   1.524  1.00 20.00     0.118 C 
HETATM    8  C5  UNL     1     -32.955   9.939   1.128  1.00 20.00     0.040 C 
BRANCH   7   9
HETATM    9  O9  UNL     1     -31.180   8.556   0.328  1.00 20.00    -0.396 OA
HETATM   10  H23 UNL     1     -30.532   9.205   0.015  1.00 20.00     0.210 HD
ENDBRANCH   7   9
ENDBRANCH   5   7
ENDBRANCH   4   5
ENDBRANCH   2   4
TORSDOF 4
ENDMDL
MODEL 4
REMARK VINA RESULT:      -4.5      2.182      4.720
REMARK  4 active torsions:
REMARK  status: ('A' for Active; 'I' for Inactive)
REMARK    1  A    between atoms: C2_2  and  C6_6 
REMARK    2  A    between atoms: C6_6  and  C7_7 
REMARK    3  A    between atoms: C7_7  and  C8_8 
REMARK    4  A    between atoms: C8_8  and  O9_9 
ROOT
HETATM    1  C1  UNL     1     -33.744   7.074   4.614  1.00 20.00    -0.111 C 
HETATM    2  C2  UNL     1     -33.504   7.220   3.446  1.00 20.00    -0.107 C 
HETATM    3  C3  UNL     1     -34.039   6.898   6.035  1.00 20.00     0.112 C 
ENDROOT
BRANCH   2   4
HETATM    4  C6  UNL     1     -33.207   7.400   2.017  1.00 20.00     0.100 C 
BRANCH   4   5
HETATM    5  C7  UNL     1     -31.926   8.214   1.754  1.00 20.00     0.021 C 
HETATM    6  C4  UNL     1     -31.290   8.679   3.075  1.00 20.00     0.013 C 
BRANCH   5   7
HETATM    7  C8  UNL     1     -32.122   9.406   0.789  1.00 20.00     0.118 C 
HETATM    8  C5  UNL     1     -32.748  10.630   1.450  1.00 20.00     0.040 C 
BRANCH   7   9
HETATM    9  O9  UNL     1     -32.987   8.992  -0.272  1.00 20.00    -0.396 OA
HETATM   10  H23 UNL     1     -32.412   8.685  -0.987  1.00 20.00     0.210 HD
ENDBRANCH   7   9
ENDBRANCH   5   7
ENDBRANCH   4   5
ENDBRANCH   2   4
TORSDOF 4
ENDMDL
MODEL 5
REMARK VINA RESULT:      -4.4     10.766     11.398
REMARK  4 active torsions:
REMARK  status: ('A' for Active; 'I' for Inactive)
REMARK    1  A    between atoms: C2_2  and  C6_6 
REMARK    2  A    between atoms: C6_6  and  C7_7 
REMARK    3  A    between atoms: C7_7  and  C8_8 
REMARK    4  A    between atoms: C8_8  and  O9_9 
ROOT
HETATM    1  C1  UNL     1     -33.707  17.164  -1.973  1.00 20.00    -0.111 C 
HETATM    2  C2  UNL     1     -34.426  16.520  -2.689  1.00 20.00    -0.107 C 
HETATM    3  C3  UNL     1     -32.833  17.950  -1.105  1.00 20.00     0.112 C 
ENDROOT
BRANCH   2   4
HETATM    4  C6  UNL     1     -35.303  15.729  -3.564  1.00 20.00     0.100 C 
BRANCH   4   5
HETATM    5  C7  UNL     1     -34.627  14.466  -4.132  1.00 20.00     0.021 C 
HETATM    6  C4  UNL     1     -33.140  14.725  -4.427  1.00 20.00     0.013 C 
BRANCH   5   7
HETATM    7  C8  UNL     1     -35.339  13.871  -5.370  1.00 20.00     0.118 C 
HETATM    8  C5  UNL     1     -36.422  14.777  -5.944  1.00 20.00     0.040 C 
BRANCH   7   9
HETATM    9  O9  UNL     1     -35.956  12.639  -4.988  1.00 20.00    -0.396 OA
HETATM   10  H23 UNL     1     -36.609  12.861  -4.309  1.00 20.00     0.210 HD
ENDBRANCH   7   9
ENDBRANCH   5   7
ENDBRANCH   4   5
ENDBRANCH   2   4
TORSDOF 4
ENDMDL
MODEL 6
REMARK VINA RESULT:      -4.3      2.397      5.135
REMARK  4 active torsions:
REMARK  status: ('A' for Active; 'I' for Inactive)
REMARK    1  A    between atoms: C2_2  and  C6_6 
REMARK    2  A    between atoms: C6_6  and  C7_7 
REMARK    3  A    between atoms: C7_7  and  C8_8 
REMARK    4  A    between atoms: C8_8  and  O9_9 
ROOT
HETATM    1  C1  UNL     1     -33.888   6.493   3.815  1.00 20.00    -0.111 C 
HETATM    2  C2  UNL     1     -33.102   7.288   3.373  1.00 20.00    -0.107 C 
HETATM    3  C3  UNL     1     -34.846   5.528   4.350  1.00 20.00     0.112 C 
ENDROOT
BRANCH   2   4
HETATM    4  C6  UNL     1     -32.139   8.260   2.837  1.00 20.00     0.100 C 
BRANCH   4   5
HETATM    5  C7  UNL     1     -32.297   8.511   1.324  1.00 20.00     0.021 C 
HETATM    6  C4  UNL     1     -30.924   8.598   0.636  1.00 20.00     0.013 C 
BRANCH   5   7
HETATM    7  C8  UNL     1     -33.166   9.743   0.976  1.00 20.00     0.118 C 
HETATM    8  C5  UNL     1     -33.460   9.879  -0.514  1.00 20.00     0.040 C 
BRANCH   7   9
HETATM    9  O9  UNL     1     -32.470  10.920   1.394  1.00 20.00    -0.396 OA
HETATM   10  H23 UNL     1     -31.576  10.851   1.030  1.00 20.00     0.210 HD
ENDBRANCH   7   9
ENDBRANCH   5   7
ENDBRANCH   4   5
ENDBRANCH   2   4
TORSDOF 4
ENDMDL
MODEL 7
REMARK VINA RESULT:      -4.2     10.781     11.660
REMARK  4 active torsions:
REMARK  status: ('A' for Active; 'I' for Inactive)
REMARK    1  A    between atoms: C2_2  and  C6_6 
REMARK    2  A    between atoms: C6_6  and  C7_7 
REMARK    3  A    between atoms: C7_7  and  C8_8 
REMARK    4  A    between atoms: C8_8  and  O9_9 
ROOT
HETATM    1  C1  UNL     1     -33.014  17.840  -1.289  1.00 20.00    -0.111 C 
HETATM    2  C2  UNL     1     -33.563  17.107  -2.066  1.00 20.00    -0.107 C 
HETATM    3  C3  UNL     1     -32.343  18.729  -0.342  1.00 20.00     0.112 C 
ENDROOT
BRANCH   2   4
HETATM    4  C6  UNL     1     -34.240  16.212  -3.017  1.00 20.00     0.100 C 
BRANCH   4   5
HETATM    5  C7  UNL     1     -33.408  15.914  -4.279  1.00 20.00     0.021 C 
HETATM    6  C4  UNL     1     -33.586  17.024  -5.329  1.00 20.00     0.013 C 
BRANCH   5   7
HETATM    7  C8  UNL     1     -33.676  14.523  -4.899  1.00 20.00     0.118 C 
HETATM    8  C5  UNL     1     -35.028  13.934  -4.513  1.00 20.00     0.040 C 
BRANCH   7   9
HETATM    9  O9  UNL     1     -32.662  13.623  -4.444  1.00 20.00    -0.396 OA
HETATM   10  H23 UNL     1     -33.119  12.816  -4.167  1.00 20.00     0.210 HD
ENDBRANCH   7   9
ENDBRANCH   5   7
ENDBRANCH   4   5
ENDBRANCH   2   4
TORSDOF 4
ENDMDL
MODEL 8
REMARK VINA RESULT:      -4.0     11.027     11.713
REMARK  4 active torsions:
REMARK  status: ('A' for Active; 'I' for Inactive)
REMARK    1  A    between atoms: C2_2  and  C6_6 
REMARK    2  A    between atoms: C6_6  and  C7_7 
REMARK    3  A    between atoms: C7_7  and  C8_8 
REMARK    4  A    between atoms: C8_8  and  O9_9 
ROOT
HETATM    1  C1  UNL     1     -34.705  16.225  -2.617  1.00 20.00    -0.111 C 
HETATM    2  C2  UNL     1     -34.450  15.515  -3.553  1.00 20.00    -0.107 C 
HETATM    3  C3  UNL     1     -35.013  17.091  -1.481  1.00 20.00     0.112 C 
ENDROOT
BRANCH   2   4
HETATM    4  C6  UNL     1     -34.137  14.644  -4.695  1.00 20.00     0.100 C 
BRANCH   4   5
HETATM    5  C7  UNL     1     -35.141  14.770  -5.857  1.00 20.00     0.021 C 
HETATM    6  C4  UNL     1     -35.614  16.225  -6.018  1.00 20.00     0.013 C 
BRANCH   5   7
HETATM    7  C8  UNL     1     -36.347  13.807  -5.758  1.00 20.00     0.118 C 
HETATM    8  C5  UNL     1     -37.556  14.414  -5.054  1.00 20.00     0.040 C 
BRANCH   7   9
HETATM    9  O9  UNL     1     -35.944  12.652  -5.016  1.00 20.00    -0.396 OA
HETATM   10  H23 UNL     1     -35.725  12.964  -4.126  1.00 20.00     0.210 HD
ENDBRANCH   7   9
ENDBRANCH   5   7
ENDBRANCH   4   5
ENDBRANCH   2   4
TORSDOF 4
ENDMDL
MODEL 9
REMARK VINA RESULT:      -3.9     11.201     11.843
REMARK  4 active torsions:
REMARK  status: ('A' for Active; 'I' for Inactive)
REMARK    1  A    between atoms: C2_2  and  C6_6 
REMARK    2  A    between atoms: C6_6  and  C7_7 
REMARK    3  A    between atoms: C7_7  and  C8_8 
REMARK    4  A    between atoms: C8_8  and  O9_9 
ROOT
HETATM    1  C1  UNL     1     -31.477  18.682   0.869  1.00 20.00    -0.111 C 
HETATM    2  C2  UNL     1     -32.111  18.608  -0.149  1.00 20.00    -0.107 C 
HETATM    3  C3  UNL     1     -30.707  18.774   2.108  1.00 20.00     0.112 C 
ENDROOT
BRANCH   2   4
HETATM    4  C6  UNL     1     -32.884  18.517  -1.396  1.00 20.00     0.100 C 
BRANCH   4   5
HETATM    5  C7  UNL     1     -33.840  17.309  -1.441  1.00 20.00     0.021 C 
HETATM    6  C4  UNL     1     -33.742  16.582  -2.793  1.00 20.00     0.013 C 
BRANCH   5   7
HETATM    7  C8  UNL     1     -35.310  17.653  -1.106  1.00 20.00     0.118 C 
HETATM    8  C5  UNL     1     -35.660  17.465   0.366  1.00 20.00     0.040 C 
BRANCH   7   9
HETATM    9  O9  UNL     1     -36.161  16.796  -1.871  1.00 20.00    -0.396 OA
HETATM   10  H23 UNL     1     -35.660  16.551  -2.662  1.00 20.00     0.210 HD
ENDBRANCH   7   9
ENDBRANCH   5   7
ENDBRANCH   4   5
ENDBRANCH   2   4
TORSDOF 4
ENDMDL
