MODEL 1
REMARK VINA RESULT:      -5.6      0.000      0.000
REMARK  4 active torsions:
REMARK  status: ('A' for Active; 'I' for Inactive)
REMARK    1  A    between atoms: C2_2  and  C5_5 
REMARK    2  A    between atoms: C2_2  and  C9_9 
REMARK    3  A    between atoms: C7_7  and  C9_9 
REMARK    4  A    between atoms: C8_8  and  C9_9 
ROOT
HETATM    1  C1  UNL     1     -34.284   6.129   5.434  1.00 20.00     0.059 C 
HETATM    2  C7  UNL     1     -33.668   7.274   4.745  1.00 20.00     0.136 C 
HETATM    3  N10 UNL     1     -34.771   5.229   5.979  1.00 20.00    -0.197 NA
ENDROOT
BRANCH   2   4
HETATM    4  C9  UNL     1     -32.797   6.868   3.544  1.00 20.00     0.068 C 
BRANCH   4   5
HETATM    5  C2  UNL     1     -32.140   8.103   2.932  1.00 20.00     0.136 C 
HETATM    6  O11 UNL     1     -31.241   8.740   3.465  1.00 20.00    -0.297 OA
BRANCH   5   7
HETATM    7  C5  UNL     1     -32.674   8.541   1.608  1.00 20.00     0.056 A 
HETATM    8  C3  UNL     1     -32.626   9.993   1.265  1.00 20.00     0.013 A 
HETATM    9  C4  UNL     1     -31.709   9.026   0.578  1.00 20.00     0.013 A 
ENDBRANCH   5   7
ENDBRANCH   4   5
BRANCH   4  10
HETATM   10  C8  UNL     1     -33.588   6.058   2.501  1.00 20.00     0.008 C 
HETATM   11  C6  UNL     1     -33.102   4.618   2.391  1.00 20.00     0.006 C 
ENDBRANCH   4  10
ENDBRANCH   2   4
TORSDOF 4
ENDMDL
MODEL 2
REMARK VINA RESULT:      -5.5      0.958      2.007
REMARK  4 active torsions:
REMARK  status: ('A' for Active; 'I' for Inactive)
REMARK    1  A    between atoms: C2_2  and  C5_5 
REMARK    2  A    between atoms: C2_2  and  C9_9 
REMARK    3  A    between atoms: C7_7  and  C9_9 
REMARK    4  A    between atoms: C8_8  and  C9_9 
ROOT
HETATM    1  C1  UNL     1     -34.047   4.872   3.704  1.00 20.00     0.059 C 
HETATM    2  C7  UNL     1     -33.572   5.946   2.817  1.00 20.00     0.136 C 
HETATM    3  N10 UNL     1     -34.423   4.024   4.400  1.00 20.00    -0.197 NA
ENDROOT
BRANCH   2   4
HETATM    4  C9  UNL     1     -33.358   7.286   3.542  1.00 20.00     0.068 C 
BRANCH   4   5
HETATM    5  C2  UNL     1     -32.350   8.140   2.776  1.00 20.00     0.136 C 
HETATM    6  O11 UNL     1     -31.222   8.397   3.176  1.00 20.00    -0.297 OA
BRANCH   5   7
HETATM    7  C5  UNL     1     -32.819   8.696   1.472  1.00 20.00     0.056 A 
HETATM    8  C3  UNL     1     -32.661  10.159   1.223  1.00 20.00     0.013 A 
HETATM    9  C4  UNL     1     -31.796   9.173   0.495  1.00 20.00     0.013 A 
ENDBRANCH   5   7
ENDBRANCH   4   5
BRANCH   4  10
HETATM   10  C8  UNL     1     -32.949   7.091   5.013  1.00 20.00     0.008 C 
HETATM   11  C6  UNL     1     -34.094   7.372   5.978  1.00 20.00     0.006 C 
ENDBRANCH   4  10
ENDBRANCH   2   4
TORSDOF 4
ENDMDL
MODEL 3
REMARK VINA RESULT:      -4.9      2.499      4.558
REMARK  4 active torsions:
REMARK  status: ('A' for Active; 'I' for Inactive)
REMARK    1  A    between atoms: C2_2  and  C5_5 
REMARK    2  A    between atoms: C2_2  and  C9_9 
REMARK    3  A    between atoms: C7_7  and  C9_9 
REMARK    4  A    between atoms: C8_8  and  C9_9 
ROOT
HETATM    1  C1  UNL     1     -31.924   8.484   1.868  1.00 20.00     0.059 C 
HETATM    2  C7  UNL     1     -32.124   7.678   3.084  1.00 20.00     0.136 C 
HETATM    3  N10 UNL     1     -31.764   9.120   0.912  1.00 20.00    -0.197 NA
ENDROOT
BRANCH   2   4
HETATM    4  C9  UNL     1     -33.572   7.194   3.263  1.00 20.00     0.068 C 
BRANCH   4   5
HETATM    5  C2  UNL     1     -33.837   6.870   4.732  1.00 20.00     0.136 C 
HETATM    6  O11 UNL     1     -33.258   7.403   5.670  1.00 20.00    -0.297 OA
BRANCH   5   7
HETATM    7  C5  UNL     1     -34.859   5.814   4.997  1.00 20.00     0.056 A 
HETATM    8  C3  UNL     1     -34.422   4.387   5.007  1.00 20.00     0.013 A 
HETATM    9  C4  UNL     1     -34.793   5.070   6.289  1.00 20.00     0.013 A 
ENDBRANCH   5   7
ENDBRANCH   4   5
BRANCH   4  10
HETATM   10  C8  UNL     1     -33.905   6.006   2.342  1.00 20.00     0.008 C 
HETATM   11  C6  UNL     1     -32.820   4.937   2.354  1.00 20.00     0.006 C 
ENDBRANCH   4  10
ENDBRANCH   2   4
TORSDOF 4
ENDMDL
MODEL 4
REMARK VINA RESULT:      -4.3     10.987     11.589
REMARK  4 active torsions:
REMARK  status: ('A' for Active; 'I' for Inactive)
REMARK    1  A    between atoms: C2_2  and  C5_5 
REMARK    2  A    between atoms: C2_2  and  C9_9 
REMARK    3  A    between atoms: C7_7  and  C9_9 
REMARK    4  A    between atoms: C8_8  and  C9_9 
ROOT
HETATM    1  C1  UNL     1     -35.921  13.879  -4.898  1.00 20.00     0.059 C 
HETATM    2  C7  UNL     1     -35.917  15.232  -4.319  1.00 20.00     0.136 C 
HETATM    3  N10 UNL     1     -35.927  12.813  -5.354  1.00 20.00    -0.197 NA
ENDROOT
BRANCH   2   4
HETATM    4  C9  UNL     1     -34.707  15.503  -3.408  1.00 20.00     0.068 C 
BRANCH   4   5
HETATM    5  C2  UNL     1     -34.879  16.842  -2.695  1.00 20.00     0.136 C 
HETATM    6  O11 UNL     1     -35.682  17.703  -3.031  1.00 20.00    -0.297 OA
BRANCH   5   7
HETATM    7  C5  UNL     1     -33.974  17.087  -1.533  1.00 20.00     0.056 A 
HETATM    8  C3  UNL     1     -32.934  18.150  -1.652  1.00 20.00     0.013 A 
HETATM    9  C4  UNL     1     -34.127  18.360  -0.770  1.00 20.00     0.013 A 
ENDBRANCH   5   7
ENDBRANCH   4   5
BRANCH   4  10
HETATM   10  C8  UNL     1     -33.374  15.424  -4.175  1.00 20.00     0.008 C 
HETATM   11  C6  UNL     1     -33.302  16.425  -5.321  1.00 20.00     0.006 C 
ENDBRANCH   4  10
ENDBRANCH   2   4
TORSDOF 4
ENDMDL
MODEL 5
REMARK VINA RESULT:      -4.3     10.821     11.562
REMARK  4 active torsions:
REMARK  status: ('A' for Active; 'I' for Inactive)
REMARK    1  A    between atoms: C2_2  and  C5_5 
REMARK    2  A    between atoms: C2_2  and  C9_9 
REMARK    3  A    between atoms: C7_7  and  C9_9 
REMARK    4  A    between atoms: C8_8  and  C9_9 
ROOT
HETATM    1  C1  UNL     1     -35.742  13.894  -4.834  1.00 20.00     0.059 C 
HETATM    2  C7  UNL     1     -35.570  15.219  -4.218  1.00 20.00     0.136 C 
HETATM    3  N10 UNL     1     -35.880  12.850  -5.320  1.00 20.00    -0.197 NA
ENDROOT
BRANCH   2   4
HETATM    4  C9  UNL     1     -34.139  15.479  -3.717  1.00 20.00     0.068 C 
BRANCH   4   5
HETATM    5  C2  UNL     1     -34.160  16.499  -2.581  1.00 20.00     0.136 C 
HETATM    6  O11 UNL     1     -33.186  17.149  -2.222  1.00 20.00    -0.297 OA
BRANCH   5   7
HETATM    7  C5  UNL     1     -35.464  16.667  -1.873  1.00 20.00     0.056 A 
HETATM    8  C3  UNL     1     -35.474  17.362  -0.553  1.00 20.00     0.013 A 
HETATM    9  C4  UNL     1     -36.042  18.038  -1.764  1.00 20.00     0.013 A 
ENDBRANCH   5   7
ENDBRANCH   4   5
BRANCH   4  10
HETATM   10  C8  UNL     1     -33.195  15.904  -4.856  1.00 20.00     0.008 C 
HETATM   11  C6  UNL     1     -33.788  17.007  -5.724  1.00 20.00     0.006 C 
ENDBRANCH   4  10
ENDBRANCH   2   4
TORSDOF 4
ENDMDL
MODEL 6
REMARK VINA RESULT:      -4.3     10.888     11.609
REMARK  4 active torsions:
REMARK  status: ('A' for Active; 'I' for Inactive)
REMARK    1  A    between atoms: C2_2  and  C5_5 
REMARK    2  A    between atoms: C2_2  and  C9_9 
REMARK    3  A    between atoms: C7_7  and  C9_9 
REMARK    4  A    between atoms: C8_8  and  C9_9 
ROOT
HETATM    1  C1  UNL     1     -32.089  18.368  -0.768  1.00 20.00     0.059 C 
HETATM    2  C7  UNL     1     -33.319  18.411  -1.576  1.00 20.00     0.136 C 
HETATM    3  N10 UNL     1     -31.120  18.337  -0.133  1.00 20.00    -0.197 NA
ENDROOT
BRANCH   2   4
HETATM    4  C9  UNL     1     -33.916  17.020  -1.852  1.00 20.00     0.068 C 
BRANCH   4   5
HETATM    5  C2  UNL     1     -33.787  16.681  -3.336  1.00 20.00     0.136 C 
HETATM    6  O11 UNL     1     -33.396  17.467  -4.190  1.00 20.00    -0.297 OA
BRANCH   5   7
HETATM    7  C5  UNL     1     -34.196  15.300  -3.731  1.00 20.00     0.056 A 
HETATM    8  C3  UNL     1     -34.327  14.985  -5.184  1.00 20.00     0.013 A 
HETATM    9  C4  UNL     1     -33.186  14.422  -4.391  1.00 20.00     0.013 A 
ENDBRANCH   5   7
ENDBRANCH   4   5
BRANCH   4  10
HETATM   10  C8  UNL     1     -35.370  16.904  -1.359  1.00 20.00     0.008 C 
HETATM   11  C6  UNL     1     -35.555  17.470   0.044  1.00 20.00     0.006 C 
ENDBRANCH   4  10
ENDBRANCH   2   4
TORSDOF 4
ENDMDL
MODEL 7
REMARK VINA RESULT:      -4.2     11.086     12.104
REMARK  4 active torsions:
REMARK  status: ('A' for Active; 'I' for Inactive)
REMARK    1  A    between atoms: C2_2  and  C5_5 
REMARK    2  A    between atoms: C2_2  and  C9_9 
REMARK    3  A    between atoms: C7_7  and  C9_9 
REMARK    4  A    between atoms: C8_8  and  C9_9 
ROOT
HETATM    1  C1  UNL     1     -33.428  15.761  -5.928  1.00 20.00     0.059 C 
HETATM    2  C7  UNL     1     -33.197  14.927  -4.737  1.00 20.00     0.136 C 
HETATM    3  N10 UNL     1     -33.606  16.417  -6.867  1.00 20.00    -0.197 NA
ENDROOT
BRANCH   2   4
HETATM    4  C9  UNL     1     -34.454  14.743  -3.869  1.00 20.00     0.068 C 
BRANCH   4   5
HETATM    5  C2  UNL     1     -35.568  14.100  -4.692  1.00 20.00     0.136 C 
HETATM    6  O11 UNL     1     -35.550  12.943  -5.090  1.00 20.00    -0.297 OA
BRANCH   5   7
HETATM    7  C5  UNL     1     -36.726  14.982  -5.030  1.00 20.00     0.056 A 
HETATM    8  C3  UNL     1     -37.307  14.899  -6.402  1.00 20.00     0.013 A 
HETATM    9  C4  UNL     1     -38.063  14.351  -5.229  1.00 20.00     0.013 A 
ENDBRANCH   5   7
ENDBRANCH   4   5
BRANCH   4  10
HETATM   10  C8  UNL     1     -34.906  16.061  -3.216  1.00 20.00     0.008 C 
HETATM   11  C6  UNL     1     -33.796  16.722  -2.408  1.00 20.00     0.006 C 
ENDBRANCH   4  10
ENDBRANCH   2   4
TORSDOF 4
ENDMDL
MODEL 8
REMARK VINA RESULT:      -4.2      2.859      4.710
REMARK  4 active torsions:
REMARK  status: ('A' for Active; 'I' for Inactive)
REMARK    1  A    between atoms: C2_2  and  C5_5 
REMARK    2  A    between atoms: C2_2  and  C9_9 
REMARK    3  A    between atoms: C7_7  and  C9_9 
REMARK    4  A    between atoms: C8_8  and  C9_9 
ROOT
HETATM    1  C1  UNL     1     -32.825   9.540   1.135  1.00 20.00     0.059 C 
HETATM    2  C7  UNL     1     -33.334   8.582   2.130  1.00 20.00     0.136 C 
HETATM    3  N10 UNL     1     -32.427  10.295   0.351  1.00 20.00    -0.197 NA
ENDROOT
BRANCH   2   4
HETATM    4  C9  UNL     1     -32.360   7.427   2.419  1.00 20.00     0.068 C 
BRANCH   4   5
HETATM    5  C2  UNL     1     -33.127   6.215   2.944  1.00 20.00     0.136 C 
HETATM    6  O11 UNL     1     -32.825   5.053   2.706  1.00 20.00    -0.297 OA
BRANCH   5   7
HETATM    7  C5  UNL     1     -34.330   6.511   3.778  1.00 20.00     0.056 A 
HETATM    8  C3  UNL     1     -35.028   5.377   4.450  1.00 20.00     0.013 A 
HETATM    9  C4  UNL     1     -34.225   6.352   5.258  1.00 20.00     0.013 A 
ENDBRANCH   5   7
ENDBRANCH   4   5
BRANCH   4  10
HETATM   10  C8  UNL     1     -31.225   7.848   3.370  1.00 20.00     0.008 C 
HETATM   11  C6  UNL     1     -31.708   8.780   4.475  1.00 20.00     0.006 C 
ENDBRANCH   4  10
ENDBRANCH   2   4
TORSDOF 4
ENDMDL
MODEL 9
REMARK VINA RESULT:      -4.1      2.788      4.931
REMARK  4 active torsions:
REMARK  status: ('A' for Active; 'I' for Inactive)
REMARK    1  A    between atoms: C2_2  and  C5_5 
REMARK    2  A    between atoms: C2_2  and  C9_9 
REMARK    3  A    between atoms: C7_7  and  C9_9 
REMARK    4  A    between atoms: C8_8  and  C9_9 
ROOT
HETATM    1  C1  UNL     1     -32.480   8.199   2.037  1.00 20.00     0.059 C 
HETATM    2  C7  UNL     1     -32.894   6.806   2.271  1.00 20.00     0.136 C 
HETATM    3  N10 UNL     1     -32.151   9.295   1.850  1.00 20.00    -0.197 NA
ENDROOT
BRANCH   2   4
HETATM    4  C9  UNL     1     -33.391   6.550   3.704  1.00 20.00     0.068 C 
BRANCH   4   5
HETATM    5  C2  UNL     1     -34.802   5.967   3.673  1.00 20.00     0.136 C 
HETATM    6  O11 UNL     1     -35.764   6.522   3.159  1.00 20.00    -0.297 OA
BRANCH   5   7
HETATM    7  C5  UNL     1     -34.980   4.644   4.343  1.00 20.00     0.056 A 
HETATM    8  C3  UNL     1     -33.777   3.788   4.561  1.00 20.00     0.013 A 
HETATM    9  C4  UNL     1     -34.438   4.468   5.722  1.00 20.00     0.013 A 
ENDBRANCH   5   7
ENDBRANCH   4   5
BRANCH   4  10
HETATM   10  C8  UNL     1     -33.308   7.813   4.581  1.00 20.00     0.008 C 
HETATM   11  C6  UNL     1     -33.603   7.523   6.048  1.00 20.00     0.006 C 
ENDBRANCH   4  10
ENDBRANCH   2   4
TORSDOF 4
ENDMDL
