MODEL 1
REMARK VINA RESULT:      -6.3      0.000      0.000
REMARK  3 active torsions:
REMARK  status: ('A' for Active; 'I' for Inactive)
REMARK    1  A    between atoms: C2_2  and  C9_9 
REMARK    2  A    between atoms: C6_6  and  C9_9 
REMARK    3  A    between atoms: C7_7  and  O10_10 
ROOT
HETATM    1  C1  UNL     1     -32.631   8.956   1.138  1.00 20.00    -0.111 C 
HETATM    2  C2  UNL     1     -32.468   8.380   2.179  1.00 20.00    -0.107 C 
HETATM    3  C8  UNL     1     -32.829   9.657  -0.130  1.00 20.00     0.112 C 
ENDROOT
BRANCH   2   4
HETATM    4  C9  UNL     1     -32.270   7.680   3.454  1.00 20.00     0.101 C 
BRANCH   4   5
HETATM    5  C6  UNL     1     -33.532   6.947   3.881  1.00 20.00     0.025 C 
HETATM    6  C4  UNL     1     -33.686   5.579   3.221  1.00 20.00     0.008 C 
HETATM    7  C3  UNL     1     -34.643   4.810   4.130  1.00 20.00     0.003 C 
HETATM    8  C5  UNL     1     -34.672   5.564   5.461  1.00 20.00     0.032 C 
HETATM    9  C7  UNL     1     -33.554   6.596   5.366  1.00 20.00     0.123 C 
BRANCH   9  10
HETATM   10  O10 UNL     1     -33.831   7.735   6.157  1.00 20.00    -0.395 OA
HETATM   11  H24 UNL     1     -34.462   8.283   5.660  1.00 20.00     0.210 HD
ENDBRANCH   9  10
ENDBRANCH   4   5
ENDBRANCH   2   4
TORSDOF 3
ENDMDL
MODEL 2
REMARK VINA RESULT:      -5.9      1.670      2.152
REMARK  3 active torsions:
REMARK  status: ('A' for Active; 'I' for Inactive)
REMARK    1  A    between atoms: C2_2  and  C9_9 
REMARK    2  A    between atoms: C6_6  and  C9_9 
REMARK    3  A    between atoms: C7_7  and  O10_10 
ROOT
HETATM    1  C1  UNL     1     -32.651   8.650   1.683  1.00 20.00    -0.111 C 
HETATM    2  C2  UNL     1     -32.962   7.539   2.011  1.00 20.00    -0.107 C 
HETATM    3  C8  UNL     1     -32.272  10.005   1.283  1.00 20.00     0.112 C 
ENDROOT
BRANCH   2   4
HETATM    4  C9  UNL     1     -33.341   6.177   2.408  1.00 20.00     0.101 C 
BRANCH   4   5
HETATM    5  C6  UNL     1     -33.365   6.031   3.922  1.00 20.00     0.025 C 
HETATM    6  C4  UNL     1     -33.520   7.363   4.652  1.00 20.00     0.008 C 
HETATM    7  C3  UNL     1     -34.053   6.992   6.035  1.00 20.00     0.003 C 
HETATM    8  C5  UNL     1     -34.582   5.561   5.923  1.00 20.00     0.032 C 
HETATM    9  C7  UNL     1     -34.564   5.238   4.434  1.00 20.00     0.123 C 
BRANCH   9  10
HETATM   10  O10 UNL     1     -34.396   3.852   4.205  1.00 20.00    -0.395 OA
HETATM   11  H24 UNL     1     -34.715   3.390   5.001  1.00 20.00     0.210 HD
ENDBRANCH   9  10
ENDBRANCH   4   5
ENDBRANCH   2   4
TORSDOF 3
ENDMDL
MODEL 3
REMARK VINA RESULT:      -4.6     11.142     11.647
REMARK  3 active torsions:
REMARK  status: ('A' for Active; 'I' for Inactive)
REMARK    1  A    between atoms: C2_2  and  C9_9 
REMARK    2  A    between atoms: C6_6  and  C9_9 
REMARK    3  A    between atoms: C7_7  and  O10_10 
ROOT
HETATM    1  C1  UNL     1     -35.019  17.057  -1.153  1.00 20.00    -0.111 C 
HETATM    2  C2  UNL     1     -34.589  16.627  -2.187  1.00 20.00    -0.107 C 
HETATM    3  C8  UNL     1     -35.543  17.581   0.108  1.00 20.00     0.112 C 
ENDROOT
BRANCH   2   4
HETATM    4  C9  UNL     1     -34.064  16.096  -3.451  1.00 20.00     0.101 C 
BRANCH   4   5
HETATM    5  C6  UNL     1     -34.903  14.929  -3.949  1.00 20.00     0.025 C 
HETATM    6  C4  UNL     1     -36.373  15.289  -4.151  1.00 20.00     0.008 C 
HETATM    7  C3  UNL     1     -36.905  14.232  -5.118  1.00 20.00     0.003 C 
HETATM    8  C5  UNL     1     -35.681  13.580  -5.760  1.00 20.00     0.032 C 
HETATM    9  C7  UNL     1     -34.495  14.437  -5.334  1.00 20.00     0.123 C 
BRANCH   9  10
HETATM   10  O10 UNL     1     -33.301  13.681  -5.278  1.00 20.00    -0.395 OA
HETATM   11  H24 UNL     1     -32.776  13.915  -6.063  1.00 20.00     0.210 HD
ENDBRANCH   9  10
ENDBRANCH   4   5
ENDBRANCH   2   4
TORSDOF 3
ENDMDL
MODEL 4
REMARK VINA RESULT:      -4.4     11.150     12.085
REMARK  3 active torsions:
REMARK  status: ('A' for Active; 'I' for Inactive)
REMARK    1  A    between atoms: C2_2  and  C9_9 
REMARK    2  A    between atoms: C6_6  and  C9_9 
REMARK    3  A    between atoms: C7_7  and  O10_10 
ROOT
HETATM    1  C1  UNL     1     -33.656  16.949  -2.284  1.00 20.00    -0.111 C 
HETATM    2  C2  UNL     1     -33.880  16.074  -3.076  1.00 20.00    -0.107 C 
HETATM    3  C8  UNL     1     -33.384  18.014  -1.320  1.00 20.00     0.112 C 
ENDROOT
BRANCH   2   4
HETATM    4  C9  UNL     1     -34.149  15.002  -4.041  1.00 20.00     0.101 C 
BRANCH   4   5
HETATM    5  C6  UNL     1     -35.611  14.992  -4.459  1.00 20.00     0.025 C 
HETATM    6  C4  UNL     1     -36.061  16.299  -5.108  1.00 20.00     0.008 C 
HETATM    7  C3  UNL     1     -37.306  15.929  -5.913  1.00 20.00     0.003 C 
HETATM    8  C5  UNL     1     -37.291  14.407  -6.054  1.00 20.00     0.032 C 
HETATM    9  C7  UNL     1     -35.923  13.966  -5.544  1.00 20.00     0.123 C 
BRANCH   9  10
HETATM   10  O10 UNL     1     -35.965  12.656  -5.013  1.00 20.00    -0.395 OA
HETATM   11  H24 UNL     1     -36.883  12.487  -4.738  1.00 20.00     0.210 HD
ENDBRANCH   9  10
ENDBRANCH   4   5
ENDBRANCH   2   4
TORSDOF 3
ENDMDL
MODEL 5
REMARK VINA RESULT:      -4.3     11.284     12.276
REMARK  3 active torsions:
REMARK  status: ('A' for Active; 'I' for Inactive)
REMARK    1  A    between atoms: C2_2  and  C9_9 
REMARK    2  A    between atoms: C6_6  and  C9_9 
REMARK    3  A    between atoms: C7_7  and  O10_10 
ROOT
HETATM    1  C1  UNL     1     -35.037  16.547  -2.451  1.00 20.00    -0.111 C 
HETATM    2  C2  UNL     1     -35.861  16.093  -3.197  1.00 20.00    -0.107 C 
HETATM    3  C8  UNL     1     -34.034  17.102  -1.544  1.00 20.00     0.112 C 
ENDROOT
BRANCH   2   4
HETATM    4  C9  UNL     1     -36.865  15.532  -4.109  1.00 20.00     0.101 C 
BRANCH   4   5
HETATM    5  C6  UNL     1     -36.229  15.072  -5.412  1.00 20.00     0.025 C 
HETATM    6  C4  UNL     1     -35.352  16.139  -6.063  1.00 20.00     0.008 C 
HETATM    7  C3  UNL     1     -34.418  15.365  -6.993  1.00 20.00     0.003 C 
HETATM    8  C5  UNL     1     -34.483  13.903  -6.549  1.00 20.00     0.032 C 
HETATM    9  C7  UNL     1     -35.253  13.913  -5.233  1.00 20.00     0.123 C 
BRANCH   9  10
HETATM   10  O10 UNL     1     -35.938  12.694  -5.024  1.00 20.00    -0.395 OA
HETATM   11  H24 UNL     1     -36.307  12.421  -5.883  1.00 20.00     0.210 HD
ENDBRANCH   9  10
ENDBRANCH   4   5
ENDBRANCH   2   4
TORSDOF 3
ENDMDL
MODEL 6
REMARK VINA RESULT:      -4.3      2.095      4.844
REMARK  3 active torsions:
REMARK  status: ('A' for Active; 'I' for Inactive)
REMARK    1  A    between atoms: C2_2  and  C9_9 
REMARK    2  A    between atoms: C6_6  and  C9_9 
REMARK    3  A    between atoms: C7_7  and  O10_10 
ROOT
HETATM    1  C1  UNL     1     -33.624   6.830   3.458  1.00 20.00    -0.111 C 
HETATM    2  C2  UNL     1     -32.719   7.575   3.201  1.00 20.00    -0.107 C 
HETATM    3  C8  UNL     1     -34.727   5.922   3.771  1.00 20.00     0.112 C 
ENDROOT
BRANCH   2   4
HETATM    4  C9  UNL     1     -31.609   8.484   2.890  1.00 20.00     0.101 C 
BRANCH   4   5
HETATM    5  C6  UNL     1     -31.741   9.054   1.486  1.00 20.00     0.025 C 
HETATM    6  C4  UNL     1     -31.986   7.986   0.423  1.00 20.00     0.008 C 
HETATM    7  C3  UNL     1     -32.610   8.739  -0.752  1.00 20.00     0.003 C 
HETATM    8  C5  UNL     1     -33.089  10.081  -0.198  1.00 20.00     0.032 C 
HETATM    9  C7  UNL     1     -32.952   9.967   1.316  1.00 20.00     0.123 C 
BRANCH   9  10
HETATM   10  O10 UNL     1     -32.730  11.229   1.913  1.00 20.00    -0.395 OA
HETATM   11  H24 UNL     1     -33.321  11.864   1.470  1.00 20.00     0.210 HD
ENDBRANCH   9  10
ENDBRANCH   4   5
ENDBRANCH   2   4
TORSDOF 3
ENDMDL
MODEL 7
REMARK VINA RESULT:      -4.3     11.216     12.286
REMARK  3 active torsions:
REMARK  status: ('A' for Active; 'I' for Inactive)
REMARK    1  A    between atoms: C2_2  and  C9_9 
REMARK    2  A    between atoms: C6_6  and  C9_9 
REMARK    3  A    between atoms: C7_7  and  O10_10 
ROOT
HETATM    1  C1  UNL     1     -34.164  16.616  -2.261  1.00 20.00    -0.111 C 
HETATM    2  C2  UNL     1     -34.053  15.858  -3.185  1.00 20.00    -0.107 C 
HETATM    3  C8  UNL     1     -34.297  17.540  -1.136  1.00 20.00     0.112 C 
ENDROOT
BRANCH   2   4
HETATM    4  C9  UNL     1     -33.922  14.926  -4.312  1.00 20.00     0.101 C 
BRANCH   4   5
HETATM    5  C6  UNL     1     -35.145  14.976  -5.214  1.00 20.00     0.025 C 
HETATM    6  C4  UNL     1     -35.002  15.966  -6.367  1.00 20.00     0.008 C 
HETATM    7  C3  UNL     1     -36.020  15.503  -7.409  1.00 20.00     0.003 C 
HETATM    8  C5  UNL     1     -36.397  14.069  -7.035  1.00 20.00     0.032 C 
HETATM    9  C7  UNL     1     -35.414  13.664  -5.942  1.00 20.00     0.123 C 
BRANCH   9  10
HETATM   10  O10 UNL     1     -35.974  12.700  -5.072  1.00 20.00    -0.395 OA
HETATM   11  H24 UNL     1     -35.316  11.991  -4.967  1.00 20.00     0.210 HD
ENDBRANCH   9  10
ENDBRANCH   4   5
ENDBRANCH   2   4
TORSDOF 3
ENDMDL
MODEL 8
REMARK VINA RESULT:      -4.2     11.252     12.318
REMARK  3 active torsions:
REMARK  status: ('A' for Active; 'I' for Inactive)
REMARK    1  A    between atoms: C2_2  and  C9_9 
REMARK    2  A    between atoms: C6_6  and  C9_9 
REMARK    3  A    between atoms: C7_7  and  O10_10 
ROOT
HETATM    1  C1  UNL     1     -33.036  18.006  -0.806  1.00 20.00    -0.111 C 
HETATM    2  C2  UNL     1     -33.741  17.379  -1.549  1.00 20.00    -0.107 C 
HETATM    3  C8  UNL     1     -32.177  18.770   0.098  1.00 20.00     0.112 C 
ENDROOT
BRANCH   2   4
HETATM    4  C9  UNL     1     -34.598  16.611  -2.459  1.00 20.00     0.101 C 
BRANCH   4   5
HETATM    5  C6  UNL     1     -33.790  16.006  -3.597  1.00 20.00     0.025 C 
HETATM    6  C4  UNL     1     -34.299  14.634  -4.033  1.00 20.00     0.008 C 
HETATM    7  C3  UNL     1     -33.759  14.449  -5.451  1.00 20.00     0.003 C 
HETATM    8  C5  UNL     1     -33.340  15.837  -5.937  1.00 20.00     0.032 C 
HETATM    9  C7  UNL     1     -33.872  16.810  -4.891  1.00 20.00     0.123 C 
BRANCH   9  10
HETATM   10  O10 UNL     1     -33.078  17.979  -4.819  1.00 20.00    -0.395 OA
HETATM   11  H24 UNL     1     -32.317  17.774  -4.247  1.00 20.00     0.210 HD
ENDBRANCH   9  10
ENDBRANCH   4   5
ENDBRANCH   2   4
TORSDOF 3
ENDMDL
MODEL 9
REMARK VINA RESULT:      -4.2     11.214     12.261
REMARK  3 active torsions:
REMARK  status: ('A' for Active; 'I' for Inactive)
REMARK    1  A    between atoms: C2_2  and  C9_9 
REMARK    2  A    between atoms: C6_6  and  C9_9 
REMARK    3  A    between atoms: C7_7  and  O10_10 
ROOT
HETATM    1  C1  UNL     1     -33.436  17.643  -1.397  1.00 20.00    -0.111 C 
HETATM    2  C2  UNL     1     -34.277  16.991  -1.953  1.00 20.00    -0.107 C 
HETATM    3  C8  UNL     1     -32.412  18.437  -0.720  1.00 20.00     0.112 C 
ENDROOT
BRANCH   2   4
HETATM    4  C9  UNL     1     -35.302  16.192  -2.636  1.00 20.00     0.101 C 
BRANCH   4   5
HETATM    5  C6  UNL     1     -34.952  15.986  -4.102  1.00 20.00     0.025 C 
HETATM    6  C4  UNL     1     -34.566  17.279  -4.816  1.00 20.00     0.008 C 
HETATM    7  C3  UNL     1     -33.763  16.828  -6.036  1.00 20.00     0.003 C 
HETATM    8  C5  UNL     1     -33.353  15.379  -5.769  1.00 20.00     0.032 C 
HETATM    9  C7  UNL     1     -33.717  15.116  -4.313  1.00 20.00     0.123 C 
BRANCH   9  10
HETATM   10  O10 UNL     1     -34.008  13.750  -4.089  1.00 20.00    -0.395 OA
HETATM   11  H24 UNL     1     -33.577  13.245  -4.801  1.00 20.00     0.210 HD
ENDBRANCH   9  10
ENDBRANCH   4   5
ENDBRANCH   2   4
TORSDOF 3
ENDMDL
