MODEL 1
REMARK VINA RESULT:      -6.1      0.000      0.000
REMARK  4 active torsions:
REMARK  status: ('A' for Active; 'I' for Inactive)
REMARK    1  A    between atoms: C2_2  and  C7_7 
REMARK    2  A    between atoms: C3_3  and  C8_8 
REMARK    3  A    between atoms: C3_3  and  C9_9 
REMARK    4  A    between atoms: C7_7  and  C8_8 
ROOT
HETATM    1  C1  UNL     1     -32.548   9.114   0.806  1.00 20.00    -0.111 C 
HETATM    2  C2  UNL     1     -32.160   8.646   1.841  1.00 20.00    -0.107 C 
HETATM    3  C4  UNL     1     -33.018   9.688  -0.454  1.00 20.00     0.112 C 
ENDROOT
BRANCH   2   4
HETATM    4  C7  UNL     1     -31.683   8.075   3.109  1.00 20.00     0.101 C 
BRANCH   4   5
HETATM    5  C8  UNL     1     -32.841   7.648   4.009  1.00 20.00     0.090 C 
BRANCH   5   6
HETATM    6  C3  UNL     1     -33.489   6.333   3.589  1.00 20.00     0.131 C 
HETATM    7  O10 UNL     1     -33.182   5.752   2.549  1.00 20.00    -0.298 OA
BRANCH   6   8
HETATM    8  C9  UNL     1     -34.546   5.772   4.539  1.00 20.00     0.047 C 
HETATM    9  C5  UNL     1     -34.463   4.251   4.554  1.00 20.00     0.017 C 
HETATM   10  C6  UNL     1     -34.377   6.344   5.944  1.00 20.00     0.017 C 
ENDBRANCH   6   8
ENDBRANCH   5   6
ENDBRANCH   4   5
ENDBRANCH   2   4
TORSDOF 4
ENDMDL
MODEL 2
REMARK VINA RESULT:      -5.9      1.403      1.817
REMARK  4 active torsions:
REMARK  status: ('A' for Active; 'I' for Inactive)
REMARK    1  A    between atoms: C2_2  and  C7_7 
REMARK    2  A    between atoms: C3_3  and  C8_8 
REMARK    3  A    between atoms: C3_3  and  C9_9 
REMARK    4  A    between atoms: C7_7  and  C8_8 
ROOT
HETATM    1  C1  UNL     1     -32.462   9.200   1.487  1.00 20.00    -0.111 C 
HETATM    2  C2  UNL     1     -32.401   8.179   2.118  1.00 20.00    -0.107 C 
HETATM    3  C4  UNL     1     -32.533  10.444   0.722  1.00 20.00     0.112 C 
ENDROOT
BRANCH   2   4
HETATM    4  C7  UNL     1     -32.326   6.932   2.893  1.00 20.00     0.101 C 
BRANCH   4   5
HETATM    5  C8  UNL     1     -33.538   6.037   2.643  1.00 20.00     0.090 C 
BRANCH   5   6
HETATM    6  C3  UNL     1     -34.526   6.007   3.804  1.00 20.00     0.131 C 
HETATM    7  O10 UNL     1     -35.743   6.060   3.631  1.00 20.00    -0.298 OA
BRANCH   6   8
HETATM    8  C9  UNL     1     -33.918   5.904   5.201  1.00 20.00     0.047 C 
HETATM    9  C5  UNL     1     -33.887   7.283   5.847  1.00 20.00     0.017 C 
HETATM   10  C6  UNL     1     -34.695   4.913   6.063  1.00 20.00     0.017 C 
ENDBRANCH   6   8
ENDBRANCH   5   6
ENDBRANCH   4   5
ENDBRANCH   2   4
TORSDOF 4
ENDMDL
MODEL 3
REMARK VINA RESULT:      -5.3      1.576      5.337
REMARK  4 active torsions:
REMARK  status: ('A' for Active; 'I' for Inactive)
REMARK    1  A    between atoms: C2_2  and  C7_7 
REMARK    2  A    between atoms: C3_3  and  C8_8 
REMARK    3  A    between atoms: C3_3  and  C9_9 
REMARK    4  A    between atoms: C7_7  and  C8_8 
ROOT
HETATM    1  C1  UNL     1     -34.256   5.612   4.674  1.00 20.00    -0.111 C 
HETATM    2  C2  UNL     1     -33.827   6.087   3.658  1.00 20.00    -0.107 C 
HETATM    3  C4  UNL     1     -34.775   5.030   5.911  1.00 20.00     0.112 C 
ENDROOT
BRANCH   2   4
HETATM    4  C7  UNL     1     -33.300   6.665   2.413  1.00 20.00     0.101 C 
BRANCH   4   5
HETATM    5  C8  UNL     1     -32.307   7.792   2.689  1.00 20.00     0.090 C 
BRANCH   5   6
HETATM    6  C3  UNL     1     -31.968   8.624   1.457  1.00 20.00     0.131 C 
HETATM    7  O10 UNL     1     -30.921   8.470   0.828  1.00 20.00    -0.298 OA
BRANCH   6   8
HETATM    8  C9  UNL     1     -33.007   9.664   1.043  1.00 20.00     0.047 C 
HETATM    9  C5  UNL     1     -32.567  11.043   1.518  1.00 20.00     0.017 C 
HETATM   10  C6  UNL     1     -33.223   9.649  -0.468  1.00 20.00     0.017 C 
ENDBRANCH   6   8
ENDBRANCH   5   6
ENDBRANCH   4   5
ENDBRANCH   2   4
TORSDOF 4
ENDMDL
MODEL 4
REMARK VINA RESULT:      -4.8      1.587      5.187
REMARK  4 active torsions:
REMARK  status: ('A' for Active; 'I' for Inactive)
REMARK    1  A    between atoms: C2_2  and  C7_7 
REMARK    2  A    between atoms: C3_3  and  C8_8 
REMARK    3  A    between atoms: C3_3  and  C9_9 
REMARK    4  A    between atoms: C7_7  and  C8_8 
ROOT
HETATM    1  C1  UNL     1     -33.914   6.295   4.950  1.00 20.00    -0.111 C 
HETATM    2  C2  UNL     1     -33.190   6.981   4.280  1.00 20.00    -0.107 C 
HETATM    3  C4  UNL     1     -34.795   5.464   5.769  1.00 20.00     0.112 C 
ENDROOT
BRANCH   2   4
HETATM    4  C7  UNL     1     -32.303   7.822   3.464  1.00 20.00     0.101 C 
BRANCH   4   5
HETATM    5  C8  UNL     1     -32.837   7.995   2.043  1.00 20.00     0.090 C 
BRANCH   5   6
HETATM    6  C3  UNL     1     -31.881   8.737   1.116  1.00 20.00     0.131 C 
HETATM    7  O10 UNL     1     -30.756   8.310   0.854  1.00 20.00    -0.298 OA
BRANCH   6   8
HETATM    8  C9  UNL     1     -32.400  10.045   0.523  1.00 20.00     0.047 C 
HETATM    9  C5  UNL     1     -33.418   9.742  -0.570  1.00 20.00     0.017 C 
HETATM   10  C6  UNL     1     -33.008  10.933   1.605  1.00 20.00     0.017 C 
ENDBRANCH   6   8
ENDBRANCH   5   6
ENDBRANCH   4   5
ENDBRANCH   2   4
TORSDOF 4
ENDMDL
MODEL 5
REMARK VINA RESULT:      -4.5     10.447     11.553
REMARK  4 active torsions:
REMARK  status: ('A' for Active; 'I' for Inactive)
REMARK    1  A    between atoms: C2_2  and  C7_7 
REMARK    2  A    between atoms: C3_3  and  C8_8 
REMARK    3  A    between atoms: C3_3  and  C9_9 
REMARK    4  A    between atoms: C7_7  and  C8_8 
ROOT
HETATM    1  C1  UNL     1     -35.006  16.748  -1.696  1.00 20.00    -0.111 C 
HETATM    2  C2  UNL     1     -34.681  16.291  -2.758  1.00 20.00    -0.107 C 
HETATM    3  C4  UNL     1     -35.406  17.305  -0.404  1.00 20.00     0.112 C 
ENDROOT
BRANCH   2   4
HETATM    4  C7  UNL     1     -34.287  15.734  -4.060  1.00 20.00     0.101 C 
BRANCH   4   5
HETATM    5  C8  UNL     1     -34.484  14.221  -4.111  1.00 20.00     0.090 C 
BRANCH   5   6
HETATM    6  C3  UNL     1     -35.669  13.786  -4.967  1.00 20.00     0.131 C 
HETATM    7  O10 UNL     1     -35.864  12.609  -5.269  1.00 20.00    -0.298 OA
BRANCH   6   8
HETATM    8  C9  UNL     1     -36.607  14.899  -5.429  1.00 20.00     0.047 C 
HETATM    9  C5  UNL     1     -36.678  14.907  -6.951  1.00 20.00     0.017 C 
HETATM   10  C6  UNL     1     -37.995  14.733  -4.817  1.00 20.00     0.017 C 
ENDBRANCH   6   8
ENDBRANCH   5   6
ENDBRANCH   4   5
ENDBRANCH   2   4
TORSDOF 4
ENDMDL
MODEL 6
REMARK VINA RESULT:      -4.5     10.407     11.774
REMARK  4 active torsions:
REMARK  status: ('A' for Active; 'I' for Inactive)
REMARK    1  A    between atoms: C2_2  and  C7_7 
REMARK    2  A    between atoms: C3_3  and  C8_8 
REMARK    3  A    between atoms: C3_3  and  C9_9 
REMARK    4  A    between atoms: C7_7  and  C8_8 
ROOT
HETATM    1  C1  UNL     1     -34.962  16.743  -1.767  1.00 20.00    -0.111 C 
HETATM    2  C2  UNL     1     -34.573  16.258  -2.795  1.00 20.00    -0.107 C 
HETATM    3  C4  UNL     1     -35.441  17.335  -0.519  1.00 20.00     0.112 C 
ENDROOT
BRANCH   2   4
HETATM    4  C7  UNL     1     -34.097  15.668  -4.054  1.00 20.00     0.101 C 
BRANCH   4   5
HETATM    5  C8  UNL     1     -34.350  14.162  -4.104  1.00 20.00     0.090 C 
BRANCH   5   6
HETATM    6  C3  UNL     1     -35.252  13.731  -5.255  1.00 20.00     0.131 C 
HETATM    7  O10 UNL     1     -35.951  12.719  -5.198  1.00 20.00    -0.298 OA
BRANCH   6   8
HETATM    8  C9  UNL     1     -35.243  14.631  -6.489  1.00 20.00     0.047 C 
HETATM    9  C5  UNL     1     -34.327  14.033  -7.550  1.00 20.00     0.017 C 
HETATM   10  C6  UNL     1     -36.656  14.827  -7.033  1.00 20.00     0.017 C 
ENDBRANCH   6   8
ENDBRANCH   5   6
ENDBRANCH   4   5
ENDBRANCH   2   4
TORSDOF 4
ENDMDL
MODEL 7
REMARK VINA RESULT:      -4.5     10.795     11.718
REMARK  4 active torsions:
REMARK  status: ('A' for Active; 'I' for Inactive)
REMARK    1  A    between atoms: C2_2  and  C7_7 
REMARK    2  A    between atoms: C3_3  and  C8_8 
REMARK    3  A    between atoms: C3_3  and  C9_9 
REMARK    4  A    between atoms: C7_7  and  C8_8 
ROOT
HETATM    1  C1  UNL     1     -34.825  16.154  -2.736  1.00 20.00    -0.111 C 
HETATM    2  C2  UNL     1     -34.269  15.435  -3.521  1.00 20.00    -0.107 C 
HETATM    3  C4  UNL     1     -35.506  17.028  -1.782  1.00 20.00     0.112 C 
ENDROOT
BRANCH   2   4
HETATM    4  C7  UNL     1     -33.590  14.558  -4.486  1.00 20.00     0.101 C 
BRANCH   4   5
HETATM    5  C8  UNL     1     -34.375  14.437  -5.790  1.00 20.00     0.090 C 
BRANCH   5   6
HETATM    6  C3  UNL     1     -35.736  13.770  -5.627  1.00 20.00     0.131 C 
HETATM    7  O10 UNL     1     -35.856  12.611  -5.230  1.00 20.00    -0.298 OA
BRANCH   6   8
HETATM    8  C9  UNL     1     -36.951  14.625  -5.982  1.00 20.00     0.047 C 
HETATM    9  C5  UNL     1     -37.839  14.785  -4.754  1.00 20.00     0.017 C 
HETATM   10  C6  UNL     1     -36.522  15.984  -6.528  1.00 20.00     0.017 C 
ENDBRANCH   6   8
ENDBRANCH   5   6
ENDBRANCH   4   5
ENDBRANCH   2   4
TORSDOF 4
ENDMDL
MODEL 8
REMARK VINA RESULT:      -4.4     10.593     11.326
REMARK  4 active torsions:
REMARK  status: ('A' for Active; 'I' for Inactive)
REMARK    1  A    between atoms: C2_2  and  C7_7 
REMARK    2  A    between atoms: C3_3  and  C8_8 
REMARK    3  A    between atoms: C3_3  and  C9_9 
REMARK    4  A    between atoms: C7_7  and  C8_8 
ROOT
HETATM    1  C1  UNL     1     -35.095  17.199  -0.760  1.00 20.00    -0.111 C 
HETATM    2  C2  UNL     1     -34.732  16.774  -1.823  1.00 20.00    -0.107 C 
HETATM    3  C4  UNL     1     -35.535  17.714   0.536  1.00 20.00     0.112 C 
ENDROOT
BRANCH   2   4
HETATM    4  C7  UNL     1     -34.287  16.249  -3.122  1.00 20.00     0.101 C 
BRANCH   4   5
HETATM    5  C8  UNL     1     -35.399  15.479  -3.831  1.00 20.00     0.090 C 
BRANCH   5   6
HETATM    6  C3  UNL     1     -34.943  14.149  -4.422  1.00 20.00     0.131 C 
HETATM    7  O10 UNL     1     -33.835  13.670  -4.182  1.00 20.00    -0.298 OA
BRANCH   6   8
HETATM    8  C9  UNL     1     -35.944  13.439  -5.331  1.00 20.00     0.047 C 
HETATM    9  C5  UNL     1     -37.262  14.203  -5.333  1.00 20.00     0.017 C 
HETATM   10  C6  UNL     1     -35.391  13.297  -6.746  1.00 20.00     0.017 C 
ENDBRANCH   6   8
ENDBRANCH   5   6
ENDBRANCH   4   5
ENDBRANCH   2   4
TORSDOF 4
ENDMDL
MODEL 9
REMARK VINA RESULT:      -4.3     10.576     11.719
REMARK  4 active torsions:
REMARK  status: ('A' for Active; 'I' for Inactive)
REMARK    1  A    between atoms: C2_2  and  C7_7 
REMARK    2  A    between atoms: C3_3  and  C8_8 
REMARK    3  A    between atoms: C3_3  and  C9_9 
REMARK    4  A    between atoms: C7_7  and  C8_8 
ROOT
HETATM    1  C1  UNL     1     -34.881  16.703  -2.349  1.00 20.00    -0.111 C 
HETATM    2  C2  UNL     1     -35.714  16.217  -3.065  1.00 20.00    -0.107 C 
HETATM    3  C4  UNL     1     -33.863  17.291  -1.480  1.00 20.00     0.112 C 
ENDROOT
BRANCH   2   4
HETATM    4  C7  UNL     1     -36.732  15.619  -3.941  1.00 20.00     0.101 C 
BRANCH   4   5
HETATM    5  C8  UNL     1     -36.169  15.292  -5.322  1.00 20.00     0.090 C 
BRANCH   5   6
HETATM    6  C3  UNL     1     -35.220  14.098  -5.329  1.00 20.00     0.131 C 
HETATM    7  O10 UNL     1     -35.610  12.948  -5.132  1.00 20.00    -0.298 OA
BRANCH   6   8
HETATM    8  C9  UNL     1     -33.749  14.411  -5.600  1.00 20.00     0.047 C 
HETATM    9  C5  UNL     1     -33.627  15.804  -6.205  1.00 20.00     0.017 C 
HETATM   10  C6  UNL     1     -32.922  14.294  -4.322  1.00 20.00     0.017 C 
ENDBRANCH   6   8
ENDBRANCH   5   6
ENDBRANCH   4   5
ENDBRANCH   2   4
TORSDOF 4
ENDMDL
