MODEL 1
REMARK VINA RESULT:      -5.6      0.000      0.000
REMARK  3 active torsions:
REMARK  status: ('A' for Active; 'I' for Inactive)
REMARK    1  A    between atoms: C2_2  and  C9_9 
REMARK    2  A    between atoms: C7_7  and  N10_10 
REMARK    3  A    between atoms: C9_9  and  N10_10 
ROOT
HETATM    1  C1  UNL     1     -32.561   9.170   0.884  1.00 20.00    -0.109 C 
HETATM    2  C2  UNL     1     -32.199   8.670   1.913  1.00 20.00    -0.077 C 
HETATM    3  C8  UNL     1     -33.004   9.777  -0.371  1.00 20.00     0.112 C 
ENDROOT
BRANCH   2   4
HETATM    4  C9  UNL     1     -31.760   8.055   3.170  1.00 20.00     0.363 C 
BRANCH   4   5
HETATM    5  N10 UNL     1     -32.458   6.802   3.406  1.00 20.00     0.099 N 
HETATM    6  H26 UNL     1     -32.026   6.311   4.184  1.00 20.00     0.317 HD
BRANCH   5   7
HETATM    7  C7  UNL     1     -33.846   7.045   3.725  1.00 20.00     0.225 C 
HETATM    8  C3  UNL     1     -34.010   7.414   5.201  1.00 20.00     0.062 C 
HETATM    9  C5  UNL     1     -33.882   6.191   6.104  1.00 20.00     0.169 C 
HETATM   10  O11 UNL     1     -34.804   5.175   5.711  1.00 20.00    -0.391 OA
HETATM   11  C6  UNL     1     -34.558   4.708   4.386  1.00 20.00     0.169 C 
HETATM   12  C4  UNL     1     -34.717   5.837   3.372  1.00 20.00     0.062 C 
ENDBRANCH   5   7
ENDBRANCH   4   5
ENDBRANCH   2   4
TORSDOF 3
ENDMDL
MODEL 2
REMARK VINA RESULT:      -5.0      1.206      1.373
REMARK  3 active torsions:
REMARK  status: ('A' for Active; 'I' for Inactive)
REMARK    1  A    between atoms: C2_2  and  C9_9 
REMARK    2  A    between atoms: C7_7  and  N10_10 
REMARK    3  A    between atoms: C9_9  and  N10_10 
ROOT
HETATM    1  C1  UNL     1     -32.550   9.099   1.109  1.00 20.00    -0.109 C 
HETATM    2  C2  UNL     1     -32.259   8.459   2.082  1.00 20.00    -0.077 C 
HETATM    3  C8  UNL     1     -32.904   9.878  -0.077  1.00 20.00     0.112 C 
ENDROOT
BRANCH   2   4
HETATM    4  C9  UNL     1     -31.897   7.677   3.269  1.00 20.00     0.363 C 
BRANCH   4   5
HETATM    5  N10 UNL     1     -33.083   7.278   4.009  1.00 20.00     0.099 N 
HETATM    6  H26 UNL     1     -33.585   8.105   4.320  1.00 20.00     0.317 HD
BRANCH   5   7
HETATM    7  C7  UNL     1     -33.960   6.488   3.176  1.00 20.00     0.225 C 
HETATM    8  C3  UNL     1     -35.227   6.093   3.938  1.00 20.00     0.062 C 
HETATM    9  C5  UNL     1     -34.954   4.973   4.938  1.00 20.00     0.169 C 
HETATM   10  O11 UNL     1     -34.361   3.850   4.288  1.00 20.00    -0.391 OA
HETATM   11  C6  UNL     1     -33.097   4.170   3.709  1.00 20.00     0.169 C 
HETATM   12  C4  UNL     1     -33.246   5.246   2.638  1.00 20.00     0.062 C 
ENDBRANCH   5   7
ENDBRANCH   4   5
ENDBRANCH   2   4
TORSDOF 3
ENDMDL
MODEL 3
REMARK VINA RESULT:      -4.0     11.034     12.145
REMARK  3 active torsions:
REMARK  status: ('A' for Active; 'I' for Inactive)
REMARK    1  A    between atoms: C2_2  and  C9_9 
REMARK    2  A    between atoms: C7_7  and  N10_10 
REMARK    3  A    between atoms: C9_9  and  N10_10 
ROOT
HETATM    1  C1  UNL     1     -33.189  17.854  -1.158  1.00 20.00    -0.109 C 
HETATM    2  C2  UNL     1     -34.014  17.260  -1.796  1.00 20.00    -0.077 C 
HETATM    3  C8  UNL     1     -32.185  18.578  -0.380  1.00 20.00     0.112 C 
ENDROOT
BRANCH   2   4
HETATM    4  C9  UNL     1     -35.026  16.539  -2.576  1.00 20.00     0.363 C 
BRANCH   4   5
HETATM    5  N10 UNL     1     -34.701  16.560  -3.993  1.00 20.00     0.099 N 
HETATM    6  H26 UNL     1     -34.285  17.455  -4.235  1.00 20.00     0.317 HD
BRANCH   5   7
HETATM    7  C7  UNL     1     -33.762  15.510  -4.314  1.00 20.00     0.225 C 
HETATM    8  C3  UNL     1     -33.215  15.682  -5.733  1.00 20.00     0.062 C 
HETATM    9  C5  UNL     1     -34.239  15.266  -6.785  1.00 20.00     0.169 C 
HETATM   10  O11 UNL     1     -34.687  13.931  -6.553  1.00 20.00    -0.391 OA
HETATM   11  C6  UNL     1     -35.344  13.795  -5.294  1.00 20.00     0.169 C 
HETATM   12  C4  UNL     1     -34.396  14.127  -4.146  1.00 20.00     0.062 C 
ENDBRANCH   5   7
ENDBRANCH   4   5
ENDBRANCH   2   4
TORSDOF 3
ENDMDL
MODEL 4
REMARK VINA RESULT:      -4.0     11.146     12.009
REMARK  3 active torsions:
REMARK  status: ('A' for Active; 'I' for Inactive)
REMARK    1  A    between atoms: C2_2  and  C9_9 
REMARK    2  A    between atoms: C7_7  and  N10_10 
REMARK    3  A    between atoms: C9_9  and  N10_10 
ROOT
HETATM    1  C1  UNL     1     -35.310  17.319  -0.347  1.00 20.00    -0.109 C 
HETATM    2  C2  UNL     1     -34.788  17.005  -1.382  1.00 20.00    -0.077 C 
HETATM    3  C8  UNL     1     -35.946  17.700   0.914  1.00 20.00     0.112 C 
ENDROOT
BRANCH   2   4
HETATM    4  C9  UNL     1     -34.152  16.615  -2.645  1.00 20.00     0.363 C 
BRANCH   4   5
HETATM    5  N10 UNL     1     -35.070  15.852  -3.474  1.00 20.00     0.099 N 
HETATM    6  H26 UNL     1     -35.360  16.415  -4.269  1.00 20.00     0.317 HD
BRANCH   5   7
HETATM    7  C7  UNL     1     -34.435  14.650  -3.963  1.00 20.00     0.225 C 
HETATM    8  C3  UNL     1     -33.112  14.977  -4.661  1.00 20.00     0.062 C 
HETATM    9  C5  UNL     1     -33.341  15.576  -6.046  1.00 20.00     0.169 C 
HETATM   10  O11 UNL     1     -34.155  14.714  -6.840  1.00 20.00    -0.391 OA
HETATM   11  C6  UNL     1     -35.453  14.530  -6.277  1.00 20.00     0.169 C 
HETATM   12  C4  UNL     1     -35.362  13.875  -4.902  1.00 20.00     0.062 C 
ENDBRANCH   5   7
ENDBRANCH   4   5
ENDBRANCH   2   4
TORSDOF 3
ENDMDL
MODEL 5
REMARK VINA RESULT:      -3.9     11.155     11.809
REMARK  3 active torsions:
REMARK  status: ('A' for Active; 'I' for Inactive)
REMARK    1  A    between atoms: C2_2  and  C9_9 
REMARK    2  A    between atoms: C7_7  and  N10_10 
REMARK    3  A    between atoms: C9_9  and  N10_10 
ROOT
HETATM    1  C1  UNL     1     -34.898  17.260  -0.755  1.00 20.00    -0.109 C 
HETATM    2  C2  UNL     1     -34.413  16.923  -1.800  1.00 20.00    -0.077 C 
HETATM    3  C8  UNL     1     -35.487  17.673   0.518  1.00 20.00     0.112 C 
ENDROOT
BRANCH   2   4
HETATM    4  C9  UNL     1     -33.816  16.514  -3.076  1.00 20.00     0.363 C 
BRANCH   4   5
HETATM    5  N10 UNL     1     -34.461  15.318  -3.591  1.00 20.00     0.099 N 
HETATM    6  H26 UNL     1     -35.218  15.044  -2.971  1.00 20.00     0.317 HD
BRANCH   5   7
HETATM    7  C7  UNL     1     -35.006  15.561  -4.907  1.00 20.00     0.225 C 
HETATM    8  C3  UNL     1     -36.442  16.084  -4.816  1.00 20.00     0.062 C 
HETATM    9  C5  UNL     1     -37.425  14.969  -4.472  1.00 20.00     0.169 C 
HETATM   10  O11 UNL     1     -37.316  13.895  -5.405  1.00 20.00    -0.391 OA
HETATM   11  C6  UNL     1     -36.023  13.293  -5.384  1.00 20.00     0.169 C 
HETATM   12  C4  UNL     1     -34.946  14.301  -5.774  1.00 20.00     0.062 C 
ENDBRANCH   5   7
ENDBRANCH   4   5
ENDBRANCH   2   4
TORSDOF 3
ENDMDL
MODEL 6
REMARK VINA RESULT:      -3.8     11.088     11.956
REMARK  3 active torsions:
REMARK  status: ('A' for Active; 'I' for Inactive)
REMARK    1  A    between atoms: C2_2  and  C9_9 
REMARK    2  A    between atoms: C7_7  and  N10_10 
REMARK    3  A    between atoms: C9_9  and  N10_10 
ROOT
HETATM    1  C1  UNL     1     -33.653  17.531  -1.762  1.00 20.00    -0.109 C 
HETATM    2  C2  UNL     1     -33.571  17.102  -2.880  1.00 20.00    -0.077 C 
HETATM    3  C8  UNL     1     -33.752  18.054  -0.400  1.00 20.00     0.112 C 
ENDROOT
BRANCH   2   4
HETATM    4  C9  UNL     1     -33.465  16.575  -4.245  1.00 20.00     0.363 C 
BRANCH   4   5
HETATM    5  N10 UNL     1     -34.780  16.301  -4.799  1.00 20.00     0.099 N 
HETATM    6  H26 UNL     1     -34.684  15.916  -5.734  1.00 20.00     0.317 HD
BRANCH   5   7
HETATM    7  C7  UNL     1     -35.489  15.347  -3.977  1.00 20.00     0.225 C 
HETATM    8  C3  UNL     1     -35.153  13.913  -4.391  1.00 20.00     0.062 C 
HETATM    9  C5  UNL     1     -35.861  13.521  -5.684  1.00 20.00     0.169 C 
HETATM   10  O11 UNL     1     -37.269  13.717  -5.568  1.00 20.00    -0.391 OA
HETATM   11  C6  UNL     1     -37.605  15.084  -5.340  1.00 20.00     0.169 C 
HETATM   12  C4  UNL     1     -37.000  15.583  -4.031  1.00 20.00     0.062 C 
ENDBRANCH   5   7
ENDBRANCH   4   5
ENDBRANCH   2   4
TORSDOF 3
ENDMDL
MODEL 7
REMARK VINA RESULT:      -3.8     10.951     11.797
REMARK  3 active torsions:
REMARK  status: ('A' for Active; 'I' for Inactive)
REMARK    1  A    between atoms: C2_2  and  C9_9 
REMARK    2  A    between atoms: C7_7  and  N10_10 
REMARK    3  A    between atoms: C9_9  and  N10_10 
ROOT
HETATM    1  C1  UNL     1     -34.858  17.907   0.351  1.00 20.00    -0.109 C 
HETATM    2  C2  UNL     1     -34.461  17.540  -0.721  1.00 20.00    -0.077 C 
HETATM    3  C8  UNL     1     -35.342  18.354   1.656  1.00 20.00     0.112 C 
ENDROOT
BRANCH   2   4
HETATM    4  C9  UNL     1     -33.980  17.097  -2.034  1.00 20.00     0.363 C 
BRANCH   4   5
HETATM    5  N10 UNL     1     -34.959  16.243  -2.685  1.00 20.00     0.099 N 
HETATM    6  H26 UNL     1     -35.896  16.552  -2.443  1.00 20.00     0.317 HD
BRANCH   5   7
HETATM    7  C7  UNL     1     -34.809  16.300  -4.121  1.00 20.00     0.225 C 
HETATM    8  C3  UNL     1     -35.788  15.347  -4.811  1.00 20.00     0.062 C 
HETATM    9  C5  UNL     1     -35.336  13.894  -4.691  1.00 20.00     0.169 C 
HETATM   10  O11 UNL     1     -34.009  13.736  -5.190  1.00 20.00    -0.391 OA
HETATM   11  C6  UNL     1     -33.060  14.500  -4.448  1.00 20.00     0.169 C 
HETATM   12  C4  UNL     1     -33.370  15.991  -4.541  1.00 20.00     0.062 C 
ENDBRANCH   5   7
ENDBRANCH   4   5
ENDBRANCH   2   4
TORSDOF 3
ENDMDL
MODEL 8
REMARK VINA RESULT:      -3.7     11.436     12.280
REMARK  3 active torsions:
REMARK  status: ('A' for Active; 'I' for Inactive)
REMARK    1  A    between atoms: C2_2  and  C9_9 
REMARK    2  A    between atoms: C7_7  and  N10_10 
REMARK    3  A    between atoms: C9_9  and  N10_10 
ROOT
HETATM    1  C1  UNL     1     -34.031  16.574  -2.467  1.00 20.00    -0.109 C 
HETATM    2  C2  UNL     1     -33.671  15.928  -3.413  1.00 20.00    -0.077 C 
HETATM    3  C8  UNL     1     -34.471  17.359  -1.314  1.00 20.00     0.112 C 
ENDROOT
BRANCH   2   4
HETATM    4  C9  UNL     1     -33.237  15.135  -4.568  1.00 20.00     0.363 C 
BRANCH   4   5
HETATM    5  N10 UNL     1     -34.110  15.359  -5.708  1.00 20.00     0.099 N 
HETATM    6  H26 UNL     1     -33.573  15.745  -6.479  1.00 20.00     0.317 HD
BRANCH   5   7
HETATM    7  C7  UNL     1     -34.711  14.117  -6.139  1.00 20.00     0.225 C 
HETATM    8  C3  UNL     1     -35.466  14.304  -7.457  1.00 20.00     0.062 C 
HETATM    9  C5  UNL     1     -36.794  15.026  -7.247  1.00 20.00     0.169 C 
HETATM   10  O11 UNL     1     -37.590  14.345  -6.279  1.00 20.00    -0.391 OA
HETATM   11  C6  UNL     1     -36.963  14.305  -4.998  1.00 20.00     0.169 C 
HETATM   12  C4  UNL     1     -35.640  13.548  -5.063  1.00 20.00     0.062 C 
ENDBRANCH   5   7
ENDBRANCH   4   5
ENDBRANCH   2   4
TORSDOF 3
ENDMDL
MODEL 9
REMARK VINA RESULT:      -3.6      2.664      5.365
REMARK  3 active torsions:
REMARK  status: ('A' for Active; 'I' for Inactive)
REMARK    1  A    between atoms: C2_2  and  C9_9 
REMARK    2  A    between atoms: C7_7  and  N10_10 
REMARK    3  A    between atoms: C9_9  and  N10_10 
ROOT
HETATM    1  C1  UNL     1     -34.205   5.871   4.904  1.00 20.00    -0.109 C 
HETATM    2  C2  UNL     1     -33.677   6.802   4.361  1.00 20.00    -0.077 C 
HETATM    3  C8  UNL     1     -34.848   4.737   5.567  1.00 20.00     0.112 C 
ENDROOT
BRANCH   2   4
HETATM    4  C9  UNL     1     -33.027   7.940   3.703  1.00 20.00     0.363 C 
BRANCH   4   5
HETATM    5  N10 UNL     1     -32.643   7.602   2.342  1.00 20.00     0.099 N 
HETATM    6  H26 UNL     1     -33.469   7.578   1.750  1.00 20.00     0.317 HD
BRANCH   5   7
HETATM    7  C7  UNL     1     -31.724   8.584   1.814  1.00 20.00     0.225 C 
HETATM    8  C3  UNL     1     -32.229  10.004   2.081  1.00 20.00     0.062 C 
HETATM    9  C5  UNL     1     -33.372  10.379   1.142  1.00 20.00     0.169 C 
HETATM   10  O11 UNL     1     -32.983  10.206  -0.220  1.00 20.00    -0.391 OA
HETATM   11  C6  UNL     1     -32.663   8.849  -0.521  1.00 20.00     0.169 C 
HETATM   12  C4  UNL     1     -31.482   8.370   0.318  1.00 20.00     0.062 C 
ENDBRANCH   5   7
ENDBRANCH   4   5
ENDBRANCH   2   4
TORSDOF 3
ENDMDL
