MODEL 1
REMARK VINA RESULT:      -4.0      0.000      0.000
REMARK  3 active torsions:
REMARK  status: ('A' for Active; 'I' for Inactive)
REMARK    1  A    between atoms: C1_1  and  C3_3 
REMARK    2  A    between atoms: C2_2  and  C4_4 
REMARK    3  A    between atoms: C4_4  and  S7_7 
ROOT
HETATM    1  C1  UNL     1     -33.476   7.132   4.388  1.00 20.00     0.081 C 
HETATM    2  C2  UNL     1     -32.865   7.189   3.196  1.00 20.00    -0.010 C 
ENDROOT
BRANCH   1   3
HETATM    3  C3  UNL     1     -34.548   6.080   4.702  1.00 20.00     0.198 C 
HETATM    4  O5  UNL     1     -35.362   5.797   3.780  1.00 20.00    -0.645 OA
HETATM    5  O6  UNL     1     -34.482   5.613   5.878  1.00 20.00    -0.645 OA
ENDBRANCH   1   3
BRANCH   2   6
HETATM    6  C4  UNL     1     -31.826   8.209   2.851  1.00 20.00     0.098 C 
BRANCH   6   7
HETATM    7  S7  UNL     1     -32.279   9.069   1.320  1.00 20.00    -0.178 SA
HETATM    8  H12 UNL     1     -32.486   7.964   0.590  1.00 20.00     0.101 HD
ENDBRANCH   6   7
ENDBRANCH   2   6
TORSDOF 3
ENDMDL
MODEL 2
REMARK VINA RESULT:      -4.0      0.062      1.221
REMARK  3 active torsions:
REMARK  status: ('A' for Active; 'I' for Inactive)
REMARK    1  A    between atoms: C1_1  and  C3_3 
REMARK    2  A    between atoms: C2_2  and  C4_4 
REMARK    3  A    between atoms: C4_4  and  S7_7 
ROOT
HETATM    1  C1  UNL     1     -33.503   7.128   4.375  1.00 20.00     0.081 C 
HETATM    2  C2  UNL     1     -32.852   7.166   3.204  1.00 20.00    -0.010 C 
ENDROOT
BRANCH   1   3
HETATM    3  C3  UNL     1     -34.562   6.060   4.681  1.00 20.00     0.198 C 
HETATM    4  O5  UNL     1     -34.519   5.519   5.821  1.00 20.00    -0.645 OA
HETATM    5  O6  UNL     1     -35.370   5.849   3.729  1.00 20.00    -0.645 OA
ENDBRANCH   1   3
BRANCH   2   6
HETATM    6  C4  UNL     1     -31.823   8.200   2.868  1.00 20.00     0.098 C 
BRANCH   6   7
HETATM    7  S7  UNL     1     -32.312   9.103   1.372  1.00 20.00    -0.178 SA
HETATM    8  H12 UNL     1     -31.434  10.105   1.516  1.00 20.00     0.101 HD
ENDBRANCH   6   7
ENDBRANCH   2   6
TORSDOF 3
ENDMDL
MODEL 3
REMARK VINA RESULT:      -3.8      3.367      4.009
REMARK  3 active torsions:
REMARK  status: ('A' for Active; 'I' for Inactive)
REMARK    1  A    between atoms: C1_1  and  C3_3 
REMARK    2  A    between atoms: C2_2  and  C4_4 
REMARK    3  A    between atoms: C4_4  and  S7_7 
ROOT
HETATM    1  C1  UNL     1     -33.221   6.970   3.456  1.00 20.00     0.081 C 
HETATM    2  C2  UNL     1     -33.578   7.091   4.743  1.00 20.00    -0.010 C 
ENDROOT
BRANCH   1   3
HETATM    3  C3  UNL     1     -32.303   7.990   2.769  1.00 20.00     0.198 C 
HETATM    4  O5  UNL     1     -32.656   8.404   1.629  1.00 20.00    -0.645 OA
HETATM    5  O6  UNL     1     -31.277   8.298   3.446  1.00 20.00    -0.645 OA
ENDBRANCH   1   3
BRANCH   2   6
HETATM    6  C4  UNL     1     -34.482   6.124   5.440  1.00 20.00     0.098 C 
BRANCH   6   7
HETATM    7  S7  UNL     1     -34.488   4.534   4.567  1.00 20.00    -0.178 SA
HETATM    8  H12 UNL     1     -35.727   4.175   4.931  1.00 20.00     0.101 HD
ENDBRANCH   6   7
ENDBRANCH   2   6
TORSDOF 3
ENDMDL
MODEL 4
REMARK VINA RESULT:      -3.8      0.931      1.003
REMARK  3 active torsions:
REMARK  status: ('A' for Active; 'I' for Inactive)
REMARK    1  A    between atoms: C1_1  and  C3_3 
REMARK    2  A    between atoms: C2_2  and  C4_4 
REMARK    3  A    between atoms: C4_4  and  S7_7 
ROOT
HETATM    1  C1  UNL     1     -33.404   6.774   3.081  1.00 20.00     0.081 C 
HETATM    2  C2  UNL     1     -32.684   7.904   3.031  1.00 20.00    -0.010 C 
ENDROOT
BRANCH   1   3
HETATM    3  C3  UNL     1     -34.227   6.390   4.318  1.00 20.00     0.198 C 
HETATM    4  O5  UNL     1     -35.189   5.592   4.142  1.00 20.00    -0.645 OA
HETATM    5  O6  UNL     1     -33.829   6.935   5.391  1.00 20.00    -0.645 OA
ENDBRANCH   1   3
BRANCH   2   6
HETATM    6  C4  UNL     1     -31.859   8.302   1.846  1.00 20.00     0.098 C 
BRANCH   6   7
HETATM    7  S7  UNL     1     -32.551   9.792   1.077  1.00 20.00    -0.178 SA
HETATM    8  H12 UNL     1     -31.382  10.288   0.648  1.00 20.00     0.101 HD
ENDBRANCH   6   7
ENDBRANCH   2   6
TORSDOF 3
ENDMDL
MODEL 5
REMARK VINA RESULT:      -3.5      3.904      4.596
REMARK  3 active torsions:
REMARK  status: ('A' for Active; 'I' for Inactive)
REMARK    1  A    between atoms: C1_1  and  C3_3 
REMARK    2  A    between atoms: C2_2  and  C4_4 
REMARK    3  A    between atoms: C4_4  and  S7_7 
ROOT
HETATM    1  C1  UNL     1     -32.148   8.362   2.561  1.00 20.00     0.081 C 
HETATM    2  C2  UNL     1     -33.220   7.614   2.857  1.00 20.00    -0.010 C 
ENDROOT
BRANCH   1   3
HETATM    3  C3  UNL     1     -32.050   9.159   1.252  1.00 20.00     0.198 C 
HETATM    4  O5  UNL     1     -32.800  10.168   1.137  1.00 20.00    -0.645 OA
HETATM    5  O6  UNL     1     -31.207   8.694   0.429  1.00 20.00    -0.645 OA
ENDBRANCH   1   3
BRANCH   2   6
HETATM    6  C4  UNL     1     -33.342   6.815   4.117  1.00 20.00     0.098 C 
BRANCH   6   7
HETATM    7  S7  UNL     1     -34.806   5.747   4.039  1.00 20.00    -0.178 SA
HETATM    8  H12 UNL     1     -35.350   6.327   2.960  1.00 20.00     0.101 HD
ENDBRANCH   6   7
ENDBRANCH   2   6
TORSDOF 3
ENDMDL
MODEL 6
REMARK VINA RESULT:      -3.4     11.209     11.516
REMARK  3 active torsions:
REMARK  status: ('A' for Active; 'I' for Inactive)
REMARK    1  A    between atoms: C1_1  and  C3_3 
REMARK    2  A    between atoms: C2_2  and  C4_4 
REMARK    3  A    between atoms: C4_4  and  S7_7 
ROOT
HETATM    1  C1  UNL     1     -35.686  14.971  -4.682  1.00 20.00     0.081 C 
HETATM    2  C2  UNL     1     -34.570  14.881  -3.945  1.00 20.00    -0.010 C 
ENDROOT
BRANCH   1   3
HETATM    3  C3  UNL     1     -36.535  13.739  -5.022  1.00 20.00     0.198 C 
HETATM    4  O5  UNL     1     -37.790  13.879  -4.984  1.00 20.00    -0.645 OA
HETATM    5  O6  UNL     1     -35.857  12.707  -5.305  1.00 20.00    -0.645 OA
ENDBRANCH   1   3
BRANCH   2   6
HETATM    6  C4  UNL     1     -33.711  16.060  -3.607  1.00 20.00     0.098 C 
BRANCH   6   7
HETATM    7  S7  UNL     1     -34.349  16.894  -2.129  1.00 20.00    -0.178 SA
HETATM    8  H12 UNL     1     -33.291  17.695  -1.947  1.00 20.00     0.101 HD
ENDBRANCH   6   7
ENDBRANCH   2   6
TORSDOF 3
ENDMDL
MODEL 7
REMARK VINA RESULT:      -3.4     11.208     11.527
REMARK  3 active torsions:
REMARK  status: ('A' for Active; 'I' for Inactive)
REMARK    1  A    between atoms: C1_1  and  C3_3 
REMARK    2  A    between atoms: C2_2  and  C4_4 
REMARK    3  A    between atoms: C4_4  and  S7_7 
ROOT
HETATM    1  C1  UNL     1     -35.713  14.984  -4.645  1.00 20.00     0.081 C 
HETATM    2  C2  UNL     1     -34.605  14.922  -3.892  1.00 20.00    -0.010 C 
ENDROOT
BRANCH   1   3
HETATM    3  C3  UNL     1     -36.513  13.729  -5.017  1.00 20.00     0.198 C 
HETATM    4  O5  UNL     1     -35.853  12.697  -5.322  1.00 20.00    -0.645 OA
HETATM    5  O6  UNL     1     -37.769  13.887  -4.971  1.00 20.00    -0.645 OA
ENDBRANCH   1   3
BRANCH   2   6
HETATM    6  C4  UNL     1     -33.794  16.124  -3.522  1.00 20.00     0.098 C 
BRANCH   6   7
HETATM    7  S7  UNL     1     -34.468  16.896  -2.026  1.00 20.00    -0.178 SA
HETATM    8  H12 UNL     1     -34.822  15.753  -1.421  1.00 20.00     0.101 HD
ENDBRANCH   6   7
ENDBRANCH   2   6
TORSDOF 3
ENDMDL
MODEL 8
REMARK VINA RESULT:      -3.2     11.439     11.725
REMARK  3 active torsions:
REMARK  status: ('A' for Active; 'I' for Inactive)
REMARK    1  A    between atoms: C1_1  and  C3_3 
REMARK    2  A    between atoms: C2_2  and  C4_4 
REMARK    3  A    between atoms: C4_4  and  S7_7 
ROOT
HETATM    1  C1  UNL     1     -35.418  14.894  -4.881  1.00 20.00     0.081 C 
HETATM    2  C2  UNL     1     -34.627  14.979  -3.801  1.00 20.00    -0.010 C 
ENDROOT
BRANCH   1   3
HETATM    3  C3  UNL     1     -36.283  13.658  -5.158  1.00 20.00     0.198 C 
HETATM    4  O5  UNL     1     -37.526  13.772  -4.967  1.00 20.00    -0.645 OA
HETATM    5  O6  UNL     1     -35.627  12.649  -5.555  1.00 20.00    -0.645 OA
ENDBRANCH   1   3
BRANCH   2   6
HETATM    6  C4  UNL     1     -33.760  16.164  -3.507  1.00 20.00     0.098 C 
BRANCH   6   7
HETATM    7  S7  UNL     1     -33.661  17.241  -4.963  1.00 20.00    -0.178 SA
HETATM    8  H12 UNL     1     -33.159  18.305  -4.320  1.00 20.00     0.101 HD
ENDBRANCH   6   7
ENDBRANCH   2   6
TORSDOF 3
ENDMDL
MODEL 9
REMARK VINA RESULT:      -3.2     11.258     11.553
REMARK  3 active torsions:
REMARK  status: ('A' for Active; 'I' for Inactive)
REMARK    1  A    between atoms: C1_1  and  C3_3 
REMARK    2  A    between atoms: C2_2  and  C4_4 
REMARK    3  A    between atoms: C4_4  and  S7_7 
ROOT
HETATM    1  C1  UNL     1     -34.969  14.745  -4.124  1.00 20.00     0.081 C 
HETATM    2  C2  UNL     1     -33.863  15.479  -3.937  1.00 20.00    -0.010 C 
ENDROOT
BRANCH   1   3
HETATM    3  C3  UNL     1     -35.054  13.667  -5.212  1.00 20.00     0.198 C 
HETATM    4  O5  UNL     1     -36.005  12.840  -5.127  1.00 20.00    -0.645 OA
HETATM    5  O6  UNL     1     -34.138  13.741  -6.083  1.00 20.00    -0.645 OA
ENDBRANCH   1   3
BRANCH   2   6
HETATM    6  C4  UNL     1     -33.750  16.548  -2.895  1.00 20.00     0.098 C 
BRANCH   6   7
HETATM    7  S7  UNL     1     -35.342  16.770  -2.054  1.00 20.00    -0.178 SA
HETATM    8  H12 UNL     1     -34.965  17.816  -1.306  1.00 20.00     0.101 HD
ENDBRANCH   6   7
ENDBRANCH   2   6
TORSDOF 3
ENDMDL
