MODEL 1
REMARK VINA RESULT:      -4.2      0.000      0.000
REMARK  2 active torsions:
REMARK  status: ('A' for Active; 'I' for Inactive)
REMARK    1  A    between atoms: C1_1  and  C3_3 
REMARK    2  A    between atoms: C2_2  and  C4_4 
ROOT
HETATM    1  C1  UNL     1     -34.434   5.893   3.030  1.00 20.00    -0.015 C 
HETATM    2  C2  UNL     1     -35.094   5.775   4.192  1.00 20.00    -0.015 C 
ENDROOT
BRANCH   1   3
HETATM    3  C3  UNL     1     -32.945   5.922   2.925  1.00 20.00     0.141 C 
HETATM    4 CL5  UNL     1     -32.379   7.602   2.808  1.00 20.00    -0.126 Cl
ENDBRANCH   1   3
BRANCH   2   5
HETATM    5  C4  UNL     1     -34.420   5.658   5.520  1.00 20.00     0.141 C 
HETATM    6 CL6  UNL     1     -33.850   7.253   6.053  1.00 20.00    -0.126 Cl
ENDBRANCH   2   5
TORSDOF 2
ENDMDL
MODEL 2
REMARK VINA RESULT:      -4.2      0.018      2.812
REMARK  2 active torsions:
REMARK  status: ('A' for Active; 'I' for Inactive)
REMARK    1  A    between atoms: C1_1  and  C3_3 
REMARK    2  A    between atoms: C2_2  and  C4_4 
ROOT
HETATM    1  C1  UNL     1     -35.090   5.760   4.196  1.00 20.00    -0.015 C 
HETATM    2  C2  UNL     1     -34.429   5.882   3.035  1.00 20.00    -0.015 C 
ENDROOT
BRANCH   1   3
HETATM    3  C3  UNL     1     -34.416   5.651   5.523  1.00 20.00     0.141 C 
HETATM    4 CL5  UNL     1     -33.866   7.254   6.056  1.00 20.00    -0.126 Cl
ENDBRANCH   1   3
BRANCH   2   5
HETATM    5  C4  UNL     1     -32.940   5.923   2.930  1.00 20.00     0.141 C 
HETATM    6 CL6  UNL     1     -32.390   7.605   2.775  1.00 20.00    -0.126 Cl
ENDBRANCH   2   5
TORSDOF 2
ENDMDL
MODEL 3
REMARK VINA RESULT:      -4.1      1.953      3.197
REMARK  2 active torsions:
REMARK  status: ('A' for Active; 'I' for Inactive)
REMARK    1  A    between atoms: C1_1  and  C3_3 
REMARK    2  A    between atoms: C2_2  and  C4_4 
ROOT
HETATM    1  C1  UNL     1     -34.294   6.440   5.356  1.00 20.00    -0.015 C 
HETATM    2  C2  UNL     1     -33.354   7.281   4.900  1.00 20.00    -0.015 C 
ENDROOT
BRANCH   1   3
HETATM    3  C3  UNL     1     -35.057   5.501   4.481  1.00 20.00     0.141 C 
HETATM    4 CL5  UNL     1     -34.196   3.951   4.362  1.00 20.00    -0.126 Cl
ENDBRANCH   1   3
BRANCH   2   5
HETATM    5  C4  UNL     1     -32.957   7.380   3.464  1.00 20.00     0.141 C 
HETATM    6 CL6  UNL     1     -31.454   8.314   3.314  1.00 20.00    -0.126 Cl
ENDBRANCH   2   5
TORSDOF 2
ENDMDL
MODEL 4
REMARK VINA RESULT:      -4.1      1.949      2.172
REMARK  2 active torsions:
REMARK  status: ('A' for Active; 'I' for Inactive)
REMARK    1  A    between atoms: C1_1  and  C3_3 
REMARK    2  A    between atoms: C2_2  and  C4_4 
ROOT
HETATM    1  C1  UNL     1     -33.349   7.282   4.894  1.00 20.00    -0.015 C 
HETATM    2  C2  UNL     1     -34.289   6.446   5.360  1.00 20.00    -0.015 C 
ENDROOT
BRANCH   1   3
HETATM    3  C3  UNL     1     -32.957   7.368   3.456  1.00 20.00     0.141 C 
HETATM    4 CL5  UNL     1     -31.461   8.311   3.292  1.00 20.00    -0.126 Cl
ENDBRANCH   1   3
BRANCH   2   5
HETATM    5  C4  UNL     1     -35.057   5.500   4.497  1.00 20.00     0.141 C 
HETATM    6 CL6  UNL     1     -34.185   3.959   4.361  1.00 20.00    -0.126 Cl
ENDBRANCH   2   5
TORSDOF 2
ENDMDL
MODEL 5
REMARK VINA RESULT:      -4.0      1.146      3.286
REMARK  2 active torsions:
REMARK  status: ('A' for Active; 'I' for Inactive)
REMARK    1  A    between atoms: C1_1  and  C3_3 
REMARK    2  A    between atoms: C2_2  and  C4_4 
ROOT
HETATM    1  C1  UNL     1     -33.881   5.269   3.288  1.00 20.00    -0.015 C 
HETATM    2  C2  UNL     1     -32.962   6.105   2.782  1.00 20.00    -0.015 C 
ENDROOT
BRANCH   1   3
HETATM    3  C3  UNL     1     -35.011   5.711   4.157  1.00 20.00     0.141 C 
HETATM    4 CL5  UNL     1     -34.479   5.787   5.850  1.00 20.00    -0.126 Cl
ENDBRANCH   1   3
BRANCH   2   5
HETATM    5  C4  UNL     1     -32.960   7.578   3.024  1.00 20.00     0.141 C 
HETATM    6 CL6  UNL     1     -31.844   8.376   1.896  1.00 20.00    -0.126 Cl
ENDBRANCH   2   5
TORSDOF 2
ENDMDL
MODEL 6
REMARK VINA RESULT:      -4.0      1.176      1.561
REMARK  2 active torsions:
REMARK  status: ('A' for Active; 'I' for Inactive)
REMARK    1  A    between atoms: C1_1  and  C3_3 
REMARK    2  A    between atoms: C2_2  and  C4_4 
ROOT
HETATM    1  C1  UNL     1     -32.956   6.115   2.784  1.00 20.00    -0.015 C 
HETATM    2  C2  UNL     1     -33.885   5.271   3.257  1.00 20.00    -0.015 C 
ENDROOT
BRANCH   1   3
HETATM    3  C3  UNL     1     -32.937   7.577   3.087  1.00 20.00     0.141 C 
HETATM    4 CL5  UNL     1     -31.844   8.413   1.963  1.00 20.00    -0.126 Cl
ENDBRANCH   1   3
BRANCH   2   5
HETATM    5  C4  UNL     1     -35.011   5.690   4.143  1.00 20.00     0.141 C 
HETATM    6 CL6  UNL     1     -34.497   5.641   5.842  1.00 20.00    -0.126 Cl
ENDBRANCH   2   5
TORSDOF 2
ENDMDL
MODEL 7
REMARK VINA RESULT:      -3.9      2.522      4.280
REMARK  2 active torsions:
REMARK  status: ('A' for Active; 'I' for Inactive)
REMARK    1  A    between atoms: C1_1  and  C3_3 
REMARK    2  A    between atoms: C2_2  and  C4_4 
ROOT
HETATM    1  C1  UNL     1     -32.098   7.743   3.547  1.00 20.00    -0.015 C 
HETATM    2  C2  UNL     1     -31.705   8.451   2.477  1.00 20.00    -0.015 C 
ENDROOT
BRANCH   1   3
HETATM    3  C3  UNL     1     -33.487   7.229   3.732  1.00 20.00     0.141 C 
HETATM    4 CL5  UNL     1     -33.867   7.124   5.465  1.00 20.00    -0.126 Cl
ENDBRANCH   1   3
BRANCH   2   5
HETATM    5  C4  UNL     1     -32.608   8.808   1.342  1.00 20.00     0.141 C 
HETATM    6 CL6  UNL     1     -32.677  10.573   1.156  1.00 20.00    -0.126 Cl
ENDBRANCH   2   5
TORSDOF 2
ENDMDL
MODEL 8
REMARK VINA RESULT:      -3.9      2.515      3.069
REMARK  2 active torsions:
REMARK  status: ('A' for Active; 'I' for Inactive)
REMARK    1  A    between atoms: C1_1  and  C3_3 
REMARK    2  A    between atoms: C2_2  and  C4_4 
ROOT
HETATM    1  C1  UNL     1     -31.742   8.411   2.437  1.00 20.00    -0.015 C 
HETATM    2  C2  UNL     1     -32.124   7.701   3.509  1.00 20.00    -0.015 C 
ENDROOT
BRANCH   1   3
HETATM    3  C3  UNL     1     -32.677   8.841   1.356  1.00 20.00     0.141 C 
HETATM    4 CL5  UNL     1     -32.644  10.611   1.196  1.00 20.00    -0.126 Cl
ENDBRANCH   1   3
BRANCH   2   5
HETATM    5  C4  UNL     1     -33.528   7.255   3.751  1.00 20.00     0.141 C 
HETATM    6 CL6  UNL     1     -33.856   7.204   5.496  1.00 20.00    -0.126 Cl
ENDBRANCH   2   5
TORSDOF 2
ENDMDL
MODEL 9
REMARK VINA RESULT:      -3.7      2.019      2.724
REMARK  2 active torsions:
REMARK  status: ('A' for Active; 'I' for Inactive)
REMARK    1  A    between atoms: C1_1  and  C3_3 
REMARK    2  A    between atoms: C2_2  and  C4_4 
ROOT
HETATM    1  C1  UNL     1     -33.675   7.303   3.318  1.00 20.00    -0.015 C 
HETATM    2  C2  UNL     1     -33.864   6.131   2.693  1.00 20.00    -0.015 C 
ENDROOT
BRANCH   1   3
HETATM    3  C3  UNL     1     -32.860   7.455   4.559  1.00 20.00     0.141 C 
HETATM    4 CL5  UNL     1     -33.893   7.249   5.990  1.00 20.00    -0.126 Cl
ENDBRANCH   1   3
BRANCH   2   5
HETATM    5  C4  UNL     1     -33.282   4.839   3.162  1.00 20.00     0.141 C 
HETATM    6 CL6  UNL     1     -34.337   4.110   4.391  1.00 20.00    -0.126 Cl
ENDBRANCH   2   5
TORSDOF 2
ENDMDL
