MODEL 1
REMARK VINA RESULT:      -4.7      0.000      0.000
REMARK  3 active torsions:
REMARK  status: ('A' for Active; 'I' for Inactive)
REMARK    1  A    between atoms: C6_6  and  N10_10 
REMARK    2  A    between atoms: C7_7  and  C8_8 
REMARK    3  A    between atoms: C8_8  and  N10_10 
ROOT
HETATM    1  C1  UNL     1     -32.161   9.410   0.715  1.00 20.00     0.013 C 
HETATM    2  C2  UNL     1     -32.199   8.779   1.736  1.00 20.00    -0.087 C 
HETATM    3  C6  UNL     1     -32.243   8.013   2.985  1.00 20.00     0.364 C 
ENDROOT
BRANCH   3   4
HETATM    4  N10 UNL     1     -32.582   6.619   2.722  1.00 20.00     0.117 N 
HETATM    5  H22 UNL     1     -32.806   6.514   1.730  1.00 20.00     0.319 HD
BRANCH   4   6
HETATM    6  C8  UNL     1     -33.714   6.196   3.523  1.00 20.00     0.241 C 
HETATM    7  C3  UNL     1     -33.695   6.917   4.812  1.00 20.00     0.101 C 
HETATM    8  N9  UNL     1     -33.681   7.485   5.824  1.00 20.00    -0.195 NA
HETATM    9  C5  UNL     1     -35.005   6.555   2.772  1.00 20.00     0.066 C 
BRANCH   6  10
HETATM   10  C7  UNL     1     -33.673   4.667   3.753  1.00 20.00     0.052 C 
HETATM   11  C4  UNL     1     -34.492   4.177   4.944  1.00 20.00     0.009 C 
ENDBRANCH   6  10
ENDBRANCH   4   6
ENDBRANCH   3   4
TORSDOF 3
ENDMDL
MODEL 2
REMARK VINA RESULT:      -4.5      1.728      2.537
REMARK  3 active torsions:
REMARK  status: ('A' for Active; 'I' for Inactive)
REMARK    1  A    between atoms: C6_6  and  N10_10 
REMARK    2  A    between atoms: C7_7  and  C8_8 
REMARK    3  A    between atoms: C8_8  and  N10_10 
ROOT
HETATM    1  C1  UNL     1     -33.082   9.487  -0.724  1.00 20.00     0.013 C 
HETATM    2  C2  UNL     1     -32.819   9.307   0.434  1.00 20.00    -0.087 C 
HETATM    3  C6  UNL     1     -32.494   9.090   1.846  1.00 20.00     0.364 C 
ENDROOT
BRANCH   3   4
HETATM    4  N10 UNL     1     -33.499   8.247   2.482  1.00 20.00     0.117 N 
HETATM    5  H22 UNL     1     -34.199   8.844   2.926  1.00 20.00     0.319 HD
BRANCH   4   6
HETATM    6  C8  UNL     1     -32.900   7.380   3.478  1.00 20.00     0.241 C 
HETATM    7  C3  UNL     1     -32.912   5.989   2.981  1.00 20.00     0.101 C 
HETATM    8  N9  UNL     1     -32.920   4.895   2.591  1.00 20.00    -0.195 NA
HETATM    9  C5  UNL     1     -31.444   7.818   3.695  1.00 20.00     0.066 C 
BRANCH   6  10
HETATM   10  C7  UNL     1     -33.664   7.487   4.818  1.00 20.00     0.052 C 
HETATM   11  C4  UNL     1     -34.312   6.187   5.291  1.00 20.00     0.009 C 
ENDBRANCH   6  10
ENDBRANCH   4   6
ENDBRANCH   3   4
TORSDOF 3
ENDMDL
MODEL 3
REMARK VINA RESULT:      -4.4      1.568      4.042
REMARK  3 active torsions:
REMARK  status: ('A' for Active; 'I' for Inactive)
REMARK    1  A    between atoms: C6_6  and  N10_10 
REMARK    2  A    between atoms: C7_7  and  C8_8 
REMARK    3  A    between atoms: C8_8  and  N10_10 
ROOT
HETATM    1  C1  UNL     1     -34.735   5.165   5.870  1.00 20.00     0.013 C 
HETATM    2  C2  UNL     1     -34.199   6.202   5.584  1.00 20.00    -0.087 C 
HETATM    3  C6  UNL     1     -33.543   7.466   5.241  1.00 20.00     0.364 C 
ENDROOT
BRANCH   3   4
HETATM    4  N10 UNL     1     -33.797   7.817   3.849  1.00 20.00     0.117 N 
HETATM    5  H22 UNL     1     -34.527   7.203   3.481  1.00 20.00     0.319 HD
BRANCH   4   6
HETATM    6  C8  UNL     1     -32.597   7.679   3.047  1.00 20.00     0.241 C 
HETATM    7  C3  UNL     1     -32.716   8.529   1.845  1.00 20.00     0.101 C 
HETATM    8  N9  UNL     1     -32.808   9.198   0.901  1.00 20.00    -0.195 NA
HETATM    9  C5  UNL     1     -31.397   8.158   3.878  1.00 20.00     0.066 C 
BRANCH   6  10
HETATM   10  C7  UNL     1     -32.379   6.201   2.650  1.00 20.00     0.052 C 
HETATM   11  C4  UNL     1     -33.651   5.443   2.281  1.00 20.00     0.009 C 
ENDBRANCH   6  10
ENDBRANCH   4   6
ENDBRANCH   3   4
TORSDOF 3
ENDMDL
MODEL 4
REMARK VINA RESULT:      -4.3      1.580      2.139
REMARK  3 active torsions:
REMARK  status: ('A' for Active; 'I' for Inactive)
REMARK    1  A    between atoms: C6_6  and  N10_10 
REMARK    2  A    between atoms: C7_7  and  C8_8 
REMARK    3  A    between atoms: C8_8  and  N10_10 
ROOT
HETATM    1  C1  UNL     1     -32.509  10.320   0.575  1.00 20.00     0.013 C 
HETATM    2  C2  UNL     1     -32.359   9.373   1.298  1.00 20.00    -0.087 C 
HETATM    3  C6  UNL     1     -32.172   8.221   2.183  1.00 20.00     0.364 C 
ENDROOT
BRANCH   3   4
HETATM    4  N10 UNL     1     -33.325   7.330   2.119  1.00 20.00     0.117 N 
HETATM    5  H22 UNL     1     -34.171   7.892   2.002  1.00 20.00     0.319 HD
BRANCH   4   6
HETATM    6  C8  UNL     1     -33.436   6.530   3.323  1.00 20.00     0.241 C 
HETATM    7  C3  UNL     1     -34.854   6.183   3.546  1.00 20.00     0.101 C 
HETATM    8  N9  UNL     1     -35.968   5.908   3.721  1.00 20.00    -0.195 NA
HETATM    9  C5  UNL     1     -32.632   5.236   3.125  1.00 20.00     0.066 C 
BRANCH   6  10
HETATM   10  C7  UNL     1     -32.865   7.298   4.538  1.00 20.00     0.052 C 
HETATM   11  C4  UNL     1     -33.712   7.212   5.805  1.00 20.00     0.009 C 
ENDBRANCH   6  10
ENDBRANCH   4   6
ENDBRANCH   3   4
TORSDOF 3
ENDMDL
MODEL 5
REMARK VINA RESULT:      -4.3     11.277     12.104
REMARK  3 active torsions:
REMARK  status: ('A' for Active; 'I' for Inactive)
REMARK    1  A    between atoms: C6_6  and  N10_10 
REMARK    2  A    between atoms: C7_7  and  C8_8 
REMARK    3  A    between atoms: C8_8  and  N10_10 
ROOT
HETATM    1  C1  UNL     1     -32.991  17.770  -1.487  1.00 20.00     0.013 C 
HETATM    2  C2  UNL     1     -33.926  17.155  -1.920  1.00 20.00    -0.087 C 
HETATM    3  C6  UNL     1     -35.071  16.407  -2.446  1.00 20.00     0.364 C 
ENDROOT
BRANCH   3   4
HETATM    4  N10 UNL     1     -34.630  15.381  -3.384  1.00 20.00     0.117 N 
HETATM    5  H22 UNL     1     -33.673  15.589  -3.675  1.00 20.00     0.319 HD
BRANCH   4   6
HETATM    6  C8  UNL     1     -35.492  15.331  -4.549  1.00 20.00     0.241 C 
HETATM    7  C3  UNL     1     -35.674  13.923  -4.958  1.00 20.00     0.101 C 
HETATM    8  N9  UNL     1     -35.819  12.817  -5.279  1.00 20.00    -0.195 NA
HETATM    9  C5  UNL     1     -36.859  15.920  -4.170  1.00 20.00     0.066 C 
BRANCH   6  10
HETATM   10  C7  UNL     1     -34.887  16.161  -5.705  1.00 20.00     0.052 C 
HETATM   11  C4  UNL     1     -33.393  15.945  -5.934  1.00 20.00     0.009 C 
ENDBRANCH   6  10
ENDBRANCH   4   6
ENDBRANCH   3   4
TORSDOF 3
ENDMDL
MODEL 6
REMARK VINA RESULT:      -4.2      1.268      4.277
REMARK  3 active torsions:
REMARK  status: ('A' for Active; 'I' for Inactive)
REMARK    1  A    between atoms: C6_6  and  N10_10 
REMARK    2  A    between atoms: C7_7  and  C8_8 
REMARK    3  A    between atoms: C8_8  and  N10_10 
ROOT
HETATM    1  C1  UNL     1     -34.656   4.845   5.852  1.00 20.00     0.013 C 
HETATM    2  C2  UNL     1     -34.306   5.983   5.698  1.00 20.00    -0.087 C 
HETATM    3  C6  UNL     1     -33.884   7.374   5.513  1.00 20.00     0.364 C 
ENDROOT
BRANCH   3   4
HETATM    4  N10 UNL     1     -32.611   7.436   4.804  1.00 20.00     0.117 N 
HETATM    5  H22 UNL     1     -32.127   8.296   5.068  1.00 20.00     0.319 HD
BRANCH   4   6
HETATM    6  C8  UNL     1     -32.810   7.412   3.368  1.00 20.00     0.241 C 
HETATM    7  C3  UNL     1     -32.876   6.009   2.910  1.00 20.00     0.101 C 
HETATM    8  N9  UNL     1     -32.929   4.906   2.551  1.00 20.00    -0.195 NA
HETATM    9  C5  UNL     1     -34.144   8.102   3.049  1.00 20.00     0.066 C 
BRANCH   6  10
HETATM   10  C7  UNL     1     -31.667   8.166   2.651  1.00 20.00     0.052 C 
HETATM   11  C4  UNL     1     -32.092   8.935   1.402  1.00 20.00     0.009 C 
ENDBRANCH   6  10
ENDBRANCH   4   6
ENDBRANCH   3   4
TORSDOF 3
ENDMDL
MODEL 7
REMARK VINA RESULT:      -4.1     11.403     12.543
REMARK  3 active torsions:
REMARK  status: ('A' for Active; 'I' for Inactive)
REMARK    1  A    between atoms: C6_6  and  N10_10 
REMARK    2  A    between atoms: C7_7  and  C8_8 
REMARK    3  A    between atoms: C8_8  and  N10_10 
ROOT
HETATM    1  C1  UNL     1     -35.094  17.042  -1.230  1.00 20.00     0.013 C 
HETATM    2  C2  UNL     1     -34.928  16.444  -2.258  1.00 20.00    -0.087 C 
HETATM    3  C6  UNL     1     -34.722  15.712  -3.510  1.00 20.00     0.364 C 
ENDROOT
BRANCH   3   4
HETATM    4  N10 UNL     1     -35.742  16.070  -4.489  1.00 20.00     0.117 N 
HETATM    5  H22 UNL     1     -36.663  15.858  -4.100  1.00 20.00     0.319 HD
BRANCH   4   6
HETATM    6  C8  UNL     1     -35.558  15.337  -5.727  1.00 20.00     0.241 C 
HETATM    7  C3  UNL     1     -35.739  13.894  -5.469  1.00 20.00     0.101 C 
HETATM    8  N9  UNL     1     -35.882  12.760  -5.267  1.00 20.00    -0.195 NA
HETATM    9  C5  UNL     1     -36.626  15.800  -6.730  1.00 20.00     0.066 C 
BRANCH   6  10
HETATM   10  C7  UNL     1     -34.157  15.614  -6.318  1.00 20.00     0.052 C 
HETATM   11  C4  UNL     1     -33.880  14.934  -7.656  1.00 20.00     0.009 C 
ENDBRANCH   6  10
ENDBRANCH   4   6
ENDBRANCH   3   4
TORSDOF 3
ENDMDL
MODEL 8
REMARK VINA RESULT:      -4.0     11.352     12.326
REMARK  3 active torsions:
REMARK  status: ('A' for Active; 'I' for Inactive)
REMARK    1  A    between atoms: C6_6  and  N10_10 
REMARK    2  A    between atoms: C7_7  and  C8_8 
REMARK    3  A    between atoms: C8_8  and  N10_10 
ROOT
HETATM    1  C1  UNL     1     -34.205  17.394  -1.353  1.00 20.00     0.013 C 
HETATM    2  C2  UNL     1     -34.539  16.656  -2.240  1.00 20.00    -0.087 C 
HETATM    3  C6  UNL     1     -34.941  15.756  -3.323  1.00 20.00     0.364 C 
ENDROOT
BRANCH   3   4
HETATM    4  N10 UNL     1     -36.391  15.609  -3.360  1.00 20.00     0.117 N 
HETATM    5  H22 UNL     1     -36.669  14.903  -2.675  1.00 20.00     0.319 HD
BRANCH   4   6
HETATM    6  C8  UNL     1     -36.845  15.213  -4.679  1.00 20.00     0.241 C 
HETATM    7  C3  UNL     1     -36.270  13.894  -5.014  1.00 20.00     0.101 C 
HETATM    8  N9  UNL     1     -35.820  12.857  -5.277  1.00 20.00    -0.195 NA
HETATM    9  C5  UNL     1     -38.376  15.096  -4.653  1.00 20.00     0.066 C 
BRANCH   6  10
HETATM   10  C7  UNL     1     -36.436  16.269  -5.731  1.00 20.00     0.052 C 
HETATM   11  C4  UNL     1     -36.499  15.787  -7.179  1.00 20.00     0.009 C 
ENDBRANCH   6  10
ENDBRANCH   4   6
ENDBRANCH   3   4
TORSDOF 3
ENDMDL
MODEL 9
REMARK VINA RESULT:      -3.9      0.807      4.051
REMARK  3 active torsions:
REMARK  status: ('A' for Active; 'I' for Inactive)
REMARK    1  A    between atoms: C6_6  and  N10_10 
REMARK    2  A    between atoms: C7_7  and  C8_8 
REMARK    3  A    between atoms: C8_8  and  N10_10 
ROOT
HETATM    1  C1  UNL     1     -34.420   4.073   4.662  1.00 20.00     0.013 C 
HETATM    2  C2  UNL     1     -34.168   4.842   3.775  1.00 20.00    -0.087 C 
HETATM    3  C6  UNL     1     -33.867   5.780   2.690  1.00 20.00     0.364 C 
ENDROOT
BRANCH   3   4
HETATM    4  N10 UNL     1     -32.510   6.299   2.821  1.00 20.00     0.117 N 
HETATM    5  H22 UNL     1     -31.980   5.686   3.443  1.00 20.00     0.319 HD
BRANCH   4   6
HETATM    6  C8  UNL     1     -32.514   7.647   3.354  1.00 20.00     0.241 C 
HETATM    7  C3  UNL     1     -33.100   7.631   4.711  1.00 20.00     0.101 C 
HETATM    8  N9  UNL     1     -33.558   7.618   5.777  1.00 20.00    -0.195 NA
HETATM    9  C5  UNL     1     -31.063   8.140   3.445  1.00 20.00     0.066 C 
BRANCH   6  10
HETATM   10  C7  UNL     1     -33.312   8.593   2.428  1.00 20.00     0.052 C 
HETATM   11  C4  UNL     1     -32.470   9.332   1.390  1.00 20.00     0.009 C 
ENDBRANCH   6  10
ENDBRANCH   4   6
ENDBRANCH   3   4
TORSDOF 3
ENDMDL
