MODEL 1
REMARK VINA RESULT:      -5.8      0.000      0.000
REMARK  1 active torsions:
REMARK  status: ('A' for Active; 'I' for Inactive)
REMARK    1  A    between atoms: C3_3  and  C8_8 
ROOT
HETATM    1  C1  UNL     1     -32.184   9.177   1.267  1.00 20.00     0.087 C 
HETATM    2  C2  UNL     1     -32.193   8.283   2.371  1.00 20.00     0.090 C 
HETATM    3  C3  UNL     1     -33.155   7.363   2.523  1.00 20.00    -0.011 C 
HETATM    4  N9  UNL     1     -32.174   9.909   0.367  1.00 20.00    -0.192 NA
ENDROOT
BRANCH   3   5
HETATM    5  C8  UNL     1     -33.210   6.388   3.682  1.00 20.00     0.013 C 
HETATM    6  C4  UNL     1     -33.965   7.050   4.829  1.00 20.00     0.035 C 
HETATM    7  C6  UNL     1     -34.262   6.034   5.925  1.00 20.00     0.168 C 
HETATM    8  O10 UNL     1     -34.978   4.916   5.397  1.00 20.00    -0.391 OA
HETATM    9  C7  UNL     1     -34.232   4.220   4.399  1.00 20.00     0.168 C 
HETATM   10  C5  UNL     1     -33.934   5.131   3.215  1.00 20.00     0.035 C 
ENDBRANCH   3   5
TORSDOF 1
ENDMDL
MODEL 2
REMARK VINA RESULT:      -4.6     11.290     11.872
REMARK  1 active torsions:
REMARK  status: ('A' for Active; 'I' for Inactive)
REMARK    1  A    between atoms: C3_3  and  C8_8 
ROOT
HETATM    1  C1  UNL     1     -35.394  13.836  -4.729  1.00 20.00     0.087 C 
HETATM    2  C2  UNL     1     -34.847  14.990  -4.109  1.00 20.00     0.090 C 
HETATM    3  C3  UNL     1     -35.564  15.740  -3.261  1.00 20.00    -0.011 C 
HETATM    4  N9  UNL     1     -35.837  12.892  -5.237  1.00 20.00    -0.192 NA
ENDROOT
BRANCH   3   5
HETATM    5  C8  UNL     1     -35.028  16.980  -2.574  1.00 20.00     0.013 C 
HETATM    6  C4  UNL     1     -35.519  16.978  -1.131  1.00 20.00     0.035 C 
HETATM    7  C6  UNL     1     -34.815  18.067  -0.330  1.00 20.00     0.168 C 
HETATM    8  O10 UNL     1     -33.397  17.914  -0.406  1.00 20.00    -0.391 OA
HETATM    9  C7  UNL     1     -32.913  18.027  -1.744  1.00 20.00     0.168 C 
HETATM   10  C5  UNL     1     -33.506  16.935  -2.626  1.00 20.00     0.035 C 
ENDBRANCH   3   5
TORSDOF 1
ENDMDL
MODEL 3
REMARK VINA RESULT:      -4.4     11.225     11.873
REMARK  1 active torsions:
REMARK  status: ('A' for Active; 'I' for Inactive)
REMARK    1  A    between atoms: C3_3  and  C8_8 
ROOT
HETATM    1  C1  UNL     1     -34.443  14.568  -4.144  1.00 20.00     0.087 C 
HETATM    2  C2  UNL     1     -34.086  15.714  -3.383  1.00 20.00     0.090 C 
HETATM    3  C3  UNL     1     -34.958  16.311  -2.561  1.00 20.00    -0.011 C 
HETATM    4  N9  UNL     1     -34.731  13.632  -4.766  1.00 20.00    -0.192 NA
ENDROOT
BRANCH   3   5
HETATM    5  C8  UNL     1     -34.628  17.534  -1.730  1.00 20.00     0.013 C 
HETATM    6  C4  UNL     1     -35.260  17.362  -0.353  1.00 20.00     0.035 C 
HETATM    7  C6  UNL     1     -34.759  18.442   0.599  1.00 20.00     0.168 C 
HETATM    8  O10 UNL     1     -33.332  18.433   0.668  1.00 20.00    -0.391 OA
HETATM    9  C7  UNL     1     -32.729  18.706  -0.597  1.00 20.00     0.168 C 
HETATM   10  C5  UNL     1     -33.112  17.641  -1.618  1.00 20.00     0.035 C 
ENDBRANCH   3   5
TORSDOF 1
ENDMDL
MODEL 4
REMARK VINA RESULT:      -4.3     11.155     11.920
REMARK  1 active torsions:
REMARK  status: ('A' for Active; 'I' for Inactive)
REMARK    1  A    between atoms: C3_3  and  C8_8 
ROOT
HETATM    1  C1  UNL     1     -32.939  17.933  -1.911  1.00 20.00     0.087 C 
HETATM    2  C2  UNL     1     -33.775  17.471  -2.962  1.00 20.00     0.090 C 
HETATM    3  C3  UNL     1     -34.174  16.193  -3.034  1.00 20.00    -0.011 C 
HETATM    4  N9  UNL     1     -32.257  18.314  -1.053  1.00 20.00    -0.192 NA
ENDROOT
BRANCH   3   5
HETATM    5  C8  UNL     1     -35.063  15.651  -4.134  1.00 20.00     0.013 C 
HETATM    6  C4  UNL     1     -34.791  14.158  -4.277  1.00 20.00     0.035 C 
HETATM    7  C6  UNL     1     -35.825  13.515  -5.194  1.00 20.00     0.168 C 
HETATM    8  O10 UNL     1     -37.148  13.768  -4.719  1.00 20.00    -0.391 OA
HETATM    9  C7  UNL     1     -37.454  15.162  -4.689  1.00 20.00     0.168 C 
HETATM   10  C5  UNL     1     -36.515  15.899  -3.742  1.00 20.00     0.035 C 
ENDBRANCH   3   5
TORSDOF 1
ENDMDL
MODEL 5
REMARK VINA RESULT:      -4.3     11.408     12.277
REMARK  1 active torsions:
REMARK  status: ('A' for Active; 'I' for Inactive)
REMARK    1  A    between atoms: C3_3  and  C8_8 
ROOT
HETATM    1  C1  UNL     1     -32.880  17.750  -1.681  1.00 20.00     0.087 C 
HETATM    2  C2  UNL     1     -33.670  16.902  -2.503  1.00 20.00     0.090 C 
HETATM    3  C3  UNL     1     -33.564  16.922  -3.838  1.00 20.00    -0.011 C 
HETATM    4  N9  UNL     1     -32.237  18.440  -1.006  1.00 20.00    -0.192 NA
ENDROOT
BRANCH   3   5
HETATM    5  C8  UNL     1     -34.383  16.039  -4.759  1.00 20.00     0.013 C 
HETATM    6  C4  UNL     1     -33.510  15.647  -5.946  1.00 20.00     0.035 C 
HETATM    7  C6  UNL     1     -34.197  14.569  -6.776  1.00 20.00     0.168 C 
HETATM    8  O10 UNL     1     -34.525  13.439  -5.965  1.00 20.00    -0.391 OA
HETATM    9  C7  UNL     1     -35.433  13.774  -4.916  1.00 20.00     0.168 C 
HETATM   10  C5  UNL     1     -34.817  14.805  -3.978  1.00 20.00     0.035 C 
ENDBRANCH   3   5
TORSDOF 1
ENDMDL
MODEL 6
REMARK VINA RESULT:      -4.2     11.601     12.525
REMARK  1 active torsions:
REMARK  status: ('A' for Active; 'I' for Inactive)
REMARK    1  A    between atoms: C3_3  and  C8_8 
ROOT
HETATM    1  C1  UNL     1     -35.606  13.823  -4.820  1.00 20.00     0.087 C 
HETATM    2  C2  UNL     1     -35.295  15.029  -4.138  1.00 20.00     0.090 C 
HETATM    3  C3  UNL     1     -34.068  15.269  -3.658  1.00 20.00    -0.011 C 
HETATM    4  N9  UNL     1     -35.864  12.838  -5.377  1.00 20.00    -0.192 NA
ENDROOT
BRANCH   3   5
HETATM    5  C8  UNL     1     -33.685  16.539  -2.924  1.00 20.00     0.013 C 
HETATM    6  C4  UNL     1     -33.614  17.675  -3.938  1.00 20.00     0.035 C 
HETATM    7  C6  UNL     1     -33.474  19.014  -3.225  1.00 20.00     0.168 C 
HETATM    8  O10 UNL     1     -34.539  19.204  -2.292  1.00 20.00    -0.391 OA
HETATM    9  C7  UNL     1     -34.547  18.208  -1.271  1.00 20.00     0.168 C 
HETATM   10  C5  UNL     1     -34.750  16.822  -1.871  1.00 20.00     0.035 C 
ENDBRANCH   3   5
TORSDOF 1
ENDMDL
MODEL 7
REMARK VINA RESULT:      -4.2     11.456     11.837
REMARK  1 active torsions:
REMARK  status: ('A' for Active; 'I' for Inactive)
REMARK    1  A    between atoms: C3_3  and  C8_8 
ROOT
HETATM    1  C1  UNL     1     -33.043  17.859  -1.539  1.00 20.00     0.087 C 
HETATM    2  C2  UNL     1     -34.105  16.977  -1.871  1.00 20.00     0.090 C 
HETATM    3  C3  UNL     1     -34.060  16.199  -2.961  1.00 20.00    -0.011 C 
HETATM    4  N9  UNL     1     -32.176  18.580  -1.265  1.00 20.00    -0.192 NA
ENDROOT
BRANCH   3   5
HETATM    5  C8  UNL     1     -35.166  15.243  -3.358  1.00 20.00     0.013 C 
HETATM    6  C4  UNL     1     -36.377  16.064  -3.786  1.00 20.00     0.035 C 
HETATM    7  C6  UNL     1     -37.429  15.164  -4.424  1.00 20.00     0.168 C 
HETATM    8  O10 UNL     1     -36.873  14.433  -5.519  1.00 20.00    -0.391 OA
HETATM    9  C7  UNL     1     -35.809  13.574  -5.109  1.00 20.00     0.168 C 
HETATM   10  C5  UNL     1     -34.663  14.382  -4.511  1.00 20.00     0.035 C 
ENDBRANCH   3   5
TORSDOF 1
ENDMDL
MODEL 8
REMARK VINA RESULT:      -4.1     11.541     11.921
REMARK  1 active torsions:
REMARK  status: ('A' for Active; 'I' for Inactive)
REMARK    1  A    between atoms: C3_3  and  C8_8 
ROOT
HETATM    1  C1  UNL     1     -35.478  17.350  -0.217  1.00 20.00     0.087 C 
HETATM    2  C2  UNL     1     -34.901  16.961  -1.455  1.00 20.00     0.090 C 
HETATM    3  C3  UNL     1     -35.653  16.535  -2.478  1.00 20.00    -0.011 C 
HETATM    4  N9  UNL     1     -35.946  17.669   0.796  1.00 20.00    -0.192 NA
ENDROOT
BRANCH   3   5
HETATM    5  C8  UNL     1     -35.087  16.108  -3.817  1.00 20.00     0.013 C 
HETATM    6  C4  UNL     1     -33.607  15.792  -3.632  1.00 20.00     0.035 C 
HETATM    7  C6  UNL     1     -33.046  15.127  -4.884  1.00 20.00     0.168 C 
HETATM    8  O10 UNL     1     -33.799  13.959  -5.217  1.00 20.00    -0.391 OA
HETATM    9  C7  UNL     1     -35.164  14.261  -5.504  1.00 20.00     0.168 C 
HETATM   10  C5  UNL     1     -35.848  14.874  -4.288  1.00 20.00     0.035 C 
ENDBRANCH   3   5
TORSDOF 1
ENDMDL
MODEL 9
REMARK VINA RESULT:      -4.0     11.671     12.483
REMARK  1 active torsions:
REMARK  status: ('A' for Active; 'I' for Inactive)
REMARK    1  A    between atoms: C3_3  and  C8_8 
ROOT
HETATM    1  C1  UNL     1     -35.455  17.320  -0.621  1.00 20.00     0.087 C 
HETATM    2  C2  UNL     1     -35.167  16.600  -1.812  1.00 20.00     0.090 C 
HETATM    3  C3  UNL     1     -33.980  16.701  -2.425  1.00 20.00    -0.011 C 
HETATM    4  N9  UNL     1     -35.693  17.906   0.351  1.00 20.00    -0.192 NA
ENDROOT
BRANCH   3   5
HETATM    5  C8  UNL     1     -33.624  15.955  -3.695  1.00 20.00     0.013 C 
HETATM    6  C4  UNL     1     -34.729  14.946  -3.984  1.00 20.00     0.035 C 
HETATM    7  C6  UNL     1     -34.547  14.342  -5.371  1.00 20.00     0.168 C 
HETATM    8  O10 UNL     1     -34.494  15.367  -6.366  1.00 20.00    -0.391 OA
HETATM    9  C7  UNL     1     -33.393  16.253  -6.169  1.00 20.00     0.168 C 
HETATM   10  C5  UNL     1     -33.508  16.968  -4.828  1.00 20.00     0.035 C 
ENDBRANCH   3   5
TORSDOF 1
ENDMDL
