MODEL 1
REMARK VINA RESULT:      -5.6      0.000      0.000
REMARK  3 active torsions:
REMARK  status: ('A' for Active; 'I' for Inactive)
REMARK    1  A    between atoms: C2_2  and  C9_9 
REMARK    2  A    between atoms: C6_6  and  C9_9 
REMARK    3  A    between atoms: C7_7  and  O10_10 
ROOT
HETATM    1  C3  UNL     1     -34.088   6.979   5.945  1.00 20.00     0.003 C 
HETATM    2  C4  UNL     1     -34.545   7.415   4.553  1.00 20.00     0.008 C 
HETATM    3  C5  UNL     1     -34.196   5.455   5.976  1.00 20.00     0.032 C 
HETATM    4  C6  UNL     1     -34.418   6.167   3.679  1.00 20.00     0.022 C 
HETATM    5  C7  UNL     1     -34.842   5.063   4.651  1.00 20.00     0.122 C 
ENDROOT
BRANCH   4   6
HETATM    6  C9  UNL     1     -33.003   5.997   3.123  1.00 20.00     0.010 C 
HETATM    7  C8  UNL     1     -32.958   4.864   2.093  1.00 20.00     0.014 C 
BRANCH   6   8
HETATM    8  C2  UNL     1     -32.523   7.284   2.496  1.00 20.00    -0.032 C 
HETATM    9  C1  UNL     1     -31.609   8.090   3.046  1.00 20.00     0.007 C 
ENDBRANCH   6   8
ENDBRANCH   4   6
BRANCH   5  10
HETATM   10  O10 UNL     1     -34.434   3.771   4.249  1.00 20.00    -0.395 OA
HETATM   11  H26 UNL     1     -33.513   3.848   3.954  1.00 20.00     0.210 HD
ENDBRANCH   5  10
TORSDOF 3
ENDMDL
MODEL 2
REMARK VINA RESULT:      -5.2      1.285      2.416
REMARK  3 active torsions:
REMARK  status: ('A' for Active; 'I' for Inactive)
REMARK    1  A    between atoms: C2_2  and  C9_9 
REMARK    2  A    between atoms: C6_6  and  C9_9 
REMARK    3  A    between atoms: C7_7  and  O10_10 
ROOT
HETATM    1  C3  UNL     1     -35.060   4.780   4.882  1.00 20.00     0.003 C 
HETATM    2  C4  UNL     1     -35.366   5.920   3.911  1.00 20.00     0.008 C 
HETATM    3  C5  UNL     1     -33.934   3.964   4.247  1.00 20.00     0.032 C 
HETATM    4  C6  UNL     1     -34.124   6.040   3.027  1.00 20.00     0.022 C 
HETATM    5  C7  UNL     1     -33.715   4.573   2.866  1.00 20.00     0.122 C 
ENDROOT
BRANCH   4   6
HETATM    6  C9  UNL     1     -33.049   6.920   3.666  1.00 20.00     0.010 C 
HETATM    7  C8  UNL     1     -32.404   7.834   2.619  1.00 20.00     0.014 C 
BRANCH   6   8
HETATM    8  C2  UNL     1     -33.637   7.749   4.782  1.00 20.00    -0.032 C 
HETATM    9  C1  UNL     1     -33.353   7.572   6.077  1.00 20.00     0.007 C 
ENDBRANCH   6   8
ENDBRANCH   4   6
BRANCH   5  10
HETATM   10  O10 UNL     1     -32.377   4.406   2.442  1.00 20.00    -0.395 OA
HETATM   11  H26 UNL     1     -32.346   4.667   1.508  1.00 20.00     0.210 HD
ENDBRANCH   5  10
TORSDOF 3
ENDMDL
MODEL 3
REMARK VINA RESULT:      -4.8      1.869      3.956
REMARK  3 active torsions:
REMARK  status: ('A' for Active; 'I' for Inactive)
REMARK    1  A    between atoms: C2_2  and  C9_9 
REMARK    2  A    between atoms: C6_6  and  C9_9 
REMARK    3  A    between atoms: C7_7  and  O10_10 
ROOT
HETATM    1  C3  UNL     1     -33.658   5.495   2.347  1.00 20.00     0.003 C 
HETATM    2  C4  UNL     1     -34.749   6.337   3.008  1.00 20.00     0.008 C 
HETATM    3  C5  UNL     1     -32.363   6.297   2.465  1.00 20.00     0.032 C 
HETATM    4  C6  UNL     1     -34.005   7.323   3.910  1.00 20.00     0.022 C 
HETATM    5  C7  UNL     1     -32.766   7.639   3.068  1.00 20.00     0.122 C 
ENDROOT
BRANCH   4   6
HETATM    6  C9  UNL     1     -33.689   6.720   5.280  1.00 20.00     0.010 C 
HETATM    7  C8  UNL     1     -33.665   7.807   6.358  1.00 20.00     0.014 C 
BRANCH   6   8
HETATM    8  C2  UNL     1     -34.703   5.660   5.639  1.00 20.00    -0.032 C 
HETATM    9  C1  UNL     1     -34.460   4.346   5.598  1.00 20.00     0.007 C 
ENDBRANCH   6   8
ENDBRANCH   4   6
BRANCH   5  10
HETATM   10  O10 UNL     1     -31.706   8.201   3.815  1.00 20.00    -0.395 OA
HETATM   11  H26 UNL     1     -31.548   9.087   3.454  1.00 20.00     0.210 HD
ENDBRANCH   5  10
TORSDOF 3
ENDMDL
MODEL 4
REMARK VINA RESULT:      -4.6     11.757     12.735
REMARK  3 active torsions:
REMARK  status: ('A' for Active; 'I' for Inactive)
REMARK    1  A    between atoms: C2_2  and  C9_9 
REMARK    2  A    between atoms: C6_6  and  C9_9 
REMARK    3  A    between atoms: C7_7  and  O10_10 
ROOT
HETATM    1  C3  UNL     1     -37.332  15.986  -5.117  1.00 20.00     0.003 C 
HETATM    2  C4  UNL     1     -35.958  16.214  -5.747  1.00 20.00     0.008 C 
HETATM    3  C5  UNL     1     -37.496  14.473  -4.976  1.00 20.00     0.032 C 
HETATM    4  C6  UNL     1     -35.180  14.923  -5.491  1.00 20.00     0.022 C 
HETATM    5  C7  UNL     1     -36.273  13.863  -5.654  1.00 20.00     0.122 C 
ENDROOT
BRANCH   4   6
HETATM    6  C9  UNL     1     -34.510  14.920  -4.116  1.00 20.00     0.010 C 
HETATM    7  C8  UNL     1     -33.081  14.377  -4.210  1.00 20.00     0.014 C 
BRANCH   6   8
HETATM    8  C2  UNL     1     -34.496  16.312  -3.530  1.00 20.00    -0.032 C 
HETATM    9  C1  UNL     1     -34.669  16.580  -2.232  1.00 20.00     0.007 C 
ENDBRANCH   6   8
ENDBRANCH   4   6
BRANCH   5  10
HETATM   10  O10 UNL     1     -35.940  12.617  -5.077  1.00 20.00    -0.395 OA
HETATM   11  H26 UNL     1     -35.200  12.260  -5.592  1.00 20.00     0.210 HD
ENDBRANCH   5  10
TORSDOF 3
ENDMDL
MODEL 5
REMARK VINA RESULT:      -4.4      1.766      3.339
REMARK  3 active torsions:
REMARK  status: ('A' for Active; 'I' for Inactive)
REMARK    1  A    between atoms: C2_2  and  C9_9 
REMARK    2  A    between atoms: C6_6  and  C9_9 
REMARK    3  A    between atoms: C7_7  and  O10_10 
ROOT
HETATM    1  C3  UNL     1     -31.900   7.939   2.522  1.00 20.00     0.003 C 
HETATM    2  C4  UNL     1     -33.408   7.723   2.394  1.00 20.00     0.008 C 
HETATM    3  C5  UNL     1     -31.613   8.103   4.014  1.00 20.00     0.032 C 
HETATM    4  C6  UNL     1     -33.868   7.269   3.780  1.00 20.00     0.022 C 
HETATM    5  C7  UNL     1     -32.978   8.115   4.695  1.00 20.00     0.122 C 
ENDROOT
BRANCH   4   6
HETATM    6  C9  UNL     1     -33.703   5.760   3.973  1.00 20.00     0.010 C 
HETATM    7  C8  UNL     1     -34.852   5.192   4.810  1.00 20.00     0.014 C 
BRANCH   6   8
HETATM    8  C2  UNL     1     -33.642   5.059   2.637  1.00 20.00    -0.032 C 
HETATM    9  C1  UNL     1     -32.720   4.146   2.312  1.00 20.00     0.007 C 
ENDBRANCH   6   8
ENDBRANCH   4   6
BRANCH   5  10
HETATM   10  O10 UNL     1     -32.893   7.617   6.015  1.00 20.00    -0.395 OA
HETATM   11  H26 UNL     1     -32.402   6.781   5.966  1.00 20.00     0.210 HD
ENDBRANCH   5  10
TORSDOF 3
ENDMDL
MODEL 6
REMARK VINA RESULT:      -4.4      1.705      2.805
REMARK  3 active torsions:
REMARK  status: ('A' for Active; 'I' for Inactive)
REMARK    1  A    between atoms: C2_2  and  C9_9 
REMARK    2  A    between atoms: C6_6  and  C9_9 
REMARK    3  A    between atoms: C7_7  and  O10_10 
ROOT
HETATM    1  C3  UNL     1     -34.793   5.760   2.670  1.00 20.00     0.003 C 
HETATM    2  C4  UNL     1     -33.273   5.615   2.590  1.00 20.00     0.008 C 
HETATM    3  C5  UNL     1     -35.100   6.312   4.061  1.00 20.00     0.032 C 
HETATM    4  C6  UNL     1     -32.724   6.529   3.686  1.00 20.00     0.022 C 
HETATM    5  C7  UNL     1     -33.763   6.342   4.795  1.00 20.00     0.122 C 
ENDROOT
BRANCH   4   6
HETATM    6  C9  UNL     1     -32.577   7.974   3.208  1.00 20.00     0.010 C 
HETATM    7  C8  UNL     1     -31.342   8.629   3.835  1.00 20.00     0.014 C 
BRANCH   6   8
HETATM    8  C2  UNL     1     -32.480   8.027   1.702  1.00 20.00    -0.032 C 
HETATM    9  C1  UNL     1     -32.081   9.102   1.014  1.00 20.00     0.007 C 
ENDBRANCH   6   8
ENDBRANCH   4   6
BRANCH   5  10
HETATM   10  O10 UNL     1     -33.739   7.367   5.768  1.00 20.00    -0.395 OA
HETATM   11  H26 UNL     1     -34.364   7.108   6.462  1.00 20.00     0.210 HD
ENDBRANCH   5  10
TORSDOF 3
ENDMDL
MODEL 7
REMARK VINA RESULT:      -4.4     11.976     13.478
REMARK  3 active torsions:
REMARK  status: ('A' for Active; 'I' for Inactive)
REMARK    1  A    between atoms: C2_2  and  C9_9 
REMARK    2  A    between atoms: C6_6  and  C9_9 
REMARK    3  A    between atoms: C7_7  and  O10_10 
ROOT
HETATM    1  C3  UNL     1     -35.933  15.274  -7.706  1.00 20.00     0.003 C 
HETATM    2  C4  UNL     1     -34.468  14.840  -7.711  1.00 20.00     0.008 C 
HETATM    3  C5  UNL     1     -36.660  14.327  -6.752  1.00 20.00     0.032 C 
HETATM    4  C6  UNL     1     -34.286  14.026  -6.429  1.00 20.00     0.022 C 
HETATM    5  C7  UNL     1     -35.624  13.288  -6.338  1.00 20.00     0.122 C 
ENDROOT
BRANCH   4   6
HETATM    6  C9  UNL     1     -33.982  14.916  -5.223  1.00 20.00     0.010 C 
HETATM    7  C8  UNL     1     -33.016  14.216  -4.262  1.00 20.00     0.014 C 
BRANCH   6   8
HETATM    8  C2  UNL     1     -33.400  16.235  -5.670  1.00 20.00    -0.032 C 
HETATM    9  C1  UNL     1     -33.679  17.410  -5.097  1.00 20.00     0.007 C 
ENDBRANCH   6   8
ENDBRANCH   4   6
BRANCH   5  10
HETATM   10  O10 UNL     1     -35.900  12.780  -5.048  1.00 20.00    -0.395 OA
HETATM   11  H26 UNL     1     -35.111  12.944  -4.509  1.00 20.00     0.210 HD
ENDBRANCH   5  10
TORSDOF 3
ENDMDL
MODEL 8
REMARK VINA RESULT:      -4.3     12.225     13.137
REMARK  3 active torsions:
REMARK  status: ('A' for Active; 'I' for Inactive)
REMARK    1  A    between atoms: C2_2  and  C9_9 
REMARK    2  A    between atoms: C6_6  and  C9_9 
REMARK    3  A    between atoms: C7_7  and  O10_10 
ROOT
HETATM    1  C3  UNL     1     -33.995  16.436  -5.261  1.00 20.00     0.003 C 
HETATM    2  C4  UNL     1     -33.513  15.765  -3.975  1.00 20.00     0.008 C 
HETATM    3  C5  UNL     1     -35.520  16.478  -5.179  1.00 20.00     0.032 C 
HETATM    4  C6  UNL     1     -34.677  15.896  -2.992  1.00 20.00     0.022 C 
HETATM    5  C7  UNL     1     -35.884  15.707  -3.914  1.00 20.00     0.122 C 
ENDROOT
BRANCH   4   6
HETATM    6  C9  UNL     1     -34.658  17.238  -2.257  1.00 20.00     0.010 C 
HETATM    7  C8  UNL     1     -35.254  17.095  -0.853  1.00 20.00     0.014 C 
BRANCH   6   8
HETATM    8  C2  UNL     1     -33.249  17.773  -2.168  1.00 20.00    -0.032 C 
HETATM    9  C1  UNL     1     -32.679  18.196  -1.034  1.00 20.00     0.007 C 
ENDBRANCH   6   8
ENDBRANCH   4   6
BRANCH   5  10
HETATM   10  O10 UNL     1     -37.095  16.181  -3.360  1.00 20.00    -0.395 OA
HETATM   11  H26 UNL     1     -37.766  16.113  -4.057  1.00 20.00     0.210 HD
ENDBRANCH   5  10
TORSDOF 3
ENDMDL
MODEL 9
REMARK VINA RESULT:      -4.2     12.046     13.303
REMARK  3 active torsions:
REMARK  status: ('A' for Active; 'I' for Inactive)
REMARK    1  A    between atoms: C2_2  and  C9_9 
REMARK    2  A    between atoms: C6_6  and  C9_9 
REMARK    3  A    between atoms: C7_7  and  O10_10 
ROOT
HETATM    1  C3  UNL     1     -34.627  15.756  -3.417  1.00 20.00     0.003 C 
HETATM    2  C4  UNL     1     -34.150  14.377  -3.874  1.00 20.00     0.008 C 
HETATM    3  C5  UNL     1     -34.116  16.754  -4.456  1.00 20.00     0.032 C 
HETATM    4  C6  UNL     1     -33.836  14.533  -5.362  1.00 20.00     0.022 C 
HETATM    5  C7  UNL     1     -33.242  15.944  -5.408  1.00 20.00     0.122 C 
ENDROOT
BRANCH   4   6
HETATM    6  C9  UNL     1     -35.080  14.353  -6.233  1.00 20.00     0.010 C 
HETATM    7  C8  UNL     1     -34.752  13.530  -7.483  1.00 20.00     0.014 C 
BRANCH   6   8
HETATM    8  C2  UNL     1     -36.183  13.683  -5.449  1.00 20.00    -0.032 C 
HETATM    9  C1  UNL     1     -37.435  14.147  -5.370  1.00 20.00     0.007 C 
ENDBRANCH   6   8
ENDBRANCH   4   6
BRANCH   5  10
HETATM   10  O10 UNL     1     -33.239  16.511  -6.703  1.00 20.00    -0.395 OA
HETATM   11  H26 UNL     1     -32.844  15.853  -7.295  1.00 20.00     0.210 HD
ENDBRANCH   5  10
TORSDOF 3
ENDMDL
