MODEL 1
REMARK VINA RESULT:      -4.4      0.000      0.000
REMARK  1 active torsions:
REMARK  status: ('A' for Active; 'I' for Inactive)
REMARK    1  A    between atoms: C1_1  and  C6_6 
ROOT
HETATM    1  C2  UNL     1     -33.098   6.273   2.109  1.00 20.00     0.021 C 
HETATM    2  C3  UNL     1     -31.560   7.987   3.307  1.00 20.00     0.027 A 
HETATM    3  C4  UNL     1     -33.358   5.073   3.000  1.00 20.00     0.075 C 
HETATM    4  C5  UNL     1     -33.959   7.438   4.140  1.00 20.00     0.084 C 
HETATM    5  C6  UNL     1     -32.511   8.817   2.483  1.00 20.00     0.097 A 
HETATM    6  C7  UNL     1     -32.949   7.464   3.022  1.00 20.00    -0.017 A 
HETATM    7  S10 UNL     1     -34.485   5.698   4.269  1.00 20.00    -0.168 SA
ENDROOT
BRANCH   5   8
HETATM    8  C1  UNL     1     -32.232   8.951   1.066  1.00 20.00     0.177 C 
HETATM    9  O8  UNL     1     -31.083   8.577   0.704  1.00 20.00    -0.648 OA
HETATM   10  O9  UNL     1     -33.183   9.427   0.383  1.00 20.00    -0.648 OA
ENDBRANCH   5   8
TORSDOF 1
ENDMDL
MODEL 2
REMARK VINA RESULT:      -4.3     10.627     11.524
REMARK  1 active torsions:
REMARK  status: ('A' for Active; 'I' for Inactive)
REMARK    1  A    between atoms: C1_1  and  C6_6 
ROOT
HETATM    1  C2  UNL     1     -34.750  15.491  -3.640  1.00 20.00     0.021 C 
HETATM    2  C3  UNL     1     -34.312  14.709  -6.075  1.00 20.00     0.027 A 
HETATM    3  C4  UNL     1     -33.664  16.445  -3.180  1.00 20.00     0.075 C 
HETATM    4  C5  UNL     1     -34.868  17.175  -5.476  1.00 20.00     0.084 C 
HETATM    5  C6  UNL     1     -35.811  14.803  -5.954  1.00 20.00     0.097 A 
HETATM    6  C7  UNL     1     -34.920  15.711  -5.122  1.00 20.00    -0.017 A 
HETATM    7  S10 UNL     1     -34.005  17.974  -4.085  1.00 20.00    -0.168 SA
ENDROOT
BRANCH   5   8
HETATM    8  C1  UNL     1     -36.504  13.709  -5.301  1.00 20.00     0.177 C 
HETATM    9  O8  UNL     1     -37.664  13.977  -4.884  1.00 20.00    -0.648 OA
HETATM   10  O9  UNL     1     -35.848  12.630  -5.238  1.00 20.00    -0.648 OA
ENDBRANCH   5   8
TORSDOF 1
ENDMDL
MODEL 3
REMARK VINA RESULT:      -4.0      3.456      4.382
REMARK  1 active torsions:
REMARK  status: ('A' for Active; 'I' for Inactive)
REMARK    1  A    between atoms: C1_1  and  C6_6 
ROOT
HETATM    1  C2  UNL     1     -32.264   7.608   4.003  1.00 20.00     0.021 C 
HETATM    2  C3  UNL     1     -33.278   5.471   2.936  1.00 20.00     0.027 A 
HETATM    3  C4  UNL     1     -31.253   8.245   3.068  1.00 20.00     0.075 C 
HETATM    4  C5  UNL     1     -33.675   7.846   1.960  1.00 20.00     0.084 C 
HETATM    5  C6  UNL     1     -34.401   6.089   3.729  1.00 20.00     0.097 A 
HETATM    6  C7  UNL     1     -33.315   6.969   3.132  1.00 20.00    -0.017 A 
HETATM    7  S10 UNL     1     -32.262   8.977   1.756  1.00 20.00    -0.168 SA
ENDROOT
BRANCH   5   8
HETATM    8  C1  UNL     1     -34.415   5.866   5.162  1.00 20.00     0.177 C 
HETATM    9  O8  UNL     1     -34.380   6.909   5.871  1.00 20.00    -0.648 OA
HETATM   10  O9  UNL     1     -34.462   4.652   5.508  1.00 20.00    -0.648 OA
ENDBRANCH   5   8
TORSDOF 1
ENDMDL
MODEL 4
REMARK VINA RESULT:      -4.0     10.205     11.088
REMARK  1 active torsions:
REMARK  status: ('A' for Active; 'I' for Inactive)
REMARK    1  A    between atoms: C1_1  and  C6_6 
ROOT
HETATM    1  C2  UNL     1     -35.246  15.811  -3.398  1.00 20.00     0.021 C 
HETATM    2  C3  UNL     1     -33.434  14.292  -4.466  1.00 20.00     0.027 A 
HETATM    3  C4  UNL     1     -34.642  16.686  -2.316  1.00 20.00     0.075 C 
HETATM    4  C5  UNL     1     -33.407  16.878  -4.702  1.00 20.00     0.084 C 
HETATM    5  C6  UNL     1     -34.374  14.638  -5.592  1.00 20.00     0.097 A 
HETATM    6  C7  UNL     1     -34.175  15.608  -4.439  1.00 20.00    -0.017 A 
HETATM    7  S10 UNL     1     -33.675  17.914  -3.227  1.00 20.00    -0.168 SA
ENDROOT
BRANCH   5   8
HETATM    8  C1  UNL     1     -35.619  13.900  -5.682  1.00 20.00     0.177 C 
HETATM    9  O8  UNL     1     -35.625  12.779  -5.104  1.00 20.00    -0.648 OA
HETATM   10  O9  UNL     1     -36.533  14.483  -6.330  1.00 20.00    -0.648 OA
ENDBRANCH   5   8
TORSDOF 1
ENDMDL
MODEL 5
REMARK VINA RESULT:      -3.9     10.283     11.081
REMARK  1 active torsions:
REMARK  status: ('A' for Active; 'I' for Inactive)
REMARK    1  A    between atoms: C1_1  and  C6_6 
ROOT
HETATM    1  C2  UNL     1     -34.197  15.335  -3.751  1.00 20.00     0.021 C 
HETATM    2  C3  UNL     1     -35.606  16.222  -5.741  1.00 20.00     0.027 A 
HETATM    3  C4  UNL     1     -33.738  16.479  -2.868  1.00 20.00     0.075 C 
HETATM    4  C5  UNL     1     -36.398  16.405  -3.274  1.00 20.00     0.084 C 
HETATM    5  C6  UNL     1     -36.223  14.895  -5.380  1.00 20.00     0.097 A 
HETATM    6  C7  UNL     1     -35.538  15.734  -4.313  1.00 20.00    -0.017 A 
HETATM    7  S10 UNL     1     -35.238  17.002  -2.003  1.00 20.00    -0.168 SA
ENDROOT
BRANCH   5   8
HETATM    8  C1  UNL     1     -35.566  13.694  -5.859  1.00 20.00     0.177 C 
HETATM    9  O8  UNL     1     -34.782  13.860  -6.833  1.00 20.00    -0.648 OA
HETATM   10  O9  UNL     1     -35.869  12.640  -5.232  1.00 20.00    -0.648 OA
ENDBRANCH   5   8
TORSDOF 1
ENDMDL
MODEL 6
REMARK VINA RESULT:      -3.8      1.559      2.347
REMARK  1 active torsions:
REMARK  status: ('A' for Active; 'I' for Inactive)
REMARK    1  A    between atoms: C1_1  and  C6_6 
ROOT
HETATM    1  C2  UNL     1     -33.682   6.896   4.731  1.00 20.00     0.021 C 
HETATM    2  C3  UNL     1     -34.063   7.059   2.169  1.00 20.00     0.027 A 
HETATM    3  C4  UNL     1     -34.754   6.041   5.378  1.00 20.00     0.075 C 
HETATM    4  C5  UNL     1     -33.456   4.829   3.354  1.00 20.00     0.084 C 
HETATM    5  C6  UNL     1     -32.567   7.051   2.346  1.00 20.00     0.097 A 
HETATM    6  C7  UNL     1     -33.458   6.336   3.349  1.00 20.00    -0.017 A 
HETATM    7  S10 UNL     1     -34.341   4.353   4.874  1.00 20.00    -0.168 SA
ENDROOT
BRANCH   5   8
HETATM    8  C1  UNL     1     -31.928   8.294   2.736  1.00 20.00     0.177 C 
HETATM    9  O8  UNL     1     -31.065   8.193   3.651  1.00 20.00    -0.648 OA
HETATM   10  O9  UNL     1     -32.323   9.313   2.103  1.00 20.00    -0.648 OA
ENDBRANCH   5   8
TORSDOF 1
ENDMDL
MODEL 7
REMARK VINA RESULT:      -3.8     10.803     11.984
REMARK  1 active torsions:
REMARK  status: ('A' for Active; 'I' for Inactive)
REMARK    1  A    between atoms: C1_1  and  C6_6 
ROOT
HETATM    1  C2  UNL     1     -35.887  16.263  -6.334  1.00 20.00     0.021 C 
HETATM    2  C3  UNL     1     -36.008  15.618  -3.823  1.00 20.00     0.027 A 
HETATM    3  C4  UNL     1     -35.719  17.762  -6.494  1.00 20.00     0.075 C 
HETATM    4  C5  UNL     1     -33.869  16.612  -4.910  1.00 20.00     0.084 C 
HETATM    5  C6  UNL     1     -35.285  14.476  -4.490  1.00 20.00     0.097 A 
HETATM    6  C7  UNL     1     -35.179  15.883  -5.058  1.00 20.00    -0.017 A 
HETATM    7  S10 UNL     1     -34.010  18.074  -5.989  1.00 20.00    -0.168 SA
ENDROOT
BRANCH   5   8
HETATM    8  C1  UNL     1     -36.084  13.493  -5.195  1.00 20.00     0.177 C 
HETATM    9  O8  UNL     1     -35.437  12.703  -5.937  1.00 20.00    -0.648 OA
HETATM   10  O9  UNL     1     -37.325  13.560  -4.969  1.00 20.00    -0.648 OA
ENDBRANCH   5   8
TORSDOF 1
ENDMDL
MODEL 8
REMARK VINA RESULT:      -3.6     10.523     12.232
REMARK  1 active torsions:
REMARK  status: ('A' for Active; 'I' for Inactive)
REMARK    1  A    between atoms: C1_1  and  C6_6 
ROOT
HETATM    1  C2  UNL     1     -34.151  15.756  -6.520  1.00 20.00     0.021 C 
HETATM    2  C3  UNL     1     -36.686  15.315  -6.180  1.00 20.00     0.027 A 
HETATM    3  C4  UNL     1     -33.933  16.949  -7.430  1.00 20.00     0.075 C 
HETATM    4  C5  UNL     1     -35.510  17.461  -5.309  1.00 20.00     0.084 C 
HETATM    5  C6  UNL     1     -36.043  14.958  -4.865  1.00 20.00     0.097 A 
HETATM    6  C7  UNL     1     -35.422  16.024  -5.754  1.00 20.00    -0.017 A 
HETATM    7  S10 UNL     1     -34.383  18.374  -6.411  1.00 20.00    -0.168 SA
ENDROOT
BRANCH   5   8
HETATM    8  C1  UNL     1     -35.395  13.665  -4.761  1.00 20.00     0.177 C 
HETATM    9  O8  UNL     1     -35.910  12.745  -5.454  1.00 20.00    -0.648 OA
HETATM   10  O9  UNL     1     -34.396  13.635  -3.988  1.00 20.00    -0.648 OA
ENDBRANCH   5   8
TORSDOF 1
ENDMDL
MODEL 9
REMARK VINA RESULT:      -3.6     10.768     11.708
REMARK  1 active torsions:
REMARK  status: ('A' for Active; 'I' for Inactive)
REMARK    1  A    between atoms: C1_1  and  C6_6 
ROOT
HETATM    1  C2  UNL     1     -35.525  15.577  -4.288  1.00 20.00     0.021 C 
HETATM    2  C3  UNL     1     -35.989  13.284  -5.410  1.00 20.00     0.027 A 
HETATM    3  C4  UNL     1     -34.120  15.619  -3.717  1.00 20.00     0.075 C 
HETATM    4  C5  UNL     1     -34.227  14.958  -6.326  1.00 20.00     0.084 C 
HETATM    5  C6  UNL     1     -36.735  14.291  -6.246  1.00 20.00     0.097 A 
HETATM    6  C7  UNL     1     -35.468  14.698  -5.512  1.00 20.00    -0.017 A 
HETATM    7  S10 UNL     1     -33.053  15.741  -5.173  1.00 20.00    -0.168 SA
ENDROOT
BRANCH   5   8
HETATM    8  C1  UNL     1     -38.015  14.761  -5.752  1.00 20.00     0.177 C 
HETATM    9  O8  UNL     1     -38.545  14.044  -4.859  1.00 20.00    -0.648 OA
HETATM   10  O9  UNL     1     -38.428  15.830  -6.284  1.00 20.00    -0.648 OA
ENDBRANCH   5   8
TORSDOF 1
ENDMDL
