MODEL 1
REMARK VINA RESULT:      -5.4      0.000      0.000
REMARK  1 active torsions:
REMARK  status: ('A' for Active; 'I' for Inactive)
REMARK    1  A    between atoms: C8_8  and  N10_10 
ROOT
HETATM    1  C1  UNL     1     -33.917   6.719   4.846  1.00 20.00     0.130 C 
HETATM    2  C2  UNL     1     -33.073   7.971   4.919  1.00 20.00     0.108 C 
HETATM    3  C3  UNL     1     -34.206   6.184   3.462  1.00 20.00     0.108 C 
HETATM    4  C5  UNL     1     -31.873   7.867   3.981  1.00 20.00     0.280 C 
HETATM    5  C6  UNL     1     -32.939   6.183   2.611  1.00 20.00     0.280 C 
HETATM    6  N10 UNL     1     -32.205   7.454   2.611  1.00 20.00     0.094 N 
HETATM    7  O11 UNL     1     -34.434   6.229   5.849  1.00 20.00    -0.298 OA
ENDROOT
BRANCH   6   8
HETATM    8  C8  UNL     1     -32.901   8.501   1.866  1.00 20.00     0.227 A 
HETATM    9  C4  UNL     1     -32.361   9.906   1.846  1.00 20.00     0.042 A 
HETATM   10  C7  UNL     1     -32.303   9.063   0.602  1.00 20.00     0.017 A 
HETATM   11  C9  UNL     1     -33.176   9.382  -0.561  1.00 20.00     0.012 C 
ENDBRANCH   6   8
TORSDOF 1
ENDMDL
MODEL 2
REMARK VINA RESULT:      -4.4     10.251     10.999
REMARK  1 active torsions:
REMARK  status: ('A' for Active; 'I' for Inactive)
REMARK    1  A    between atoms: C8_8  and  N10_10 
ROOT
HETATM    1  C1  UNL     1     -35.215  13.909  -4.882  1.00 20.00     0.130 C 
HETATM    2  C2  UNL     1     -33.776  14.162  -4.494  1.00 20.00     0.108 C 
HETATM    3  C3  UNL     1     -36.238  14.875  -4.332  1.00 20.00     0.108 C 
HETATM    4  C5  UNL     1     -33.434  15.643  -4.631  1.00 20.00     0.280 C 
HETATM    5  C6  UNL     1     -35.753  16.315  -4.482  1.00 20.00     0.280 C 
HETATM    6  N10 UNL     1     -34.391  16.552  -3.987  1.00 20.00     0.094 N 
HETATM    7  O11 UNL     1     -35.546  12.907  -5.514  1.00 20.00    -0.298 OA
ENDROOT
BRANCH   6   8
HETATM    8  C8  UNL     1     -34.310  16.503  -2.529  1.00 20.00     0.227 A 
HETATM    9  C4  UNL     1     -33.332  17.378  -1.792  1.00 20.00     0.042 A 
HETATM   10  C7  UNL     1     -34.806  17.660  -1.699  1.00 20.00     0.017 A 
HETATM   11  C9  UNL     1     -35.539  17.409  -0.427  1.00 20.00     0.012 C 
ENDBRANCH   6   8
TORSDOF 1
ENDMDL
MODEL 3
REMARK VINA RESULT:      -4.2     10.466     11.628
REMARK  1 active torsions:
REMARK  status: ('A' for Active; 'I' for Inactive)
REMARK    1  A    between atoms: C8_8  and  N10_10 
ROOT
HETATM    1  C1  UNL     1     -34.991  14.990  -6.503  1.00 20.00     0.130 C 
HETATM    2  C2  UNL     1     -35.686  14.658  -5.203  1.00 20.00     0.108 C 
HETATM    3  C3  UNL     1     -33.807  15.925  -6.413  1.00 20.00     0.108 C 
HETATM    4  C5  UNL     1     -34.665  14.335  -4.115  1.00 20.00     0.280 C 
HETATM    5  C6  UNL     1     -32.896  15.526  -5.255  1.00 20.00     0.280 C 
HETATM    6  N10 UNL     1     -33.588  15.325  -3.976  1.00 20.00     0.094 N 
HETATM    7  O11 UNL     1     -35.436  14.612  -7.587  1.00 20.00    -0.298 OA
ENDROOT
BRANCH   6   8
HETATM    8  C8  UNL     1     -34.056  16.579  -3.391  1.00 20.00     0.227 A 
HETATM    9  C4  UNL     1     -34.908  16.568  -2.150  1.00 20.00     0.042 A 
HETATM   10  C7  UNL     1     -33.491  17.067  -2.082  1.00 20.00     0.017 A 
HETATM   11  C9  UNL     1     -33.215  18.516  -1.879  1.00 20.00     0.012 C 
ENDBRANCH   6   8
TORSDOF 1
ENDMDL
MODEL 4
REMARK VINA RESULT:      -4.0     10.683     11.726
REMARK  1 active torsions:
REMARK  status: ('A' for Active; 'I' for Inactive)
REMARK    1  A    between atoms: C8_8  and  N10_10 
ROOT
HETATM    1  C1  UNL     1     -34.114  15.498  -6.518  1.00 20.00     0.130 C 
HETATM    2  C2  UNL     1     -35.515  15.675  -5.980  1.00 20.00     0.108 C 
HETATM    3  C3  UNL     1     -32.988  15.640  -5.520  1.00 20.00     0.108 C 
HETATM    4  C5  UNL     1     -35.688  14.912  -4.669  1.00 20.00     0.280 C 
HETATM    5  C6  UNL     1     -33.309  14.878  -4.237  1.00 20.00     0.280 C 
HETATM    6  N10 UNL     1     -34.636  15.162  -3.675  1.00 20.00     0.094 N 
HETATM    7  O11 UNL     1     -33.897  15.361  -7.721  1.00 20.00    -0.298 OA
ENDROOT
BRANCH   6   8
HETATM    8  C8  UNL     1     -34.722  16.500  -3.096  1.00 20.00     0.227 A 
HETATM    9  C4  UNL     1     -36.031  17.011  -2.555  1.00 20.00     0.042 A 
HETATM   10  C7  UNL     1     -34.909  16.677  -1.611  1.00 20.00     0.017 A 
HETATM   11  C9  UNL     1     -34.188  17.761  -0.889  1.00 20.00     0.012 C 
ENDBRANCH   6   8
TORSDOF 1
ENDMDL
MODEL 5
REMARK VINA RESULT:      -3.9     10.392     11.736
REMARK  1 active torsions:
REMARK  status: ('A' for Active; 'I' for Inactive)
REMARK    1  A    between atoms: C8_8  and  N10_10 
ROOT
HETATM    1  C1  UNL     1     -33.218  18.326  -2.808  1.00 20.00     0.130 C 
HETATM    2  C2  UNL     1     -33.606  17.036  -2.123  1.00 20.00     0.108 C 
HETATM    3  C3  UNL     1     -33.468  18.399  -4.296  1.00 20.00     0.108 C 
HETATM    4  C5  UNL     1     -34.984  16.572  -2.590  1.00 20.00     0.280 C 
HETATM    5  C6  UNL     1     -34.855  17.857  -4.635  1.00 20.00     0.280 C 
HETATM    6  N10 UNL     1     -35.156  16.545  -4.048  1.00 20.00     0.094 N 
HETATM    7  O11 UNL     1     -32.626  19.223  -2.207  1.00 20.00    -0.298 OA
ENDROOT
BRANCH   6   8
HETATM    8  C8  UNL     1     -34.401  15.465  -4.679  1.00 20.00     0.227 A 
HETATM    9  C4  UNL     1     -34.508  14.057  -4.156  1.00 20.00     0.042 A 
HETATM   10  C7  UNL     1     -35.111  14.411  -5.488  1.00 20.00     0.017 A 
HETATM   11  C9  UNL     1     -34.502  13.897  -6.746  1.00 20.00     0.012 C 
ENDBRANCH   6   8
TORSDOF 1
ENDMDL
MODEL 6
REMARK VINA RESULT:      -3.7     10.752     11.584
REMARK  1 active torsions:
REMARK  status: ('A' for Active; 'I' for Inactive)
REMARK    1  A    between atoms: C8_8  and  N10_10 
ROOT
HETATM    1  C1  UNL     1     -37.835  14.549  -4.936  1.00 20.00     0.130 C 
HETATM    2  C2  UNL     1     -36.495  13.943  -5.283  1.00 20.00     0.108 C 
HETATM    3  C3  UNL     1     -37.806  15.855  -4.176  1.00 20.00     0.108 C 
HETATM    4  C5  UNL     1     -35.548  15.009  -5.828  1.00 20.00     0.280 C 
HETATM    5  C6  UNL     1     -36.783  16.809  -4.788  1.00 20.00     0.280 C 
HETATM    6  N10 UNL     1     -35.455  16.221  -5.004  1.00 20.00     0.094 N 
HETATM    7  O11 UNL     1     -38.890  13.955  -5.158  1.00 20.00    -0.298 OA
ENDROOT
BRANCH   6   8
HETATM    8  C8  UNL     1     -34.736  15.991  -3.754  1.00 20.00     0.227 A 
HETATM    9  C4  UNL     1     -33.315  15.494  -3.774  1.00 20.00     0.042 A 
HETATM   10  C7  UNL     1     -33.609  16.904  -3.344  1.00 20.00     0.017 A 
HETATM   11  C9  UNL     1     -33.448  17.302  -1.918  1.00 20.00     0.012 C 
ENDBRANCH   6   8
TORSDOF 1
ENDMDL
MODEL 7
REMARK VINA RESULT:      -3.7     10.388     11.039
REMARK  1 active torsions:
REMARK  status: ('A' for Active; 'I' for Inactive)
REMARK    1  A    between atoms: C8_8  and  N10_10 
ROOT
HETATM    1  C1  UNL     1     -34.016  18.114  -0.128  1.00 20.00     0.130 C 
HETATM    2  C2  UNL     1     -35.331  17.448  -0.465  1.00 20.00     0.108 C 
HETATM    3  C3  UNL     1     -32.913  17.979  -1.151  1.00 20.00     0.108 C 
HETATM    4  C5  UNL     1     -35.725  17.737  -1.911  1.00 20.00     0.280 C 
HETATM    5  C6  UNL     1     -33.449  18.240  -2.556  1.00 20.00     0.280 C 
HETATM    6  N10 UNL     1     -34.663  17.486  -2.894  1.00 20.00     0.094 N 
HETATM    7  O11 UNL     1     -33.821  18.637   0.969  1.00 20.00    -0.298 OA
ENDROOT
BRANCH   6   8
HETATM    8  C8  UNL     1     -34.402  16.062  -3.081  1.00 20.00     0.227 A 
HETATM    9  C4  UNL     1     -35.321  15.225  -3.931  1.00 20.00     0.042 A 
HETATM   10  C7  UNL     1     -33.933  15.541  -4.416  1.00 20.00     0.017 A 
HETATM   11  C9  UNL     1     -32.900  14.470  -4.481  1.00 20.00     0.012 C 
ENDBRANCH   6   8
TORSDOF 1
ENDMDL
MODEL 8
REMARK VINA RESULT:      -3.7     10.438     12.137
REMARK  1 active torsions:
REMARK  status: ('A' for Active; 'I' for Inactive)
REMARK    1  A    between atoms: C8_8  and  N10_10 
ROOT
HETATM    1  C1  UNL     1     -35.374  13.660  -5.467  1.00 20.00     0.130 C 
HETATM    2  C2  UNL     1     -34.678  14.411  -4.356  1.00 20.00     0.108 C 
HETATM    3  C3  UNL     1     -35.467  14.367  -6.800  1.00 20.00     0.108 C 
HETATM    4  C5  UNL     1     -33.386  15.047  -4.863  1.00 20.00     0.280 C 
HETATM    5  C6  UNL     1     -34.128  15.004  -7.164  1.00 20.00     0.280 C 
HETATM    6  N10 UNL     1     -33.535  15.824  -6.101  1.00 20.00     0.094 N 
HETATM    7  O11 UNL     1     -35.934  12.583  -5.266  1.00 20.00    -0.298 OA
ENDROOT
BRANCH   6   8
HETATM    8  C8  UNL     1     -34.259  17.075  -5.891  1.00 20.00     0.227 A 
HETATM    9  C4  UNL     1     -33.613  18.211  -5.143  1.00 20.00     0.042 A 
HETATM   10  C7  UNL     1     -33.848  18.325  -6.624  1.00 20.00     0.017 A 
HETATM   11  C9  UNL     1     -34.882  19.260  -7.148  1.00 20.00     0.012 C 
ENDBRANCH   6   8
TORSDOF 1
ENDMDL
MODEL 9
REMARK VINA RESULT:      -3.6     10.406     11.794
REMARK  1 active torsions:
REMARK  status: ('A' for Active; 'I' for Inactive)
REMARK    1  A    between atoms: C8_8  and  N10_10 
ROOT
HETATM    1  C1  UNL     1     -35.757  13.776  -4.990  1.00 20.00     0.130 C 
HETATM    2  C2  UNL     1     -36.905  14.739  -5.183  1.00 20.00     0.108 C 
HETATM    3  C3  UNL     1     -34.430  14.381  -4.594  1.00 20.00     0.108 C 
HETATM    4  C5  UNL     1     -36.950  15.757  -4.045  1.00 20.00     0.280 C 
HETATM    5  C6  UNL     1     -34.621  15.418  -3.490  1.00 20.00     0.280 C 
HETATM    6  N10 UNL     1     -35.667  16.412  -3.762  1.00 20.00     0.094 N 
HETATM    7  O11 UNL     1     -35.868  12.578  -5.252  1.00 20.00    -0.298 OA
ENDROOT
BRANCH   6   8
HETATM    8  C8  UNL     1     -35.281  17.357  -4.807  1.00 20.00     0.227 A 
HETATM    9  C4  UNL     1     -36.075  18.617  -5.024  1.00 20.00     0.042 A 
HETATM   10  C7  UNL     1     -34.689  18.694  -4.444  1.00 20.00     0.017 A 
HETATM   11  C9  UNL     1     -33.571  19.262  -5.248  1.00 20.00     0.012 C 
ENDBRANCH   6   8
TORSDOF 1
ENDMDL
