MODEL 1
REMARK VINA RESULT:      -5.6      0.000      0.000
REMARK  3 active torsions:
REMARK  status: ('A' for Active; 'I' for Inactive)
REMARK    1  A    between atoms: C2_2  and  C8_8 
REMARK    2  A    between atoms: C5_5  and  N9_9 
REMARK    3  A    between atoms: C8_8  and  N9_9 
ROOT
HETATM    1  C1  UNL     1     -32.487   9.084   1.139  1.00 20.00    -0.109 C 
HETATM    2  C2  UNL     1     -32.166   8.539   2.161  1.00 20.00    -0.077 C 
HETATM    3  C6  UNL     1     -32.877   9.747  -0.103  1.00 20.00     0.112 C 
ENDROOT
BRANCH   2   4
HETATM    4  C8  UNL     1     -31.782   7.872   3.408  1.00 20.00     0.363 C 
BRANCH   4   5
HETATM    5  N9  UNL     1     -32.954   7.501   4.181  1.00 20.00     0.099 N 
HETATM    6  H22 UNL     1     -33.465   8.337   4.453  1.00 20.00     0.317 HD
BRANCH   5   7
HETATM    7  C5  UNL     1     -33.844   6.643   3.392  1.00 20.00     0.225 A 
HETATM    8  C3  UNL     1     -33.480   5.206   3.126  1.00 20.00     0.042 A 
HETATM    9  C4  UNL     1     -34.651   5.530   4.011  1.00 20.00     0.016 A 
HETATM   10  C7  UNL     1     -34.597   5.218   5.469  1.00 20.00     0.012 C 
ENDBRANCH   5   7
ENDBRANCH   4   5
ENDBRANCH   2   4
TORSDOF 3
ENDMDL
MODEL 2
REMARK VINA RESULT:      -5.3      0.885      1.072
REMARK  3 active torsions:
REMARK  status: ('A' for Active; 'I' for Inactive)
REMARK    1  A    between atoms: C2_2  and  C8_8 
REMARK    2  A    between atoms: C5_5  and  N9_9 
REMARK    3  A    between atoms: C8_8  and  N9_9 
ROOT
HETATM    1  C1  UNL     1     -32.581   9.115   1.029  1.00 20.00    -0.109 C 
HETATM    2  C2  UNL     1     -32.363   8.498   2.036  1.00 20.00    -0.077 C 
HETATM    3  C6  UNL     1     -32.845   9.867  -0.196  1.00 20.00     0.112 C 
ENDROOT
BRANCH   2   4
HETATM    4  C8  UNL     1     -32.093   7.750   3.268  1.00 20.00     0.363 C 
BRANCH   4   5
HETATM    5  N9  UNL     1     -32.827   6.496   3.285  1.00 20.00     0.099 N 
HETATM    6  H22 UNL     1     -32.229   5.754   3.640  1.00 20.00     0.317 HD
BRANCH   5   7
HETATM    7  C5  UNL     1     -34.009   6.600   4.146  1.00 20.00     0.225 A 
HETATM    8  C3  UNL     1     -35.349   6.109   3.666  1.00 20.00     0.042 A 
HETATM    9  C4  UNL     1     -34.649   5.394   4.788  1.00 20.00     0.016 A 
HETATM   10  C7  UNL     1     -34.129   4.011   4.586  1.00 20.00     0.012 C 
ENDBRANCH   5   7
ENDBRANCH   4   5
ENDBRANCH   2   4
TORSDOF 3
ENDMDL
MODEL 3
REMARK VINA RESULT:      -4.8      1.269      4.779
REMARK  3 active torsions:
REMARK  status: ('A' for Active; 'I' for Inactive)
REMARK    1  A    between atoms: C2_2  and  C8_8 
REMARK    2  A    between atoms: C5_5  and  N9_9 
REMARK    3  A    between atoms: C8_8  and  N9_9 
ROOT
HETATM    1  C1  UNL     1     -33.956   6.490   3.855  1.00 20.00    -0.109 C 
HETATM    2  C2  UNL     1     -32.982   7.162   3.651  1.00 20.00    -0.077 C 
HETATM    3  C6  UNL     1     -35.141   5.671   4.104  1.00 20.00     0.112 C 
ENDROOT
BRANCH   2   4
HETATM    4  C8  UNL     1     -31.791   7.979   3.397  1.00 20.00     0.363 C 
BRANCH   4   5
HETATM    5  N9  UNL     1     -31.730   8.390   2.005  1.00 20.00     0.099 N 
HETATM    6  H22 UNL     1     -31.936   7.595   1.404  1.00 20.00     0.317 HD
BRANCH   5   7
HETATM    7  C5  UNL     1     -32.709   9.448   1.735  1.00 20.00     0.225 A 
HETATM    8  C3  UNL     1     -32.297  10.700   1.006  1.00 20.00     0.042 A 
HETATM    9  C4  UNL     1     -33.236   9.726   0.350  1.00 20.00     0.016 A 
HETATM   10  C7  UNL     1     -32.795   8.949  -0.844  1.00 20.00     0.012 C 
ENDBRANCH   5   7
ENDBRANCH   4   5
ENDBRANCH   2   4
TORSDOF 3
ENDMDL
MODEL 4
REMARK VINA RESULT:      -4.8      1.268      1.824
REMARK  3 active torsions:
REMARK  status: ('A' for Active; 'I' for Inactive)
REMARK    1  A    between atoms: C2_2  and  C8_8 
REMARK    2  A    between atoms: C5_5  and  N9_9 
REMARK    3  A    between atoms: C8_8  and  N9_9 
ROOT
HETATM    1  C1  UNL     1     -32.556   8.548   1.767  1.00 20.00    -0.109 C 
HETATM    2  C2  UNL     1     -32.873   7.518   2.297  1.00 20.00    -0.077 C 
HETATM    3  C6  UNL     1     -32.171   9.802   1.122  1.00 20.00     0.112 C 
ENDROOT
BRANCH   2   4
HETATM    4  C8  UNL     1     -33.265   6.261   2.941  1.00 20.00     0.363 C 
BRANCH   4   5
HETATM    5  N9  UNL     1     -34.704   6.201   3.130  1.00 20.00     0.099 N 
HETATM    6  H22 UNL     1     -35.143   5.811   2.299  1.00 20.00     0.317 HD
BRANCH   5   7
HETATM    7  C5  UNL     1     -35.040   5.356   4.280  1.00 20.00     0.225 A 
HETATM    8  C3  UNL     1     -33.961   4.605   5.016  1.00 20.00     0.042 A 
HETATM    9  C4  UNL     1     -34.683   5.738   5.695  1.00 20.00     0.016 A 
HETATM   10  C7  UNL     1     -33.956   6.998   6.023  1.00 20.00     0.012 C 
ENDBRANCH   5   7
ENDBRANCH   4   5
ENDBRANCH   2   4
TORSDOF 3
ENDMDL
MODEL 5
REMARK VINA RESULT:      -4.6      1.062      1.516
REMARK  3 active torsions:
REMARK  status: ('A' for Active; 'I' for Inactive)
REMARK    1  A    between atoms: C2_2  and  C8_8 
REMARK    2  A    between atoms: C5_5  and  N9_9 
REMARK    3  A    between atoms: C8_8  and  N9_9 
ROOT
HETATM    1  C1  UNL     1     -32.514   9.059   1.181  1.00 20.00    -0.109 C 
HETATM    2  C2  UNL     1     -32.423   8.393   2.176  1.00 20.00    -0.077 C 
HETATM    3  C6  UNL     1     -32.624   9.870  -0.030  1.00 20.00     0.112 C 
ENDROOT
BRANCH   2   4
HETATM    4  C8  UNL     1     -32.310   7.585   3.394  1.00 20.00     0.363 C 
BRANCH   4   5
HETATM    5  N9  UNL     1     -33.622   7.207   3.891  1.00 20.00     0.099 N 
HETATM    6  H22 UNL     1     -34.048   6.536   3.257  1.00 20.00     0.317 HD
BRANCH   5   7
HETATM    7  C5  UNL     1     -33.515   6.596   5.219  1.00 20.00     0.225 A 
HETATM    8  C3  UNL     1     -34.752   6.326   6.036  1.00 20.00     0.042 A 
HETATM    9  C4  UNL     1     -33.947   5.177   5.493  1.00 20.00     0.016 A 
HETATM   10  C7  UNL     1     -34.520   4.298   4.433  1.00 20.00     0.012 C 
ENDBRANCH   5   7
ENDBRANCH   4   5
ENDBRANCH   2   4
TORSDOF 3
ENDMDL
MODEL 6
REMARK VINA RESULT:      -4.6      1.473      4.884
REMARK  3 active torsions:
REMARK  status: ('A' for Active; 'I' for Inactive)
REMARK    1  A    between atoms: C2_2  and  C8_8 
REMARK    2  A    between atoms: C5_5  and  N9_9 
REMARK    3  A    between atoms: C8_8  and  N9_9 
ROOT
HETATM    1  C1  UNL     1     -33.820   6.719   4.624  1.00 20.00    -0.109 C 
HETATM    2  C2  UNL     1     -33.391   6.940   3.524  1.00 20.00    -0.077 C 
HETATM    3  C6  UNL     1     -34.341   6.448   5.962  1.00 20.00     0.112 C 
ENDROOT
BRANCH   2   4
HETATM    4  C8  UNL     1     -32.869   7.205   2.180  1.00 20.00     0.363 C 
BRANCH   4   5
HETATM    5  N9  UNL     1     -31.824   8.213   2.218  1.00 20.00     0.099 N 
HETATM    6  H22 UNL     1     -30.931   7.773   2.431  1.00 20.00     0.317 HD
BRANCH   5   7
HETATM    7  C5  UNL     1     -31.715   8.895   0.925  1.00 20.00     0.225 A 
HETATM    8  C3  UNL     1     -32.937   9.110   0.071  1.00 20.00     0.042 A 
HETATM    9  C4  UNL     1     -32.246  10.289   0.700  1.00 20.00     0.016 A 
HETATM   10  C7  UNL     1     -32.925  11.068   1.775  1.00 20.00     0.012 C 
ENDBRANCH   5   7
ENDBRANCH   4   5
ENDBRANCH   2   4
TORSDOF 3
ENDMDL
MODEL 7
REMARK VINA RESULT:      -4.1      1.190      4.903
REMARK  3 active torsions:
REMARK  status: ('A' for Active; 'I' for Inactive)
REMARK    1  A    between atoms: C2_2  and  C8_8 
REMARK    2  A    between atoms: C5_5  and  N9_9 
REMARK    3  A    between atoms: C8_8  and  N9_9 
ROOT
HETATM    1  C1  UNL     1     -34.560   5.320   4.885  1.00 20.00    -0.109 C 
HETATM    2  C2  UNL     1     -34.344   5.567   3.730  1.00 20.00    -0.077 C 
HETATM    3  C6  UNL     1     -34.820   5.020   6.292  1.00 20.00     0.112 C 
ENDROOT
BRANCH   2   4
HETATM    4  C8  UNL     1     -34.076   5.865   2.320  1.00 20.00     0.363 C 
BRANCH   4   5
HETATM    5  N9  UNL     1     -32.769   6.479   2.159  1.00 20.00     0.099 N 
HETATM    6  H22 UNL     1     -32.553   6.572   1.170  1.00 20.00     0.317 HD
BRANCH   5   7
HETATM    7  C5  UNL     1     -32.743   7.810   2.773  1.00 20.00     0.225 A 
HETATM    8  C3  UNL     1     -31.437   8.434   3.190  1.00 20.00     0.042 A 
HETATM    9  C4  UNL     1     -32.218   9.024   2.048  1.00 20.00     0.016 A 
HETATM   10  C7  UNL     1     -31.680   8.954   0.658  1.00 20.00     0.012 C 
ENDBRANCH   5   7
ENDBRANCH   4   5
ENDBRANCH   2   4
TORSDOF 3
ENDMDL
MODEL 8
REMARK VINA RESULT:      -4.0     10.994     11.481
REMARK  3 active torsions:
REMARK  status: ('A' for Active; 'I' for Inactive)
REMARK    1  A    between atoms: C2_2  and  C8_8 
REMARK    2  A    between atoms: C5_5  and  N9_9 
REMARK    3  A    between atoms: C8_8  and  N9_9 
ROOT
HETATM    1  C1  UNL     1     -34.350  16.230  -2.863  1.00 20.00    -0.109 C 
HETATM    2  C2  UNL     1     -33.715  15.798  -3.787  1.00 20.00    -0.077 C 
HETATM    3  C6  UNL     1     -35.123  16.754  -1.739  1.00 20.00     0.112 C 
ENDROOT
BRANCH   2   4
HETATM    4  C8  UNL     1     -32.942  15.266  -4.913  1.00 20.00     0.363 C 
BRANCH   4   5
HETATM    5  N9  UNL     1     -33.515  14.021  -5.394  1.00 20.00     0.099 N 
HETATM    6  H22 UNL     1     -34.080  13.598  -4.661  1.00 20.00     0.317 HD
BRANCH   5   7
HETATM    7  C5  UNL     1     -34.367  14.262  -6.562  1.00 20.00     0.225 A 
HETATM    8  C3  UNL     1     -35.072  13.117  -7.242  1.00 20.00     0.042 A 
HETATM    9  C4  UNL     1     -35.871  14.155  -6.502  1.00 20.00     0.016 A 
HETATM   10  C7  UNL     1     -36.596  13.789  -5.251  1.00 20.00     0.012 C 
ENDBRANCH   5   7
ENDBRANCH   4   5
ENDBRANCH   2   4
TORSDOF 3
ENDMDL
MODEL 9
REMARK VINA RESULT:      -3.7     10.663     11.295
REMARK  3 active torsions:
REMARK  status: ('A' for Active; 'I' for Inactive)
REMARK    1  A    between atoms: C2_2  and  C8_8 
REMARK    2  A    between atoms: C5_5  and  N9_9 
REMARK    3  A    between atoms: C8_8  and  N9_9 
ROOT
HETATM    1  C1  UNL     1     -34.122  16.656  -2.280  1.00 20.00    -0.109 C 
HETATM    2  C2  UNL     1     -33.759  16.115  -3.289  1.00 20.00    -0.077 C 
HETATM    3  C6  UNL     1     -34.565  17.314  -1.052  1.00 20.00     0.112 C 
ENDROOT
BRANCH   2   4
HETATM    4  C8  UNL     1     -33.322  15.455  -4.523  1.00 20.00     0.363 C 
BRANCH   4   5
HETATM    5  N9  UNL     1     -33.762  14.071  -4.556  1.00 20.00     0.099 N 
HETATM    6  H22 UNL     1     -33.495  13.606  -3.692  1.00 20.00     0.317 HD
BRANCH   5   7
HETATM    7  C5  UNL     1     -35.219  13.995  -4.700  1.00 20.00     0.225 A 
HETATM    8  C3  UNL     1     -35.946  14.945  -5.616  1.00 20.00     0.042 A 
HETATM    9  C4  UNL     1     -35.881  13.481  -5.954  1.00 20.00     0.016 A 
HETATM   10  C7  UNL     1     -35.100  13.020  -7.138  1.00 20.00     0.012 C 
ENDBRANCH   5   7
ENDBRANCH   4   5
ENDBRANCH   2   4
TORSDOF 3
ENDMDL
