MODEL 1
REMARK VINA RESULT:      -5.5      0.000      0.000
REMARK  2 active torsions:
REMARK  status: ('A' for Active; 'I' for Inactive)
REMARK    1  A    between atoms: C4_4  and  N9_9 
REMARK    2  A    between atoms: C7_7  and  N9_9 
ROOT
HETATM    1  C1  UNL     1     -34.054   6.693   5.134  1.00 20.00     0.094 C 
HETATM    2  C6  UNL     1     -34.303   4.442   4.157  1.00 20.00     0.059 C 
HETATM    3  C7  UNL     1     -34.224   5.939   3.885  1.00 20.00     0.322 C 
HETATM    4  N8  UNL     1     -33.924   7.289   6.122  1.00 20.00    -0.195 NA
ENDROOT
BRANCH   3   5
HETATM    5  N9  UNL     1     -33.130   6.237   2.976  1.00 20.00     0.106 N 
HETATM    6  H21 UNL     1     -33.356   5.896   2.046  1.00 20.00     0.318 HD
BRANCH   5   7
HETATM    7  C4  UNL     1     -32.901   7.684   2.903  1.00 20.00     0.226 A 
HETATM    8  C2  UNL     1     -31.543   8.257   3.218  1.00 20.00     0.042 A 
HETATM    9  C3  UNL     1     -32.050   8.266   1.801  1.00 20.00     0.016 A 
HETATM   10  C5  UNL     1     -32.439   9.549   1.154  1.00 20.00     0.012 C 
ENDBRANCH   5   7
ENDBRANCH   3   5
TORSDOF 2
ENDMDL
MODEL 2
REMARK VINA RESULT:      -4.9      1.573      4.531
REMARK  2 active torsions:
REMARK  status: ('A' for Active; 'I' for Inactive)
REMARK    1  A    between atoms: C4_4  and  N9_9 
REMARK    2  A    between atoms: C7_7  and  N9_9 
ROOT
HETATM    1  C1  UNL     1     -32.295   8.689   1.418  1.00 20.00     0.094 C 
HETATM    2  C6  UNL     1     -31.357   8.232   3.652  1.00 20.00     0.059 C 
HETATM    3  C7  UNL     1     -32.596   8.193   2.767  1.00 20.00     0.322 C 
HETATM    4  N8  UNL     1     -32.059   9.085   0.353  1.00 20.00    -0.195 NA
ENDROOT
BRANCH   3   5
HETATM    5  N9  UNL     1     -33.129   6.843   2.690  1.00 20.00     0.106 N 
HETATM    6  H21 UNL     1     -32.365   6.173   2.704  1.00 20.00     0.318 HD
BRANCH   5   7
HETATM    7  C4  UNL     1     -34.013   6.572   3.828  1.00 20.00     0.226 A 
HETATM    8  C2  UNL     1     -35.429   6.109   3.598  1.00 20.00     0.042 A 
HETATM    9  C3  UNL     1     -34.411   5.156   4.163  1.00 20.00     0.016 A 
HETATM   10  C5  UNL     1     -34.501   4.721   5.584  1.00 20.00     0.012 C 
ENDBRANCH   5   7
ENDBRANCH   3   5
TORSDOF 2
ENDMDL
MODEL 3
REMARK VINA RESULT:      -4.7      1.258      1.829
REMARK  2 active torsions:
REMARK  status: ('A' for Active; 'I' for Inactive)
REMARK    1  A    between atoms: C4_4  and  N9_9 
REMARK    2  A    between atoms: C7_7  and  N9_9 
ROOT
HETATM    1  C1  UNL     1     -34.126   4.962   4.285  1.00 20.00     0.094 C 
HETATM    2  C6  UNL     1     -33.917   7.233   5.224  1.00 20.00     0.059 C 
HETATM    3  C7  UNL     1     -33.399   6.235   4.197  1.00 20.00     0.322 C 
HETATM    4  N8  UNL     1     -34.697   3.955   4.357  1.00 20.00    -0.195 NA
ENDROOT
BRANCH   3   5
HETATM    5  N9  UNL     1     -33.512   6.777   2.853  1.00 20.00     0.106 N 
HETATM    6  H21 UNL     1     -34.489   6.795   2.573  1.00 20.00     0.318 HD
BRANCH   5   7
HETATM    7  C4  UNL     1     -32.985   8.144   2.802  1.00 20.00     0.226 A 
HETATM    8  C2  UNL     1     -31.499   8.384   2.717  1.00 20.00     0.042 A 
HETATM    9  C3  UNL     1     -32.375   8.679   1.530  1.00 20.00     0.016 A 
HETATM   10  C5  UNL     1     -32.624  10.087   1.115  1.00 20.00     0.012 C 
ENDBRANCH   5   7
ENDBRANCH   3   5
TORSDOF 2
ENDMDL
MODEL 4
REMARK VINA RESULT:      -4.5      1.429      2.117
REMARK  2 active torsions:
REMARK  status: ('A' for Active; 'I' for Inactive)
REMARK    1  A    between atoms: C4_4  and  N9_9 
REMARK    2  A    between atoms: C7_7  and  N9_9 
ROOT
HETATM    1  C1  UNL     1     -34.291   6.092   3.887  1.00 20.00     0.094 C 
HETATM    2  C6  UNL     1     -32.703   7.867   4.525  1.00 20.00     0.059 C 
HETATM    3  C7  UNL     1     -32.986   6.696   3.593  1.00 20.00     0.322 C 
HETATM    4  N8  UNL     1     -35.321   5.611   4.122  1.00 20.00    -0.195 NA
ENDROOT
BRANCH   3   5
HETATM    5  N9  UNL     1     -32.941   7.124   2.205  1.00 20.00     0.106 N 
HETATM    6  H21 UNL     1     -33.887   7.260   1.859  1.00 20.00     0.318 HD
BRANCH   5   7
HETATM    7  C4  UNL     1     -32.208   8.388   2.079  1.00 20.00     0.226 A 
HETATM    8  C2  UNL     1     -31.383   8.669   0.849  1.00 20.00     0.042 A 
HETATM    9  C3  UNL     1     -32.657   9.433   1.088  1.00 20.00     0.016 A 
HETATM   10  C5  UNL     1     -32.607  10.877   1.449  1.00 20.00     0.012 C 
ENDBRANCH   5   7
ENDBRANCH   3   5
TORSDOF 2
ENDMDL
MODEL 5
REMARK VINA RESULT:      -4.2      1.953      2.700
REMARK  2 active torsions:
REMARK  status: ('A' for Active; 'I' for Inactive)
REMARK    1  A    between atoms: C4_4  and  N9_9 
REMARK    2  A    between atoms: C7_7  and  N9_9 
ROOT
HETATM    1  C1  UNL     1     -32.819   5.924   2.937  1.00 20.00     0.094 C 
HETATM    2  C6  UNL     1     -33.901   7.852   4.031  1.00 20.00     0.059 C 
HETATM    3  C7  UNL     1     -32.585   7.205   3.617  1.00 20.00     0.322 C 
HETATM    4  N8  UNL     1     -33.003   4.910   2.403  1.00 20.00    -0.195 NA
ENDROOT
BRANCH   3   5
HETATM    5  N9  UNL     1     -31.828   8.093   2.752  1.00 20.00     0.106 N 
HETATM    6  H21 UNL     1     -31.166   7.552   2.202  1.00 20.00     0.318 HD
BRANCH   5   7
HETATM    7  C4  UNL     1     -32.723   8.809   1.837  1.00 20.00     0.226 A 
HETATM    8  C2  UNL     1     -32.532  10.282   1.582  1.00 20.00     0.042 A 
HETATM    9  C3  UNL     1     -32.221   9.286   0.497  1.00 20.00     0.016 A 
HETATM   10  C5  UNL     1     -33.093   9.193  -0.706  1.00 20.00     0.012 C 
ENDBRANCH   5   7
ENDBRANCH   3   5
TORSDOF 2
ENDMDL
MODEL 6
REMARK VINA RESULT:      -4.2      1.503      4.155
REMARK  2 active torsions:
REMARK  status: ('A' for Active; 'I' for Inactive)
REMARK    1  A    between atoms: C4_4  and  N9_9 
REMARK    2  A    between atoms: C7_7  and  N9_9 
ROOT
HETATM    1  C1  UNL     1     -32.949   5.942   2.476  1.00 20.00     0.094 C 
HETATM    2  C6  UNL     1     -31.667   8.047   2.404  1.00 20.00     0.059 C 
HETATM    3  C7  UNL     1     -33.046   7.407   2.491  1.00 20.00     0.322 C 
HETATM    4  N8  UNL     1     -32.872   4.784   2.459  1.00 20.00    -0.195 NA
ENDROOT
BRANCH   3   5
HETATM    5  N9  UNL     1     -33.738   7.843   3.692  1.00 20.00     0.106 N 
HETATM    6  H21 UNL     1     -34.738   7.890   3.513  1.00 20.00     0.318 HD
BRANCH   5   7
HETATM    7  C4  UNL     1     -33.502   6.904   4.793  1.00 20.00     0.226 A 
HETATM    8  C2  UNL     1     -33.937   7.248   6.194  1.00 20.00     0.042 A 
HETATM    9  C3  UNL     1     -34.656   6.170   5.430  1.00 20.00     0.016 A 
HETATM   10  C5  UNL     1     -34.508   4.744   5.830  1.00 20.00     0.012 C 
ENDBRANCH   5   7
ENDBRANCH   3   5
TORSDOF 2
ENDMDL
MODEL 7
REMARK VINA RESULT:      -4.1     11.202     11.808
REMARK  2 active torsions:
REMARK  status: ('A' for Active; 'I' for Inactive)
REMARK    1  A    between atoms: C4_4  and  N9_9 
REMARK    2  A    between atoms: C7_7  and  N9_9 
ROOT
HETATM    1  C1  UNL     1     -35.367  13.892  -5.139  1.00 20.00     0.094 C 
HETATM    2  C6  UNL     1     -33.722  15.426  -6.151  1.00 20.00     0.059 C 
HETATM    3  C7  UNL     1     -34.718  15.205  -5.021  1.00 20.00     0.322 C 
HETATM    4  N8  UNL     1     -35.882  12.856  -5.235  1.00 20.00    -0.195 NA
ENDROOT
BRANCH   3   5
HETATM    5  N9  UNL     1     -34.062  15.316  -3.730  1.00 20.00     0.106 N 
HETATM    6  H21 UNL     1     -33.060  15.184  -3.842  1.00 20.00     0.318 HD
BRANCH   5   7
HETATM    7  C4  UNL     1     -34.297  16.640  -3.145  1.00 20.00     0.226 A 
HETATM    8  C2  UNL     1     -35.015  16.774  -1.826  1.00 20.00     0.042 A 
HETATM    9  C3  UNL     1     -33.543  17.075  -1.913  1.00 20.00     0.016 A 
HETATM   10  C5  UNL     1     -33.057  18.476  -1.787  1.00 20.00     0.012 C 
ENDBRANCH   5   7
ENDBRANCH   3   5
TORSDOF 2
ENDMDL
MODEL 8
REMARK VINA RESULT:      -4.0      1.401      4.074
REMARK  2 active torsions:
REMARK  status: ('A' for Active; 'I' for Inactive)
REMARK    1  A    between atoms: C4_4  and  N9_9 
REMARK    2  A    between atoms: C7_7  and  N9_9 
ROOT
HETATM    1  C1  UNL     1     -31.610   8.329   3.253  1.00 20.00     0.094 C 
HETATM    2  C6  UNL     1     -32.516   9.036   1.071  1.00 20.00     0.059 C 
HETATM    3  C7  UNL     1     -32.341   7.889   2.057  1.00 20.00     0.322 C 
HETATM    4  N8  UNL     1     -31.029   8.675   4.196  1.00 20.00    -0.195 NA
ENDROOT
BRANCH   3   5
HETATM    5  N9  UNL     1     -33.630   7.340   2.440  1.00 20.00     0.106 N 
HETATM    6  H21 UNL     1     -34.022   6.813   1.665  1.00 20.00     0.318 HD
BRANCH   5   7
HETATM    7  C4  UNL     1     -33.488   6.445   3.593  1.00 20.00     0.226 A 
HETATM    8  C2  UNL     1     -34.145   6.783   4.906  1.00 20.00     0.042 A 
HETATM    9  C3  UNL     1     -34.665   5.637   4.081  1.00 20.00     0.016 A 
HETATM   10  C5  UNL     1     -34.472   4.235   4.542  1.00 20.00     0.012 C 
ENDBRANCH   5   7
ENDBRANCH   3   5
TORSDOF 2
ENDMDL
MODEL 9
REMARK VINA RESULT:      -4.0      2.201      4.874
REMARK  2 active torsions:
REMARK  status: ('A' for Active; 'I' for Inactive)
REMARK    1  A    between atoms: C4_4  and  N9_9 
REMARK    2  A    between atoms: C7_7  and  N9_9 
ROOT
HETATM    1  C1  UNL     1     -32.987   9.284  -0.071  1.00 20.00     0.094 C 
HETATM    2  C6  UNL     1     -32.305  11.022   1.540  1.00 20.00     0.059 C 
HETATM    3  C7  UNL     1     -32.964   9.662   1.348  1.00 20.00     0.322 C 
HETATM    4  N8  UNL     1     -33.009   8.986  -1.192  1.00 20.00    -0.195 NA
ENDROOT
BRANCH   3   5
HETATM    5  N9  UNL     1     -32.272   8.644   2.120  1.00 20.00     0.106 N 
HETATM    6  H21 UNL     1     -31.661   9.087   2.801  1.00 20.00     0.318 HD
BRANCH   5   7
HETATM    7  C4  UNL     1     -33.233   7.796   2.833  1.00 20.00     0.226 A 
HETATM    8  C2  UNL     1     -32.997   6.312   2.952  1.00 20.00     0.042 A 
HETATM    9  C3  UNL     1     -32.872   7.191   4.167  1.00 20.00     0.016 A 
HETATM   10  C5  UNL     1     -33.887   7.115   5.253  1.00 20.00     0.012 C 
ENDBRANCH   5   7
ENDBRANCH   3   5
TORSDOF 2
ENDMDL
