MODEL 1
REMARK VINA RESULT:      -4.5      0.000      0.000
REMARK  1 active torsions:
REMARK  status: ('A' for Active; 'I' for Inactive)
REMARK    1  A    between atoms: C4_4  and  N6_6 
ROOT
HETATM    1  C1  UNL     1     -32.613   7.854   2.621  1.00 20.00     0.158 C 
HETATM    2  N6  UNL     1     -32.910   7.107   3.482  1.00 20.00    -0.270 NA
HETATM    3  S7  UNL     1     -32.197   8.871   1.469  1.00 20.00    -0.055 SA
ENDROOT
BRANCH   2   4
HETATM    4  C4  UNL     1     -34.012   6.206   3.171  1.00 20.00     0.114 A 
HETATM    5  C2  UNL     1     -33.827   4.744   3.474  1.00 20.00     0.034 A 
HETATM    6  C3  UNL     1     -34.782   5.565   4.297  1.00 20.00     0.008 A 
HETATM    7  C5  UNL     1     -34.478   5.859   5.725  1.00 20.00     0.012 C 
ENDBRANCH   2   4
TORSDOF 1
ENDMDL
MODEL 2
REMARK VINA RESULT:      -4.4      0.846      1.292
REMARK  1 active torsions:
REMARK  status: ('A' for Active; 'I' for Inactive)
REMARK    1  A    between atoms: C4_4  and  N6_6 
ROOT
HETATM    1  C1  UNL     1     -32.638   7.430   2.590  1.00 20.00     0.158 C 
HETATM    2  N6  UNL     1     -32.963   6.444   3.146  1.00 20.00    -0.270 NA
HETATM    3  S7  UNL     1     -32.185   8.753   1.828  1.00 20.00    -0.055 SA
ENDROOT
BRANCH   2   4
HETATM    4  C4  UNL     1     -34.054   6.599   4.100  1.00 20.00     0.114 A 
HETATM    5  C2  UNL     1     -35.415   6.108   3.689  1.00 20.00     0.034 A 
HETATM    6  C3  UNL     1     -34.644   5.375   4.752  1.00 20.00     0.008 A 
HETATM    7  C5  UNL     1     -34.114   4.009   4.485  1.00 20.00     0.012 C 
ENDBRANCH   2   4
TORSDOF 1
ENDMDL
MODEL 3
REMARK VINA RESULT:      -3.8      2.435      4.108
REMARK  1 active torsions:
REMARK  status: ('A' for Active; 'I' for Inactive)
REMARK    1  A    between atoms: C4_4  and  N6_6 
ROOT
HETATM    1  C1  UNL     1     -33.727   5.759   3.347  1.00 20.00     0.158 C 
HETATM    2  N6  UNL     1     -33.166   6.484   2.607  1.00 20.00    -0.270 NA
HETATM    3  S7  UNL     1     -34.483   4.765   4.335  1.00 20.00    -0.055 SA
ENDROOT
BRANCH   2   4
HETATM    4  C4  UNL     1     -32.932   7.830   3.113  1.00 20.00     0.114 A 
HETATM    5  C2  UNL     1     -31.521   8.199   3.486  1.00 20.00     0.034 A 
HETATM    6  C3  UNL     1     -32.159   8.812   2.270  1.00 20.00     0.008 A 
HETATM    7  C5  UNL     1     -31.665   8.461   0.908  1.00 20.00     0.012 C 
ENDBRANCH   2   4
TORSDOF 1
ENDMDL
MODEL 4
REMARK VINA RESULT:      -3.7      2.552      4.578
REMARK  1 active torsions:
REMARK  status: ('A' for Active; 'I' for Inactive)
REMARK    1  A    between atoms: C4_4  and  N6_6 
ROOT
HETATM    1  C1  UNL     1     -33.284   7.422   3.282  1.00 20.00     0.158 C 
HETATM    2  N6  UNL     1     -32.998   7.653   2.162  1.00 20.00    -0.270 NA
HETATM    3  S7  UNL     1     -33.682   7.095   4.788  1.00 20.00    -0.055 SA
ENDROOT
BRANCH   2   4
HETATM    4  C4  UNL     1     -32.142   8.816   1.967  1.00 20.00     0.114 A 
HETATM    5  C2  UNL     1     -31.118   8.752   0.867  1.00 20.00     0.034 A 
HETATM    6  C3  UNL     1     -32.311   9.657   0.729  1.00 20.00     0.008 A 
HETATM    7  C5  UNL     1     -33.362   9.362  -0.286  1.00 20.00     0.012 C 
ENDBRANCH   2   4
TORSDOF 1
ENDMDL
MODEL 5
REMARK VINA RESULT:      -3.2      9.938     10.392
REMARK  1 active torsions:
REMARK  status: ('A' for Active; 'I' for Inactive)
REMARK    1  A    between atoms: C4_4  and  N6_6 
ROOT
HETATM    1  C1  UNL     1     -43.248   4.649  -1.878  1.00 20.00     0.158 C 
HETATM    2  N6  UNL     1     -43.132   5.719  -1.401  1.00 20.00    -0.270 NA
HETATM    3  S7  UNL     1     -43.417   3.209  -2.537  1.00 20.00    -0.055 SA
ENDROOT
BRANCH   2   4
HETATM    4  C4  UNL     1     -42.260   5.789  -0.235  1.00 20.00     0.114 A 
HETATM    5  C2  UNL     1     -40.775   5.731  -0.471  1.00 20.00     0.034 A 
HETATM    6  C3  UNL     1     -41.412   7.016  -0.020  1.00 20.00     0.008 A 
HETATM    7  C5  UNL     1     -41.472   8.185  -0.942  1.00 20.00     0.012 C 
ENDBRANCH   2   4
TORSDOF 1
ENDMDL
MODEL 6
REMARK VINA RESULT:      -3.2      2.481      3.787
REMARK  1 active torsions:
REMARK  status: ('A' for Active; 'I' for Inactive)
REMARK    1  A    between atoms: C4_4  and  N6_6 
ROOT
HETATM    1  C1  UNL     1     -34.239   6.083   4.177  1.00 20.00     0.158 C 
HETATM    2  N6  UNL     1     -33.952   7.137   3.735  1.00 20.00    -0.270 NA
HETATM    3  S7  UNL     1     -34.639   4.667   4.786  1.00 20.00    -0.055 SA
ENDROOT
BRANCH   2   4
HETATM    4  C4  UNL     1     -32.959   7.114   2.669  1.00 20.00     0.114 A 
HETATM    5  C2  UNL     1     -32.743   8.382   1.888  1.00 20.00     0.034 A 
HETATM    6  C3  UNL     1     -31.681   7.894   2.834  1.00 20.00     0.008 A 
HETATM    7  C5  UNL     1     -31.380   8.656   4.079  1.00 20.00     0.012 C 
ENDBRANCH   2   4
TORSDOF 1
ENDMDL
MODEL 7
REMARK VINA RESULT:      -3.0      2.234      2.592
REMARK  1 active torsions:
REMARK  status: ('A' for Active; 'I' for Inactive)
REMARK    1  A    between atoms: C4_4  and  N6_6 
ROOT
HETATM    1  C1  UNL     1     -33.741   5.348   2.873  1.00 20.00     0.158 C 
HETATM    2  N6  UNL     1     -34.461   6.142   3.362  1.00 20.00    -0.270 NA
HETATM    3  S7  UNL     1     -32.764   4.287   2.197  1.00 20.00    -0.055 SA
ENDROOT
BRANCH   2   4
HETATM    4  C4  UNL     1     -35.104   5.718   4.599  1.00 20.00     0.114 A 
HETATM    5  C2  UNL     1     -34.301   4.870   5.548  1.00 20.00     0.034 A 
HETATM    6  C3  UNL     1     -34.631   6.292   5.910  1.00 20.00     0.008 A 
HETATM    7  C5  UNL     1     -33.552   7.317   5.977  1.00 20.00     0.012 C 
ENDBRANCH   2   4
TORSDOF 1
ENDMDL
MODEL 8
REMARK VINA RESULT:      -3.0      2.194      3.004
REMARK  1 active torsions:
REMARK  status: ('A' for Active; 'I' for Inactive)
REMARK    1  A    between atoms: C4_4  and  N6_6 
ROOT
HETATM    1  C1  UNL     1     -32.793   9.427   0.751  1.00 20.00     0.158 C 
HETATM    2  N6  UNL     1     -32.595   9.375   1.911  1.00 20.00    -0.270 NA
HETATM    3  S7  UNL     1     -33.071   9.513  -0.814  1.00 20.00    -0.055 SA
ENDROOT
BRANCH   2   4
HETATM    4  C4  UNL     1     -31.806   8.234   2.357  1.00 20.00     0.114 A 
HETATM    5  C2  UNL     1     -31.442   8.164   3.815  1.00 20.00     0.034 A 
HETATM    6  C3  UNL     1     -32.445   7.198   3.246  1.00 20.00     0.008 A 
HETATM    7  C5  UNL     1     -33.877   7.282   3.649  1.00 20.00     0.012 C 
ENDBRANCH   2   4
TORSDOF 1
ENDMDL
MODEL 9
REMARK VINA RESULT:      -3.0     11.876     12.259
REMARK  1 active torsions:
REMARK  status: ('A' for Active; 'I' for Inactive)
REMARK    1  A    between atoms: C4_4  and  N6_6 
ROOT
HETATM    1  C1  UNL     1     -34.346  14.038  -6.147  1.00 20.00     0.158 C 
HETATM    2  N6  UNL     1     -34.216  14.081  -4.977  1.00 20.00    -0.270 NA
HETATM    3  S7  UNL     1     -34.536  13.966  -7.726  1.00 20.00    -0.055 SA
ENDROOT
BRANCH   2   4
HETATM    4  C4  UNL     1     -33.225  15.036  -4.497  1.00 20.00     0.114 A 
HETATM    5  C2  UNL     1     -33.398  16.478  -4.890  1.00 20.00     0.034 A 
HETATM    6  C3  UNL     1     -33.626  16.058  -3.464  1.00 20.00     0.008 A 
HETATM    7  C5  UNL     1     -34.997  16.095  -2.883  1.00 20.00     0.012 C 
ENDBRANCH   2   4
TORSDOF 1
ENDMDL
