MODEL 1
REMARK VINA RESULT:      -5.0      0.000      0.000
REMARK  2 active torsions:
REMARK  status: ('A' for Active; 'I' for Inactive)
REMARK    1  A    between atoms: C4_4  and  N9_9 
REMARK    2  A    between atoms: C7_7  and  N9_9 
ROOT
HETATM    1  C1  UNL     1     -34.502   5.519   4.727  1.00 20.00     0.094 C 
HETATM    2  C6  UNL     1     -33.229   4.958   2.691  1.00 20.00     0.059 C 
HETATM    3  C7  UNL     1     -34.231   5.906   3.336  1.00 20.00     0.322 C 
HETATM    4  N8  UNL     1     -34.718   5.213   5.825  1.00 20.00    -0.195 NA
ENDROOT
BRANCH   3   5
HETATM    5  N9  UNL     1     -33.745   7.275   3.288  1.00 20.00     0.106 N 
HETATM    6  H21 UNL     1     -34.302   7.812   2.629  1.00 20.00     0.318 HD
BRANCH   5   7
HETATM    7  C4  UNL     1     -32.344   7.312   2.863  1.00 20.00     0.226 A 
HETATM    8  C2  UNL     1     -31.427   8.388   3.385  1.00 20.00     0.042 A 
HETATM    9  C3  UNL     1     -31.827   8.384   1.934  1.00 20.00     0.016 A 
HETATM   10  C5  UNL     1     -32.708   9.462   1.400  1.00 20.00     0.012 C 
ENDBRANCH   5   7
ENDBRANCH   3   5
TORSDOF 2
ENDMDL
MODEL 2
REMARK VINA RESULT:      -4.8      1.529      4.436
REMARK  2 active torsions:
REMARK  status: ('A' for Active; 'I' for Inactive)
REMARK    1  A    between atoms: C4_4  and  N9_9 
REMARK    2  A    between atoms: C7_7  and  N9_9 
ROOT
HETATM    1  C1  UNL     1     -32.556   8.665   1.628  1.00 20.00     0.094 C 
HETATM    2  C6  UNL     1     -31.286   8.145   3.677  1.00 20.00     0.059 C 
HETATM    3  C7  UNL     1     -32.654   8.178   3.010  1.00 20.00     0.322 C 
HETATM    4  N8  UNL     1     -32.478   9.052   0.537  1.00 20.00    -0.195 NA
ENDROOT
BRANCH   3   5
HETATM    5  N9  UNL     1     -33.265   6.858   3.027  1.00 20.00     0.106 N 
HETATM    6  H21 UNL     1     -33.606   6.628   2.098  1.00 20.00     0.318 HD
BRANCH   5   7
HETATM    7  C4  UNL     1     -34.389   6.821   3.966  1.00 20.00     0.226 A 
HETATM    8  C2  UNL     1     -34.139   6.565   5.430  1.00 20.00     0.042 A 
HETATM    9  C3  UNL     1     -34.848   5.530   4.599  1.00 20.00     0.016 A 
HETATM   10  C5  UNL     1     -34.187   4.226   4.308  1.00 20.00     0.012 C 
ENDBRANCH   5   7
ENDBRANCH   3   5
TORSDOF 2
ENDMDL
MODEL 3
REMARK VINA RESULT:      -4.6      1.424      2.458
REMARK  2 active torsions:
REMARK  status: ('A' for Active; 'I' for Inactive)
REMARK    1  A    between atoms: C4_4  and  N9_9 
REMARK    2  A    between atoms: C7_7  and  N9_9 
ROOT
HETATM    1  C1  UNL     1     -33.518   6.891   4.074  1.00 20.00     0.094 C 
HETATM    2  C6  UNL     1     -31.419   8.166   3.849  1.00 20.00     0.059 C 
HETATM    3  C7  UNL     1     -32.477   7.333   3.137  1.00 20.00     0.322 C 
HETATM    4  N8  UNL     1     -34.339   6.540   4.814  1.00 20.00    -0.195 NA
ENDROOT
BRANCH   3   5
HETATM    5  N9  UNL     1     -33.077   8.088   2.050  1.00 20.00     0.106 N 
HETATM    6  H21 UNL     1     -33.199   7.484   1.242  1.00 20.00     0.318 HD
BRANCH   5   7
HETATM    7  C4  UNL     1     -32.225   9.218   1.672  1.00 20.00     0.226 A 
HETATM    8  C2  UNL     1     -32.830  10.584   1.470  1.00 20.00     0.042 A 
HETATM    9  C3  UNL     1     -32.282   9.825   0.291  1.00 20.00     0.016 A 
HETATM   10  C5  UNL     1     -33.206   9.314  -0.762  1.00 20.00     0.012 C 
ENDBRANCH   5   7
ENDBRANCH   3   5
TORSDOF 2
ENDMDL
MODEL 4
REMARK VINA RESULT:      -4.1      1.675      4.434
REMARK  2 active torsions:
REMARK  status: ('A' for Active; 'I' for Inactive)
REMARK    1  A    between atoms: C4_4  and  N9_9 
REMARK    2  A    between atoms: C7_7  and  N9_9 
ROOT
HETATM    1  C1  UNL     1     -32.386   9.282   1.340  1.00 20.00     0.094 C 
HETATM    2  C6  UNL     1     -31.429   8.243   3.362  1.00 20.00     0.059 C 
HETATM    3  C7  UNL     1     -32.693   8.523   2.560  1.00 20.00     0.322 C 
HETATM    4  N8  UNL     1     -32.143   9.884   0.378  1.00 20.00    -0.195 NA
ENDROOT
BRANCH   3   5
HETATM    5  N9  UNL     1     -33.367   7.283   2.214  1.00 20.00     0.106 N 
HETATM    6  H21 UNL     1     -34.369   7.392   2.343  1.00 20.00     0.318 HD
BRANCH   5   7
HETATM    7  C4  UNL     1     -32.898   6.186   3.064  1.00 20.00     0.226 A 
HETATM    8  C2  UNL     1     -33.260   4.762   2.723  1.00 20.00     0.042 A 
HETATM    9  C3  UNL     1     -33.843   5.411   3.950  1.00 20.00     0.016 A 
HETATM   10  C5  UNL     1     -35.302   5.716   4.011  1.00 20.00     0.012 C 
ENDBRANCH   5   7
ENDBRANCH   3   5
TORSDOF 2
ENDMDL
MODEL 5
REMARK VINA RESULT:      -3.9     10.985     11.548
REMARK  2 active torsions:
REMARK  status: ('A' for Active; 'I' for Inactive)
REMARK    1  A    between atoms: C4_4  and  N9_9 
REMARK    2  A    between atoms: C7_7  and  N9_9 
ROOT
HETATM    1  C1  UNL     1     -35.234  13.857  -5.154  1.00 20.00     0.094 C 
HETATM    2  C6  UNL     1     -32.951  14.497  -4.477  1.00 20.00     0.059 C 
HETATM    3  C7  UNL     1     -34.261  14.956  -5.102  1.00 20.00     0.322 C 
HETATM    4  N8  UNL     1     -36.002  12.989  -5.197  1.00 20.00    -0.195 NA
ENDROOT
BRANCH   3   5
HETATM    5  N9  UNL     1     -34.818  16.076  -4.361  1.00 20.00     0.106 N 
HETATM    6  H21 UNL     1     -34.393  16.942  -4.681  1.00 20.00     0.318 HD
BRANCH   5   7
HETATM    7  C4  UNL     1     -34.560  15.925  -2.926  1.00 20.00     0.226 A 
HETATM    8  C2  UNL     1     -35.324  16.761  -1.932  1.00 20.00     0.042 A 
HETATM    9  C3  UNL     1     -33.851  16.997  -2.134  1.00 20.00     0.016 A 
HETATM   10  C5  UNL     1     -33.378  18.264  -2.760  1.00 20.00     0.012 C 
ENDBRANCH   5   7
ENDBRANCH   3   5
TORSDOF 2
ENDMDL
MODEL 6
REMARK VINA RESULT:      -3.8     11.196     11.907
REMARK  2 active torsions:
REMARK  status: ('A' for Active; 'I' for Inactive)
REMARK    1  A    between atoms: C4_4  and  N9_9 
REMARK    2  A    between atoms: C7_7  and  N9_9 
ROOT
HETATM    1  C1  UNL     1     -36.412  13.888  -5.093  1.00 20.00     0.094 C 
HETATM    2  C6  UNL     1     -36.717  16.175  -5.965  1.00 20.00     0.059 C 
HETATM    3  C7  UNL     1     -37.065  15.184  -4.863  1.00 20.00     0.322 C 
HETATM    4  N8  UNL     1     -35.898  12.865  -5.276  1.00 20.00    -0.195 NA
ENDROOT
BRANCH   3   5
HETATM    5  N9  UNL     1     -36.681  15.707  -3.562  1.00 20.00     0.106 N 
HETATM    6  H21 UNL     1     -37.437  16.274  -3.186  1.00 20.00     0.318 HD
BRANCH   5   7
HETATM    7  C4  UNL     1     -35.479  16.537  -3.673  1.00 20.00     0.226 A 
HETATM    8  C2  UNL     1     -34.159  16.023  -3.157  1.00 20.00     0.042 A 
HETATM    9  C3  UNL     1     -34.841  17.170  -2.461  1.00 20.00     0.016 A 
HETATM   10  C5  UNL     1     -35.393  16.989  -1.088  1.00 20.00     0.012 C 
ENDBRANCH   5   7
ENDBRANCH   3   5
TORSDOF 2
ENDMDL
MODEL 7
REMARK VINA RESULT:      -3.7     11.274     11.698
REMARK  2 active torsions:
REMARK  status: ('A' for Active; 'I' for Inactive)
REMARK    1  A    between atoms: C4_4  and  N9_9 
REMARK    2  A    between atoms: C7_7  and  N9_9 
ROOT
HETATM    1  C1  UNL     1     -35.907  13.364  -5.647  1.00 20.00     0.094 C 
HETATM    2  C6  UNL     1     -38.033  14.591  -5.416  1.00 20.00     0.059 C 
HETATM    3  C7  UNL     1     -36.682  14.271  -4.791  1.00 20.00     0.322 C 
HETATM    4  N8  UNL     1     -35.295  12.645  -6.322  1.00 20.00    -0.195 NA
ENDROOT
BRANCH   3   5
HETATM    5  N9  UNL     1     -35.927  15.490  -4.550  1.00 20.00     0.106 N 
HETATM    6  H21 UNL     1     -35.571  15.850  -5.431  1.00 20.00     0.318 HD
BRANCH   5   7
HETATM    7  C4  UNL     1     -34.797  15.229  -3.656  1.00 20.00     0.226 A 
HETATM    8  C2  UNL     1     -33.950  16.373  -3.159  1.00 20.00     0.042 A 
HETATM    9  C3  UNL     1     -33.368  15.374  -4.123  1.00 20.00     0.016 A 
HETATM   10  C5  UNL     1     -33.028  15.790  -5.514  1.00 20.00     0.012 C 
ENDBRANCH   5   7
ENDBRANCH   3   5
TORSDOF 2
ENDMDL
MODEL 8
REMARK VINA RESULT:      -3.6     11.135     11.878
REMARK  2 active torsions:
REMARK  status: ('A' for Active; 'I' for Inactive)
REMARK    1  A    between atoms: C4_4  and  N9_9 
REMARK    2  A    between atoms: C7_7  and  N9_9 
ROOT
HETATM    1  C1  UNL     1     -36.031  13.957  -4.975  1.00 20.00     0.094 C 
HETATM    2  C6  UNL     1     -37.096  16.068  -5.674  1.00 20.00     0.059 C 
HETATM    3  C7  UNL     1     -36.262  15.362  -4.614  1.00 20.00     0.322 C 
HETATM    4  N8  UNL     1     -35.850  12.846  -5.258  1.00 20.00    -0.195 NA
ENDROOT
BRANCH   3   5
HETATM    5  N9  UNL     1     -34.990  16.040  -4.427  1.00 20.00     0.106 N 
HETATM    6  H21 UNL     1     -34.298  15.647  -5.060  1.00 20.00     0.318 HD
BRANCH   5   7
HETATM    7  C4  UNL     1     -34.516  15.879  -3.050  1.00 20.00     0.226 A 
HETATM    8  C2  UNL     1     -35.140  16.685  -1.940  1.00 20.00     0.042 A 
HETATM    9  C3  UNL     1     -33.720  16.958  -2.357  1.00 20.00     0.016 A 
HETATM   10  C5  UNL     1     -33.374  18.244  -3.028  1.00 20.00     0.012 C 
ENDBRANCH   5   7
ENDBRANCH   3   5
TORSDOF 2
ENDMDL
MODEL 9
REMARK VINA RESULT:      -3.6     10.964     11.983
REMARK  2 active torsions:
REMARK  status: ('A' for Active; 'I' for Inactive)
REMARK    1  A    between atoms: C4_4  and  N9_9 
REMARK    2  A    between atoms: C7_7  and  N9_9 
ROOT
HETATM    1  C1  UNL     1     -32.858  17.988  -1.437  1.00 20.00     0.094 C 
HETATM    2  C6  UNL     1     -35.095  16.961  -1.290  1.00 20.00     0.059 C 
HETATM    3  C7  UNL     1     -33.974  17.427  -2.209  1.00 20.00     0.322 C 
HETATM    4  N8  UNL     1     -31.977  18.433  -0.826  1.00 20.00    -0.195 NA
ENDROOT
BRANCH   3   5
HETATM    5  N9  UNL     1     -33.500  16.330  -3.037  1.00 20.00     0.106 N 
HETATM    6  H21 UNL     1     -32.847  16.683  -3.731  1.00 20.00     0.318 HD
BRANCH   5   7
HETATM    7  C4  UNL     1     -34.618  15.683  -3.728  1.00 20.00     0.226 A 
HETATM    8  C2  UNL     1     -34.498  14.249  -4.177  1.00 20.00     0.042 A 
HETATM    9  C3  UNL     1     -34.554  15.353  -5.199  1.00 20.00     0.016 A 
HETATM   10  C5  UNL     1     -33.356  15.663  -6.030  1.00 20.00     0.012 C 
ENDBRANCH   5   7
ENDBRANCH   3   5
TORSDOF 2
ENDMDL
