MODEL 1
REMARK VINA RESULT:      -5.3      0.000      0.000
REMARK  3 active torsions:
REMARK  status: ('A' for Active; 'I' for Inactive)
REMARK    1  A    between atoms: C4_4  and  N10_10 
REMARK    2  A    between atoms: C7_7  and  C8_8 
REMARK    3  A    between atoms: C7_7  and  N10_10 
ROOT
HETATM    1  C1  UNL     1     -32.502   9.153   1.457  1.00 20.00     0.065 C 
HETATM    2  C6  UNL     1     -31.482   8.188   3.488  1.00 20.00     0.027 C 
HETATM    3  C8  UNL     1     -32.703   8.204   2.569  1.00 20.00     0.116 C 
HETATM    4  N9  UNL     1     -32.344   9.900   0.583  1.00 20.00    -0.197 NA
ENDROOT
BRANCH   3   5
HETATM    5  C7  UNL     1     -33.058   6.802   2.056  1.00 20.00     0.288 C 
BRANCH   5   6
HETATM    6  N10 UNL     1     -32.959   5.800   3.102  1.00 20.00     0.089 N 
HETATM    7  H24 UNL     1     -32.413   6.166   3.878  1.00 20.00     0.316 HD
BRANCH   6   8
HETATM    8  C4  UNL     1     -34.290   5.437   3.597  1.00 20.00     0.224 A 
HETATM    9  C2  UNL     1     -34.443   4.454   4.728  1.00 20.00     0.042 A 
HETATM   10  C3  UNL     1     -34.808   5.899   4.938  1.00 20.00     0.016 A 
HETATM   11  C5  UNL     1     -33.998   6.750   5.855  1.00 20.00     0.012 C 
ENDBRANCH   6   8
ENDBRANCH   5   6
ENDBRANCH   3   5
TORSDOF 3
ENDMDL
MODEL 2
REMARK VINA RESULT:      -5.1      1.773      5.004
REMARK  3 active torsions:
REMARK  status: ('A' for Active; 'I' for Inactive)
REMARK    1  A    between atoms: C4_4  and  N10_10 
REMARK    2  A    between atoms: C7_7  and  C8_8 
REMARK    3  A    between atoms: C7_7  and  N10_10 
ROOT
HETATM    1  C1  UNL     1     -33.676   7.133   4.922  1.00 20.00     0.065 C 
HETATM    2  C6  UNL     1     -33.445   5.776   2.872  1.00 20.00     0.027 C 
HETATM    3  C8  UNL     1     -33.304   7.165   3.494  1.00 20.00     0.116 C 
HETATM    4  N9  UNL     1     -33.970   7.109   6.044  1.00 20.00    -0.197 NA
ENDROOT
BRANCH   3   5
HETATM    5  C7  UNL     1     -31.900   7.749   3.291  1.00 20.00     0.288 C 
BRANCH   5   6
HETATM    6  N10 UNL     1     -31.744   8.343   1.974  1.00 20.00     0.089 N 
HETATM    7  H24 UNL     1     -31.895   7.636   1.260  1.00 20.00     0.316 HD
BRANCH   6   8
HETATM    8  C4  UNL     1     -32.715   9.424   1.778  1.00 20.00     0.224 A 
HETATM    9  C2  UNL     1     -32.306  10.703   1.096  1.00 20.00     0.042 A 
HETATM   10  C3  UNL     1     -33.273   9.771   0.418  1.00 20.00     0.016 A 
HETATM   11  C5  UNL     1     -32.869   9.045  -0.819  1.00 20.00     0.012 C 
ENDBRANCH   6   8
ENDBRANCH   5   6
ENDBRANCH   3   5
TORSDOF 3
ENDMDL
MODEL 3
REMARK VINA RESULT:      -5.0      1.656      4.900
REMARK  3 active torsions:
REMARK  status: ('A' for Active; 'I' for Inactive)
REMARK    1  A    between atoms: C4_4  and  N10_10 
REMARK    2  A    between atoms: C7_7  and  C8_8 
REMARK    3  A    between atoms: C7_7  and  N10_10 
ROOT
HETATM    1  C1  UNL     1     -33.999   6.782   5.168  1.00 20.00     0.065 C 
HETATM    2  C6  UNL     1     -34.163   4.614   3.997  1.00 20.00     0.027 C 
HETATM    3  C8  UNL     1     -34.079   6.133   3.845  1.00 20.00     0.116 C 
HETATM    4  N9  UNL     1     -33.939   7.293   6.208  1.00 20.00    -0.197 NA
ENDROOT
BRANCH   3   5
HETATM    5  C7  UNL     1     -32.917   6.558   2.939  1.00 20.00     0.288 C 
BRANCH   5   6
HETATM    6  N10 UNL     1     -33.323   7.561   1.969  1.00 20.00     0.089 N 
HETATM    7  H24 UNL     1     -34.231   7.941   2.229  1.00 20.00     0.316 HD
BRANCH   6   8
HETATM    8  C4  UNL     1     -32.352   8.658   1.923  1.00 20.00     0.224 A 
HETATM    9  C2  UNL     1     -31.213   8.628   0.938  1.00 20.00     0.042 A 
HETATM   10  C3  UNL     1     -32.307   9.650   0.786  1.00 20.00     0.016 A 
HETATM   11  C5  UNL     1     -33.241   9.579  -0.373  1.00 20.00     0.012 C 
ENDBRANCH   6   8
ENDBRANCH   5   6
ENDBRANCH   3   5
TORSDOF 3
ENDMDL
MODEL 4
REMARK VINA RESULT:      -4.8      1.487      2.061
REMARK  3 active torsions:
REMARK  status: ('A' for Active; 'I' for Inactive)
REMARK    1  A    between atoms: C4_4  and  N10_10 
REMARK    2  A    between atoms: C7_7  and  C8_8 
REMARK    3  A    between atoms: C7_7  and  N10_10 
ROOT
HETATM    1  C1  UNL     1     -32.931   9.247  -0.045  1.00 20.00     0.065 C 
HETATM    2  C6  UNL     1     -32.472  10.936   1.697  1.00 20.00     0.027 C 
HETATM    3  C8  UNL     1     -32.746   9.461   1.404  1.00 20.00     0.116 C 
HETATM    4  N9  UNL     1     -33.078   9.079  -1.183  1.00 20.00    -0.197 NA
ENDROOT
BRANCH   3   5
HETATM    5  C7  UNL     1     -31.654   8.546   1.972  1.00 20.00     0.288 C 
BRANCH   5   6
HETATM    6  N10 UNL     1     -32.070   7.906   3.209  1.00 20.00     0.089 N 
HETATM    7  H24 UNL     1     -32.172   8.607   3.939  1.00 20.00     0.316 HD
BRANCH   6   8
HETATM    8  C4  UNL     1     -33.356   7.226   3.030  1.00 20.00     0.224 A 
HETATM    9  C2  UNL     1     -33.497   5.762   3.354  1.00 20.00     0.042 A 
HETATM   10  C3  UNL     1     -34.208   6.787   4.197  1.00 20.00     0.016 A 
HETATM   11  C5  UNL     1     -33.796   7.007   5.612  1.00 20.00     0.012 C 
ENDBRANCH   6   8
ENDBRANCH   5   6
ENDBRANCH   3   5
TORSDOF 3
ENDMDL
MODEL 5
REMARK VINA RESULT:      -4.8      1.519      4.519
REMARK  3 active torsions:
REMARK  status: ('A' for Active; 'I' for Inactive)
REMARK    1  A    between atoms: C4_4  and  N10_10 
REMARK    2  A    between atoms: C7_7  and  C8_8 
REMARK    3  A    between atoms: C7_7  and  N10_10 
ROOT
HETATM    1  C1  UNL     1     -34.352   6.320   5.338  1.00 20.00     0.065 C 
HETATM    2  C6  UNL     1     -34.153   4.059   4.364  1.00 20.00     0.027 C 
HETATM    3  C8  UNL     1     -34.774   5.449   4.225  1.00 20.00     0.116 C 
HETATM    4  N9  UNL     1     -34.021   7.004   6.215  1.00 20.00    -0.197 NA
ENDROOT
BRANCH   3   5
HETATM    5  C7  UNL     1     -34.465   6.086   2.864  1.00 20.00     0.288 C 
BRANCH   5   6
HETATM    6  N10 UNL     1     -33.060   6.432   2.733  1.00 20.00     0.089 N 
HETATM    7  H24 UNL     1     -32.752   6.262   1.778  1.00 20.00     0.316 HD
BRANCH   6   8
HETATM    8  C4  UNL     1     -32.845   7.847   3.049  1.00 20.00     0.224 A 
HETATM    9  C2  UNL     1     -31.468   8.352   3.392  1.00 20.00     0.042 A 
HETATM   10  C3  UNL     1     -32.125   8.785   2.110  1.00 20.00     0.016 A 
HETATM   11  C5  UNL     1     -31.575   8.335   0.799  1.00 20.00     0.012 C 
ENDBRANCH   6   8
ENDBRANCH   5   6
ENDBRANCH   3   5
TORSDOF 3
ENDMDL
MODEL 6
REMARK VINA RESULT:      -4.8      1.536      4.926
REMARK  3 active torsions:
REMARK  status: ('A' for Active; 'I' for Inactive)
REMARK    1  A    between atoms: C4_4  and  N10_10 
REMARK    2  A    between atoms: C7_7  and  C8_8 
REMARK    3  A    between atoms: C7_7  and  N10_10 
ROOT
HETATM    1  C1  UNL     1     -34.225   5.326   4.463  1.00 20.00     0.065 C 
HETATM    2  C6  UNL     1     -33.722   7.310   5.845  1.00 20.00     0.027 C 
HETATM    3  C8  UNL     1     -33.525   6.625   4.492  1.00 20.00     0.116 C 
HETATM    4  N9  UNL     1     -34.774   4.304   4.441  1.00 20.00    -0.197 NA
ENDROOT
BRANCH   3   5
HETATM    5  C7  UNL     1     -33.953   7.521   3.323  1.00 20.00     0.288 C 
BRANCH   5   6
HETATM    6  N10 UNL     1     -33.044   7.412   2.195  1.00 20.00     0.089 N 
HETATM    7  H24 UNL     1     -33.575   7.268   1.339  1.00 20.00     0.316 HD
BRANCH   6   8
HETATM    8  C4  UNL     1     -32.250   8.636   2.052  1.00 20.00     0.224 A 
HETATM    9  C2  UNL     1     -31.160   8.723   1.016  1.00 20.00     0.042 A 
HETATM   10  C3  UNL     1     -32.400   9.564   0.871  1.00 20.00     0.016 A 
HETATM   11  C5  UNL     1     -33.360   9.296  -0.237  1.00 20.00     0.012 C 
ENDBRANCH   6   8
ENDBRANCH   5   6
ENDBRANCH   3   5
TORSDOF 3
ENDMDL
MODEL 7
REMARK VINA RESULT:      -4.5      1.732      2.412
REMARK  3 active torsions:
REMARK  status: ('A' for Active; 'I' for Inactive)
REMARK    1  A    between atoms: C4_4  and  N10_10 
REMARK    2  A    between atoms: C7_7  and  C8_8 
REMARK    3  A    between atoms: C7_7  and  N10_10 
ROOT
HETATM    1  C1  UNL     1     -32.491  10.573   1.362  1.00 20.00     0.065 C 
HETATM    2  C6  UNL     1     -33.095   9.154  -0.567  1.00 20.00     0.027 C 
HETATM    3  C8  UNL     1     -32.042   9.465   0.497  1.00 20.00     0.116 C 
HETATM    4  N9  UNL     1     -32.843  11.445   2.041  1.00 20.00    -0.197 NA
ENDROOT
BRANCH   3   5
HETATM    5  C7  UNL     1     -31.667   8.225   1.319  1.00 20.00     0.288 C 
BRANCH   5   6
HETATM    6  N10 UNL     1     -32.338   8.205   2.608  1.00 20.00     0.089 N 
HETATM    7  H24 UNL     1     -32.725   9.124   2.807  1.00 20.00     0.316 HD
BRANCH   6   8
HETATM    8  C4  UNL     1     -33.431   7.228   2.605  1.00 20.00     0.224 A 
HETATM    9  C2  UNL     1     -33.193   5.814   3.069  1.00 20.00     0.042 A 
HETATM   10  C3  UNL     1     -34.073   6.729   3.877  1.00 20.00     0.016 A 
HETATM   11  C5  UNL     1     -33.635   7.190   5.225  1.00 20.00     0.012 C 
ENDBRANCH   6   8
ENDBRANCH   5   6
ENDBRANCH   3   5
TORSDOF 3
ENDMDL
MODEL 8
REMARK VINA RESULT:      -4.4      0.694      1.166
REMARK  3 active torsions:
REMARK  status: ('A' for Active; 'I' for Inactive)
REMARK    1  A    between atoms: C4_4  and  N10_10 
REMARK    2  A    between atoms: C7_7  and  C8_8 
REMARK    3  A    between atoms: C7_7  and  N10_10 
ROOT
HETATM    1  C1  UNL     1     -32.523   9.436   1.495  1.00 20.00     0.065 C 
HETATM    2  C6  UNL     1     -31.260   8.456   3.377  1.00 20.00     0.027 C 
HETATM    3  C8  UNL     1     -32.540   8.398   2.544  1.00 20.00     0.116 C 
HETATM    4  N9  UNL     1     -32.511  10.253   0.672  1.00 20.00    -0.197 NA
ENDROOT
BRANCH   3   5
HETATM    5  C7  UNL     1     -32.781   7.003   1.952  1.00 20.00     0.288 C 
BRANCH   5   6
HETATM    6  N10 UNL     1     -33.074   6.019   2.981  1.00 20.00     0.089 N 
HETATM    7  H24 UNL     1     -32.236   5.835   3.527  1.00 20.00     0.316 HD
BRANCH   6   8
HETATM    8  C4  UNL     1     -34.122   6.510   3.881  1.00 20.00     0.224 A 
HETATM    9  C2  UNL     1     -35.541   6.026   3.737  1.00 20.00     0.042 A 
HETATM   10  C3  UNL     1     -34.739   5.643   4.951  1.00 20.00     0.016 A 
HETATM   11  C5  UNL     1     -34.331   4.225   5.162  1.00 20.00     0.012 C 
ENDBRANCH   6   8
ENDBRANCH   5   6
ENDBRANCH   3   5
TORSDOF 3
ENDMDL
MODEL 9
REMARK VINA RESULT:      -4.0     11.200     12.115
REMARK  3 active torsions:
REMARK  status: ('A' for Active; 'I' for Inactive)
REMARK    1  A    between atoms: C4_4  and  N10_10 
REMARK    2  A    between atoms: C7_7  and  C8_8 
REMARK    3  A    between atoms: C7_7  and  N10_10 
ROOT
HETATM    1  C1  UNL     1     -35.578  13.817  -5.743  1.00 20.00     0.065 C 
HETATM    2  C6  UNL     1     -34.016  14.944  -7.288  1.00 20.00     0.027 C 
HETATM    3  C8  UNL     1     -35.218  15.109  -6.359  1.00 20.00     0.116 C 
HETATM    4  N9  UNL     1     -35.861  12.801  -5.259  1.00 20.00    -0.197 NA
ENDROOT
BRANCH   3   5
HETATM    5  C7  UNL     1     -34.986  16.193  -5.299  1.00 20.00     0.288 C 
BRANCH   5   6
HETATM    6  N10 UNL     1     -34.844  15.629  -3.967  1.00 20.00     0.089 N 
HETATM    7  H24 UNL     1     -34.647  14.634  -4.036  1.00 20.00     0.316 HD
BRANCH   6   8
HETATM    8  C4  UNL     1     -33.742  16.276  -3.248  1.00 20.00     0.224 A 
HETATM    9  C2  UNL     1     -33.676  17.777  -3.143  1.00 20.00     0.042 A 
HETATM   10  C3  UNL     1     -33.936  16.951  -1.912  1.00 20.00     0.016 A 
HETATM   11  C5  UNL     1     -35.262  17.014  -1.235  1.00 20.00     0.012 C 
ENDBRANCH   6   8
ENDBRANCH   5   6
ENDBRANCH   3   5
TORSDOF 3
ENDMDL
