MODEL 1
REMARK VINA RESULT:      -5.4      0.000      0.000
REMARK  2 active torsions:
REMARK  status: ('A' for Active; 'I' for Inactive)
REMARK    1  A    between atoms: C5_5  and  N8_8 
REMARK    2  A    between atoms: C7_7  and  N8_8 
ROOT
HETATM    1  C1  UNL     1     -32.502   9.952   0.698  1.00 20.00     0.013 C 
HETATM    2  C2  UNL     1     -32.377   9.096   1.531  1.00 20.00    -0.087 C 
HETATM    3  C7  UNL     1     -32.218   8.053   2.547  1.00 20.00     0.362 C 
ENDROOT
BRANCH   3   4
HETATM    4  N8  UNL     1     -33.511   7.652   3.076  1.00 20.00     0.099 N 
HETATM    5  H19 UNL     1     -34.029   7.143   2.365  1.00 20.00     0.317 HD
BRANCH   4   6
HETATM    6  C5  UNL     1     -33.341   6.782   4.245  1.00 20.00     0.225 A 
HETATM    7  C3  UNL     1     -33.733   7.267   5.617  1.00 20.00     0.042 A 
HETATM    8  C4  UNL     1     -34.546   6.197   4.940  1.00 20.00     0.016 A 
HETATM    9  C6  UNL     1     -34.511   4.798   5.447  1.00 20.00     0.012 C 
ENDBRANCH   4   6
ENDBRANCH   3   4
TORSDOF 2
ENDMDL
MODEL 2
REMARK VINA RESULT:      -5.4      1.292      4.655
REMARK  2 active torsions:
REMARK  status: ('A' for Active; 'I' for Inactive)
REMARK    1  A    between atoms: C5_5  and  N8_8 
REMARK    2  A    between atoms: C7_7  and  N8_8 
ROOT
HETATM    1  C1  UNL     1     -34.670   5.051   5.577  1.00 20.00     0.013 C 
HETATM    2  C2  UNL     1     -34.502   5.397   4.440  1.00 20.00    -0.087 C 
HETATM    3  C7  UNL     1     -34.304   5.820   3.052  1.00 20.00     0.362 C 
ENDROOT
BRANCH   3   4
HETATM    4  N8  UNL     1     -32.924   6.218   2.830  1.00 20.00     0.099 N 
HETATM    5  H19 UNL     1     -32.608   5.871   1.928  1.00 20.00     0.317 HD
BRANCH   4   6
HETATM    6  C5  UNL     1     -32.802   7.680   2.840  1.00 20.00     0.225 A 
HETATM    7  C3  UNL     1     -31.510   8.332   3.260  1.00 20.00     0.042 A 
HETATM    8  C4  UNL     1     -31.938   8.378   1.819  1.00 20.00     0.016 A 
HETATM    9  C6  UNL     1     -32.386   9.662   1.212  1.00 20.00     0.012 C 
ENDBRANCH   4   6
ENDBRANCH   3   4
TORSDOF 2
ENDMDL
MODEL 3
REMARK VINA RESULT:      -5.2      0.989      1.232
REMARK  2 active torsions:
REMARK  status: ('A' for Active; 'I' for Inactive)
REMARK    1  A    between atoms: C5_5  and  N8_8 
REMARK    2  A    between atoms: C7_7  and  N8_8 
ROOT
HETATM    1  C1  UNL     1     -32.388   9.403   0.714  1.00 20.00     0.013 C 
HETATM    2  C2  UNL     1     -32.223   8.755   1.711  1.00 20.00    -0.087 C 
HETATM    3  C7  UNL     1     -32.021   7.967   2.929  1.00 20.00     0.362 C 
ENDROOT
BRANCH   3   4
HETATM    4  N8  UNL     1     -32.703   6.688   2.832  1.00 20.00     0.099 N 
HETATM    5  H19 UNL     1     -32.039   5.934   2.983  1.00 20.00     0.317 HD
BRANCH   4   6
HETATM    6  C5  UNL     1     -33.761   6.591   3.844  1.00 20.00     0.225 A 
HETATM    7  C3  UNL     1     -35.154   6.173   3.449  1.00 20.00     0.042 A 
HETATM    8  C4  UNL     1     -34.294   5.243   4.261  1.00 20.00     0.016 A 
HETATM    9  C6  UNL     1     -34.620   4.975   5.689  1.00 20.00     0.012 C 
ENDBRANCH   4   6
ENDBRANCH   3   4
TORSDOF 2
ENDMDL
MODEL 4
REMARK VINA RESULT:      -5.0      1.128      1.519
REMARK  2 active torsions:
REMARK  status: ('A' for Active; 'I' for Inactive)
REMARK    1  A    between atoms: C5_5  and  N8_8 
REMARK    2  A    between atoms: C7_7  and  N8_8 
ROOT
HETATM    1  C1  UNL     1     -32.949   9.506  -0.243  1.00 20.00     0.013 C 
HETATM    2  C2  UNL     1     -32.521   9.134   0.815  1.00 20.00    -0.087 C 
HETATM    3  C7  UNL     1     -31.996   8.686   2.107  1.00 20.00     0.362 C 
ENDROOT
BRANCH   3   4
HETATM    4  N8  UNL     1     -32.484   7.355   2.424  1.00 20.00     0.099 N 
HETATM    5  H19 UNL     1     -31.725   6.793   2.801  1.00 20.00     0.317 HD
BRANCH   4   6
HETATM    6  C5  UNL     1     -33.556   7.424   3.424  1.00 20.00     0.225 A 
HETATM    7  C3  UNL     1     -34.476   6.250   3.634  1.00 20.00     0.042 A 
HETATM    8  C4  UNL     1     -33.469   6.612   4.691  1.00 20.00     0.016 A 
HETATM    9  C6  UNL     1     -33.919   7.193   5.986  1.00 20.00     0.012 C 
ENDBRANCH   4   6
ENDBRANCH   3   4
TORSDOF 2
ENDMDL
MODEL 5
REMARK VINA RESULT:      -4.9      1.360      4.817
REMARK  2 active torsions:
REMARK  status: ('A' for Active; 'I' for Inactive)
REMARK    1  A    between atoms: C5_5  and  N8_8 
REMARK    2  A    between atoms: C7_7  and  N8_8 
ROOT
HETATM    1  C1  UNL     1     -33.754   7.332   5.597  1.00 20.00     0.013 C 
HETATM    2  C2  UNL     1     -33.285   7.186   4.502  1.00 20.00    -0.087 C 
HETATM    3  C7  UNL     1     -32.715   7.002   3.165  1.00 20.00     0.362 C 
ENDROOT
BRANCH   3   4
HETATM    4  N8  UNL     1     -31.990   8.191   2.750  1.00 20.00     0.099 N 
HETATM    5  H19 UNL     1     -31.127   7.920   2.285  1.00 20.00     0.317 HD
BRANCH   4   6
HETATM    6  C5  UNL     1     -32.795   8.986   1.817  1.00 20.00     0.225 A 
HETATM    7  C3  UNL     1     -32.412  10.410   1.505  1.00 20.00     0.042 A 
HETATM    8  C4  UNL     1     -32.253   9.344   0.456  1.00 20.00     0.016 A 
HETATM    9  C6  UNL     1     -33.147   9.326  -0.735  1.00 20.00     0.012 C 
ENDBRANCH   4   6
ENDBRANCH   3   4
TORSDOF 2
ENDMDL
MODEL 6
REMARK VINA RESULT:      -4.6      2.008      4.331
REMARK  2 active torsions:
REMARK  status: ('A' for Active; 'I' for Inactive)
REMARK    1  A    between atoms: C5_5  and  N8_8 
REMARK    2  A    between atoms: C7_7  and  N8_8 
ROOT
HETATM    1  C1  UNL     1     -33.739   7.482   6.054  1.00 20.00     0.013 C 
HETATM    2  C2  UNL     1     -34.200   6.382   5.923  1.00 20.00    -0.087 C 
HETATM    3  C7  UNL     1     -34.765   5.039   5.768  1.00 20.00     0.362 C 
ENDROOT
BRANCH   3   4
HETATM    4  N8  UNL     1     -34.707   4.616   4.379  1.00 20.00     0.099 N 
HETATM    5  H19 UNL     1     -35.530   4.951   3.885  1.00 20.00     0.317 HD
BRANCH   4   6
HETATM    6  C5  UNL     1     -33.512   5.160   3.724  1.00 20.00     0.225 A 
HETATM    7  C3  UNL     1     -33.135   4.709   2.337  1.00 20.00     0.042 A 
HETATM    8  C4  UNL     1     -33.648   6.106   2.557  1.00 20.00     0.016 A 
HETATM    9  C6  UNL     1     -32.729   7.270   2.427  1.00 20.00     0.012 C 
ENDBRANCH   4   6
ENDBRANCH   3   4
TORSDOF 2
ENDMDL
MODEL 7
REMARK VINA RESULT:      -4.6      1.458      4.185
REMARK  2 active torsions:
REMARK  status: ('A' for Active; 'I' for Inactive)
REMARK    1  A    between atoms: C5_5  and  N8_8 
REMARK    2  A    between atoms: C7_7  and  N8_8 
ROOT
HETATM    1  C1  UNL     1     -34.729   4.831   5.577  1.00 20.00     0.013 C 
HETATM    2  C2  UNL     1     -34.335   5.943   5.798  1.00 20.00    -0.087 C 
HETATM    3  C7  UNL     1     -33.856   7.300   6.072  1.00 20.00     0.362 C 
ENDROOT
BRANCH   3   4
HETATM    4  N8  UNL     1     -32.880   7.710   5.077  1.00 20.00     0.099 N 
HETATM    5  H19 UNL     1     -31.992   7.249   5.258  1.00 20.00     0.317 HD
BRANCH   4   6
HETATM    6  C5  UNL     1     -33.333   7.345   3.730  1.00 20.00     0.225 A 
HETATM    7  C3  UNL     1     -32.554   7.791   2.520  1.00 20.00     0.042 A 
HETATM    8  C4  UNL     1     -32.560   6.339   2.914  1.00 20.00     0.016 A 
HETATM    9  C6  UNL     1     -33.282   5.339   2.079  1.00 20.00     0.012 C 
ENDBRANCH   4   6
ENDBRANCH   3   4
TORSDOF 2
ENDMDL
MODEL 8
REMARK VINA RESULT:      -4.6      1.121      4.572
REMARK  2 active torsions:
REMARK  status: ('A' for Active; 'I' for Inactive)
REMARK    1  A    between atoms: C5_5  and  N8_8 
REMARK    2  A    between atoms: C7_7  and  N8_8 
ROOT
HETATM    1  C1  UNL     1     -34.782   4.587   5.510  1.00 20.00     0.013 C 
HETATM    2  C2  UNL     1     -34.349   5.695   5.667  1.00 20.00    -0.087 C 
HETATM    3  C7  UNL     1     -33.819   7.046   5.864  1.00 20.00     0.362 C 
ENDROOT
BRANCH   3   4
HETATM    4  N8  UNL     1     -33.919   7.819   4.637  1.00 20.00     0.099 N 
HETATM    5  H19 UNL     1     -33.931   8.811   4.858  1.00 20.00     0.317 HD
BRANCH   4   6
HETATM    6  C5  UNL     1     -32.772   7.548   3.763  1.00 20.00     0.225 A 
HETATM    7  C3  UNL     1     -32.855   6.470   2.714  1.00 20.00     0.042 A 
HETATM    8  C4  UNL     1     -32.826   7.916   2.301  1.00 20.00     0.016 A 
HETATM    9  C6  UNL     1     -31.623   8.478   1.626  1.00 20.00     0.012 C 
ENDBRANCH   4   6
ENDBRANCH   3   4
TORSDOF 2
ENDMDL
MODEL 9
REMARK VINA RESULT:      -4.2      1.459      2.396
REMARK  2 active torsions:
REMARK  status: ('A' for Active; 'I' for Inactive)
REMARK    1  A    between atoms: C5_5  and  N8_8 
REMARK    2  A    between atoms: C7_7  and  N8_8 
ROOT
HETATM    1  C1  UNL     1     -32.972   4.608   2.434  1.00 20.00     0.013 C 
HETATM    2  C2  UNL     1     -32.889   5.805   2.452  1.00 20.00    -0.087 C 
HETATM    3  C7  UNL     1     -32.787   7.266   2.469  1.00 20.00     0.362 C 
ENDROOT
BRANCH   3   4
HETATM    4  N8  UNL     1     -33.482   7.815   3.620  1.00 20.00     0.099 N 
HETATM    5  H19 UNL     1     -34.467   7.937   3.400  1.00 20.00     0.317 HD
BRANCH   4   6
HETATM    6  C5  UNL     1     -33.369   6.910   4.770  1.00 20.00     0.225 A 
HETATM    7  C3  UNL     1     -33.851   7.346   6.130  1.00 20.00     0.042 A 
HETATM    8  C4  UNL     1     -34.602   6.285   5.372  1.00 20.00     0.016 A 
HETATM    9  C6  UNL     1     -34.574   4.871   5.837  1.00 20.00     0.012 C 
ENDBRANCH   4   6
ENDBRANCH   3   4
TORSDOF 2
ENDMDL
