MODEL 1
REMARK VINA RESULT:      -6.2      0.000      0.000
REMARK  1 active torsions:
REMARK  status: ('A' for Active; 'I' for Inactive)
REMARK    1  A    between atoms: C5_5  and  C6_6 
ROOT
HETATM    1  C1  UNL     1     -34.106   4.598   4.085  1.00 20.00     0.014 A 
HETATM    2  C2  UNL     1     -34.357   6.388   5.989  1.00 20.00     0.275 C 
HETATM    3  C3  UNL     1     -34.955   5.452   4.988  1.00 20.00     0.021 A 
HETATM    4  C4  UNL     1     -34.601   5.951   3.638  1.00 20.00     0.034 A 
HETATM    5  C5  UNL     1     -33.809   7.213   3.824  1.00 20.00     0.331 C 
HETATM    6  N7  UNL     1     -33.367   7.165   5.229  1.00 20.00     0.097 N 
HETATM    7  H18 UNL     1     -33.264   8.102   5.614  1.00 20.00     0.316 HD
ENDROOT
BRANCH   5   8
HETATM    8  C6  UNL     1     -32.624   7.310   2.881  1.00 20.00     0.418 C 
HETATM    9  F8  UNL     1     -31.562   7.838   3.515  1.00 20.00    -0.169 F 
HETATM   10  F9  UNL     1     -32.288   6.091   2.424  1.00 20.00    -0.169 F 
HETATM   11  F10 UNL     1     -32.925   8.093   1.829  1.00 20.00    -0.169 F 
ENDBRANCH   5   8
TORSDOF 1
ENDMDL
MODEL 2
REMARK VINA RESULT:      -6.2      0.021      1.201
REMARK  1 active torsions:
REMARK  status: ('A' for Active; 'I' for Inactive)
REMARK    1  A    between atoms: C5_5  and  C6_6 
ROOT
HETATM    1  C1  UNL     1     -34.093   4.596   4.066  1.00 20.00     0.014 A 
HETATM    2  C2  UNL     1     -34.364   6.375   5.978  1.00 20.00     0.275 C 
HETATM    3  C3  UNL     1     -34.952   5.439   4.970  1.00 20.00     0.021 A 
HETATM    4  C4  UNL     1     -34.598   5.947   3.624  1.00 20.00     0.034 A 
HETATM    5  C5  UNL     1     -33.817   7.215   3.819  1.00 20.00     0.331 C 
HETATM    6  N7  UNL     1     -33.378   7.164   5.225  1.00 20.00     0.097 N 
HETATM    7  H18 UNL     1     -33.284   8.100   5.615  1.00 20.00     0.316 HD
ENDROOT
BRANCH   5   8
HETATM    8  C6  UNL     1     -32.630   7.327   2.879  1.00 20.00     0.418 C 
HETATM    9  F8  UNL     1     -32.940   8.098   1.822  1.00 20.00    -0.169 F 
HETATM   10  F9  UNL     1     -31.579   7.874   3.515  1.00 20.00    -0.169 F 
HETATM   11  F10 UNL     1     -32.272   6.111   2.430  1.00 20.00    -0.169 F 
ENDBRANCH   5   8
TORSDOF 1
ENDMDL
MODEL 3
REMARK VINA RESULT:      -5.4      1.233      1.581
REMARK  1 active torsions:
REMARK  status: ('A' for Active; 'I' for Inactive)
REMARK    1  A    between atoms: C5_5  and  C6_6 
ROOT
HETATM    1  C1  UNL     1     -33.899   4.858   5.672  1.00 20.00     0.014 A 
HETATM    2  C2  UNL     1     -33.613   7.450   5.971  1.00 20.00     0.275 C 
HETATM    3  C3  UNL     1     -34.420   6.200   6.112  1.00 20.00     0.021 A 
HETATM    4  C4  UNL     1     -34.734   5.711   4.749  1.00 20.00     0.034 A 
HETATM    5  C5  UNL     1     -34.138   6.688   3.778  1.00 20.00     0.331 C 
HETATM    6  N7  UNL     1     -33.154   7.444   4.575  1.00 20.00     0.097 N 
HETATM    7  H18 UNL     1     -33.046   8.392   4.221  1.00 20.00     0.316 HD
ENDROOT
BRANCH   5   8
HETATM    8  C6  UNL     1     -33.477   6.012   2.591  1.00 20.00     0.418 C 
HETATM    9  F8  UNL     1     -32.508   6.795   2.085  1.00 20.00    -0.169 F 
HETATM   10  F9  UNL     1     -32.930   4.841   2.964  1.00 20.00    -0.169 F 
HETATM   11  F10 UNL     1     -34.380   5.773   1.624  1.00 20.00    -0.169 F 
ENDBRANCH   5   8
TORSDOF 1
ENDMDL
MODEL 4
REMARK VINA RESULT:      -5.0      2.544      3.438
REMARK  1 active torsions:
REMARK  status: ('A' for Active; 'I' for Inactive)
REMARK    1  A    between atoms: C5_5  and  C6_6 
ROOT
HETATM    1  C1  UNL     1     -33.780   6.667   1.960  1.00 20.00     0.014 A 
HETATM    2  C2  UNL     1     -32.568   7.942   3.908  1.00 20.00     0.275 C 
HETATM    3  C3  UNL     1     -32.527   7.121   2.659  1.00 20.00     0.021 A 
HETATM    4  C4  UNL     1     -33.094   5.789   2.978  1.00 20.00     0.034 A 
HETATM    5  C5  UNL     1     -33.452   5.796   4.436  1.00 20.00     0.331 C 
HETATM    6  N7  UNL     1     -33.492   7.224   4.798  1.00 20.00     0.097 N 
HETATM    7  H18 UNL     1     -33.241   7.362   5.775  1.00 20.00     0.316 HD
ENDROOT
BRANCH   5   8
HETATM    8  C6  UNL     1     -34.782   5.122   4.719  1.00 20.00     0.418 C 
HETATM    9  F8  UNL     1     -34.757   3.842   4.307  1.00 20.00    -0.169 F 
HETATM   10  F9  UNL     1     -35.046   5.142   6.038  1.00 20.00    -0.169 F 
HETATM   11  F10 UNL     1     -35.777   5.759   4.075  1.00 20.00    -0.169 F 
ENDBRANCH   5   8
TORSDOF 1
ENDMDL
MODEL 5
REMARK VINA RESULT:      -5.0      2.548      3.459
REMARK  1 active torsions:
REMARK  status: ('A' for Active; 'I' for Inactive)
REMARK    1  A    between atoms: C5_5  and  C6_6 
ROOT
HETATM    1  C1  UNL     1     -33.784   6.662   1.962  1.00 20.00     0.014 A 
HETATM    2  C2  UNL     1     -32.577   7.942   3.910  1.00 20.00     0.275 C 
HETATM    3  C3  UNL     1     -32.533   7.120   2.663  1.00 20.00     0.021 A 
HETATM    4  C4  UNL     1     -33.098   5.787   2.982  1.00 20.00     0.034 A 
HETATM    5  C5  UNL     1     -33.458   5.795   4.439  1.00 20.00     0.331 C 
HETATM    6  N7  UNL     1     -33.502   7.224   4.799  1.00 20.00     0.097 N 
HETATM    7  H18 UNL     1     -33.253   7.364   5.777  1.00 20.00     0.316 HD
ENDROOT
BRANCH   5   8
HETATM    8  C6  UNL     1     -34.788   5.120   4.722  1.00 20.00     0.418 C 
HETATM    9  F8  UNL     1     -35.054   5.140   6.040  1.00 20.00    -0.169 F 
HETATM   10  F9  UNL     1     -35.782   5.753   4.074  1.00 20.00    -0.169 F 
HETATM   11  F10 UNL     1     -34.759   3.839   4.313  1.00 20.00    -0.169 F 
ENDBRANCH   5   8
TORSDOF 1
ENDMDL
MODEL 6
REMARK VINA RESULT:      -4.9      1.307      2.071
REMARK  1 active torsions:
REMARK  status: ('A' for Active; 'I' for Inactive)
REMARK    1  A    between atoms: C5_5  and  C6_6 
ROOT
HETATM    1  C1  UNL     1     -34.045   7.401   5.683  1.00 20.00     0.014 A 
HETATM    2  C2  UNL     1     -35.138   5.694   4.016  1.00 20.00     0.275 C 
HETATM    3  C3  UNL     1     -34.387   5.994   5.273  1.00 20.00     0.021 A 
HETATM    4  C4  UNL     1     -33.074   6.563   4.888  1.00 20.00     0.034 A 
HETATM    5  C5  UNL     1     -33.021   6.580   3.387  1.00 20.00     0.331 C 
HETATM    6  N7  UNL     1     -34.427   6.439   2.968  1.00 20.00     0.097 N 
HETATM    7  H18 UNL     1     -34.496   5.964   2.070  1.00 20.00     0.316 HD
ENDROOT
BRANCH   5   8
HETATM    8  C6  UNL     1     -32.410   7.854   2.833  1.00 20.00     0.418 C 
HETATM    9  F8  UNL     1     -33.371   8.757   2.566  1.00 20.00    -0.169 F 
HETATM   10  F9  UNL     1     -31.555   8.390   3.722  1.00 20.00    -0.169 F 
HETATM   11  F10 UNL     1     -31.739   7.597   1.697  1.00 20.00    -0.169 F 
ENDBRANCH   5   8
TORSDOF 1
ENDMDL
MODEL 7
REMARK VINA RESULT:      -4.9      2.722      3.631
REMARK  1 active torsions:
REMARK  status: ('A' for Active; 'I' for Inactive)
REMARK    1  A    between atoms: C5_5  and  C6_6 
ROOT
HETATM    1  C1  UNL     1     -33.091   7.551   5.131  1.00 20.00     0.014 A 
HETATM    2  C2  UNL     1     -32.584   6.949   2.627  1.00 20.00     0.275 C 
HETATM    3  C3  UNL     1     -33.209   7.833   3.658  1.00 20.00     0.021 A 
HETATM    4  C4  UNL     1     -34.272   7.054   4.335  1.00 20.00     0.034 A 
HETATM    5  C5  UNL     1     -34.310   5.700   3.688  1.00 20.00     0.331 C 
HETATM    6  N7  UNL     1     -33.019   5.591   2.986  1.00 20.00     0.097 N 
HETATM    7  H18 UNL     1     -33.099   5.002   2.160  1.00 20.00     0.316 HD
ENDROOT
BRANCH   5   8
HETATM    8  C6  UNL     1     -34.484   4.573   4.690  1.00 20.00     0.418 C 
HETATM    9  F8  UNL     1     -34.213   5.006   5.935  1.00 20.00    -0.169 F 
HETATM   10  F9  UNL     1     -35.747   4.111   4.663  1.00 20.00    -0.169 F 
HETATM   11  F10 UNL     1     -33.651   3.557   4.402  1.00 20.00    -0.169 F 
ENDBRANCH   5   8
TORSDOF 1
ENDMDL
MODEL 8
REMARK VINA RESULT:      -4.9      2.675      3.714
REMARK  1 active torsions:
REMARK  status: ('A' for Active; 'I' for Inactive)
REMARK    1  A    between atoms: C5_5  and  C6_6 
ROOT
HETATM    1  C1  UNL     1     -32.379   7.541   3.823  1.00 20.00     0.014 A 
HETATM    2  C2  UNL     1     -33.216   5.582   2.289  1.00 20.00     0.275 C 
HETATM    3  C3  UNL     1     -33.097   7.040   2.599  1.00 20.00     0.021 A 
HETATM    4  C4  UNL     1     -33.869   7.302   3.836  1.00 20.00     0.034 A 
HETATM    5  C5  UNL     1     -34.483   5.999   4.261  1.00 20.00     0.331 C 
HETATM    6  N7  UNL     1     -33.712   4.975   3.532  1.00 20.00     0.097 N 
HETATM    7  H18 UNL     1     -34.284   4.155   3.337  1.00 20.00     0.316 HD
ENDROOT
BRANCH   5   8
HETATM    8  C6  UNL     1     -34.410   5.773   5.760  1.00 20.00     0.418 C 
HETATM    9  F8  UNL     1     -33.301   5.080   6.077  1.00 20.00    -0.169 F 
HETATM   10  F9  UNL     1     -34.380   6.950   6.410  1.00 20.00    -0.169 F 
HETATM   11  F10 UNL     1     -35.482   5.079   6.182  1.00 20.00    -0.169 F 
ENDBRANCH   5   8
TORSDOF 1
ENDMDL
MODEL 9
REMARK VINA RESULT:      -4.5      2.677      3.186
REMARK  1 active torsions:
REMARK  status: ('A' for Active; 'I' for Inactive)
REMARK    1  A    between atoms: C5_5  and  C6_6 
ROOT
HETATM    1  C1  UNL     1     -32.956   6.491   2.328  1.00 20.00     0.014 A 
HETATM    2  C2  UNL     1     -31.736   8.061   4.042  1.00 20.00     0.275 C 
HETATM    3  C3  UNL     1     -32.936   7.283   3.608  1.00 20.00     0.021 A 
HETATM    4  C4  UNL     1     -33.459   7.913   2.373  1.00 20.00     0.034 A 
HETATM    5  C5  UNL     1     -32.586   9.098   2.075  1.00 20.00     0.331 C 
HETATM    6  N7  UNL     1     -31.365   8.863   2.867  1.00 20.00     0.097 N 
HETATM    7  H18 UNL     1     -30.933   9.742   3.145  1.00 20.00     0.316 HD
ENDROOT
BRANCH   5   8
HETATM    8  C6  UNL     1     -32.262   9.235   0.599  1.00 20.00     0.418 C 
HETATM    9  F8  UNL     1     -32.082  10.529   0.277  1.00 20.00    -0.169 F 
HETATM   10  F9  UNL     1     -31.138   8.559   0.300  1.00 20.00    -0.169 F 
HETATM   11  F10 UNL     1     -33.267   8.746  -0.149  1.00 20.00    -0.169 F 
ENDBRANCH   5   8
TORSDOF 1
ENDMDL
