MODEL 1
REMARK VINA RESULT:      -5.2      0.000      0.000
REMARK  4 active torsions:
REMARK  status: ('A' for Active; 'I' for Inactive)
REMARK    1  A    between atoms: C1_1  and  C3_3 
REMARK    2  A    between atoms: C2_2  and  C6_6 
REMARK    3  A    between atoms: C6_6  and  C7_7 
REMARK    4  A    between atoms: C7_7  and  O8_8 
ROOT
HETATM    1  C1  UNL     1     -32.947   7.333   3.603  1.00 20.00    -0.079 C 
HETATM    2  C2  UNL     1     -33.575   6.939   4.548  1.00 20.00    -0.100 C 
ENDROOT
BRANCH   2   3
HETATM    3  C6  UNL     1     -34.341   6.454   5.706  1.00 20.00     0.120 C 
BRANCH   3   4
HETATM    4  C7  UNL     1     -34.441   4.935   5.711  1.00 20.00     0.176 C 
BRANCH   4   5
HETATM    5  O8  UNL     1     -35.253   4.506   4.625  1.00 20.00    -0.400 OA
HETATM    6  H18 UNL     1     -34.929   4.967   3.835  1.00 20.00     0.209 HD
ENDBRANCH   4   5
ENDBRANCH   3   4
ENDBRANCH   2   3
BRANCH   1   7
HETATM    7  C3  UNL     1     -32.208   7.797   2.482  1.00 20.00     0.060 C 
HETATM    8  C4  UNL     1     -32.640   8.817   1.728  1.00 20.00    -0.022 C 
HETATM    9  C5  UNL     1     -31.899   9.341   0.542  1.00 20.00     0.036 C 
ENDBRANCH   1   7
TORSDOF 4
ENDMDL
MODEL 2
REMARK VINA RESULT:      -5.0      2.721      5.282
REMARK  4 active torsions:
REMARK  status: ('A' for Active; 'I' for Inactive)
REMARK    1  A    between atoms: C1_1  and  C3_3 
REMARK    2  A    between atoms: C2_2  and  C6_6 
REMARK    3  A    between atoms: C6_6  and  C7_7 
REMARK    4  A    between atoms: C7_7  and  O8_8 
ROOT
HETATM    1  C1  UNL     1     -32.951   7.600   3.009  1.00 20.00    -0.079 C 
HETATM    2  C2  UNL     1     -32.437   8.202   2.105  1.00 20.00    -0.100 C 
ENDROOT
BRANCH   2   3
HETATM    3  C6  UNL     1     -31.804   8.939   1.002  1.00 20.00     0.120 C 
BRANCH   3   4
HETATM    4  C7  UNL     1     -32.790   9.878   0.321  1.00 20.00     0.176 C 
BRANCH   4   5
HETATM    5  O8  UNL     1     -33.480   9.183  -0.710  1.00 20.00    -0.400 OA
HETATM    6  H18 UNL     1     -32.820   8.639  -1.170  1.00 20.00     0.209 HD
ENDBRANCH   4   5
ENDBRANCH   3   4
ENDBRANCH   2   3
BRANCH   1   7
HETATM    7  C3  UNL     1     -33.563   6.892   4.078  1.00 20.00     0.060 C 
HETATM    8  C4  UNL     1     -34.175   5.716   3.884  1.00 20.00    -0.022 C 
HETATM    9  C5  UNL     1     -34.830   4.935   4.974  1.00 20.00     0.036 C 
ENDBRANCH   1   7
TORSDOF 4
ENDMDL
MODEL 3
REMARK VINA RESULT:      -4.9      2.790      5.331
REMARK  4 active torsions:
REMARK  status: ('A' for Active; 'I' for Inactive)
REMARK    1  A    between atoms: C1_1  and  C3_3 
REMARK    2  A    between atoms: C2_2  and  C6_6 
REMARK    3  A    between atoms: C6_6  and  C7_7 
REMARK    4  A    between atoms: C7_7  and  O8_8 
ROOT
HETATM    1  C1  UNL     1     -32.933   7.571   3.161  1.00 20.00    -0.079 C 
HETATM    2  C2  UNL     1     -32.404   8.091   2.216  1.00 20.00    -0.100 C 
ENDROOT
BRANCH   2   3
HETATM    3  C6  UNL     1     -31.752   8.728   1.063  1.00 20.00     0.120 C 
BRANCH   3   4
HETATM    4  C7  UNL     1     -32.624   9.824   0.465  1.00 20.00     0.176 C 
BRANCH   4   5
HETATM    5  O8  UNL     1     -32.740  10.900   1.387  1.00 20.00    -0.400 OA
HETATM    6  H18 UNL     1     -33.202  10.550   2.167  1.00 20.00     0.209 HD
ENDBRANCH   4   5
ENDBRANCH   3   4
ENDBRANCH   2   3
BRANCH   1   7
HETATM    7  C3  UNL     1     -33.564   6.960   4.278  1.00 20.00     0.060 C 
HETATM    8  C4  UNL     1     -34.139   5.753   4.188  1.00 20.00    -0.022 C 
HETATM    9  C5  UNL     1     -34.812   5.070   5.332  1.00 20.00     0.036 C 
ENDBRANCH   1   7
TORSDOF 4
ENDMDL
MODEL 4
REMARK VINA RESULT:      -4.8      1.262      1.341
REMARK  4 active torsions:
REMARK  status: ('A' for Active; 'I' for Inactive)
REMARK    1  A    between atoms: C1_1  and  C3_3 
REMARK    2  A    between atoms: C2_2  and  C6_6 
REMARK    3  A    between atoms: C6_6  and  C7_7 
REMARK    4  A    between atoms: C7_7  and  O8_8 
ROOT
HETATM    1  C1  UNL     1     -33.129   6.988   2.989  1.00 20.00    -0.079 C 
HETATM    2  C2  UNL     1     -33.813   6.171   3.543  1.00 20.00    -0.100 C 
ENDROOT
BRANCH   2   3
HETATM    3  C6  UNL     1     -34.647   5.166   4.220  1.00 20.00     0.120 C 
BRANCH   3   4
HETATM    4  C7  UNL     1     -34.544   5.286   5.734  1.00 20.00     0.176 C 
BRANCH   4   5
HETATM    5  O8  UNL     1     -34.276   6.636   6.090  1.00 20.00    -0.400 OA
HETATM    6  H18 UNL     1     -33.426   6.868   5.683  1.00 20.00     0.209 HD
ENDBRANCH   4   5
ENDBRANCH   3   4
ENDBRANCH   2   3
BRANCH   1   7
HETATM    7  C3  UNL     1     -32.325   7.957   2.331  1.00 20.00     0.060 C 
HETATM    8  C4  UNL     1     -32.831   8.771   1.394  1.00 20.00    -0.022 C 
HETATM    9  C5  UNL     1     -32.028   9.805   0.676  1.00 20.00     0.036 C 
ENDBRANCH   1   7
TORSDOF 4
ENDMDL
MODEL 5
REMARK VINA RESULT:      -4.1     11.321     11.651
REMARK  4 active torsions:
REMARK  status: ('A' for Active; 'I' for Inactive)
REMARK    1  A    between atoms: C1_1  and  C3_3 
REMARK    2  A    between atoms: C2_2  and  C6_6 
REMARK    3  A    between atoms: C6_6  and  C7_7 
REMARK    4  A    between atoms: C7_7  and  O8_8 
ROOT
HETATM    1  C1  UNL     1     -34.276  16.249  -2.737  1.00 20.00    -0.079 C 
HETATM    2  C2  UNL     1     -34.368  15.474  -3.650  1.00 20.00    -0.100 C 
ENDROOT
BRANCH   2   3
HETATM    3  C6  UNL     1     -34.478  14.521  -4.765  1.00 20.00     0.120 C 
BRANCH   3   4
HETATM    4  C7  UNL     1     -35.914  14.054  -4.959  1.00 20.00     0.176 C 
BRANCH   4   5
HETATM    5  O8  UNL     1     -35.953  12.634  -5.012  1.00 20.00    -0.400 OA
HETATM    6  H18 UNL     1     -36.015  12.391  -5.950  1.00 20.00     0.209 HD
ENDBRANCH   4   5
ENDBRANCH   3   4
ENDBRANCH   2   3
BRANCH   1   7
HETATM    7  C3  UNL     1     -34.164  17.171  -1.662  1.00 20.00     0.060 C 
HETATM    8  C4  UNL     1     -33.016  17.811  -1.401  1.00 20.00    -0.022 C 
HETATM    9  C5  UNL     1     -32.850  18.788  -0.284  1.00 20.00     0.036 C 
ENDBRANCH   1   7
TORSDOF 4
ENDMDL
MODEL 6
REMARK VINA RESULT:      -3.8     11.519     11.873
REMARK  4 active torsions:
REMARK  status: ('A' for Active; 'I' for Inactive)
REMARK    1  A    between atoms: C1_1  and  C3_3 
REMARK    2  A    between atoms: C2_2  and  C6_6 
REMARK    3  A    between atoms: C6_6  and  C7_7 
REMARK    4  A    between atoms: C7_7  and  O8_8 
ROOT
HETATM    1  C1  UNL     1     -34.713  15.280  -3.758  1.00 20.00    -0.079 C 
HETATM    2  C2  UNL     1     -35.263  14.454  -4.435  1.00 20.00    -0.100 C 
ENDROOT
BRANCH   2   3
HETATM    3  C6  UNL     1     -35.933  13.443  -5.268  1.00 20.00     0.120 C 
BRANCH   3   4
HETATM    4  C7  UNL     1     -35.380  13.434  -6.686  1.00 20.00     0.176 C 
BRANCH   4   5
HETATM    5  O8  UNL     1     -33.961  13.343  -6.646  1.00 20.00    -0.400 OA
HETATM    6  H18 UNL     1     -33.620  14.041  -7.229  1.00 20.00     0.209 HD
ENDBRANCH   4   5
ENDBRANCH   3   4
ENDBRANCH   2   3
BRANCH   1   7
HETATM    7  C3  UNL     1     -34.068  16.260  -2.958  1.00 20.00     0.060 C 
HETATM    8  C4  UNL     1     -34.633  16.740  -1.841  1.00 20.00    -0.022 C 
HETATM    9  C5  UNL     1     -33.995  17.768  -0.967  1.00 20.00     0.036 C 
ENDBRANCH   1   7
TORSDOF 4
ENDMDL
MODEL 7
REMARK VINA RESULT:      -3.7     11.467     11.818
REMARK  4 active torsions:
REMARK  status: ('A' for Active; 'I' for Inactive)
REMARK    1  A    between atoms: C1_1  and  C3_3 
REMARK    2  A    between atoms: C2_2  and  C6_6 
REMARK    3  A    between atoms: C6_6  and  C7_7 
REMARK    4  A    between atoms: C7_7  and  O8_8 
ROOT
HETATM    1  C1  UNL     1     -34.495  15.355  -3.723  1.00 20.00    -0.079 C 
HETATM    2  C2  UNL     1     -35.143  14.541  -4.324  1.00 20.00    -0.100 C 
ENDROOT
BRANCH   2   3
HETATM    3  C6  UNL     1     -35.934  13.547  -5.065  1.00 20.00     0.120 C 
BRANCH   3   4
HETATM    4  C7  UNL     1     -37.022  14.211  -5.898  1.00 20.00     0.176 C 
BRANCH   4   5
HETATM    5  O8  UNL     1     -38.300  13.868  -5.377  1.00 20.00    -0.400 OA
HETATM    6  H18 UNL     1     -38.294  14.114  -4.438  1.00 20.00     0.209 HD
ENDBRANCH   4   5
ENDBRANCH   3   4
ENDBRANCH   2   3
BRANCH   1   7
HETATM    7  C3  UNL     1     -33.735  16.318  -3.008  1.00 20.00     0.060 C 
HETATM    8  C4  UNL     1     -34.203  16.898  -1.894  1.00 20.00    -0.022 C 
HETATM    9  C5  UNL     1     -33.442  17.913  -1.108  1.00 20.00     0.036 C 
ENDBRANCH   1   7
TORSDOF 4
ENDMDL
MODEL 8
REMARK VINA RESULT:      -3.7     11.227     11.895
REMARK  4 active torsions:
REMARK  status: ('A' for Active; 'I' for Inactive)
REMARK    1  A    between atoms: C1_1  and  C3_3 
REMARK    2  A    between atoms: C2_2  and  C6_6 
REMARK    3  A    between atoms: C6_6  and  C7_7 
REMARK    4  A    between atoms: C7_7  and  O8_8 
ROOT
HETATM    1  C1  UNL     1     -34.087  16.829  -2.183  1.00 20.00    -0.079 C 
HETATM    2  C2  UNL     1     -33.738  16.384  -3.242  1.00 20.00    -0.100 C 
ENDROOT
BRANCH   2   3
HETATM    3  C6  UNL     1     -33.306  15.839  -4.538  1.00 20.00     0.120 C 
BRANCH   3   4
HETATM    4  C7  UNL     1     -33.552  14.339  -4.621  1.00 20.00     0.176 C 
BRANCH   4   5
HETATM    5  O8  UNL     1     -32.345  13.640  -4.345  1.00 20.00    -0.400 OA
HETATM    6  H18 UNL     1     -31.908  13.488  -5.199  1.00 20.00     0.209 HD
ENDBRANCH   4   5
ENDBRANCH   3   4
ENDBRANCH   2   3
BRANCH   1   7
HETATM    7  C3  UNL     1     -34.502  17.360  -0.932  1.00 20.00     0.060 C 
HETATM    8  C4  UNL     1     -33.712  18.171  -0.216  1.00 20.00    -0.022 C 
HETATM    9  C5  UNL     1     -34.103  18.755   1.102  1.00 20.00     0.036 C 
ENDBRANCH   1   7
TORSDOF 4
ENDMDL
MODEL 9
REMARK VINA RESULT:      -3.5     11.643     12.053
REMARK  4 active torsions:
REMARK  status: ('A' for Active; 'I' for Inactive)
REMARK    1  A    between atoms: C1_1  and  C3_3 
REMARK    2  A    between atoms: C2_2  and  C6_6 
REMARK    3  A    between atoms: C6_6  and  C7_7 
REMARK    4  A    between atoms: C7_7  and  O8_8 
ROOT
HETATM    1  C1  UNL     1     -33.746  16.645  -2.562  1.00 20.00    -0.079 C 
HETATM    2  C2  UNL     1     -33.696  17.320  -1.570  1.00 20.00    -0.100 C 
ENDROOT
BRANCH   2   3
HETATM    3  C6  UNL     1     -33.639  18.147  -0.355  1.00 20.00     0.120 C 
BRANCH   3   4
HETATM    4  C7  UNL     1     -32.420  19.060  -0.360  1.00 20.00     0.176 C 
BRANCH   4   5
HETATM    5  O8  UNL     1     -31.237  18.278  -0.459  1.00 20.00    -0.400 OA
HETATM    6  H18 UNL     1     -31.421  17.435  -0.012  1.00 20.00     0.209 HD
ENDBRANCH   4   5
ENDBRANCH   3   4
ENDBRANCH   2   3
BRANCH   1   7
HETATM    7  C3  UNL     1     -33.801  15.850  -3.738  1.00 20.00     0.060 C 
HETATM    8  C4  UNL     1     -34.797  14.979  -3.952  1.00 20.00    -0.022 C 
HETATM    9  C5  UNL     1     -34.899  14.123  -5.172  1.00 20.00     0.036 C 
ENDBRANCH   1   7
TORSDOF 4
ENDMDL
