MODEL 1
REMARK VINA RESULT:      -5.7      0.000      0.000
REMARK  3 active torsions:
REMARK  status: ('A' for Active; 'I' for Inactive)
REMARK    1  A    between atoms: C4_4  and  C6_6 
REMARK    2  A    between atoms: C6_6  and  C7_7 
REMARK    3  A    between atoms: C7_7  and  C8_8 
ROOT
HETATM    1  C1  UNL     1     -34.641   5.097   4.767  1.00 20.00     0.029 C 
HETATM    2  C2  UNL     1     -34.907   5.982   3.575  1.00 20.00     0.034 C 
HETATM    3  C3  UNL     1     -34.389   6.113   5.857  1.00 20.00     0.168 C 
HETATM    4  C4  UNL     1     -33.969   7.156   3.811  1.00 20.00     0.121 C 
HETATM    5  O9  UNL     1     -33.765   7.242   5.232  1.00 20.00    -0.386 OA
ENDROOT
BRANCH   4   6
HETATM    6  C6  UNL     1     -32.613   6.976   3.142  1.00 20.00     0.033 C 
BRANCH   6   7
HETATM    7  C7  UNL     1     -31.989   8.326   2.775  1.00 20.00     0.022 C 
BRANCH   7   8
HETATM    8  C8  UNL     1     -32.399   8.827   1.384  1.00 20.00     0.078 C 
HETATM    9  C5  UNL     1     -32.741  10.312   1.415  1.00 20.00     0.026 C 
HETATM   10 CL10 UNL     1     -31.091   8.562   0.192  1.00 20.00    -0.125 Cl
ENDBRANCH   7   8
ENDBRANCH   6   7
ENDBRANCH   4   6
TORSDOF 3
ENDMDL
MODEL 2
REMARK VINA RESULT:      -5.5      1.215      1.350
REMARK  3 active torsions:
REMARK  status: ('A' for Active; 'I' for Inactive)
REMARK    1  A    between atoms: C4_4  and  C6_6 
REMARK    2  A    between atoms: C6_6  and  C7_7 
REMARK    3  A    between atoms: C7_7  and  C8_8 
ROOT
HETATM    1  C1  UNL     1     -34.522   4.810   4.537  1.00 20.00     0.029 C 
HETATM    2  C2  UNL     1     -34.918   5.956   3.641  1.00 20.00     0.034 C 
HETATM    3  C3  UNL     1     -34.449   5.483   5.888  1.00 20.00     0.168 C 
HETATM    4  C4  UNL     1     -34.185   7.137   4.261  1.00 20.00     0.121 C 
HETATM    5  O9  UNL     1     -34.011   6.828   5.655  1.00 20.00    -0.386 OA
ENDROOT
BRANCH   4   6
HETATM    6  C6  UNL     1     -32.811   7.372   3.647  1.00 20.00     0.033 C 
BRANCH   6   7
HETATM    7  C7  UNL     1     -32.920   7.745   2.166  1.00 20.00     0.022 C 
BRANCH   7   8
HETATM    8  C8  UNL     1     -32.082   8.972   1.785  1.00 20.00     0.078 C 
HETATM    9  C5  UNL     1     -31.220   8.690   0.560  1.00 20.00     0.026 C 
HETATM   10 CL10 UNL     1     -33.126  10.385   1.442  1.00 20.00    -0.125 Cl
ENDBRANCH   7   8
ENDBRANCH   6   7
ENDBRANCH   4   6
TORSDOF 3
ENDMDL
MODEL 3
REMARK VINA RESULT:      -5.4      1.716      2.028
REMARK  3 active torsions:
REMARK  status: ('A' for Active; 'I' for Inactive)
REMARK    1  A    between atoms: C4_4  and  C6_6 
REMARK    2  A    between atoms: C6_6  and  C7_7 
REMARK    3  A    between atoms: C7_7  and  C8_8 
ROOT
HETATM    1  C1  UNL     1     -34.787   6.126   4.365  1.00 20.00     0.029 C 
HETATM    2  C2  UNL     1     -33.664   7.082   4.677  1.00 20.00     0.034 C 
HETATM    3  C3  UNL     1     -34.062   5.026   3.625  1.00 20.00     0.168 C 
HETATM    4  C4  UNL     1     -32.770   6.963   3.451  1.00 20.00     0.121 C 
HETATM    5  O9  UNL     1     -32.990   5.650   2.906  1.00 20.00    -0.386 OA
ENDROOT
BRANCH   4   6
HETATM    6  C6  UNL     1     -33.099   7.989   2.375  1.00 20.00     0.033 C 
BRANCH   6   7
HETATM    7  C7  UNL     1     -31.840   8.430   1.622  1.00 20.00     0.022 C 
BRANCH   7   8
HETATM    8  C8  UNL     1     -32.081   9.612   0.674  1.00 20.00     0.078 C 
HETATM    9  C5  UNL     1     -33.106   9.258  -0.396  1.00 20.00     0.026 C 
HETATM   10 CL10 UNL     1     -32.658  11.049   1.571  1.00 20.00    -0.125 Cl
ENDBRANCH   7   8
ENDBRANCH   6   7
ENDBRANCH   4   6
TORSDOF 3
ENDMDL
MODEL 4
REMARK VINA RESULT:      -5.2      2.722      4.955
REMARK  3 active torsions:
REMARK  status: ('A' for Active; 'I' for Inactive)
REMARK    1  A    between atoms: C4_4  and  C6_6 
REMARK    2  A    between atoms: C6_6  and  C7_7 
REMARK    3  A    between atoms: C7_7  and  C8_8 
ROOT
HETATM    1  C1  UNL     1     -32.548   9.303  -0.021  1.00 20.00     0.029 C 
HETATM    2  C2  UNL     1     -31.406   8.557   0.622  1.00 20.00     0.034 C 
HETATM    3  C3  UNL     1     -32.915  10.297   1.057  1.00 20.00     0.168 C 
HETATM    4  C4  UNL     1     -31.814   8.514   2.087  1.00 20.00     0.121 C 
HETATM    5  O9  UNL     1     -32.661   9.655   2.313  1.00 20.00    -0.386 OA
ENDROOT
BRANCH   4   6
HETATM    6  C6  UNL     1     -32.597   7.258   2.449  1.00 20.00     0.033 C 
BRANCH   6   7
HETATM    7  C7  UNL     1     -33.259   7.391   3.823  1.00 20.00     0.022 C 
BRANCH   7   8
HETATM    8  C8  UNL     1     -34.277   6.282   4.117  1.00 20.00     0.078 C 
HETATM    9  C5  UNL     1     -33.898   4.987   3.409  1.00 20.00     0.026 C 
HETATM   10 CL10 UNL     1     -34.394   5.964   5.875  1.00 20.00    -0.125 Cl
ENDBRANCH   7   8
ENDBRANCH   6   7
ENDBRANCH   4   6
TORSDOF 3
ENDMDL
MODEL 5
REMARK VINA RESULT:      -4.8      2.523      4.882
REMARK  3 active torsions:
REMARK  status: ('A' for Active; 'I' for Inactive)
REMARK    1  A    between atoms: C4_4  and  C6_6 
REMARK    2  A    between atoms: C6_6  and  C7_7 
REMARK    3  A    between atoms: C7_7  and  C8_8 
ROOT
HETATM    1  C1  UNL     1     -31.312   8.639   1.114  1.00 20.00     0.029 C 
HETATM    2  C2  UNL     1     -31.255   8.447   2.609  1.00 20.00     0.034 C 
HETATM    3  C3  UNL     1     -32.698   9.210   0.927  1.00 20.00     0.168 C 
HETATM    4  C4  UNL     1     -32.682   8.047   2.951  1.00 20.00     0.121 C 
HETATM    5  O9  UNL     1     -33.527   8.622   1.938  1.00 20.00    -0.386 OA
ENDROOT
BRANCH   4   6
HETATM    6  C6  UNL     1     -32.893   6.539   2.951  1.00 20.00     0.033 C 
BRANCH   6   7
HETATM    7  C7  UNL     1     -34.380   6.184   3.039  1.00 20.00     0.022 C 
BRANCH   7   8
HETATM    8  C8  UNL     1     -34.809   5.707   4.432  1.00 20.00     0.078 C 
HETATM    9  C5  UNL     1     -34.387   4.262   4.673  1.00 20.00     0.026 C 
HETATM   10 CL10 UNL     1     -34.099   6.735   5.713  1.00 20.00    -0.125 Cl
ENDBRANCH   7   8
ENDBRANCH   6   7
ENDBRANCH   4   6
TORSDOF 3
ENDMDL
MODEL 6
REMARK VINA RESULT:      -4.5      2.531      4.514
REMARK  3 active torsions:
REMARK  status: ('A' for Active; 'I' for Inactive)
REMARK    1  A    between atoms: C4_4  and  C6_6 
REMARK    2  A    between atoms: C6_6  and  C7_7 
REMARK    3  A    between atoms: C7_7  and  C8_8 
ROOT
HETATM    1  C1  UNL     1     -32.633   8.541   1.820  1.00 20.00     0.029 C 
HETATM    2  C2  UNL     1     -32.880   7.137   2.312  1.00 20.00     0.034 C 
HETATM    3  C3  UNL     1     -31.430   8.949   2.639  1.00 20.00     0.168 C 
HETATM    4  C4  UNL     1     -32.512   7.228   3.786  1.00 20.00     0.121 C 
HETATM    5  O9  UNL     1     -31.552   8.292   3.907  1.00 20.00    -0.386 OA
ENDROOT
BRANCH   4   6
HETATM    6  C6  UNL     1     -33.704   7.553   4.677  1.00 20.00     0.033 C 
BRANCH   6   7
HETATM    7  C7  UNL     1     -34.010   6.403   5.641  1.00 20.00     0.022 C 
BRANCH   7   8
HETATM    8  C8  UNL     1     -34.902   5.317   5.027  1.00 20.00     0.078 C 
HETATM    9  C5  UNL     1     -35.615   5.830   3.782  1.00 20.00     0.026 C 
HETATM   10 CL10 UNL     1     -33.945   3.870   4.586  1.00 20.00    -0.125 Cl
ENDBRANCH   7   8
ENDBRANCH   6   7
ENDBRANCH   4   6
TORSDOF 3
ENDMDL
MODEL 7
REMARK VINA RESULT:      -4.2     10.502     11.749
REMARK  3 active torsions:
REMARK  status: ('A' for Active; 'I' for Inactive)
REMARK    1  A    between atoms: C4_4  and  C6_6 
REMARK    2  A    between atoms: C6_6  and  C7_7 
REMARK    3  A    between atoms: C7_7  and  C8_8 
ROOT
HETATM    1  C1  UNL     1     -35.649  14.268  -7.668  1.00 20.00     0.029 C 
HETATM    2  C2  UNL     1     -36.852  14.472  -6.782  1.00 20.00     0.034 C 
HETATM    3  C3  UNL     1     -35.174  12.900  -7.238  1.00 20.00     0.168 C 
HETATM    4  C4  UNL     1     -36.434  13.792  -5.486  1.00 20.00     0.121 C 
HETATM    5  O9  UNL     1     -35.477  12.778  -5.842  1.00 20.00    -0.386 OA
ENDROOT
BRANCH   4   6
HETATM    6  C6  UNL     1     -35.775  14.747  -4.500  1.00 20.00     0.033 C 
BRANCH   6   7
HETATM    7  C7  UNL     1     -34.413  14.220  -4.038  1.00 20.00     0.022 C 
BRANCH   7   8
HETATM    8  C8  UNL     1     -33.307  15.282  -4.069  1.00 20.00     0.078 C 
HETATM    9  C5  UNL     1     -33.194  15.917  -5.449  1.00 20.00     0.026 C 
HETATM   10 CL10 UNL     1     -33.618  16.570  -2.865  1.00 20.00    -0.125 Cl
ENDBRANCH   7   8
ENDBRANCH   6   7
ENDBRANCH   4   6
TORSDOF 3
ENDMDL
MODEL 8
REMARK VINA RESULT:      -4.1     10.638     11.668
REMARK  3 active torsions:
REMARK  status: ('A' for Active; 'I' for Inactive)
REMARK    1  A    between atoms: C4_4  and  C6_6 
REMARK    2  A    between atoms: C6_6  and  C7_7 
REMARK    3  A    between atoms: C7_7  and  C8_8 
ROOT
HETATM    1  C1  UNL     1     -34.396  14.169  -7.288  1.00 20.00     0.029 C 
HETATM    2  C2  UNL     1     -35.133  15.076  -6.335  1.00 20.00     0.034 C 
HETATM    3  C3  UNL     1     -35.115  12.855  -7.085  1.00 20.00     0.168 C 
HETATM    4  C4  UNL     1     -35.458  14.149  -5.172  1.00 20.00     0.121 C 
HETATM    5  O9  UNL     1     -35.526  12.817  -5.712  1.00 20.00    -0.386 OA
ENDROOT
BRANCH   4   6
HETATM    6  C6  UNL     1     -34.395  14.170  -4.081  1.00 20.00     0.033 C 
BRANCH   6   7
HETATM    7  C7  UNL     1     -33.926  15.598  -3.787  1.00 20.00     0.022 C 
BRANCH   7   8
HETATM    8  C8  UNL     1     -34.685  16.261  -2.631  1.00 20.00     0.078 C 
HETATM    9  C5  UNL     1     -33.769  17.175  -1.825  1.00 20.00     0.026 C 
HETATM   10 CL10 UNL     1     -36.070  17.222  -3.235  1.00 20.00    -0.125 Cl
ENDBRANCH   7   8
ENDBRANCH   6   7
ENDBRANCH   4   6
TORSDOF 3
ENDMDL
MODEL 9
REMARK VINA RESULT:      -4.0     10.809     11.438
REMARK  3 active torsions:
REMARK  status: ('A' for Active; 'I' for Inactive)
REMARK    1  A    between atoms: C4_4  and  C6_6 
REMARK    2  A    between atoms: C6_6  and  C7_7 
REMARK    3  A    between atoms: C7_7  and  C8_8 
ROOT
HETATM    1  C1  UNL     1     -35.838  13.952  -6.507  1.00 20.00     0.029 C 
HETATM    2  C2  UNL     1     -35.920  13.480  -5.077  1.00 20.00     0.034 C 
HETATM    3  C3  UNL     1     -34.344  14.013  -6.728  1.00 20.00     0.168 C 
HETATM    4  C4  UNL     1     -34.723  14.160  -4.429  1.00 20.00     0.121 C 
HETATM    5  O9  UNL     1     -33.756  14.375  -5.472  1.00 20.00    -0.386 OA
ENDROOT
BRANCH   4   6
HETATM    6  C6  UNL     1     -35.069  15.508  -3.811  1.00 20.00     0.033 C 
BRANCH   6   7
HETATM    7  C7  UNL     1     -33.838  16.162  -3.175  1.00 20.00     0.022 C 
BRANCH   7   8
HETATM    8  C8  UNL     1     -34.183  17.331  -2.245  1.00 20.00     0.078 C 
HETATM    9  C5  UNL     1     -35.255  16.933  -1.237  1.00 20.00     0.026 C 
HETATM   10 CL10 UNL     1     -32.737  17.895  -1.354  1.00 20.00    -0.125 Cl
ENDBRANCH   7   8
ENDBRANCH   6   7
ENDBRANCH   4   6
TORSDOF 3
ENDMDL
