MODEL 1
REMARK VINA RESULT:      -5.8      0.000      0.000
REMARK  3 active torsions:
REMARK  status: ('A' for Active; 'I' for Inactive)
REMARK    1  A    between atoms: C4_4  and  C6_6 
REMARK    2  A    between atoms: C6_6  and  C7_7 
REMARK    3  A    between atoms: C7_7  and  C8_8 
ROOT
HETATM    1  C1  UNL     1     -34.601   5.044   4.704  1.00 20.00     0.029 C 
HETATM    2  C2  UNL     1     -34.868   5.964   3.539  1.00 20.00     0.034 C 
HETATM    3  C3  UNL     1     -34.371   6.025   5.830  1.00 20.00     0.168 C 
HETATM    4  C4  UNL     1     -33.946   7.140   3.822  1.00 20.00     0.121 C 
HETATM    5  O9  UNL     1     -33.756   7.182   5.247  1.00 20.00    -0.386 OA
ENDROOT
BRANCH   4   6
HETATM    6  C6  UNL     1     -32.582   6.999   3.160  1.00 20.00     0.033 C 
BRANCH   6   7
HETATM    7  C7  UNL     1     -31.990   8.366   2.804  1.00 20.00     0.022 C 
BRANCH   7   8
HETATM    8  C8  UNL     1     -32.419   8.873   1.421  1.00 20.00     0.078 C 
HETATM    9  C5  UNL     1     -31.324   8.636   0.386  1.00 20.00     0.026 C 
HETATM   10 CL10 UNL     1     -32.802  10.620   1.468  1.00 20.00    -0.125 Cl
ENDBRANCH   7   8
ENDBRANCH   6   7
ENDBRANCH   4   6
TORSDOF 3
ENDMDL
MODEL 2
REMARK VINA RESULT:      -5.5      1.584      1.990
REMARK  3 active torsions:
REMARK  status: ('A' for Active; 'I' for Inactive)
REMARK    1  A    between atoms: C4_4  and  C6_6 
REMARK    2  A    between atoms: C6_6  and  C7_7 
REMARK    3  A    between atoms: C7_7  and  C8_8 
ROOT
HETATM    1  C1  UNL     1     -34.775   6.099   4.407  1.00 20.00     0.029 C 
HETATM    2  C2  UNL     1     -33.672   7.077   4.728  1.00 20.00     0.034 C 
HETATM    3  C3  UNL     1     -34.024   5.013   3.672  1.00 20.00     0.168 C 
HETATM    4  C4  UNL     1     -32.768   6.975   3.509  1.00 20.00     0.121 C 
HETATM    5  O9  UNL     1     -32.958   5.659   2.962  1.00 20.00    -0.386 OA
ENDROOT
BRANCH   4   6
HETATM    6  C6  UNL     1     -33.107   7.995   2.431  1.00 20.00     0.033 C 
BRANCH   6   7
HETATM    7  C7  UNL     1     -31.865   8.394   1.629  1.00 20.00     0.022 C 
BRANCH   7   8
HETATM    8  C8  UNL     1     -32.095   9.602   0.712  1.00 20.00     0.078 C 
HETATM    9  C5  UNL     1     -32.733  10.757   1.475  1.00 20.00     0.026 C 
HETATM   10 CL10 UNL     1     -33.149   9.170  -0.668  1.00 20.00    -0.125 Cl
ENDBRANCH   7   8
ENDBRANCH   6   7
ENDBRANCH   4   6
TORSDOF 3
ENDMDL
MODEL 3
REMARK VINA RESULT:      -5.2      2.435      4.846
REMARK  3 active torsions:
REMARK  status: ('A' for Active; 'I' for Inactive)
REMARK    1  A    between atoms: C4_4  and  C6_6 
REMARK    2  A    between atoms: C6_6  and  C7_7 
REMARK    3  A    between atoms: C7_7  and  C8_8 
ROOT
HETATM    1  C1  UNL     1     -32.668   9.358  -0.025  1.00 20.00     0.029 C 
HETATM    2  C2  UNL     1     -31.479   8.589   0.497  1.00 20.00     0.034 C 
HETATM    3  C3  UNL     1     -32.921  10.338   1.097  1.00 20.00     0.168 C 
HETATM    4  C4  UNL     1     -31.750   8.527   1.992  1.00 20.00     0.121 C 
HETATM    5  O9  UNL     1     -32.557   9.673   2.314  1.00 20.00    -0.386 OA
ENDROOT
BRANCH   4   6
HETATM    6  C6  UNL     1     -32.509   7.274   2.407  1.00 20.00     0.033 C 
BRANCH   6   7
HETATM    7  C7  UNL     1     -33.604   7.597   3.428  1.00 20.00     0.022 C 
BRANCH   7   8
HETATM    8  C8  UNL     1     -33.819   6.484   4.462  1.00 20.00     0.078 C 
HETATM    9  C5  UNL     1     -35.086   5.692   4.160  1.00 20.00     0.026 C 
HETATM   10 CL10 UNL     1     -33.939   7.158   6.115  1.00 20.00    -0.125 Cl
ENDBRANCH   7   8
ENDBRANCH   6   7
ENDBRANCH   4   6
TORSDOF 3
ENDMDL
MODEL 4
REMARK VINA RESULT:      -5.2      2.481      4.948
REMARK  3 active torsions:
REMARK  status: ('A' for Active; 'I' for Inactive)
REMARK    1  A    between atoms: C4_4  and  C6_6 
REMARK    2  A    between atoms: C6_6  and  C7_7 
REMARK    3  A    between atoms: C7_7  and  C8_8 
ROOT
HETATM    1  C1  UNL     1     -32.524   9.299   0.009  1.00 20.00     0.029 C 
HETATM    2  C2  UNL     1     -31.426   8.521   0.691  1.00 20.00     0.034 C 
HETATM    3  C3  UNL     1     -32.914  10.292   1.078  1.00 20.00     0.168 C 
HETATM    4  C4  UNL     1     -31.897   8.476   2.137  1.00 20.00     0.121 C 
HETATM    5  O9  UNL     1     -32.725   9.633   2.339  1.00 20.00    -0.386 OA
ENDROOT
BRANCH   4   6
HETATM    6  C6  UNL     1     -32.720   7.235   2.455  1.00 20.00     0.033 C 
BRANCH   6   7
HETATM    7  C7  UNL     1     -33.497   7.401   3.764  1.00 20.00     0.022 C 
BRANCH   7   8
HETATM    8  C8  UNL     1     -34.350   6.178   4.124  1.00 20.00     0.078 C 
HETATM    9  C5  UNL     1     -34.403   5.971   5.633  1.00 20.00     0.026 C 
HETATM   10 CL10 UNL     1     -33.702   4.695   3.360  1.00 20.00    -0.125 Cl
ENDBRANCH   7   8
ENDBRANCH   6   7
ENDBRANCH   4   6
TORSDOF 3
ENDMDL
MODEL 5
REMARK VINA RESULT:      -5.1      0.862      1.290
REMARK  3 active torsions:
REMARK  status: ('A' for Active; 'I' for Inactive)
REMARK    1  A    between atoms: C4_4  and  C6_6 
REMARK    2  A    between atoms: C6_6  and  C7_7 
REMARK    3  A    between atoms: C7_7  and  C8_8 
ROOT
HETATM    1  C1  UNL     1     -34.395   5.032   5.583  1.00 20.00     0.029 C 
HETATM    2  C2  UNL     1     -34.991   5.246   4.214  1.00 20.00     0.034 C 
HETATM    3  C3  UNL     1     -34.310   6.445   6.111  1.00 20.00     0.168 C 
HETATM    4  C4  UNL     1     -34.368   6.564   3.779  1.00 20.00     0.121 C 
HETATM    5  O9  UNL     1     -34.060   7.292   4.980  1.00 20.00    -0.386 OA
ENDROOT
BRANCH   4   6
HETATM    6  C6  UNL     1     -33.081   6.379   2.987  1.00 20.00     0.033 C 
BRANCH   6   7
HETATM    7  C7  UNL     1     -33.015   7.342   1.798  1.00 20.00     0.022 C 
BRANCH   7   8
HETATM    8  C8  UNL     1     -31.882   8.371   1.911  1.00 20.00     0.078 C 
HETATM    9  C5  UNL     1     -31.381   8.480   3.346  1.00 20.00     0.026 C 
HETATM   10 CL10 UNL     1     -32.425   9.986   1.364  1.00 20.00    -0.125 Cl
ENDBRANCH   7   8
ENDBRANCH   6   7
ENDBRANCH   4   6
TORSDOF 3
ENDMDL
MODEL 6
REMARK VINA RESULT:      -4.7      2.291      4.481
REMARK  3 active torsions:
REMARK  status: ('A' for Active; 'I' for Inactive)
REMARK    1  A    between atoms: C4_4  and  C6_6 
REMARK    2  A    between atoms: C6_6  and  C7_7 
REMARK    3  A    between atoms: C7_7  and  C8_8 
ROOT
HETATM    1  C1  UNL     1     -32.634   8.471   1.811  1.00 20.00     0.029 C 
HETATM    2  C2  UNL     1     -32.871   7.075   2.331  1.00 20.00     0.034 C 
HETATM    3  C3  UNL     1     -31.417   8.895   2.600  1.00 20.00     0.168 C 
HETATM    4  C4  UNL     1     -32.476   7.191   3.795  1.00 20.00     0.121 C 
HETATM    5  O9  UNL     1     -31.515   8.258   3.881  1.00 20.00    -0.386 OA
ENDROOT
BRANCH   4   6
HETATM    6  C6  UNL     1     -33.651   7.531   4.702  1.00 20.00     0.033 C 
BRANCH   6   7
HETATM    7  C7  UNL     1     -33.978   6.372   5.649  1.00 20.00     0.022 C 
BRANCH   7   8
HETATM    8  C8  UNL     1     -34.908   5.322   5.027  1.00 20.00     0.078 C 
HETATM    9  C5  UNL     1     -34.125   4.098   4.569  1.00 20.00     0.026 C 
HETATM   10 CL10 UNL     1     -35.794   5.998   3.627  1.00 20.00    -0.125 Cl
ENDBRANCH   7   8
ENDBRANCH   6   7
ENDBRANCH   4   6
TORSDOF 3
ENDMDL
MODEL 7
REMARK VINA RESULT:      -4.2     10.592     11.763
REMARK  3 active torsions:
REMARK  status: ('A' for Active; 'I' for Inactive)
REMARK    1  A    between atoms: C4_4  and  C6_6 
REMARK    2  A    between atoms: C6_6  and  C7_7 
REMARK    3  A    between atoms: C7_7  and  C8_8 
ROOT
HETATM    1  C1  UNL     1     -35.672  14.272  -7.658  1.00 20.00     0.029 C 
HETATM    2  C2  UNL     1     -36.883  14.423  -6.771  1.00 20.00     0.034 C 
HETATM    3  C3  UNL     1     -35.144  12.920  -7.239  1.00 20.00     0.168 C 
HETATM    4  C4  UNL     1     -36.439  13.750  -5.481  1.00 20.00     0.121 C 
HETATM    5  O9  UNL     1     -35.444  12.777  -5.844  1.00 20.00    -0.386 OA
ENDROOT
BRANCH   4   6
HETATM    6  C6  UNL     1     -35.818  14.722  -4.487  1.00 20.00     0.033 C 
BRANCH   6   7
HETATM    7  C7  UNL     1     -34.432  14.252  -4.036  1.00 20.00     0.022 C 
BRANCH   7   8
HETATM    8  C8  UNL     1     -33.372  15.360  -4.070  1.00 20.00     0.078 C 
HETATM    9  C5  UNL     1     -33.735  16.495  -3.119  1.00 20.00     0.026 C 
HETATM   10 CL10 UNL     1     -33.191  16.026  -5.721  1.00 20.00    -0.125 Cl
ENDBRANCH   7   8
ENDBRANCH   6   7
ENDBRANCH   4   6
TORSDOF 3
ENDMDL
MODEL 8
REMARK VINA RESULT:      -4.1     10.474     11.639
REMARK  3 active torsions:
REMARK  status: ('A' for Active; 'I' for Inactive)
REMARK    1  A    between atoms: C4_4  and  C6_6 
REMARK    2  A    between atoms: C6_6  and  C7_7 
REMARK    3  A    between atoms: C7_7  and  C8_8 
ROOT
HETATM    1  C1  UNL     1     -34.521  14.268  -7.301  1.00 20.00     0.029 C 
HETATM    2  C2  UNL     1     -35.316  15.094  -6.320  1.00 20.00     0.034 C 
HETATM    3  C3  UNL     1     -35.129  12.897  -7.119  1.00 20.00     0.168 C 
HETATM    4  C4  UNL     1     -35.549  14.121  -5.175  1.00 20.00     0.121 C 
HETATM    5  O9  UNL     1     -35.517  12.800  -5.741  1.00 20.00    -0.386 OA
ENDROOT
BRANCH   4   6
HETATM    6  C6  UNL     1     -34.477  14.207  -4.096  1.00 20.00     0.033 C 
BRANCH   6   7
HETATM    7  C7  UNL     1     -34.081  15.660  -3.818  1.00 20.00     0.022 C 
BRANCH   7   8
HETATM    8  C8  UNL     1     -34.701  16.224  -2.533  1.00 20.00     0.078 C 
HETATM    9  C5  UNL     1     -35.975  17.005  -2.836  1.00 20.00     0.026 C 
HETATM   10 CL10 UNL     1     -33.551  17.301  -1.684  1.00 20.00    -0.125 Cl
ENDBRANCH   7   8
ENDBRANCH   6   7
ENDBRANCH   4   6
TORSDOF 3
ENDMDL
MODEL 9
REMARK VINA RESULT:      -4.0      1.729      2.227
REMARK  3 active torsions:
REMARK  status: ('A' for Active; 'I' for Inactive)
REMARK    1  A    between atoms: C4_4  and  C6_6 
REMARK    2  A    between atoms: C6_6  and  C7_7 
REMARK    3  A    between atoms: C7_7  and  C8_8 
ROOT
HETATM    1  C1  UNL     1     -34.081   4.674   3.384  1.00 20.00     0.029 C 
HETATM    2  C2  UNL     1     -35.035   5.792   3.724  1.00 20.00     0.034 C 
HETATM    3  C3  UNL     1     -34.034   3.899   4.681  1.00 20.00     0.168 C 
HETATM    4  C4  UNL     1     -34.712   6.077   5.183  1.00 20.00     0.121 C 
HETATM    5  O9  UNL     1     -34.192   4.857   5.737  1.00 20.00    -0.386 OA
ENDROOT
BRANCH   4   6
HETATM    6  C6  UNL     1     -33.663   7.168   5.356  1.00 20.00     0.033 C 
BRANCH   6   7
HETATM    7  C7  UNL     1     -33.568   8.054   4.111  1.00 20.00     0.022 C 
BRANCH   7   8
HETATM    8  C8  UNL     1     -32.347   7.745   3.236  1.00 20.00     0.078 C 
HETATM    9  C5  UNL     1     -31.084   8.373   3.815  1.00 20.00     0.026 C 
HETATM   10 CL10 UNL     1     -32.581   8.352   1.569  1.00 20.00    -0.125 Cl
ENDBRANCH   7   8
ENDBRANCH   6   7
ENDBRANCH   4   6
TORSDOF 3
ENDMDL
