MODEL 1
REMARK VINA RESULT:      -6.1      0.000      0.000
REMARK  5 active torsions:
REMARK  status: ('A' for Active; 'I' for Inactive)
REMARK    1  A    between atoms: C1_1  and  C7_7 
REMARK    2  A    between atoms: C1_1  and  C11_11 
REMARK    3  A    between atoms: C7_7  and  C10_10 
REMARK    4  A    between atoms: C8_8  and  C9_9 
REMARK    5  A    between atoms: C9_9  and  C10_10 
ROOT
HETATM    1  C1  UNL     1     -33.402   5.900   3.084  1.00 20.00     0.134 C 
HETATM    2  O12 UNL     1     -32.750   4.947   2.650  1.00 20.00    -0.297 OA
ENDROOT
BRANCH   1   3
HETATM    3  C7  UNL     1     -33.218   7.301   2.504  1.00 20.00     0.083 C 
BRANCH   3   4
HETATM    4  C10 UNL     1     -31.750   7.772   2.486  1.00 20.00    -0.012 C 
HETATM    5  C3  UNL     1     -31.407   8.501   3.790  1.00 20.00     0.010 C 
BRANCH   4   6
HETATM    6  C9  UNL     1     -31.522   8.672   1.252  1.00 20.00     0.004 C 
BRANCH   6   7
HETATM    7  C8  UNL     1     -32.666   9.655   0.990  1.00 20.00    -0.004 C 
HETATM    8  C2  UNL     1     -33.178   9.543  -0.439  1.00 20.00     0.005 C 
ENDBRANCH   6   7
ENDBRANCH   4   6
ENDBRANCH   3   4
ENDBRANCH   1   3
BRANCH   1   9
HETATM    9  C11 UNL     1     -34.414   5.720   4.234  1.00 20.00     0.009 C 
HETATM   10  C4  UNL     1     -34.051   6.624   5.420  1.00 20.00     0.022 C 
HETATM   11  C5  UNL     1     -35.819   6.053   3.718  1.00 20.00     0.022 C 
HETATM   12  C6  UNL     1     -34.393   4.257   4.713  1.00 20.00     0.022 C 
ENDBRANCH   1   9
TORSDOF 5
ENDMDL
MODEL 2
REMARK VINA RESULT:      -5.7      1.441      5.022
REMARK  5 active torsions:
REMARK  status: ('A' for Active; 'I' for Inactive)
REMARK    1  A    between atoms: C1_1  and  C7_7 
REMARK    2  A    between atoms: C1_1  and  C11_11 
REMARK    3  A    between atoms: C7_7  and  C10_10 
REMARK    4  A    between atoms: C8_8  and  C9_9 
REMARK    5  A    between atoms: C9_9  and  C10_10 
ROOT
HETATM    1  C1  UNL     1     -32.500   8.212   2.232  1.00 20.00     0.134 C 
HETATM    2  O12 UNL     1     -31.743   8.311   3.199  1.00 20.00    -0.297 OA
ENDROOT
BRANCH   1   3
HETATM    3  C7  UNL     1     -33.624   7.177   2.222  1.00 20.00     0.083 C 
BRANCH   3   4
HETATM    4  C10 UNL     1     -33.430   6.047   3.252  1.00 20.00    -0.012 C 
HETATM    5  C3  UNL     1     -33.018   4.748   2.549  1.00 20.00     0.010 C 
BRANCH   4   6
HETATM    6  C9  UNL     1     -34.733   5.870   4.062  1.00 20.00     0.004 C 
BRANCH   6   7
HETATM    7  C8  UNL     1     -34.531   5.969   5.576  1.00 20.00    -0.004 C 
HETATM    8  C2  UNL     1     -33.779   7.236   5.954  1.00 20.00     0.005 C 
ENDBRANCH   6   7
ENDBRANCH   4   6
ENDBRANCH   3   4
ENDBRANCH   1   3
BRANCH   1   9
HETATM    9  C11 UNL     1     -32.337   9.114   0.991  1.00 20.00     0.009 C 
HETATM   10  C4  UNL     1     -32.481  10.593   1.374  1.00 20.00     0.022 C 
HETATM   11  C5  UNL     1     -30.962   8.855   0.364  1.00 20.00     0.022 C 
HETATM   12  C6  UNL     1     -33.427   8.771  -0.040  1.00 20.00     0.022 C 
ENDBRANCH   1   9
TORSDOF 5
ENDMDL
MODEL 3
REMARK VINA RESULT:      -5.6      1.442      5.047
REMARK  5 active torsions:
REMARK  status: ('A' for Active; 'I' for Inactive)
REMARK    1  A    between atoms: C1_1  and  C7_7 
REMARK    2  A    between atoms: C1_1  and  C11_11 
REMARK    3  A    between atoms: C7_7  and  C10_10 
REMARK    4  A    between atoms: C8_8  and  C9_9 
REMARK    5  A    between atoms: C9_9  and  C10_10 
ROOT
HETATM    1  C1  UNL     1     -32.515   8.202   2.229  1.00 20.00     0.134 C 
HETATM    2  O12 UNL     1     -31.767   8.313   3.203  1.00 20.00    -0.297 OA
ENDROOT
BRANCH   1   3
HETATM    3  C7  UNL     1     -33.630   7.159   2.214  1.00 20.00     0.083 C 
BRANCH   3   4
HETATM    4  C10 UNL     1     -33.440   6.038   3.255  1.00 20.00    -0.012 C 
HETATM    5  C3  UNL     1     -33.046   4.728   2.565  1.00 20.00     0.010 C 
BRANCH   4   6
HETATM    6  C9  UNL     1     -34.738   5.883   4.077  1.00 20.00     0.004 C 
BRANCH   6   7
HETATM    7  C8  UNL     1     -34.522   5.981   5.589  1.00 20.00    -0.004 C 
HETATM    8  C2  UNL     1     -33.760   7.245   5.960  1.00 20.00     0.005 C 
ENDBRANCH   6   7
ENDBRANCH   4   6
ENDBRANCH   3   4
ENDBRANCH   1   3
BRANCH   1   9
HETATM    9  C11 UNL     1     -32.347   9.098   0.985  1.00 20.00     0.009 C 
HETATM   10  C4  UNL     1     -33.409   8.764  -0.071  1.00 20.00     0.022 C 
HETATM   11  C5  UNL     1     -32.458  10.567   1.410  1.00 20.00     0.022 C 
HETATM   12  C6  UNL     1     -30.957   8.864   0.366  1.00 20.00     0.022 C 
ENDBRANCH   1   9
TORSDOF 5
ENDMDL
MODEL 4
REMARK VINA RESULT:      -5.5      1.301      1.807
REMARK  5 active torsions:
REMARK  status: ('A' for Active; 'I' for Inactive)
REMARK    1  A    between atoms: C1_1  and  C7_7 
REMARK    2  A    between atoms: C1_1  and  C11_11 
REMARK    3  A    between atoms: C7_7  and  C10_10 
REMARK    4  A    between atoms: C8_8  and  C9_9 
REMARK    5  A    between atoms: C9_9  and  C10_10 
ROOT
HETATM    1  C1  UNL     1     -33.667   7.054   4.379  1.00 20.00     0.134 C 
HETATM    2  O12 UNL     1     -33.376   7.497   5.492  1.00 20.00    -0.297 OA
ENDROOT
BRANCH   1   3
HETATM    3  C7  UNL     1     -33.350   7.849   3.114  1.00 20.00     0.083 C 
BRANCH   3   4
HETATM    4  C10 UNL     1     -31.861   7.809   2.717  1.00 20.00    -0.012 C 
HETATM    5  C3  UNL     1     -31.005   8.497   3.786  1.00 20.00     0.010 C 
BRANCH   4   6
HETATM    6  C9  UNL     1     -31.688   8.470   1.332  1.00 20.00     0.004 C 
BRANCH   6   7
HETATM    7  C8  UNL     1     -32.640   9.644   1.090  1.00 20.00    -0.004 C 
HETATM    8  C2  UNL     1     -33.201   9.619  -0.324  1.00 20.00     0.005 C 
ENDBRANCH   6   7
ENDBRANCH   4   6
ENDBRANCH   3   4
ENDBRANCH   1   3
BRANCH   1   9
HETATM    9  C11 UNL     1     -34.371   5.691   4.219  1.00 20.00     0.009 C 
HETATM   10  C4  UNL     1     -33.550   4.759   3.318  1.00 20.00     0.022 C 
HETATM   11  C5  UNL     1     -34.562   5.062   5.605  1.00 20.00     0.022 C 
HETATM   12  C6  UNL     1     -35.753   5.899   3.572  1.00 20.00     0.022 C 
ENDBRANCH   1   9
TORSDOF 5
ENDMDL
MODEL 5
REMARK VINA RESULT:      -5.2      1.503      4.975
REMARK  5 active torsions:
REMARK  status: ('A' for Active; 'I' for Inactive)
REMARK    1  A    between atoms: C1_1  and  C7_7 
REMARK    2  A    between atoms: C1_1  and  C11_11 
REMARK    3  A    between atoms: C7_7  and  C10_10 
REMARK    4  A    between atoms: C8_8  and  C9_9 
REMARK    5  A    between atoms: C9_9  and  C10_10 
ROOT
HETATM    1  C1  UNL     1     -32.093   8.220   2.604  1.00 20.00     0.134 C 
HETATM    2  O12 UNL     1     -31.272   8.627   3.429  1.00 20.00    -0.297 OA
ENDROOT
BRANCH   1   3
HETATM    3  C7  UNL     1     -32.931   6.974   2.884  1.00 20.00     0.083 C 
BRANCH   3   4
HETATM    4  C10 UNL     1     -34.052   7.205   3.916  1.00 20.00    -0.012 C 
HETATM    5  C3  UNL     1     -33.462   7.353   5.323  1.00 20.00     0.010 C 
BRANCH   4   6
HETATM    6  C9  UNL     1     -35.060   6.037   3.840  1.00 20.00     0.004 C 
BRANCH   6   7
HETATM    7  C8  UNL     1     -34.850   4.974   4.921  1.00 20.00    -0.004 C 
HETATM    8  C2  UNL     1     -34.048   3.795   4.392  1.00 20.00     0.005 C 
ENDBRANCH   6   7
ENDBRANCH   4   6
ENDBRANCH   3   4
ENDBRANCH   1   3
BRANCH   1   9
HETATM    9  C11 UNL     1     -32.297   8.940   1.255  1.00 20.00     0.009 C 
HETATM   10  C4  UNL     1     -32.611  10.426   1.477  1.00 20.00     0.022 C 
HETATM   11  C5  UNL     1     -31.028   8.782   0.409  1.00 20.00     0.022 C 
HETATM   12  C6  UNL     1     -33.479   8.301   0.505  1.00 20.00     0.022 C 
ENDBRANCH   1   9
TORSDOF 5
ENDMDL
MODEL 6
REMARK VINA RESULT:      -4.5     10.796     11.684
REMARK  5 active torsions:
REMARK  status: ('A' for Active; 'I' for Inactive)
REMARK    1  A    between atoms: C1_1  and  C7_7 
REMARK    2  A    between atoms: C1_1  and  C11_11 
REMARK    3  A    between atoms: C7_7  and  C10_10 
REMARK    4  A    between atoms: C8_8  and  C9_9 
REMARK    5  A    between atoms: C9_9  and  C10_10 
ROOT
HETATM    1  C1  UNL     1     -33.838  14.619  -4.825  1.00 20.00     0.134 C 
HETATM    2  O12 UNL     1     -33.156  13.705  -4.357  1.00 20.00    -0.297 OA
ENDROOT
BRANCH   1   3
HETATM    3  C7  UNL     1     -33.622  16.063  -4.378  1.00 20.00     0.083 C 
BRANCH   3   4
HETATM    4  C10 UNL     1     -33.949  16.303  -2.891  1.00 20.00    -0.012 C 
HETATM    5  C3  UNL     1     -35.466  16.302  -2.670  1.00 20.00     0.010 C 
BRANCH   4   6
HETATM    6  C9  UNL     1     -33.307  17.633  -2.438  1.00 20.00     0.004 C 
BRANCH   6   7
HETATM    7  C8  UNL     1     -33.480  17.921  -0.945  1.00 20.00    -0.004 C 
HETATM    8  C2  UNL     1     -32.240  18.579  -0.360  1.00 20.00     0.005 C 
ENDBRANCH   6   7
ENDBRANCH   4   6
ENDBRANCH   3   4
ENDBRANCH   1   3
BRANCH   1   9
HETATM    9  C11 UNL     1     -34.941  14.342  -5.867  1.00 20.00     0.009 C 
HETATM   10  C4  UNL     1     -34.356  13.649  -7.105  1.00 20.00     0.022 C 
HETATM   11  C5  UNL     1     -36.024  13.466  -5.226  1.00 20.00     0.022 C 
HETATM   12  C6  UNL     1     -35.576  15.673  -6.310  1.00 20.00     0.022 C 
ENDBRANCH   1   9
TORSDOF 5
ENDMDL
MODEL 7
REMARK VINA RESULT:      -4.5     10.828     11.671
REMARK  5 active torsions:
REMARK  status: ('A' for Active; 'I' for Inactive)
REMARK    1  A    between atoms: C1_1  and  C7_7 
REMARK    2  A    between atoms: C1_1  and  C11_11 
REMARK    3  A    between atoms: C7_7  and  C10_10 
REMARK    4  A    between atoms: C8_8  and  C9_9 
REMARK    5  A    between atoms: C9_9  and  C10_10 
ROOT
HETATM    1  C1  UNL     1     -33.845  14.671  -4.819  1.00 20.00     0.134 C 
HETATM    2  O12 UNL     1     -33.152  13.756  -4.369  1.00 20.00    -0.297 OA
ENDROOT
BRANCH   1   3
HETATM    3  C7  UNL     1     -33.624  16.114  -4.368  1.00 20.00     0.083 C 
BRANCH   3   4
HETATM    4  C10 UNL     1     -33.931  16.346  -2.875  1.00 20.00    -0.012 C 
HETATM    5  C3  UNL     1     -35.444  16.354  -2.635  1.00 20.00     0.010 C 
BRANCH   4   6
HETATM    6  C9  UNL     1     -33.273  17.668  -2.423  1.00 20.00     0.004 C 
BRANCH   6   7
HETATM    7  C8  UNL     1     -33.477  17.978  -0.938  1.00 20.00    -0.004 C 
HETATM    8  C2  UNL     1     -32.221  18.570  -0.317  1.00 20.00     0.005 C 
ENDBRANCH   6   7
ENDBRANCH   4   6
ENDBRANCH   3   4
ENDBRANCH   1   3
BRANCH   1   9
HETATM    9  C11 UNL     1     -34.969  14.397  -5.840  1.00 20.00     0.009 C 
HETATM   10  C4  UNL     1     -36.063  13.518  -5.219  1.00 20.00     0.022 C 
HETATM   11  C5  UNL     1     -35.557  15.734  -6.305  1.00 20.00     0.022 C 
HETATM   12  C6  UNL     1     -34.386  13.659  -7.059  1.00 20.00     0.022 C 
ENDBRANCH   1   9
TORSDOF 5
ENDMDL
MODEL 8
REMARK VINA RESULT:      -4.4      1.532      2.104
REMARK  5 active torsions:
REMARK  status: ('A' for Active; 'I' for Inactive)
REMARK    1  A    between atoms: C1_1  and  C7_7 
REMARK    2  A    between atoms: C1_1  and  C11_11 
REMARK    3  A    between atoms: C7_7  and  C10_10 
REMARK    4  A    between atoms: C8_8  and  C9_9 
REMARK    5  A    between atoms: C9_9  and  C10_10 
ROOT
HETATM    1  C1  UNL     1     -33.499   6.951   4.683  1.00 20.00     0.134 C 
HETATM    2  O12 UNL     1     -33.693   7.675   5.662  1.00 20.00    -0.297 OA
ENDROOT
BRANCH   1   3
HETATM    3  C7  UNL     1     -32.440   7.310   3.642  1.00 20.00     0.083 C 
BRANCH   3   4
HETATM    4  C10 UNL     1     -33.014   8.009   2.395  1.00 20.00    -0.012 C 
HETATM    5  C3  UNL     1     -33.335   6.981   1.305  1.00 20.00     0.010 C 
BRANCH   4   6
HETATM    6  C9  UNL     1     -32.007   9.071   1.900  1.00 20.00     0.004 C 
BRANCH   6   7
HETATM    7  C8  UNL     1     -32.660  10.227   1.137  1.00 20.00    -0.004 C 
HETATM    8  C2  UNL     1     -32.975   9.836  -0.299  1.00 20.00     0.005 C 
ENDBRANCH   6   7
ENDBRANCH   4   6
ENDBRANCH   3   4
ENDBRANCH   1   3
BRANCH   1   9
HETATM    9  C11 UNL     1     -34.323   5.666   4.462  1.00 20.00     0.009 C 
HETATM   10  C4  UNL     1     -35.647   5.987   3.754  1.00 20.00     0.022 C 
HETATM   11  C5  UNL     1     -33.497   4.680   3.628  1.00 20.00     0.022 C 
HETATM   12  C6  UNL     1     -34.643   5.020   5.822  1.00 20.00     0.022 C 
ENDBRANCH   1   9
TORSDOF 5
ENDMDL
MODEL 9
REMARK VINA RESULT:      -4.2     10.989     12.110
REMARK  5 active torsions:
REMARK  status: ('A' for Active; 'I' for Inactive)
REMARK    1  A    between atoms: C1_1  and  C7_7 
REMARK    2  A    between atoms: C1_1  and  C11_11 
REMARK    3  A    between atoms: C7_7  and  C10_10 
REMARK    4  A    between atoms: C8_8  and  C9_9 
REMARK    5  A    between atoms: C9_9  and  C10_10 
ROOT
HETATM    1  C1  UNL     1     -34.183  14.526  -5.135  1.00 20.00     0.134 C 
HETATM    2  O12 UNL     1     -34.462  13.634  -4.330  1.00 20.00    -0.297 OA
ENDROOT
BRANCH   1   3
HETATM    3  C7  UNL     1     -33.210  15.642  -4.760  1.00 20.00     0.083 C 
BRANCH   3   4
HETATM    4  C10 UNL     1     -33.891  16.855  -4.095  1.00 20.00    -0.012 C 
HETATM    5  C3  UNL     1     -33.353  18.161  -4.690  1.00 20.00     0.010 C 
BRANCH   4   6
HETATM    6  C9  UNL     1     -33.668  16.787  -2.568  1.00 20.00     0.004 C 
BRANCH   6   7
HETATM    7  C8  UNL     1     -34.968  16.742  -1.761  1.00 20.00    -0.004 C 
HETATM    8  C2  UNL     1     -36.185  16.691  -2.671  1.00 20.00     0.005 C 
ENDBRANCH   6   7
ENDBRANCH   4   6
ENDBRANCH   3   4
ENDBRANCH   1   3
BRANCH   1   9
HETATM    9  C11 UNL     1     -34.814  14.559  -6.542  1.00 20.00     0.009 C 
HETATM   10  C4  UNL     1     -34.979  13.137  -7.095  1.00 20.00     0.022 C 
HETATM   11  C5  UNL     1     -36.173  15.264  -6.464  1.00 20.00     0.022 C 
HETATM   12  C6  UNL     1     -33.899  15.348  -7.497  1.00 20.00     0.022 C 
ENDBRANCH   1   9
TORSDOF 5
ENDMDL
