MODEL 1
REMARK VINA RESULT:      -6.7      0.000      0.000
REMARK  6 active torsions:
REMARK  status: ('A' for Active; 'I' for Inactive)
REMARK    1  A    between atoms: C1_1  and  C6_6 
REMARK    2  A    between atoms: C1_1  and  C7_7 
REMARK    3  A    between atoms: C6_6  and  C10_10 
REMARK    4  A    between atoms: C7_7  and  C11_11 
REMARK    5  A    between atoms: C8_8  and  C9_9 
REMARK    6  A    between atoms: C9_9  and  C11_11 
ROOT
HETATM    1  C1  UNL     1     -32.059   8.118   2.390  1.00 20.00     0.127 C 
HETATM    2  O12 UNL     1     -31.494   8.388   3.449  1.00 20.00    -0.298 OA
ENDROOT
BRANCH   1   3
HETATM    3  C6  UNL     1     -31.474   8.571   1.063  1.00 20.00     0.082 C 
BRANCH   3   4
HETATM    4  C10 UNL     1     -32.187   9.800   0.485  1.00 20.00    -0.016 C 
HETATM    5  C3  UNL     1     -32.869  10.621   1.582  1.00 20.00     0.010 C 
HETATM    6  C4  UNL     1     -33.218   9.364  -0.556  1.00 20.00     0.010 C 
ENDBRANCH   3   4
ENDBRANCH   1   3
BRANCH   1   7
HETATM    7  C7  UNL     1     -33.335   7.290   2.337  1.00 20.00     0.082 C 
BRANCH   7   8
HETATM    8  C11 UNL     1     -33.323   6.088   3.297  1.00 20.00    -0.012 C 
HETATM    9  C5  UNL     1     -33.015   4.793   2.531  1.00 20.00     0.010 C 
BRANCH   8  10
HETATM   10  C9  UNL     1     -34.668   5.925   4.035  1.00 20.00     0.004 C 
BRANCH  10  11
HETATM   11  C8  UNL     1     -34.547   6.011   5.559  1.00 20.00    -0.004 C 
HETATM   12  C2  UNL     1     -33.770   7.249   5.983  1.00 20.00     0.005 C 
ENDBRANCH  10  11
ENDBRANCH   8  10
ENDBRANCH   7   8
ENDBRANCH   1   7
TORSDOF 6
ENDMDL
MODEL 2
REMARK VINA RESULT:      -6.6      0.993      2.010
REMARK  6 active torsions:
REMARK  status: ('A' for Active; 'I' for Inactive)
REMARK    1  A    between atoms: C1_1  and  C6_6 
REMARK    2  A    between atoms: C1_1  and  C7_7 
REMARK    3  A    between atoms: C6_6  and  C10_10 
REMARK    4  A    between atoms: C7_7  and  C11_11 
REMARK    5  A    between atoms: C8_8  and  C9_9 
REMARK    6  A    between atoms: C9_9  and  C11_11 
ROOT
HETATM    1  C1  UNL     1     -31.835   8.024   2.845  1.00 20.00     0.127 C 
HETATM    2  O12 UNL     1     -31.186   8.518   3.766  1.00 20.00    -0.298 OA
ENDROOT
BRANCH   1   3
HETATM    3  C6  UNL     1     -31.703   8.559   1.430  1.00 20.00     0.082 C 
BRANCH   3   4
HETATM    4  C10 UNL     1     -32.901   9.415   1.001  1.00 20.00    -0.016 C 
HETATM    5  C3  UNL     1     -33.082   9.407  -0.518  1.00 20.00     0.010 C 
HETATM    6  C4  UNL     1     -32.720  10.851   1.496  1.00 20.00     0.010 C 
ENDBRANCH   3   4
ENDBRANCH   1   3
BRANCH   1   7
HETATM    7  C7  UNL     1     -32.765   6.836   3.052  1.00 20.00     0.082 C 
BRANCH   7   8
HETATM    8  C11 UNL     1     -33.985   7.162   3.931  1.00 20.00    -0.012 C 
HETATM    9  C5  UNL     1     -33.556   7.357   5.392  1.00 20.00     0.010 C 
BRANCH   8  10
HETATM   10  C9  UNL     1     -35.055   6.052   3.867  1.00 20.00     0.004 C 
BRANCH  10  11
HETATM   11  C8  UNL     1     -34.879   4.969   4.935  1.00 20.00    -0.004 C 
HETATM   12  C2  UNL     1     -34.057   3.802   4.409  1.00 20.00     0.005 C 
ENDBRANCH  10  11
ENDBRANCH   8  10
ENDBRANCH   7   8
ENDBRANCH   1   7
TORSDOF 6
ENDMDL
MODEL 3
REMARK VINA RESULT:      -6.4      1.273      5.188
REMARK  6 active torsions:
REMARK  status: ('A' for Active; 'I' for Inactive)
REMARK    1  A    between atoms: C1_1  and  C6_6 
REMARK    2  A    between atoms: C1_1  and  C7_7 
REMARK    3  A    between atoms: C6_6  and  C10_10 
REMARK    4  A    between atoms: C7_7  and  C11_11 
REMARK    5  A    between atoms: C8_8  and  C9_9 
REMARK    6  A    between atoms: C9_9  and  C11_11 
ROOT
HETATM    1  C1  UNL     1     -33.739   6.130   2.943  1.00 20.00     0.127 C 
HETATM    2  O12 UNL     1     -32.987   5.173   2.765  1.00 20.00    -0.298 OA
ENDROOT
BRANCH   1   3
HETATM    3  C6  UNL     1     -35.051   5.956   3.688  1.00 20.00     0.082 C 
BRANCH   3   4
HETATM    4  C10 UNL     1     -34.863   5.829   5.205  1.00 20.00    -0.016 C 
HETATM    5  C3  UNL     1     -33.924   6.909   5.747  1.00 20.00     0.010 C 
HETATM    6  C4  UNL     1     -34.316   4.443   5.549  1.00 20.00     0.010 C 
ENDBRANCH   3   4
ENDBRANCH   1   3
BRANCH   1   7
HETATM    7  C7  UNL     1     -33.390   7.536   2.475  1.00 20.00     0.082 C 
BRANCH   7   8
HETATM    8  C11 UNL     1     -31.875   7.786   2.372  1.00 20.00    -0.012 C 
HETATM    9  C5  UNL     1     -31.345   8.405   3.674  1.00 20.00     0.010 C 
BRANCH   8  10
HETATM   10  C9  UNL     1     -31.524   8.720   1.195  1.00 20.00     0.004 C 
BRANCH  10  11
HETATM   11  C8  UNL     1     -32.623   9.735   0.868  1.00 20.00    -0.004 C 
HETATM   12  C2  UNL     1     -33.185   9.511  -0.528  1.00 20.00     0.005 C 
ENDBRANCH  10  11
ENDBRANCH   8  10
ENDBRANCH   7   8
ENDBRANCH   1   7
TORSDOF 6
ENDMDL
MODEL 4
REMARK VINA RESULT:      -6.0      1.264      5.272
REMARK  6 active torsions:
REMARK  status: ('A' for Active; 'I' for Inactive)
REMARK    1  A    between atoms: C1_1  and  C6_6 
REMARK    2  A    between atoms: C1_1  and  C7_7 
REMARK    3  A    between atoms: C6_6  and  C10_10 
REMARK    4  A    between atoms: C7_7  and  C11_11 
REMARK    5  A    between atoms: C8_8  and  C9_9 
REMARK    6  A    between atoms: C9_9  and  C11_11 
ROOT
HETATM    1  C1  UNL     1     -33.583   6.045   2.824  1.00 20.00     0.127 C 
HETATM    2  O12 UNL     1     -32.963   5.037   2.486  1.00 20.00    -0.298 OA
ENDROOT
BRANCH   1   3
HETATM    3  C6  UNL     1     -34.626   5.979   3.925  1.00 20.00     0.082 C 
BRANCH   3   4
HETATM    4  C10 UNL     1     -34.010   5.868   5.325  1.00 20.00    -0.016 C 
HETATM    5  C3  UNL     1     -34.812   4.917   6.217  1.00 20.00     0.010 C 
HETATM    6  C4  UNL     1     -33.934   7.250   5.974  1.00 20.00     0.010 C 
ENDBRANCH   3   4
ENDBRANCH   1   3
BRANCH   1   7
HETATM    7  C7  UNL     1     -33.318   7.409   2.202  1.00 20.00     0.082 C 
BRANCH   7   8
HETATM    8  C11 UNL     1     -31.831   7.806   2.213  1.00 20.00    -0.012 C 
HETATM    9  C5  UNL     1     -31.454   8.430   3.564  1.00 20.00     0.010 C 
BRANCH   8  10
HETATM   10  C9  UNL     1     -31.494   8.807   1.088  1.00 20.00     0.004 C 
BRANCH  10  11
HETATM   11  C8  UNL     1     -32.618   9.806   0.797  1.00 20.00    -0.004 C 
HETATM   12  C2  UNL     1     -33.206   9.589  -0.589  1.00 20.00     0.005 C 
ENDBRANCH  10  11
ENDBRANCH   8  10
ENDBRANCH   7   8
ENDBRANCH   1   7
TORSDOF 6
ENDMDL
MODEL 5
REMARK VINA RESULT:      -5.2      1.374      5.136
REMARK  6 active torsions:
REMARK  status: ('A' for Active; 'I' for Inactive)
REMARK    1  A    between atoms: C1_1  and  C6_6 
REMARK    2  A    between atoms: C1_1  and  C7_7 
REMARK    3  A    between atoms: C6_6  and  C10_10 
REMARK    4  A    between atoms: C7_7  and  C11_11 
REMARK    5  A    between atoms: C8_8  and  C9_9 
REMARK    6  A    between atoms: C9_9  and  C11_11 
ROOT
HETATM    1  C1  UNL     1     -34.133   7.180   4.148  1.00 20.00     0.127 C 
HETATM    2  O12 UNL     1     -33.786   7.367   5.314  1.00 20.00    -0.298 OA
ENDROOT
BRANCH   1   3
HETATM    3  C6  UNL     1     -35.138   6.095   3.805  1.00 20.00     0.082 C 
BRANCH   3   4
HETATM    4  C10 UNL     1     -34.620   4.684   4.108  1.00 20.00    -0.016 C 
HETATM    5  C3  UNL     1     -34.379   4.484   5.606  1.00 20.00     0.010 C 
HETATM    6  C4  UNL     1     -33.326   4.425   3.335  1.00 20.00     0.010 C 
ENDBRANCH   3   4
ENDBRANCH   1   3
BRANCH   1   7
HETATM    7  C7  UNL     1     -33.620   8.038   3.000  1.00 20.00     0.082 C 
BRANCH   7   8
HETATM    8  C11 UNL     1     -32.142   7.780   2.659  1.00 20.00    -0.012 C 
HETATM    9  C5  UNL     1     -31.233   8.327   3.769  1.00 20.00     0.010 C 
BRANCH   8  10
HETATM   10  C9  UNL     1     -31.739   8.427   1.317  1.00 20.00     0.004 C 
BRANCH  10  11
HETATM   11  C8  UNL     1     -32.568   9.664   0.959  1.00 20.00    -0.004 C 
HETATM   12  C2  UNL     1     -33.149   9.553  -0.443  1.00 20.00     0.005 C 
ENDBRANCH  10  11
ENDBRANCH   8  10
ENDBRANCH   7   8
ENDBRANCH   1   7
TORSDOF 6
ENDMDL
MODEL 6
REMARK VINA RESULT:      -4.7     10.014     11.232
REMARK  6 active torsions:
REMARK  status: ('A' for Active; 'I' for Inactive)
REMARK    1  A    between atoms: C1_1  and  C6_6 
REMARK    2  A    between atoms: C1_1  and  C7_7 
REMARK    3  A    between atoms: C6_6  and  C10_10 
REMARK    4  A    between atoms: C7_7  and  C11_11 
REMARK    5  A    between atoms: C8_8  and  C9_9 
REMARK    6  A    between atoms: C9_9  and  C11_11 
ROOT
HETATM    1  C1  UNL     1     -35.757  13.848  -4.994  1.00 20.00     0.127 C 
HETATM    2  O12 UNL     1     -35.900  12.664  -5.298  1.00 20.00    -0.298 OA
ENDROOT
BRANCH   1   3
HETATM    3  C6  UNL     1     -36.702  14.906  -5.535  1.00 20.00     0.082 C 
BRANCH   3   4
HETATM    4  C10 UNL     1     -37.884  15.186  -4.599  1.00 20.00    -0.016 C 
HETATM    5  C3  UNL     1     -39.222  14.877  -5.275  1.00 20.00     0.010 C 
HETATM    6  C4  UNL     1     -37.856  16.645  -4.144  1.00 20.00     0.010 C 
ENDBRANCH   3   4
ENDBRANCH   1   3
BRANCH   1   7
HETATM    7  C7  UNL     1     -34.670  14.316  -4.037  1.00 20.00     0.082 C 
BRANCH   7   8
HETATM    8  C11 UNL     1     -34.162  15.737  -4.338  1.00 20.00    -0.012 C 
HETATM    9  C5  UNL     1     -32.969  15.686  -5.303  1.00 20.00     0.010 C 
BRANCH   8  10
HETATM   10  C9  UNL     1     -33.737  16.481  -3.055  1.00 20.00     0.004 C 
BRANCH  10  11
HETATM   11  C8  UNL     1     -34.847  16.578  -2.005  1.00 20.00    -0.004 C 
HETATM   12  C2  UNL     1     -34.445  17.492  -0.857  1.00 20.00     0.005 C 
ENDBRANCH  10  11
ENDBRANCH   8  10
ENDBRANCH   7   8
ENDBRANCH   1   7
TORSDOF 6
ENDMDL
MODEL 7
REMARK VINA RESULT:      -4.5      9.956     10.988
REMARK  6 active torsions:
REMARK  status: ('A' for Active; 'I' for Inactive)
REMARK    1  A    between atoms: C1_1  and  C6_6 
REMARK    2  A    between atoms: C1_1  and  C7_7 
REMARK    3  A    between atoms: C6_6  and  C10_10 
REMARK    4  A    between atoms: C7_7  and  C11_11 
REMARK    5  A    between atoms: C8_8  and  C9_9 
REMARK    6  A    between atoms: C9_9  and  C11_11 
ROOT
HETATM    1  C1  UNL     1     -33.810  14.410  -4.236  1.00 20.00     0.127 C 
HETATM    2  O12 UNL     1     -32.802  13.706  -4.253  1.00 20.00    -0.298 OA
ENDROOT
BRANCH   1   3
HETATM    3  C6  UNL     1     -35.165  13.830  -4.601  1.00 20.00     0.082 C 
BRANCH   3   4
HETATM    4  C10 UNL     1     -35.644  14.261  -5.993  1.00 20.00    -0.016 C 
HETATM    5  C3  UNL     1     -37.170  14.362  -6.056  1.00 20.00     0.010 C 
HETATM    6  C4  UNL     1     -35.143  13.272  -7.046  1.00 20.00     0.010 C 
ENDBRANCH   3   4
ENDBRANCH   1   3
BRANCH   1   7
HETATM    7  C7  UNL     1     -33.774  15.872  -3.813  1.00 20.00     0.082 C 
BRANCH   7   8
HETATM    8  C11 UNL     1     -34.886  16.248  -2.819  1.00 20.00    -0.012 C 
HETATM    9  C5  UNL     1     -35.933  17.142  -3.499  1.00 20.00     0.010 C 
BRANCH   8  10
HETATM   10  C9  UNL     1     -34.329  16.982  -1.581  1.00 20.00     0.004 C 
BRANCH  10  11
HETATM   11  C8  UNL     1     -33.086  17.825  -1.876  1.00 20.00    -0.004 C 
HETATM   12  C2  UNL     1     -32.543  18.472  -0.611  1.00 20.00     0.005 C 
ENDBRANCH  10  11
ENDBRANCH   8  10
ENDBRANCH   7   8
ENDBRANCH   1   7
TORSDOF 6
ENDMDL
MODEL 8
REMARK VINA RESULT:      -4.4     10.472     11.232
REMARK  6 active torsions:
REMARK  status: ('A' for Active; 'I' for Inactive)
REMARK    1  A    between atoms: C1_1  and  C6_6 
REMARK    2  A    between atoms: C1_1  and  C7_7 
REMARK    3  A    between atoms: C6_6  and  C10_10 
REMARK    4  A    between atoms: C7_7  and  C11_11 
REMARK    5  A    between atoms: C8_8  and  C9_9 
REMARK    6  A    between atoms: C9_9  and  C11_11 
ROOT
HETATM    1  C1  UNL     1     -33.544  14.863  -4.912  1.00 20.00     0.127 C 
HETATM    2  O12 UNL     1     -32.977  13.942  -4.325  1.00 20.00    -0.298 OA
ENDROOT
BRANCH   1   3
HETATM    3  C6  UNL     1     -33.690  16.224  -4.255  1.00 20.00     0.082 C 
BRANCH   3   4
HETATM    4  C10 UNL     1     -34.371  16.155  -2.883  1.00 20.00    -0.016 C 
HETATM    5  C3  UNL     1     -35.865  16.475  -2.980  1.00 20.00     0.010 C 
HETATM    6  C4  UNL     1     -33.693  17.124  -1.914  1.00 20.00     0.010 C 
ENDBRANCH   3   4
ENDBRANCH   1   3
BRANCH   1   7
HETATM    7  C7  UNL     1     -34.087  14.714  -6.326  1.00 20.00     0.082 C 
BRANCH   7   8
HETATM    8  C11 UNL     1     -35.077  13.546  -6.479  1.00 20.00    -0.012 C 
HETATM    9  C5  UNL     1     -35.611  13.482  -7.918  1.00 20.00     0.010 C 
BRANCH   8  10
HETATM   10  C9  UNL     1     -36.270  13.671  -5.508  1.00 20.00     0.004 C 
BRANCH  10  11
HETATM   11  C8  UNL     1     -37.328  14.680  -5.963  1.00 20.00    -0.004 C 
HETATM   12  C2  UNL     1     -38.527  14.683  -5.026  1.00 20.00     0.005 C 
ENDBRANCH  10  11
ENDBRANCH   8  10
ENDBRANCH   7   8
ENDBRANCH   1   7
TORSDOF 6
ENDMDL
MODEL 9
REMARK VINA RESULT:      -4.4      0.925      5.257
REMARK  6 active torsions:
REMARK  status: ('A' for Active; 'I' for Inactive)
REMARK    1  A    between atoms: C1_1  and  C6_6 
REMARK    2  A    between atoms: C1_1  and  C7_7 
REMARK    3  A    between atoms: C6_6  and  C10_10 
REMARK    4  A    between atoms: C7_7  and  C11_11 
REMARK    5  A    between atoms: C8_8  and  C9_9 
REMARK    6  A    between atoms: C9_9  and  C11_11 
ROOT
HETATM    1  C1  UNL     1     -32.621   7.515   3.332  1.00 20.00     0.127 C 
HETATM    2  O12 UNL     1     -31.721   7.862   4.095  1.00 20.00    -0.298 OA
ENDROOT
BRANCH   1   3
HETATM    3  C6  UNL     1     -33.280   6.155   3.479  1.00 20.00     0.082 C 
BRANCH   3   4
HETATM    4  C10 UNL     1     -34.369   6.133   4.558  1.00 20.00    -0.016 C 
HETATM    5  C3  UNL     1     -33.963   6.957   5.783  1.00 20.00     0.010 C 
HETATM    6  C4  UNL     1     -34.662   4.691   4.976  1.00 20.00     0.010 C 
ENDBRANCH   3   4
ENDBRANCH   1   3
BRANCH   1   7
HETATM    7  C7  UNL     1     -33.155   8.428   2.236  1.00 20.00     0.082 C 
BRANCH   7   8
HETATM    8  C11 UNL     1     -32.117   9.444   1.730  1.00 20.00    -0.012 C 
HETATM    9  C5  UNL     1     -32.684  10.870   1.801  1.00 20.00     0.010 C 
BRANCH   8  10
HETATM   10  C9  UNL     1     -31.682   9.150   0.278  1.00 20.00     0.004 C 
BRANCH  10  11
HETATM   11  C8  UNL     1     -32.840   8.748  -0.639  1.00 20.00    -0.004 C 
HETATM   12  C2  UNL     1     -33.684   9.953  -1.027  1.00 20.00     0.005 C 
ENDBRANCH  10  11
ENDBRANCH   8  10
ENDBRANCH   7   8
ENDBRANCH   1   7
TORSDOF 6
ENDMDL
