MODEL 1
REMARK VINA RESULT:      -6.3      0.000      0.000
REMARK  5 active torsions:
REMARK  status: ('A' for Active; 'I' for Inactive)
REMARK    1  A    between atoms: C1_1  and  C6_6 
REMARK    2  A    between atoms: C1_1  and  C9_9 
REMARK    3  A    between atoms: C6_6  and  C10_10 
REMARK    4  A    between atoms: C7_7  and  C8_8 
REMARK    5  A    between atoms: C8_8  and  C10_10 
ROOT
HETATM    1  C6  UNL     1     -33.373   7.403   2.621  1.00 20.00     0.082 C 
ENDROOT
BRANCH   1   2
HETATM    2  C1  UNL     1     -33.626   6.014   3.198  1.00 20.00     0.130 C 
HETATM    3  O11 UNL     1     -33.100   5.007   2.723  1.00 20.00    -0.298 OA
BRANCH   2   4
HETATM    4  C9  UNL     1     -34.526   5.946   4.432  1.00 20.00     0.047 C 
HETATM    5  C3  UNL     1     -34.612   4.521   4.972  1.00 20.00     0.017 C 
HETATM    6  C4  UNL     1     -34.017   6.900   5.505  1.00 20.00     0.017 C 
ENDBRANCH   2   4
ENDBRANCH   1   2
BRANCH   1   7
HETATM    7  C10 UNL     1     -31.880   7.753   2.493  1.00 20.00    -0.012 C 
HETATM    8  C5  UNL     1     -31.361   8.437   3.763  1.00 20.00     0.010 C 
BRANCH   7   9
HETATM    9  C8  UNL     1     -31.605   8.602   1.235  1.00 20.00     0.004 C 
BRANCH   9  10
HETATM   10  C7  UNL     1     -32.623   9.713   0.960  1.00 20.00    -0.004 C 
HETATM   11  C2  UNL     1     -33.218   9.582  -0.435  1.00 20.00     0.005 C 
ENDBRANCH   9  10
ENDBRANCH   7   9
ENDBRANCH   1   7
TORSDOF 5
ENDMDL
MODEL 2
REMARK VINA RESULT:      -6.1      1.476      4.854
REMARK  5 active torsions:
REMARK  status: ('A' for Active; 'I' for Inactive)
REMARK    1  A    between atoms: C1_1  and  C6_6 
REMARK    2  A    between atoms: C1_1  and  C9_9 
REMARK    3  A    between atoms: C6_6  and  C10_10 
REMARK    4  A    between atoms: C7_7  and  C8_8 
REMARK    5  A    between atoms: C8_8  and  C10_10 
ROOT
HETATM    1  C6  UNL     1     -33.368   7.317   2.033  1.00 20.00     0.082 C 
ENDROOT
BRANCH   1   2
HETATM    2  C1  UNL     1     -32.277   8.370   2.193  1.00 20.00     0.130 C 
HETATM    3  O11 UNL     1     -31.517   8.376   3.162  1.00 20.00    -0.298 OA
BRANCH   2   4
HETATM    4  C9  UNL     1     -32.140   9.385   1.058  1.00 20.00     0.047 C 
HETATM    5  C3  UNL     1     -32.886   8.919  -0.190  1.00 20.00     0.017 C 
HETATM    6  C4  UNL     1     -32.646  10.749   1.512  1.00 20.00     0.017 C 
ENDBRANCH   2   4
ENDBRANCH   1   2
BRANCH   1   7
HETATM    7  C10 UNL     1     -33.313   6.208   3.097  1.00 20.00    -0.012 C 
HETATM    8  C5  UNL     1     -32.962   4.855   2.468  1.00 20.00     0.010 C 
BRANCH   7   9
HETATM    9  C8  UNL     1     -34.624   6.138   3.907  1.00 20.00     0.004 C 
BRANCH   9  10
HETATM   10  C7  UNL     1     -34.453   6.123   5.430  1.00 20.00    -0.004 C 
HETATM   11  C2  UNL     1     -33.652   7.327   5.905  1.00 20.00     0.005 C 
ENDBRANCH   9  10
ENDBRANCH   7   9
ENDBRANCH   1   7
TORSDOF 5
ENDMDL
MODEL 3
REMARK VINA RESULT:      -6.0      1.603      5.025
REMARK  5 active torsions:
REMARK  status: ('A' for Active; 'I' for Inactive)
REMARK    1  A    between atoms: C1_1  and  C6_6 
REMARK    2  A    between atoms: C1_1  and  C9_9 
REMARK    3  A    between atoms: C6_6  and  C10_10 
REMARK    4  A    between atoms: C7_7  and  C8_8 
REMARK    5  A    between atoms: C8_8  and  C10_10 
ROOT
HETATM    1  C6  UNL     1     -32.881   6.921   3.022  1.00 20.00     0.082 C 
ENDROOT
BRANCH   1   2
HETATM    2  C1  UNL     1     -32.124   8.197   2.669  1.00 20.00     0.130 C 
HETATM    3  O11 UNL     1     -31.252   8.660   3.405  1.00 20.00    -0.298 OA
BRANCH   2   4
HETATM    4  C9  UNL     1     -32.468   8.841   1.326  1.00 20.00     0.047 C 
HETATM    5  C3  UNL     1     -32.784  10.325   1.492  1.00 20.00     0.017 C 
HETATM    6  C4  UNL     1     -31.323   8.639   0.341  1.00 20.00     0.017 C 
ENDBRANCH   2   4
ENDBRANCH   1   2
BRANCH   1   7
HETATM    7  C10 UNL     1     -34.041   7.147   4.008  1.00 20.00    -0.012 C 
HETATM    8  C5  UNL     1     -33.522   7.362   5.433  1.00 20.00     0.010 C 
BRANCH   7   9
HETATM    9  C8  UNL     1     -35.069   5.998   3.941  1.00 20.00     0.004 C 
BRANCH   9  10
HETATM   10  C7  UNL     1     -34.860   4.873   4.959  1.00 20.00    -0.004 C 
HETATM   11  C2  UNL     1     -34.008   3.754   4.376  1.00 20.00     0.005 C 
ENDBRANCH   9  10
ENDBRANCH   7   9
ENDBRANCH   1   7
TORSDOF 5
ENDMDL
MODEL 4
REMARK VINA RESULT:      -5.8      1.532      4.861
REMARK  5 active torsions:
REMARK  status: ('A' for Active; 'I' for Inactive)
REMARK    1  A    between atoms: C1_1  and  C6_6 
REMARK    2  A    between atoms: C1_1  and  C9_9 
REMARK    3  A    between atoms: C6_6  and  C10_10 
REMARK    4  A    between atoms: C7_7  and  C8_8 
REMARK    5  A    between atoms: C8_8  and  C10_10 
ROOT
HETATM    1  C6  UNL     1     -31.756   8.014   2.935  1.00 20.00     0.082 C 
ENDROOT
BRANCH   1   2
HETATM    2  C1  UNL     1     -31.796   8.582   1.520  1.00 20.00     0.130 C 
HETATM    3  O11 UNL     1     -30.952   8.282   0.675  1.00 20.00    -0.298 OA
BRANCH   2   4
HETATM    4  C9  UNL     1     -32.970   9.504   1.191  1.00 20.00     0.047 C 
HETATM    5  C3  UNL     1     -32.702  10.929   1.668  1.00 20.00     0.017 C 
HETATM    6  C4  UNL     1     -33.251   9.480  -0.306  1.00 20.00     0.017 C 
ENDBRANCH   2   4
ENDBRANCH   1   2
BRANCH   1   7
HETATM    7  C10 UNL     1     -33.143   7.640   3.486  1.00 20.00    -0.012 C 
HETATM    8  C5  UNL     1     -33.177   7.740   5.015  1.00 20.00     0.010 C 
BRANCH   7   9
HETATM    9  C8  UNL     1     -33.587   6.246   2.995  1.00 20.00     0.004 C 
BRANCH   9  10
HETATM   10  C7  UNL     1     -34.751   5.619   3.769  1.00 20.00    -0.004 C 
HETATM   11  C2  UNL     1     -34.341   4.295   4.401  1.00 20.00     0.005 C 
ENDBRANCH   9  10
ENDBRANCH   7   9
ENDBRANCH   1   7
TORSDOF 5
ENDMDL
MODEL 5
REMARK VINA RESULT:      -5.7      1.225      1.560
REMARK  5 active torsions:
REMARK  status: ('A' for Active; 'I' for Inactive)
REMARK    1  A    between atoms: C1_1  and  C6_6 
REMARK    2  A    between atoms: C1_1  and  C9_9 
REMARK    3  A    between atoms: C6_6  and  C10_10 
REMARK    4  A    between atoms: C7_7  and  C8_8 
REMARK    5  A    between atoms: C8_8  and  C10_10 
ROOT
HETATM    1  C6  UNL     1     -33.519   7.758   2.959  1.00 20.00     0.082 C 
ENDROOT
BRANCH   1   2
HETATM    2  C1  UNL     1     -33.896   6.858   4.131  1.00 20.00     0.130 C 
HETATM    3  O11 UNL     1     -33.873   7.261   5.294  1.00 20.00    -0.298 OA
BRANCH   2   4
HETATM    4  C9  UNL     1     -34.356   5.443   3.779  1.00 20.00     0.047 C 
HETATM    5  C3  UNL     1     -33.355   4.751   2.859  1.00 20.00     0.017 C 
HETATM    6  C4  UNL     1     -34.571   4.631   5.051  1.00 20.00     0.017 C 
ENDBRANCH   2   4
ENDBRANCH   1   2
BRANCH   1   7
HETATM    7  C10 UNL     1     -32.004   7.821   2.695  1.00 20.00    -0.012 C 
HETATM    8  C5  UNL     1     -31.268   8.497   3.857  1.00 20.00     0.010 C 
BRANCH   7   9
HETATM    9  C8  UNL     1     -31.695   8.506   1.347  1.00 20.00     0.004 C 
BRANCH   9  10
HETATM   10  C7  UNL     1     -32.587   9.703   1.001  1.00 20.00    -0.004 C 
HETATM   11  C2  UNL     1     -33.170   9.568  -0.398  1.00 20.00     0.005 C 
ENDBRANCH   9  10
ENDBRANCH   7   9
ENDBRANCH   1   7
TORSDOF 5
ENDMDL
MODEL 6
REMARK VINA RESULT:      -5.6      0.654      1.258
REMARK  5 active torsions:
REMARK  status: ('A' for Active; 'I' for Inactive)
REMARK    1  A    between atoms: C1_1  and  C6_6 
REMARK    2  A    between atoms: C1_1  and  C9_9 
REMARK    3  A    between atoms: C6_6  and  C10_10 
REMARK    4  A    between atoms: C7_7  and  C8_8 
REMARK    5  A    between atoms: C8_8  and  C10_10 
ROOT
HETATM    1  C6  UNL     1     -33.582   7.536   3.086  1.00 20.00     0.082 C 
ENDROOT
BRANCH   1   2
HETATM    2  C1  UNL     1     -33.526   6.090   3.566  1.00 20.00     0.130 C 
HETATM    3  O11 UNL     1     -33.295   5.158   2.796  1.00 20.00    -0.298 OA
BRANCH   2   4
HETATM    4  C9  UNL     1     -33.719   5.864   5.066  1.00 20.00     0.047 C 
HETATM    5  C3  UNL     1     -33.953   7.184   5.796  1.00 20.00     0.017 C 
HETATM    6  C4  UNL     1     -34.876   4.902   5.306  1.00 20.00     0.017 C 
ENDBRANCH   2   4
ENDBRANCH   1   2
BRANCH   1   7
HETATM    7  C10 UNL     1     -32.233   8.064   2.566  1.00 20.00    -0.012 C 
HETATM    8  C5  UNL     1     -31.229   8.239   3.709  1.00 20.00     0.010 C 
BRANCH   7   9
HETATM    9  C8  UNL     1     -32.411   9.366   1.757  1.00 20.00     0.004 C 
BRANCH   9  10
HETATM   10  C7  UNL     1     -32.021   9.277   0.279  1.00 20.00    -0.004 C 
HETATM   11  C2  UNL     1     -33.241   9.412  -0.622  1.00 20.00     0.005 C 
ENDBRANCH   9  10
ENDBRANCH   7   9
ENDBRANCH   1   7
TORSDOF 5
ENDMDL
MODEL 7
REMARK VINA RESULT:      -5.2      1.296      1.709
REMARK  5 active torsions:
REMARK  status: ('A' for Active; 'I' for Inactive)
REMARK    1  A    between atoms: C1_1  and  C6_6 
REMARK    2  A    between atoms: C1_1  and  C9_9 
REMARK    3  A    between atoms: C6_6  and  C10_10 
REMARK    4  A    between atoms: C7_7  and  C8_8 
REMARK    5  A    between atoms: C8_8  and  C10_10 
ROOT
HETATM    1  C6  UNL     1     -33.940   7.638   3.597  1.00 20.00     0.082 C 
ENDROOT
BRANCH   1   2
HETATM    2  C1  UNL     1     -34.863   6.544   4.123  1.00 20.00     0.130 C 
HETATM    3  O11 UNL     1     -35.684   5.981   3.398  1.00 20.00    -0.298 OA
BRANCH   2   4
HETATM    4  C9  UNL     1     -34.677   6.145   5.587  1.00 20.00     0.047 C 
HETATM    5  C3  UNL     1     -34.256   4.683   5.711  1.00 20.00     0.017 C 
HETATM    6  C4  UNL     1     -33.655   7.058   6.253  1.00 20.00     0.017 C 
ENDBRANCH   2   4
ENDBRANCH   1   2
BRANCH   1   7
HETATM    7  C10 UNL     1     -33.054   7.183   2.424  1.00 20.00    -0.012 C 
HETATM    8  C5  UNL     1     -32.584   5.737   2.614  1.00 20.00     0.010 C 
BRANCH   7   9
HETATM    9  C8  UNL     1     -31.868   8.146   2.208  1.00 20.00     0.004 C 
BRANCH   9  10
HETATM   10  C7  UNL     1     -31.907   8.952   0.906  1.00 20.00    -0.004 C 
HETATM   11  C2  UNL     1     -32.667  10.258   1.091  1.00 20.00     0.005 C 
ENDBRANCH   9  10
ENDBRANCH   7   9
ENDBRANCH   1   7
TORSDOF 5
ENDMDL
MODEL 8
REMARK VINA RESULT:      -4.6     10.324     11.469
REMARK  5 active torsions:
REMARK  status: ('A' for Active; 'I' for Inactive)
REMARK    1  A    between atoms: C1_1  and  C6_6 
REMARK    2  A    between atoms: C1_1  and  C9_9 
REMARK    3  A    between atoms: C6_6  and  C10_10 
REMARK    4  A    between atoms: C7_7  and  C8_8 
REMARK    5  A    between atoms: C8_8  and  C10_10 
ROOT
HETATM    1  C6  UNL     1     -34.576  14.263  -4.140  1.00 20.00     0.082 C 
ENDROOT
BRANCH   1   2
HETATM    2  C1  UNL     1     -35.725  13.778  -5.017  1.00 20.00     0.130 C 
HETATM    3  O11 UNL     1     -35.889  12.584  -5.271  1.00 20.00    -0.298 OA
BRANCH   2   4
HETATM    4  C9  UNL     1     -36.694  14.848  -5.519  1.00 20.00     0.047 C 
HETATM    5  C3  UNL     1     -36.810  14.815  -7.040  1.00 20.00     0.017 C 
HETATM    6  C4  UNL     1     -38.060  14.663  -4.869  1.00 20.00     0.017 C 
ENDBRANCH   2   4
ENDBRANCH   1   2
BRANCH   1   7
HETATM    7  C10 UNL     1     -34.250  15.756  -4.322  1.00 20.00    -0.012 C 
HETATM    8  C5  UNL     1     -33.097  15.954  -5.312  1.00 20.00     0.010 C 
BRANCH   7   9
HETATM    9  C8  UNL     1     -33.966  16.440  -2.969  1.00 20.00     0.004 C 
BRANCH   9  10
HETATM   10  C7  UNL     1     -35.184  16.620  -2.058  1.00 20.00    -0.004 C 
HETATM   11  C2  UNL     1     -34.810  17.354  -0.777  1.00 20.00     0.005 C 
ENDBRANCH   9  10
ENDBRANCH   7   9
ENDBRANCH   1   7
TORSDOF 5
ENDMDL
MODEL 9
REMARK VINA RESULT:      -4.3     10.637     11.696
REMARK  5 active torsions:
REMARK  status: ('A' for Active; 'I' for Inactive)
REMARK    1  A    between atoms: C1_1  and  C6_6 
REMARK    2  A    between atoms: C1_1  and  C9_9 
REMARK    3  A    between atoms: C6_6  and  C10_10 
REMARK    4  A    between atoms: C7_7  and  C8_8 
REMARK    5  A    between atoms: C8_8  and  C10_10 
ROOT
HETATM    1  C6  UNL     1     -33.781  15.872  -3.626  1.00 20.00     0.082 C 
ENDROOT
BRANCH   1   2
HETATM    2  C1  UNL     1     -34.064  14.652  -4.495  1.00 20.00     0.130 C 
HETATM    3  O11 UNL     1     -34.401  13.572  -4.009  1.00 20.00    -0.298 OA
BRANCH   2   4
HETATM    4  C9  UNL     1     -33.962  14.856  -6.006  1.00 20.00     0.047 C 
HETATM    5  C3  UNL     1     -35.260  14.462  -6.705  1.00 20.00     0.017 C 
HETATM    6  C4  UNL     1     -33.601  16.304  -6.316  1.00 20.00     0.017 C 
ENDBRANCH   2   4
ENDBRANCH   1   2
BRANCH   1   7
HETATM    7  C10 UNL     1     -34.883  16.160  -2.591  1.00 20.00    -0.012 C 
HETATM    8  C5  UNL     1     -36.168  16.642  -3.272  1.00 20.00     0.010 C 
BRANCH   7   9
HETATM    9  C8  UNL     1     -34.399  17.154  -1.514  1.00 20.00     0.004 C 
BRANCH   9  10
HETATM   10  C7  UNL     1     -33.027  17.783  -1.773  1.00 20.00    -0.004 C 
HETATM   11  C2  UNL     1     -32.513  18.510  -0.538  1.00 20.00     0.005 C 
ENDBRANCH   9  10
ENDBRANCH   7   9
ENDBRANCH   1   7
TORSDOF 5
ENDMDL
