MODEL 1
REMARK VINA RESULT:      -5.8      0.000      0.000
REMARK  3 active torsions:
REMARK  status: ('A' for Active; 'I' for Inactive)
REMARK    1  A    between atoms: C1_1  and  C9_9 
REMARK    2  A    between atoms: C3_3  and  C8_8 
REMARK    3  A    between atoms: C9_9  and  N10_10 
ROOT
HETATM    1  C4  UNL     1     -33.901   6.688   5.849  1.00 20.00     0.028 C 
HETATM    2  C5  UNL     1     -35.014   6.113   4.979  1.00 20.00     0.015 C 
HETATM    3  C6  UNL     1     -33.150   7.801   5.137  1.00 20.00     0.235 C 
HETATM    4  C7  UNL     1     -33.685   6.770   2.910  1.00 20.00     0.246 C 
HETATM    5  C8  UNL     1     -34.524   5.701   3.594  1.00 20.00     0.073 C 
HETATM    6  N10 UNL     1     -32.599   7.274   3.836  1.00 20.00    -0.067 N 
HETATM    7  H27 UNL     1     -31.990   6.477   4.062  1.00 20.00     0.280 HD
ENDROOT
BRANCH   6   8
HETATM    8  C9  UNL     1     -31.722   8.289   3.154  1.00 20.00     0.263 C 
BRANCH   8   9
HETATM    9  C1  UNL     1     -32.082   8.498   1.720  1.00 20.00     0.012 C 
HETATM   10  C2  UNL     1     -32.529   9.660   1.238  1.00 20.00     0.082 C 
HETATM   11 CL12 UNL     1     -32.935   9.895  -0.410  1.00 20.00    -0.097 Cl
ENDBRANCH   8   9
ENDBRANCH   6   8
BRANCH   5  12
HETATM   12  C3  UNL     1     -33.760   4.392   3.727  1.00 20.00     0.237 C 
HETATM   13  O11 UNL     1     -34.147   3.451   4.413  1.00 20.00    -0.306 OA
ENDBRANCH   5  12
TORSDOF 3
ENDMDL
MODEL 2
REMARK VINA RESULT:      -4.6     11.143     12.030
REMARK  3 active torsions:
REMARK  status: ('A' for Active; 'I' for Inactive)
REMARK    1  A    between atoms: C1_1  and  C9_9 
REMARK    2  A    between atoms: C3_3  and  C8_8 
REMARK    3  A    between atoms: C9_9  and  N10_10 
ROOT
HETATM    1  C4  UNL     1     -34.163  15.116  -6.982  1.00 20.00     0.028 C 
HETATM    2  C5  UNL     1     -34.621  13.687  -6.710  1.00 20.00     0.015 C 
HETATM    3  C6  UNL     1     -33.436  15.711  -5.787  1.00 20.00     0.235 C 
HETATM    4  C7  UNL     1     -34.748  14.241  -4.229  1.00 20.00     0.246 C 
HETATM    5  C8  UNL     1     -35.418  13.562  -5.415  1.00 20.00     0.073 C 
HETATM    6  N10 UNL     1     -34.339  15.655  -4.580  1.00 20.00    -0.067 N 
HETATM    7  H27 UNL     1     -35.194  16.177  -4.814  1.00 20.00     0.280 HD
ENDROOT
BRANCH   6   8
HETATM    8  C9  UNL     1     -33.729  16.361  -3.400  1.00 20.00     0.263 C 
BRANCH   8   9
HETATM    9  C1  UNL     1     -34.676  16.498  -2.253  1.00 20.00     0.012 C 
HETATM   10  C2  UNL     1     -34.412  17.228  -1.166  1.00 20.00     0.082 C 
HETATM   11 CL12 UNL     1     -35.505  17.385   0.143  1.00 20.00    -0.097 Cl
ENDBRANCH   8   9
ENDBRANCH   6   8
BRANCH   5  12
HETATM   12  C3  UNL     1     -36.815  14.113  -5.658  1.00 20.00     0.237 C 
HETATM   13  O11 UNL     1     -37.793  13.792  -4.990  1.00 20.00    -0.306 OA
ENDBRANCH   5  12
TORSDOF 3
ENDMDL
MODEL 3
REMARK VINA RESULT:      -4.5     11.227     12.185
REMARK  3 active torsions:
REMARK  status: ('A' for Active; 'I' for Inactive)
REMARK    1  A    between atoms: C1_1  and  C9_9 
REMARK    2  A    between atoms: C3_3  and  C8_8 
REMARK    3  A    between atoms: C9_9  and  N10_10 
ROOT
HETATM    1  C4  UNL     1     -34.565  16.669  -6.269  1.00 20.00     0.028 C 
HETATM    2  C5  UNL     1     -33.755  15.396  -6.492  1.00 20.00     0.015 C 
HETATM    3  C6  UNL     1     -34.484  17.141  -4.826  1.00 20.00     0.235 C 
HETATM    4  C7  UNL     1     -34.122  14.780  -4.050  1.00 20.00     0.246 C 
HETATM    5  C8  UNL     1     -34.101  14.296  -5.493  1.00 20.00     0.073 C 
HETATM    6  N10 UNL     1     -34.957  16.034  -3.916  1.00 20.00    -0.067 N 
HETATM    7  H27 UNL     1     -35.919  15.799  -4.195  1.00 20.00     0.280 HD
ENDROOT
BRANCH   6   8
HETATM    8  C9  UNL     1     -35.038  16.491  -2.484  1.00 20.00     0.263 C 
BRANCH   8   9
HETATM    9  C1  UNL     1     -33.732  16.987  -1.959  1.00 20.00     0.012 C 
HETATM   10  C2  UNL     1     -33.627  17.979  -1.071  1.00 20.00     0.082 C 
HETATM   11 CL12 UNL     1     -32.124  18.539  -0.467  1.00 20.00    -0.097 Cl
ENDBRANCH   8   9
ENDBRANCH   6   8
BRANCH   5  12
HETATM   12  C3  UNL     1     -35.435  13.686  -5.897  1.00 20.00     0.237 C 
HETATM   13  O11 UNL     1     -35.933  12.717  -5.332  1.00 20.00    -0.306 OA
ENDBRANCH   5  12
TORSDOF 3
ENDMDL
MODEL 4
REMARK VINA RESULT:      -4.5     11.215     12.141
REMARK  3 active torsions:
REMARK  status: ('A' for Active; 'I' for Inactive)
REMARK    1  A    between atoms: C1_1  and  C9_9 
REMARK    2  A    between atoms: C3_3  and  C8_8 
REMARK    3  A    between atoms: C9_9  and  N10_10 
ROOT
HETATM    1  C4  UNL     1     -34.340  16.604  -6.359  1.00 20.00     0.028 C 
HETATM    2  C5  UNL     1     -33.840  15.180  -6.580  1.00 20.00     0.015 C 
HETATM    3  C6  UNL     1     -33.749  17.219  -5.102  1.00 20.00     0.235 C 
HETATM    4  C7  UNL     1     -33.524  14.942  -4.066  1.00 20.00     0.246 C 
HETATM    5  C8  UNL     1     -34.022  14.296  -5.350  1.00 20.00     0.073 C 
HETATM    6  N10 UNL     1     -34.079  16.343  -3.919  1.00 20.00    -0.067 N 
HETATM    7  H27 UNL     1     -35.103  16.268  -3.870  1.00 20.00     0.280 HD
ENDROOT
BRANCH   6   8
HETATM    8  C9  UNL     1     -33.644  16.974  -2.624  1.00 20.00     0.263 C 
BRANCH   8   9
HETATM    9  C1  UNL     1     -34.694  16.907  -1.565  1.00 20.00     0.012 C 
HETATM   10  C2  UNL     1     -34.637  17.606  -0.428  1.00 20.00     0.082 C 
HETATM   11 CL12 UNL     1     -35.848  17.528   0.780  1.00 20.00    -0.097 Cl
ENDBRANCH   8   9
ENDBRANCH   6   8
BRANCH   5  12
HETATM   12  C3  UNL     1     -35.491  13.913  -5.249  1.00 20.00     0.237 C 
HETATM   13  O11 UNL     1     -35.886  12.752  -5.223  1.00 20.00    -0.306 OA
ENDBRANCH   5  12
TORSDOF 3
ENDMDL
MODEL 5
REMARK VINA RESULT:      -4.3     11.591     12.303
REMARK  3 active torsions:
REMARK  status: ('A' for Active; 'I' for Inactive)
REMARK    1  A    between atoms: C1_1  and  C9_9 
REMARK    2  A    between atoms: C3_3  and  C8_8 
REMARK    3  A    between atoms: C9_9  and  N10_10 
ROOT
HETATM    1  C4  UNL     1     -37.079  14.341  -5.028  1.00 20.00     0.028 C 
HETATM    2  C5  UNL     1     -37.177  14.739  -6.497  1.00 20.00     0.015 C 
HETATM    3  C6  UNL     1     -36.092  15.216  -4.273  1.00 20.00     0.235 C 
HETATM    4  C7  UNL     1     -34.786  15.604  -6.383  1.00 20.00     0.246 C 
HETATM    5  C8  UNL     1     -35.814  14.813  -7.178  1.00 20.00     0.073 C 
HETATM    6  N10 UNL     1     -34.744  15.135  -4.945  1.00 20.00    -0.067 N 
HETATM    7  H27 UNL     1     -34.463  14.146  -4.948  1.00 20.00     0.280 HD
ENDROOT
BRANCH   6   8
HETATM    8  C9  UNL     1     -33.689  15.866  -4.158  1.00 20.00     0.263 C 
BRANCH   8   9
HETATM    9  C1  UNL     1     -34.175  16.325  -2.823  1.00 20.00     0.012 C 
HETATM   10  C2  UNL     1     -33.546  17.249  -2.091  1.00 20.00     0.082 C 
HETATM   11 CL12 UNL     1     -34.113  17.775  -0.563  1.00 20.00    -0.097 Cl
ENDBRANCH   8   9
ENDBRANCH   6   8
BRANCH   5  12
HETATM   12  C3  UNL     1     -35.338  13.394  -7.451  1.00 20.00     0.237 C 
HETATM   13  O11 UNL     1     -34.463  12.838  -6.796  1.00 20.00    -0.306 OA
ENDBRANCH   5  12
TORSDOF 3
ENDMDL
MODEL 6
REMARK VINA RESULT:      -4.0     11.911     12.810
REMARK  3 active torsions:
REMARK  status: ('A' for Active; 'I' for Inactive)
REMARK    1  A    between atoms: C1_1  and  C9_9 
REMARK    2  A    between atoms: C3_3  and  C8_8 
REMARK    3  A    between atoms: C9_9  and  N10_10 
ROOT
HETATM    1  C4  UNL     1     -36.099  17.778  -2.523  1.00 20.00     0.028 C 
HETATM    2  C5  UNL     1     -35.274  16.917  -1.571  1.00 20.00     0.015 C 
HETATM    3  C6  UNL     1     -35.854  17.402  -3.975  1.00 20.00     0.235 C 
HETATM    4  C7  UNL     1     -33.536  16.621  -3.406  1.00 20.00     0.246 C 
HETATM    5  C8  UNL     1     -33.792  16.897  -1.932  1.00 20.00     0.073 C 
HETATM    6  N10 UNL     1     -34.381  17.524  -4.277  1.00 20.00    -0.067 N 
HETATM    7  H27 UNL     1     -34.107  18.495  -4.075  1.00 20.00     0.280 HD
ENDROOT
BRANCH   6   8
HETATM    8  C9  UNL     1     -34.095  17.306  -5.738  1.00 20.00     0.263 C 
BRANCH   8   9
HETATM    9  C1  UNL     1     -33.902  15.866  -6.083  1.00 20.00     0.012 C 
HETATM   10  C2  UNL     1     -34.550  15.256  -7.079  1.00 20.00     0.082 C 
HETATM   11 CL12 UNL     1     -34.319  13.606  -7.473  1.00 20.00    -0.097 Cl
ENDBRANCH   8   9
ENDBRANCH   6   8
BRANCH   5  12
HETATM   12  C3  UNL     1     -33.175  18.217  -1.496  1.00 20.00     0.237 C 
HETATM   13  O11 UNL     1     -32.590  18.976  -2.264  1.00 20.00    -0.306 OA
ENDBRANCH   5  12
TORSDOF 3
ENDMDL
MODEL 7
REMARK VINA RESULT:      -4.0     11.653     12.360
REMARK  3 active torsions:
REMARK  status: ('A' for Active; 'I' for Inactive)
REMARK    1  A    between atoms: C1_1  and  C9_9 
REMARK    2  A    between atoms: C3_3  and  C8_8 
REMARK    3  A    between atoms: C9_9  and  N10_10 
ROOT
HETATM    1  C4  UNL     1     -37.455  14.253  -5.502  1.00 20.00     0.028 C 
HETATM    2  C5  UNL     1     -36.762  14.781  -6.754  1.00 20.00     0.015 C 
HETATM    3  C6  UNL     1     -37.441  15.276  -4.378  1.00 20.00     0.235 C 
HETATM    4  C7  UNL     1     -35.319  16.271  -5.280  1.00 20.00     0.246 C 
HETATM    5  C8  UNL     1     -35.364  15.322  -6.468  1.00 20.00     0.073 C 
HETATM    6  N10 UNL     1     -36.014  15.665  -4.081  1.00 20.00    -0.067 N 
HETATM    7  H27 UNL     1     -35.509  14.805  -3.830  1.00 20.00     0.280 HD
ENDROOT
BRANCH   6   8
HETATM    8  C9  UNL     1     -35.925  16.567  -2.879  1.00 20.00     0.263 C 
BRANCH   8   9
HETATM    9  C1  UNL     1     -34.528  16.732  -2.379  1.00 20.00     0.012 C 
HETATM   10  C2  UNL     1     -34.095  17.833  -1.761  1.00 20.00     0.082 C 
HETATM   11 CL12 UNL     1     -32.492  18.013  -1.185  1.00 20.00    -0.097 Cl
ENDBRANCH   8   9
ENDBRANCH   6   8
BRANCH   5  12
HETATM   12  C3  UNL     1     -34.425  14.141  -6.275  1.00 20.00     0.237 C 
HETATM   13  O11 UNL     1     -33.896  13.867  -5.203  1.00 20.00    -0.306 OA
ENDBRANCH   5  12
TORSDOF 3
ENDMDL
MODEL 8
REMARK VINA RESULT:      -3.9     11.308     12.517
REMARK  3 active torsions:
REMARK  status: ('A' for Active; 'I' for Inactive)
REMARK    1  A    between atoms: C1_1  and  C9_9 
REMARK    2  A    between atoms: C3_3  and  C8_8 
REMARK    3  A    between atoms: C9_9  and  N10_10 
ROOT
HETATM    1  C4  UNL     1     -32.995  15.710  -5.470  1.00 20.00     0.028 C 
HETATM    2  C5  UNL     1     -33.213  14.526  -4.534  1.00 20.00     0.015 C 
HETATM    3  C6  UNL     1     -33.515  17.005  -4.869  1.00 20.00     0.235 C 
HETATM    4  C7  UNL     1     -35.223  15.730  -3.541  1.00 20.00     0.246 C 
HETATM    5  C8  UNL     1     -34.657  14.414  -4.054  1.00 20.00     0.073 C 
HETATM    6  N10 UNL     1     -34.977  16.844  -4.534  1.00 20.00    -0.067 N 
HETATM    7  H27 UNL     1     -35.464  16.597  -5.406  1.00 20.00     0.280 HD
ENDROOT
BRANCH   6   8
HETATM    8  C9  UNL     1     -35.585  18.141  -4.070  1.00 20.00     0.263 C 
BRANCH   8   9
HETATM    9  C1  UNL     1     -37.029  18.011  -3.716  1.00 20.00     0.012 C 
HETATM   10  C2  UNL     1     -37.558  18.505  -2.594  1.00 20.00     0.082 C 
HETATM   11 CL12 UNL     1     -39.218  18.358  -2.198  1.00 20.00    -0.097 Cl
ENDBRANCH   8   9
ENDBRANCH   6   8
BRANCH   5  12
HETATM   12  C3  UNL     1     -35.497  13.850  -5.190  1.00 20.00     0.237 C 
HETATM   13  O11 UNL     1     -35.912  12.695  -5.214  1.00 20.00    -0.306 OA
ENDBRANCH   5  12
TORSDOF 3
ENDMDL
MODEL 9
REMARK VINA RESULT:      -3.9     11.679     12.593
REMARK  3 active torsions:
REMARK  status: ('A' for Active; 'I' for Inactive)
REMARK    1  A    between atoms: C1_1  and  C9_9 
REMARK    2  A    between atoms: C3_3  and  C8_8 
REMARK    3  A    between atoms: C9_9  and  N10_10 
ROOT
HETATM    1  C4  UNL     1     -35.159  16.989  -3.406  1.00 20.00     0.028 C 
HETATM    2  C5  UNL     1     -33.915  16.182  -3.048  1.00 20.00     0.015 C 
HETATM    3  C6  UNL     1     -36.356  16.090  -3.669  1.00 20.00     0.235 C 
HETATM    4  C7  UNL     1     -34.831  14.238  -4.412  1.00 20.00     0.246 C 
HETATM    5  C8  UNL     1     -33.615  15.083  -4.063  1.00 20.00     0.073 C 
HETATM    6  N10 UNL     1     -36.011  15.115  -4.768  1.00 20.00    -0.067 N 
HETATM    7  H27 UNL     1     -35.750  15.667  -5.595  1.00 20.00     0.280 HD
ENDROOT
BRANCH   6   8
HETATM    8  C9  UNL     1     -37.206  14.294  -5.174  1.00 20.00     0.263 C 
BRANCH   8   9
HETATM    9  C1  UNL     1     -38.498  14.877  -4.704  1.00 20.00     0.012 C 
HETATM   10  C2  UNL     1     -39.511  15.172  -5.523  1.00 20.00     0.082 C 
HETATM   11 CL12 UNL     1     -40.992  15.834  -4.975  1.00 20.00    -0.097 Cl
ENDBRANCH   8   9
ENDBRANCH   6   8
BRANCH   5  12
HETATM   12  C3  UNL     1     -33.010  15.729  -5.301  1.00 20.00     0.237 C 
HETATM   13  O11 UNL     1     -33.482  15.604  -6.427  1.00 20.00    -0.306 OA
ENDBRANCH   5  12
TORSDOF 3
ENDMDL
