MODEL 1
REMARK VINA RESULT:      -4.0      0.000      0.000
REMARK  2 active torsions:
REMARK  status: ('A' for Active; 'I' for Inactive)
REMARK    1  A    between atoms: C1_1  and  C2_2 
REMARK    2  A    between atoms: C9_9  and  N10_10 
ROOT
HETATM    1  C1  UNL     1     -34.679  15.541  -3.726  1.00 20.00     0.150 C 
HETATM    2  C3  UNL     1     -33.635  16.591  -3.479  1.00 20.00     0.068 C 
HETATM    3  C4  UNL     1     -33.668  17.032  -2.016  1.00 20.00     0.008 C 
HETATM    4  C5  UNL     1     -35.073  16.986  -1.406  1.00 20.00     0.029 C 
HETATM    5  C6  UNL     1     -36.163  17.031  -2.469  1.00 20.00     0.242 C 
HETATM    6  N10 UNL     1     -36.057  15.832  -3.395  1.00 20.00    -0.038 N 
HETATM    7  H28 UNL     1     -36.483  15.055  -2.895  1.00 20.00     0.286 HD
ENDROOT
BRANCH   6   8
HETATM    8  C9  UNL     1     -36.879  16.025  -4.642  1.00 20.00     0.186 C 
HETATM    9  C7  UNL     1     -37.257  17.494  -4.747  1.00 20.00     0.040 C 
HETATM   10  C8  UNL     1     -38.098  15.121  -4.562  1.00 20.00     0.040 C 
ENDBRANCH   6   8
BRANCH   1  11
HETATM   11  C2  UNL     1     -34.380  14.304  -4.152  1.00 20.00     0.291 C 
HETATM   12  O11 UNL     1     -33.280  13.731  -4.372  1.00 20.00    -0.300 OA
ENDBRANCH   1  11
TORSDOF 2
ENDMDL
MODEL 2
REMARK VINA RESULT:      -4.0      1.980      3.174
REMARK  2 active torsions:
REMARK  status: ('A' for Active; 'I' for Inactive)
REMARK    1  A    between atoms: C1_1  and  C2_2 
REMARK    2  A    between atoms: C9_9  and  N10_10 
ROOT
HETATM    1  C1  UNL     1     -35.517  14.981  -5.213  1.00 20.00     0.150 C 
HETATM    2  C3  UNL     1     -35.213  15.562  -6.563  1.00 20.00     0.068 C 
HETATM    3  C4  UNL     1     -33.702  15.598  -6.793  1.00 20.00     0.008 C 
HETATM    4  C5  UNL     1     -32.904  15.827  -5.505  1.00 20.00     0.029 C 
HETATM    5  C6  UNL     1     -33.747  16.475  -4.414  1.00 20.00     0.242 C 
HETATM    6  N10 UNL     1     -34.918  15.583  -4.041  1.00 20.00    -0.038 N 
HETATM    7  H28 UNL     1     -34.540  14.872  -3.420  1.00 20.00     0.286 HD
ENDROOT
BRANCH   6   8
HETATM    8  C9  UNL     1     -35.948  16.333  -3.238  1.00 20.00     0.186 C 
HETATM    9  C7  UNL     1     -36.348  17.579  -4.012  1.00 20.00     0.040 C 
HETATM   10  C8  UNL     1     -35.352  16.665  -1.879  1.00 20.00     0.040 C 
ENDBRANCH   6   8
BRANCH   1  11
HETATM   11  C2  UNL     1     -36.246  13.867  -5.048  1.00 20.00     0.291 C 
HETATM   12  O11 UNL     1     -35.976  12.649  -5.226  1.00 20.00    -0.300 OA
ENDBRANCH   1  11
TORSDOF 2
ENDMDL
MODEL 3
REMARK VINA RESULT:      -3.9      2.123      2.657
REMARK  2 active torsions:
REMARK  status: ('A' for Active; 'I' for Inactive)
REMARK    1  A    between atoms: C1_1  and  C2_2 
REMARK    2  A    between atoms: C9_9  and  N10_10 
ROOT
HETATM    1  C1  UNL     1     -34.771  14.495  -6.337  1.00 20.00     0.150 C 
HETATM    2  C3  UNL     1     -33.658  15.498  -6.429  1.00 20.00     0.068 C 
HETATM    3  C4  UNL     1     -32.953  15.628  -5.079  1.00 20.00     0.008 C 
HETATM    4  C5  UNL     1     -33.894  15.422  -3.888  1.00 20.00     0.029 C 
HETATM    5  C6  UNL     1     -35.352  15.658  -4.260  1.00 20.00     0.242 C 
HETATM    6  N10 UNL     1     -35.795  14.677  -5.332  1.00 20.00    -0.038 N 
HETATM    7  H28 UNL     1     -35.990  13.804  -4.849  1.00 20.00     0.286 HD
ENDROOT
BRANCH   6   8
HETATM    8  C9  UNL     1     -37.095  15.102  -5.963  1.00 20.00     0.186 C 
HETATM    9  C7  UNL     1     -37.161  16.622  -5.955  1.00 20.00     0.040 C 
HETATM   10  C8  UNL     1     -38.239  14.472  -5.185  1.00 20.00     0.040 C 
ENDBRANCH   6   8
BRANCH   1  11
HETATM   11  C2  UNL     1     -34.808  13.381  -7.084  1.00 20.00     0.291 C 
HETATM   12  O11 UNL     1     -35.124  12.193  -6.810  1.00 20.00    -0.300 OA
ENDBRANCH   1  11
TORSDOF 2
ENDMDL
MODEL 4
REMARK VINA RESULT:      -3.9      1.866      3.430
REMARK  2 active torsions:
REMARK  status: ('A' for Active; 'I' for Inactive)
REMARK    1  A    between atoms: C1_1  and  C2_2 
REMARK    2  A    between atoms: C9_9  and  N10_10 
ROOT
HETATM    1  C1  UNL     1     -35.987  15.411  -4.622  1.00 20.00     0.150 C 
HETATM    2  C3  UNL     1     -35.330  15.510  -5.968  1.00 20.00     0.068 C 
HETATM    3  C4  UNL     1     -34.090  14.617  -6.016  1.00 20.00     0.008 C 
HETATM    4  C5  UNL     1     -33.378  14.504  -4.664  1.00 20.00     0.029 C 
HETATM    5  C6  UNL     1     -33.716  15.665  -3.738  1.00 20.00     0.242 C 
HETATM    6  N10 UNL     1     -35.205  15.696  -3.439  1.00 20.00    -0.038 N 
HETATM    7  H28 UNL     1     -35.360  14.992  -2.722  1.00 20.00     0.286 HD
ENDROOT
BRANCH   6   8
HETATM    8  C9  UNL     1     -35.617  17.009  -2.828  1.00 20.00     0.186 C 
HETATM    9  C7  UNL     1     -34.798  18.118  -3.471  1.00 20.00     0.040 C 
HETATM   10  C8  UNL     1     -35.401  16.932  -1.325  1.00 20.00     0.040 C 
ENDBRANCH   6   8
BRANCH   1  11
HETATM   11  C2  UNL     1     -37.246  14.975  -4.458  1.00 20.00     0.291 C 
HETATM   12  O11 UNL     1     -37.841  13.944  -4.868  1.00 20.00    -0.300 OA
ENDBRANCH   1  11
TORSDOF 2
ENDMDL
MODEL 5
REMARK VINA RESULT:      -3.8      2.739      4.602
REMARK  2 active torsions:
REMARK  status: ('A' for Active; 'I' for Inactive)
REMARK    1  A    between atoms: C1_1  and  C2_2 
REMARK    2  A    between atoms: C9_9  and  N10_10 
ROOT
HETATM    1  C1  UNL     1     -36.377  14.842  -5.734  1.00 20.00     0.150 C 
HETATM    2  C3  UNL     1     -36.646  14.879  -7.210  1.00 20.00     0.068 C 
HETATM    3  C4  UNL     1     -35.854  13.779  -7.918  1.00 20.00     0.008 C 
HETATM    4  C5  UNL     1     -34.510  13.479  -7.246  1.00 20.00     0.029 C 
HETATM    5  C6  UNL     1     -34.025  14.641  -6.388  1.00 20.00     0.242 C 
HETATM    6  N10 UNL     1     -35.010  14.928  -5.269  1.00 20.00    -0.038 N 
HETATM    7  H28 UNL     1     -34.826  14.232  -4.550  1.00 20.00     0.286 HD
ENDROOT
BRANCH   6   8
HETATM    8  C9  UNL     1     -34.744  16.266  -4.631  1.00 20.00     0.186 C 
HETATM    9  C7  UNL     1     -33.738  17.017  -5.489  1.00 20.00     0.040 C 
HETATM   10  C8  UNL     1     -34.237  16.035  -3.217  1.00 20.00     0.040 C 
ENDBRANCH   6   8
BRANCH   1  11
HETATM   11  C2  UNL     1     -37.342  14.635  -4.825  1.00 20.00     0.291 C 
HETATM   12  O11 UNL     1     -38.441  14.023  -4.886  1.00 20.00    -0.300 OA
ENDBRANCH   1  11
TORSDOF 2
ENDMDL
MODEL 6
REMARK VINA RESULT:      -3.8      2.474      4.245
REMARK  2 active torsions:
REMARK  status: ('A' for Active; 'I' for Inactive)
REMARK    1  A    between atoms: C1_1  and  C2_2 
REMARK    2  A    between atoms: C9_9  and  N10_10 
ROOT
HETATM    1  C1  UNL     1     -35.664  14.975  -5.705  1.00 20.00     0.150 C 
HETATM    2  C3  UNL     1     -36.360  16.253  -6.071  1.00 20.00     0.068 C 
HETATM    3  C4  UNL     1     -35.817  16.788  -7.396  1.00 20.00     0.008 C 
HETATM    4  C5  UNL     1     -34.334  16.467  -7.611  1.00 20.00     0.029 C 
HETATM    5  C6  UNL     1     -33.614  16.177  -6.300  1.00 20.00     0.242 C 
HETATM    6  N10 UNL     1     -34.221  14.965  -5.613  1.00 20.00    -0.038 N 
HETATM    7  H28 UNL     1     -33.831  14.153  -6.085  1.00 20.00     0.286 HD
ENDROOT
BRANCH   6   8
HETATM    8  C9  UNL     1     -33.775  14.866  -4.178  1.00 20.00     0.186 C 
HETATM    9  C7  UNL     1     -33.630  16.273  -3.620  1.00 20.00     0.040 C 
HETATM   10  C8  UNL     1     -32.469  14.090  -4.130  1.00 20.00     0.040 C 
ENDBRANCH   6   8
BRANCH   1  11
HETATM   11  C2  UNL     1     -36.315  13.811  -5.551  1.00 20.00     0.291 C 
HETATM   12  O11 UNL     1     -35.913  12.651  -5.273  1.00 20.00    -0.300 OA
ENDBRANCH   1  11
TORSDOF 2
ENDMDL
MODEL 7
REMARK VINA RESULT:      -3.8      2.391      2.714
REMARK  2 active torsions:
REMARK  status: ('A' for Active; 'I' for Inactive)
REMARK    1  A    between atoms: C1_1  and  C2_2 
REMARK    2  A    between atoms: C9_9  and  N10_10 
ROOT
HETATM    1  C1  UNL     1     -35.193  14.982  -4.858  1.00 20.00     0.150 C 
HETATM    2  C3  UNL     1     -33.977  15.046  -3.979  1.00 20.00     0.068 C 
HETATM    3  C4  UNL     1     -34.075  16.242  -3.032  1.00 20.00     0.008 C 
HETATM    4  C5  UNL     1     -34.819  17.434  -3.643  1.00 20.00     0.029 C 
HETATM    5  C6  UNL     1     -34.829  17.385  -5.165  1.00 20.00     0.242 C 
HETATM    6  N10 UNL     1     -35.542  16.137  -5.656  1.00 20.00    -0.038 N 
HETATM    7  H28 UNL     1     -36.536  16.339  -5.589  1.00 20.00     0.286 HD
ENDROOT
BRANCH   6   8
HETATM    8  C9  UNL     1     -35.266  15.884  -7.115  1.00 20.00     0.186 C 
HETATM    9  C7  UNL     1     -34.016  16.655  -7.510  1.00 20.00     0.040 C 
HETATM   10  C8  UNL     1     -36.484  16.310  -7.918  1.00 20.00     0.040 C 
ENDBRANCH   6   8
BRANCH   1  11
HETATM   11  C2  UNL     1     -36.030  13.933  -4.865  1.00 20.00     0.291 C 
HETATM   12  O11 UNL     1     -35.874  12.733  -5.214  1.00 20.00    -0.300 OA
ENDBRANCH   1  11
TORSDOF 2
ENDMDL
MODEL 8
REMARK VINA RESULT:      -3.8      1.286      3.406
REMARK  2 active torsions:
REMARK  status: ('A' for Active; 'I' for Inactive)
REMARK    1  A    between atoms: C1_1  and  C2_2 
REMARK    2  A    between atoms: C9_9  and  N10_10 
ROOT
HETATM    1  C1  UNL     1     -34.320  15.523  -4.176  1.00 20.00     0.150 C 
HETATM    2  C3  UNL     1     -35.661  14.967  -4.561  1.00 20.00     0.068 C 
HETATM    3  C4  UNL     1     -36.354  15.903  -5.551  1.00 20.00     0.008 C 
HETATM    4  C5  UNL     1     -36.015  17.379  -5.321  1.00 20.00     0.029 C 
HETATM    5  C6  UNL     1     -35.521  17.641  -3.904  1.00 20.00     0.242 C 
HETATM    6  N10 UNL     1     -34.248  16.859  -3.628  1.00 20.00    -0.038 N 
HETATM    7  H28 UNL     1     -33.496  17.390  -4.060  1.00 20.00     0.286 HD
ENDROOT
BRANCH   6   8
HETATM    8  C9  UNL     1     -33.936  16.818  -2.155  1.00 20.00     0.186 C 
HETATM    9  C7  UNL     1     -35.245  16.879  -1.384  1.00 20.00     0.040 C 
HETATM   10  C8  UNL     1     -33.017  17.983  -1.823  1.00 20.00     0.040 C 
ENDBRANCH   6   8
BRANCH   1  11
HETATM   11  C2  UNL     1     -33.170  14.871  -4.407  1.00 20.00     0.291 C 
HETATM   12  O11 UNL     1     -32.823  13.677  -4.208  1.00 20.00    -0.300 OA
ENDBRANCH   1  11
TORSDOF 2
ENDMDL
MODEL 9
REMARK VINA RESULT:      -3.8      1.295      3.591
REMARK  2 active torsions:
REMARK  status: ('A' for Active; 'I' for Inactive)
REMARK    1  A    between atoms: C1_1  and  C2_2 
REMARK    2  A    between atoms: C9_9  and  N10_10 
ROOT
HETATM    1  C1  UNL     1     -36.327  14.948  -4.626  1.00 20.00     0.150 C 
HETATM    2  C3  UNL     1     -37.827  14.934  -4.569  1.00 20.00     0.068 C 
HETATM    3  C4  UNL     1     -38.398  16.041  -5.455  1.00 20.00     0.008 C 
HETATM    4  C5  UNL     1     -37.502  17.283  -5.517  1.00 20.00     0.029 C 
HETATM    5  C6  UNL     1     -36.556  17.369  -4.326  1.00 20.00     0.242 C 
HETATM    6  N10 UNL     1     -35.626  16.169  -4.295  1.00 20.00    -0.038 N 
HETATM    7  H28 UNL     1     -34.895  16.364  -4.975  1.00 20.00     0.286 HD
ENDROOT
BRANCH   6   8
HETATM    8  C9  UNL     1     -34.932  16.045  -2.964  1.00 20.00     0.186 C 
HETATM    9  C7  UNL     1     -35.700  16.869  -1.942  1.00 20.00     0.040 C 
HETATM   10  C8  UNL     1     -33.495  16.515  -3.122  1.00 20.00     0.040 C 
ENDBRANCH   6   8
BRANCH   1  11
HETATM   11  C2  UNL     1     -35.607  13.904  -5.063  1.00 20.00     0.291 C 
HETATM   12  O11 UNL     1     -35.889  12.684  -5.203  1.00 20.00    -0.300 OA
ENDBRANCH   1  11
TORSDOF 2
ENDMDL
