MODEL 1
REMARK VINA RESULT:      -5.5      0.000      0.000
REMARK  4 active torsions:
REMARK  status: ('A' for Active; 'I' for Inactive)
REMARK    1  A    between atoms: C3_3  and  C8_8 
REMARK    2  A    between atoms: C3_3  and  O9_9 
REMARK    3  A    between atoms: C6_6  and  C7_7 
REMARK    4  A    between atoms: C7_7  and  C8_8 
ROOT
HETATM    1  C1  UNL     1     -34.186   4.140   4.423  1.00 20.00     0.041 A 
HETATM    2  C2  UNL     1     -34.769   4.812   5.635  1.00 20.00     0.041 A 
HETATM    3  C3  UNL     1     -34.496   5.612   4.391  1.00 20.00     0.061 A 
ENDROOT
BRANCH   3   4
HETATM    4  C8  UNL     1     -33.358   6.636   4.365  1.00 20.00     0.016 C 
HETATM    5  C5  UNL     1     -33.470   7.562   5.577  1.00 20.00     0.013 C 
BRANCH   4   6
HETATM    6  C7  UNL     1     -33.377   7.406   3.032  1.00 20.00     0.007 C 
BRANCH   6   7
HETATM    7  C6  UNL     1     -32.059   8.115   2.718  1.00 20.00    -0.004 C 
HETATM    8  C4  UNL     1     -32.213   9.086   1.556  1.00 20.00     0.005 C 
ENDBRANCH   6   7
ENDBRANCH   4   6
ENDBRANCH   3   4
BRANCH   3   9
HETATM    9  O9  UNL     1     -35.646   5.995   3.617  1.00 20.00    -0.389 OA
HETATM   10  H25 UNL     1     -35.825   5.254   3.025  1.00 20.00     0.210 HD
ENDBRANCH   3   9
TORSDOF 4
ENDMDL
MODEL 2
REMARK VINA RESULT:      -5.4      1.283      3.918
REMARK  4 active torsions:
REMARK  status: ('A' for Active; 'I' for Inactive)
REMARK    1  A    between atoms: C3_3  and  C8_8 
REMARK    2  A    between atoms: C3_3  and  O9_9 
REMARK    3  A    between atoms: C6_6  and  C7_7 
REMARK    4  A    between atoms: C7_7  and  C8_8 
ROOT
HETATM    1  C1  UNL     1     -32.542   8.419   2.207  1.00 20.00     0.041 A 
HETATM    2  C2  UNL     1     -31.606   8.161   3.355  1.00 20.00     0.041 A 
HETATM    3  C3  UNL     1     -32.805   7.276   3.149  1.00 20.00     0.061 A 
ENDROOT
BRANCH   3   4
HETATM    4  C8  UNL     1     -33.987   7.338   4.121  1.00 20.00     0.016 C 
HETATM    5  C5  UNL     1     -33.469   7.404   5.558  1.00 20.00     0.013 C 
BRANCH   4   6
HETATM    6  C7  UNL     1     -34.920   6.136   3.886  1.00 20.00     0.007 C 
BRANCH   6   7
HETATM    7  C6  UNL     1     -34.868   5.095   5.006  1.00 20.00    -0.004 C 
HETATM    8  C4  UNL     1     -34.108   3.850   4.571  1.00 20.00     0.005 C 
ENDBRANCH   6   7
ENDBRANCH   4   6
ENDBRANCH   3   4
BRANCH   3   9
HETATM    9  O9  UNL     1     -32.542   5.961   2.630  1.00 20.00    -0.389 OA
HETATM   10  H25 UNL     1     -31.611   5.960   2.375  1.00 20.00     0.210 HD
ENDBRANCH   3   9
TORSDOF 4
ENDMDL
MODEL 3
REMARK VINA RESULT:      -4.9      1.082      1.518
REMARK  4 active torsions:
REMARK  status: ('A' for Active; 'I' for Inactive)
REMARK    1  A    between atoms: C3_3  and  C8_8 
REMARK    2  A    between atoms: C3_3  and  O9_9 
REMARK    3  A    between atoms: C6_6  and  C7_7 
REMARK    4  A    between atoms: C7_7  and  C8_8 
ROOT
HETATM    1  C1  UNL     1     -34.446   4.623   5.068  1.00 20.00     0.041 A 
HETATM    2  C2  UNL     1     -34.498   6.011   5.641  1.00 20.00     0.041 A 
HETATM    3  C3  UNL     1     -34.752   5.794   4.175  1.00 20.00     0.061 A 
ENDROOT
BRANCH   3   4
HETATM    4  C8  UNL     1     -33.726   6.257   3.137  1.00 20.00     0.016 C 
HETATM    5  C5  UNL     1     -32.924   5.056   2.632  1.00 20.00     0.013 C 
BRANCH   4   6
HETATM    6  C7  UNL     1     -32.827   7.351   3.741  1.00 20.00     0.007 C 
BRANCH   6   7
HETATM    7  C6  UNL     1     -31.801   7.912   2.755  1.00 20.00    -0.004 C 
HETATM    8  C4  UNL     1     -32.459   8.814   1.721  1.00 20.00     0.005 C 
ENDBRANCH   6   7
ENDBRANCH   4   6
ENDBRANCH   3   4
BRANCH   3   9
HETATM    9  O9  UNL     1     -36.117   5.915   3.742  1.00 20.00    -0.389 OA
HETATM   10  H25 UNL     1     -36.444   5.011   3.643  1.00 20.00     0.210 HD
ENDBRANCH   3   9
TORSDOF 4
ENDMDL
MODEL 4
REMARK VINA RESULT:      -4.8      1.407      1.954
REMARK  4 active torsions:
REMARK  status: ('A' for Active; 'I' for Inactive)
REMARK    1  A    between atoms: C3_3  and  C8_8 
REMARK    2  A    between atoms: C3_3  and  O9_9 
REMARK    3  A    between atoms: C6_6  and  C7_7 
REMARK    4  A    between atoms: C7_7  and  C8_8 
ROOT
HETATM    1  C1  UNL     1     -35.589   5.808   4.089  1.00 20.00     0.041 A 
HETATM    2  C2  UNL     1     -34.505   4.915   4.626  1.00 20.00     0.041 A 
HETATM    3  C3  UNL     1     -34.171   6.306   4.162  1.00 20.00     0.061 A 
ENDROOT
BRANCH   3   4
HETATM    4  C8  UNL     1     -33.365   6.520   2.878  1.00 20.00     0.016 C 
HETATM    5  C5  UNL     1     -32.726   5.200   2.445  1.00 20.00     0.013 C 
BRANCH   4   6
HETATM    6  C7  UNL     1     -32.325   7.634   3.093  1.00 20.00     0.007 C 
BRANCH   6   7
HETATM    7  C6  UNL     1     -31.808   8.246   1.789  1.00 20.00    -0.004 C 
HETATM    8  C4  UNL     1     -32.539   9.537   1.453  1.00 20.00     0.005 C 
ENDBRANCH   6   7
ENDBRANCH   4   6
ENDBRANCH   3   4
BRANCH   3   9
HETATM    9  O9  UNL     1     -33.896   7.271   5.193  1.00 20.00    -0.389 OA
HETATM   10  H25 UNL     1     -34.751   7.486   5.587  1.00 20.00     0.210 HD
ENDBRANCH   3   9
TORSDOF 4
ENDMDL
MODEL 5
REMARK VINA RESULT:      -4.5      2.379      4.774
REMARK  4 active torsions:
REMARK  status: ('A' for Active; 'I' for Inactive)
REMARK    1  A    between atoms: C3_3  and  C8_8 
REMARK    2  A    between atoms: C3_3  and  O9_9 
REMARK    3  A    between atoms: C6_6  and  C7_7 
REMARK    4  A    between atoms: C7_7  and  C8_8 
ROOT
HETATM    1  C1  UNL     1     -33.343   9.267   0.327  1.00 20.00     0.041 A 
HETATM    2  C2  UNL     1     -32.601  10.328   1.092  1.00 20.00     0.041 A 
HETATM    3  C3  UNL     1     -32.257   8.877   1.294  1.00 20.00     0.061 A 
ENDROOT
BRANCH   3   4
HETATM    4  C8  UNL     1     -32.614   8.175   2.607  1.00 20.00     0.016 C 
HETATM    5  C5  UNL     1     -31.534   8.455   3.652  1.00 20.00     0.013 C 
BRANCH   4   6
HETATM    6  C7  UNL     1     -32.814   6.669   2.357  1.00 20.00     0.007 C 
BRANCH   6   7
HETATM    7  C6  UNL     1     -34.178   6.150   2.817  1.00 20.00    -0.004 C 
HETATM    8  C4  UNL     1     -34.291   6.154   4.335  1.00 20.00     0.005 C 
ENDBRANCH   6   7
ENDBRANCH   4   6
ENDBRANCH   3   4
BRANCH   3   9
HETATM    9  O9  UNL     1     -31.024   8.428   0.706  1.00 20.00    -0.389 OA
HETATM   10  H25 UNL     1     -30.748   7.662   1.226  1.00 20.00     0.210 HD
ENDBRANCH   3   9
TORSDOF 4
ENDMDL
MODEL 6
REMARK VINA RESULT:      -4.3      1.928      2.523
REMARK  4 active torsions:
REMARK  status: ('A' for Active; 'I' for Inactive)
REMARK    1  A    between atoms: C3_3  and  C8_8 
REMARK    2  A    between atoms: C3_3  and  O9_9 
REMARK    3  A    between atoms: C6_6  and  C7_7 
REMARK    4  A    between atoms: C7_7  and  C8_8 
ROOT
HETATM    1  C1  UNL     1     -34.309   6.096   2.411  1.00 20.00     0.041 A 
HETATM    2  C2  UNL     1     -33.179   5.264   2.951  1.00 20.00     0.041 A 
HETATM    3  C3  UNL     1     -33.239   6.736   3.253  1.00 20.00     0.061 A 
ENDROOT
BRANCH   3   4
HETATM    4  C8  UNL     1     -32.232   7.697   2.615  1.00 20.00     0.016 C 
HETATM    5  C5  UNL     1     -31.279   8.231   3.685  1.00 20.00     0.013 C 
BRANCH   4   6
HETATM    6  C7  UNL     1     -32.978   8.823   1.877  1.00 20.00     0.007 C 
BRANCH   6   7
HETATM    7  C6  UNL     1     -32.226   9.356   0.656  1.00 20.00    -0.004 C 
HETATM    8  C4  UNL     1     -33.127   9.414  -0.570  1.00 20.00     0.005 C 
ENDBRANCH   6   7
ENDBRANCH   4   6
ENDBRANCH   3   4
BRANCH   3   9
HETATM    9  O9  UNL     1     -33.622   7.095   4.591  1.00 20.00    -0.389 OA
HETATM   10  H25 UNL     1     -32.873   6.859   5.153  1.00 20.00     0.210 HD
ENDBRANCH   3   9
TORSDOF 4
ENDMDL
MODEL 7
REMARK VINA RESULT:      -4.2      1.456      3.970
REMARK  4 active torsions:
REMARK  status: ('A' for Active; 'I' for Inactive)
REMARK    1  A    between atoms: C3_3  and  C8_8 
REMARK    2  A    between atoms: C3_3  and  O9_9 
REMARK    3  A    between atoms: C6_6  and  C7_7 
REMARK    4  A    between atoms: C7_7  and  C8_8 
ROOT
HETATM    1  C1  UNL     1     -31.658   8.190   3.394  1.00 20.00     0.041 A 
HETATM    2  C2  UNL     1     -31.886   7.791   1.963  1.00 20.00     0.041 A 
HETATM    3  C3  UNL     1     -32.932   7.491   3.002  1.00 20.00     0.061 A 
ENDROOT
BRANCH   3   4
HETATM    4  C8  UNL     1     -33.185   6.049   3.449  1.00 20.00     0.016 C 
HETATM    5  C5  UNL     1     -33.014   5.103   2.260  1.00 20.00     0.013 C 
BRANCH   4   6
HETATM    6  C7  UNL     1     -34.579   5.939   4.093  1.00 20.00     0.007 C 
BRANCH   6   7
HETATM    7  C6  UNL     1     -34.542   5.871   5.621  1.00 20.00    -0.004 C 
HETATM    8  C4  UNL     1     -33.897   7.114   6.217  1.00 20.00     0.005 C 
ENDBRANCH   6   7
ENDBRANCH   4   6
ENDBRANCH   3   4
BRANCH   3   9
HETATM    9  O9  UNL     1     -34.113   8.310   2.969  1.00 20.00    -0.389 OA
HETATM   10  H25 UNL     1     -34.289   8.482   2.035  1.00 20.00     0.210 HD
ENDBRANCH   3   9
TORSDOF 4
ENDMDL
MODEL 8
REMARK VINA RESULT:      -4.0      1.816      4.483
REMARK  4 active torsions:
REMARK  status: ('A' for Active; 'I' for Inactive)
REMARK    1  A    between atoms: C3_3  and  C8_8 
REMARK    2  A    between atoms: C3_3  and  O9_9 
REMARK    3  A    between atoms: C6_6  and  C7_7 
REMARK    4  A    between atoms: C7_7  and  C8_8 
ROOT
HETATM    1  C1  UNL     1     -31.551   8.273   1.416  1.00 20.00     0.041 A 
HETATM    2  C2  UNL     1     -32.757   9.073   1.824  1.00 20.00     0.041 A 
HETATM    3  C3  UNL     1     -32.181   8.049   2.764  1.00 20.00     0.061 A 
ENDROOT
BRANCH   3   4
HETATM    4  C8  UNL     1     -32.940   6.750   3.050  1.00 20.00     0.016 C 
HETATM    5  C5  UNL     1     -33.928   6.469   1.916  1.00 20.00     0.013 C 
BRANCH   4   6
HETATM    6  C7  UNL     1     -33.630   6.840   4.423  1.00 20.00     0.007 C 
BRANCH   6   7
HETATM    7  C6  UNL     1     -34.842   5.916   4.558  1.00 20.00    -0.004 C 
HETATM    8  C4  UNL     1     -34.435   4.535   5.049  1.00 20.00     0.005 C 
ENDBRANCH   6   7
ENDBRANCH   4   6
ENDBRANCH   3   4
BRANCH   3   9
HETATM    9  O9  UNL     1     -31.452   8.562   3.892  1.00 20.00    -0.389 OA
HETATM   10  H25 UNL     1     -31.914   9.366   4.161  1.00 20.00     0.210 HD
ENDBRANCH   3   9
TORSDOF 4
ENDMDL
MODEL 9
REMARK VINA RESULT:      -4.0     11.560     12.306
REMARK  4 active torsions:
REMARK  status: ('A' for Active; 'I' for Inactive)
REMARK    1  A    between atoms: C3_3  and  C8_8 
REMARK    2  A    between atoms: C3_3  and  O9_9 
REMARK    3  A    between atoms: C6_6  and  C7_7 
REMARK    4  A    between atoms: C7_7  and  C8_8 
ROOT
HETATM    1  C1  UNL     1     -36.049  14.201  -6.982  1.00 20.00     0.041 A 
HETATM    2  C2  UNL     1     -34.793  13.386  -7.111  1.00 20.00     0.041 A 
HETATM    3  C3  UNL     1     -35.270  13.821  -5.752  1.00 20.00     0.061 A 
ENDROOT
BRANCH   3   4
HETATM    4  C8  UNL     1     -34.502  14.890  -4.970  1.00 20.00     0.016 C 
HETATM    5  C5  UNL     1     -33.146  14.334  -4.533  1.00 20.00     0.013 C 
BRANCH   4   6
HETATM    6  C7  UNL     1     -35.349  15.377  -3.780  1.00 20.00     0.007 C 
BRANCH   6   7
HETATM    7  C6  UNL     1     -34.570  16.247  -2.792  1.00 20.00    -0.004 C 
HETATM    8  C4  UNL     1     -35.477  16.795  -1.700  1.00 20.00     0.005 C 
ENDBRANCH   6   7
ENDBRANCH   4   6
ENDBRANCH   3   4
BRANCH   3   9
HETATM    9  O9  UNL     1     -35.857  12.800  -4.927  1.00 20.00    -0.389 OA
HETATM   10  H25 UNL     1     -36.513  13.249  -4.379  1.00 20.00     0.210 HD
ENDBRANCH   3   9
TORSDOF 4
ENDMDL
