MODEL 1
REMARK VINA RESULT:      -4.9      0.000      0.000
REMARK  2 active torsions:
REMARK  status: ('A' for Active; 'I' for Inactive)
REMARK    1  A    between atoms: C2_2  and  C7_7 
REMARK       I    between atoms: C2_2  and  N8_8 
REMARK    2  A    between atoms: C6_6  and  C7_7 
ROOT
HETATM    1  C1  UNL     1     -32.415   8.702   1.732  1.00 20.00     0.166 C 
HETATM    2  C2  UNL     1     -32.773   7.299   3.384  1.00 20.00     0.252 C 
HETATM    3  N8  UNL     1     -32.228   7.621   2.152  1.00 20.00    -0.199 NA
HETATM    4  O9  UNL     1     -32.521   7.863   4.448  1.00 20.00    -0.270 OA
HETATM    5  S10 UNL     1     -32.646  10.158   1.130  1.00 20.00    -0.055 SA
ENDROOT
BRANCH   2   6
HETATM    6  C7  UNL     1     -33.760   6.111   3.323  1.00 20.00     0.035 C 
HETATM    7  C4  UNL     1     -33.015   4.826   2.917  1.00 20.00     0.025 C 
HETATM    8  C5  UNL     1     -34.811   6.415   2.237  1.00 20.00     0.025 C 
BRANCH   6   9
HETATM    9  C6  UNL     1     -34.480   5.921   4.682  1.00 20.00     0.014 C 
HETATM   10  C3  UNL     1     -34.523   4.484   5.190  1.00 20.00     0.006 C 
ENDBRANCH   6   9
ENDBRANCH   2   6
TORSDOF 2
ENDMDL
MODEL 2
REMARK VINA RESULT:      -4.5      0.916      1.719
REMARK  2 active torsions:
REMARK  status: ('A' for Active; 'I' for Inactive)
REMARK    1  A    between atoms: C2_2  and  C7_7 
REMARK       I    between atoms: C2_2  and  N8_8 
REMARK    2  A    between atoms: C6_6  and  C7_7 
ROOT
HETATM    1  C1  UNL     1     -32.457   8.217   2.206  1.00 20.00     0.166 C 
HETATM    2  C2  UNL     1     -33.085   7.163   4.028  1.00 20.00     0.252 C 
HETATM    3  N8  UNL     1     -32.393   7.225   2.830  1.00 20.00    -0.199 NA
HETATM    4  O9  UNL     1     -32.905   7.901   4.997  1.00 20.00    -0.270 OA
HETATM    5  S10 UNL     1     -32.520   9.547   1.331  1.00 20.00    -0.055 SA
ENDROOT
BRANCH   2   6
HETATM    6  C7  UNL     1     -34.144   6.038   4.065  1.00 20.00     0.035 C 
HETATM    7  C4  UNL     1     -35.424   6.493   3.341  1.00 20.00     0.025 C 
HETATM    8  C5  UNL     1     -34.502   5.764   5.538  1.00 20.00     0.025 C 
BRANCH   6   9
HETATM    9  C6  UNL     1     -33.589   4.737   3.431  1.00 20.00     0.014 C 
HETATM   10  C3  UNL     1     -33.875   3.464   4.221  1.00 20.00     0.006 C 
ENDBRANCH   6   9
ENDBRANCH   2   6
TORSDOF 2
ENDMDL
MODEL 3
REMARK VINA RESULT:      -4.1      1.730      2.150
REMARK  2 active torsions:
REMARK  status: ('A' for Active; 'I' for Inactive)
REMARK    1  A    between atoms: C2_2  and  C7_7 
REMARK       I    between atoms: C2_2  and  N8_8 
REMARK    2  A    between atoms: C6_6  and  C7_7 
ROOT
HETATM    1  C1  UNL     1     -32.709   7.661   2.379  1.00 20.00     0.166 C 
HETATM    2  C2  UNL     1     -33.351   5.656   3.006  1.00 20.00     0.252 C 
HETATM    3  N8  UNL     1     -33.597   6.896   2.440  1.00 20.00    -0.199 NA
HETATM    4  O9  UNL     1     -32.538   4.830   2.593  1.00 20.00    -0.270 OA
HETATM    5  S10 UNL     1     -31.529   8.725   2.278  1.00 20.00    -0.055 SA
ENDROOT
BRANCH   2   6
HETATM    6  C7  UNL     1     -34.224   5.367   4.248  1.00 20.00     0.035 C 
HETATM    7  C4  UNL     1     -34.408   3.848   4.422  1.00 20.00     0.025 C 
HETATM    8  C5  UNL     1     -35.614   5.991   4.015  1.00 20.00     0.025 C 
BRANCH   6   9
HETATM    9  C6  UNL     1     -33.598   5.992   5.520  1.00 20.00     0.014 C 
HETATM   10  C3  UNL     1     -33.966   7.452   5.767  1.00 20.00     0.006 C 
ENDBRANCH   6   9
ENDBRANCH   2   6
TORSDOF 2
ENDMDL
MODEL 4
REMARK VINA RESULT:      -3.9     11.151     11.993
REMARK  2 active torsions:
REMARK  status: ('A' for Active; 'I' for Inactive)
REMARK    1  A    between atoms: C2_2  and  C7_7 
REMARK       I    between atoms: C2_2  and  N8_8 
REMARK    2  A    between atoms: C6_6  and  C7_7 
ROOT
HETATM    1  C1  UNL     1     -37.949  14.863  -4.793  1.00 20.00     0.166 C 
HETATM    2  C2  UNL     1     -35.904  14.062  -4.825  1.00 20.00     0.252 C 
HETATM    3  N8  UNL     1     -36.938  14.745  -4.207  1.00 20.00    -0.199 NA
HETATM    4  O9  UNL     1     -35.941  12.888  -5.194  1.00 20.00    -0.270 OA
HETATM    5  S10 UNL     1     -39.335  15.043  -5.556  1.00 20.00    -0.055 SA
ENDROOT
BRANCH   2   6
HETATM    6  C7  UNL     1     -34.632  14.920  -5.015  1.00 20.00     0.035 C 
HETATM    7  C4  UNL     1     -34.360  15.134  -6.516  1.00 20.00     0.025 C 
HETATM    8  C5  UNL     1     -33.439  14.149  -4.419  1.00 20.00     0.025 C 
BRANCH   6   9
HETATM    9  C6  UNL     1     -34.769  16.279  -4.284  1.00 20.00     0.014 C 
HETATM   10  C3  UNL     1     -33.976  16.394  -2.987  1.00 20.00     0.006 C 
ENDBRANCH   6   9
ENDBRANCH   2   6
TORSDOF 2
ENDMDL
MODEL 5
REMARK VINA RESULT:      -3.8     11.210     11.727
REMARK  2 active torsions:
REMARK  status: ('A' for Active; 'I' for Inactive)
REMARK    1  A    between atoms: C2_2  and  C7_7 
REMARK       I    between atoms: C2_2  and  N8_8 
REMARK    2  A    between atoms: C6_6  and  C7_7 
ROOT
HETATM    1  C1  UNL     1     -35.178  13.754  -5.739  1.00 20.00     0.166 C 
HETATM    2  C2  UNL     1     -34.231  14.949  -4.158  1.00 20.00     0.252 C 
HETATM    3  N8  UNL     1     -35.216  14.090  -4.615  1.00 20.00    -0.199 NA
HETATM    4  O9  UNL     1     -33.023  14.713  -4.149  1.00 20.00    -0.270 OA
HETATM    5  S10 UNL     1     -35.159  13.276  -7.258  1.00 20.00    -0.055 SA
ENDROOT
BRANCH   2   6
HETATM    6  C7  UNL     1     -34.788  16.288  -3.623  1.00 20.00     0.035 C 
HETATM    7  C4  UNL     1     -36.309  16.179  -3.410  1.00 20.00     0.025 C 
HETATM    8  C5  UNL     1     -34.532  17.374  -4.686  1.00 20.00     0.025 C 
BRANCH   6   9
HETATM    9  C6  UNL     1     -34.079  16.694  -2.307  1.00 20.00     0.014 C 
HETATM   10  C3  UNL     1     -35.014  17.068  -1.162  1.00 20.00     0.006 C 
ENDBRANCH   6   9
ENDBRANCH   2   6
TORSDOF 2
ENDMDL
MODEL 6
REMARK VINA RESULT:      -3.8     11.184     12.004
REMARK  2 active torsions:
REMARK  status: ('A' for Active; 'I' for Inactive)
REMARK    1  A    between atoms: C2_2  and  C7_7 
REMARK       I    between atoms: C2_2  and  N8_8 
REMARK    2  A    between atoms: C6_6  and  C7_7 
ROOT
HETATM    1  C1  UNL     1     -33.774  16.212  -3.296  1.00 20.00     0.166 C 
HETATM    2  C2  UNL     1     -34.134  14.600  -4.744  1.00 20.00     0.252 C 
HETATM    3  N8  UNL     1     -33.384  15.656  -4.254  1.00 20.00    -0.199 NA
HETATM    4  O9  UNL     1     -34.399  13.565  -4.131  1.00 20.00    -0.270 OA
HETATM    5  S10 UNL     1     -34.269  16.990  -1.998  1.00 20.00    -0.055 SA
ENDROOT
BRANCH   2   6
HETATM    6  C7  UNL     1     -34.628  14.820  -6.192  1.00 20.00     0.035 C 
HETATM    7  C4  UNL     1     -34.611  13.487  -6.963  1.00 20.00     0.025 C 
HETATM    8  C5  UNL     1     -33.652  15.786  -6.890  1.00 20.00     0.025 C 
BRANCH   6   9
HETATM    9  C6  UNL     1     -36.047  15.442  -6.202  1.00 20.00     0.014 C 
HETATM   10  C3  UNL     1     -37.190  14.435  -6.121  1.00 20.00     0.006 C 
ENDBRANCH   6   9
ENDBRANCH   2   6
TORSDOF 2
ENDMDL
MODEL 7
REMARK VINA RESULT:      -3.8     11.149     11.941
REMARK  2 active torsions:
REMARK  status: ('A' for Active; 'I' for Inactive)
REMARK    1  A    between atoms: C2_2  and  C7_7 
REMARK       I    between atoms: C2_2  and  N8_8 
REMARK    2  A    between atoms: C6_6  and  C7_7 
ROOT
HETATM    1  C1  UNL     1     -35.072  14.357  -4.433  1.00 20.00     0.166 C 
HETATM    2  C2  UNL     1     -33.883  16.132  -3.920  1.00 20.00     0.252 C 
HETATM    3  N8  UNL     1     -34.382  14.872  -3.634  1.00 20.00    -0.199 NA
HETATM    4  O9  UNL     1     -33.158  16.416  -4.874  1.00 20.00    -0.270 OA
HETATM    5  S10 UNL     1     -36.010  13.626  -5.492  1.00 20.00    -0.055 SA
ENDROOT
BRANCH   2   6
HETATM    6  C7  UNL     1     -34.315  17.206  -2.896  1.00 20.00     0.035 C 
HETATM    7  C4  UNL     1     -34.797  18.472  -3.631  1.00 20.00     0.025 C 
HETATM    8  C5  UNL     1     -33.085  17.587  -2.050  1.00 20.00     0.025 C 
BRANCH   6   9
HETATM    9  C6  UNL     1     -35.423  16.663  -1.959  1.00 20.00     0.014 C 
HETATM   10  C3  UNL     1     -35.425  17.257  -0.555  1.00 20.00     0.006 C 
ENDBRANCH   6   9
ENDBRANCH   2   6
TORSDOF 2
ENDMDL
MODEL 8
REMARK VINA RESULT:      -3.8     11.188     12.179
REMARK  2 active torsions:
REMARK  status: ('A' for Active; 'I' for Inactive)
REMARK    1  A    between atoms: C2_2  and  C7_7 
REMARK       I    between atoms: C2_2  and  N8_8 
REMARK    2  A    between atoms: C6_6  and  C7_7 
ROOT
HETATM    1  C1  UNL     1     -38.059  14.898  -4.859  1.00 20.00     0.166 C 
HETATM    2  C2  UNL     1     -36.012  14.114  -4.714  1.00 20.00     0.252 C 
HETATM    3  N8  UNL     1     -37.130  14.716  -4.163  1.00 20.00    -0.199 NA
HETATM    4  O9  UNL     1     -35.978  12.991  -5.217  1.00 20.00    -0.270 OA
HETATM    5  S10 UNL     1     -39.337  15.159  -5.771  1.00 20.00    -0.055 SA
ENDROOT
BRANCH   2   6
HETATM    6  C7  UNL     1     -34.743  14.994  -4.636  1.00 20.00     0.035 C 
HETATM    7  C4  UNL     1     -33.494  14.106  -4.477  1.00 20.00     0.025 C 
HETATM    8  C5  UNL     1     -34.854  15.887  -3.385  1.00 20.00     0.025 C 
BRANCH   6   9
HETATM    9  C6  UNL     1     -34.618  15.895  -5.890  1.00 20.00     0.014 C 
HETATM   10  C3  UNL     1     -33.789  15.304  -7.026  1.00 20.00     0.006 C 
ENDBRANCH   6   9
ENDBRANCH   2   6
TORSDOF 2
ENDMDL
MODEL 9
REMARK VINA RESULT:      -3.7     11.330     12.246
REMARK  2 active torsions:
REMARK  status: ('A' for Active; 'I' for Inactive)
REMARK    1  A    between atoms: C2_2  and  C7_7 
REMARK       I    between atoms: C2_2  and  N8_8 
REMARK    2  A    between atoms: C6_6  and  C7_7 
ROOT
HETATM    1  C1  UNL     1     -38.888  15.215  -4.977  1.00 20.00     0.166 C 
HETATM    2  C2  UNL     1     -36.867  14.387  -4.745  1.00 20.00     0.252 C 
HETATM    3  N8  UNL     1     -38.036  14.917  -4.226  1.00 20.00    -0.199 NA
HETATM    4  O9  UNL     1     -36.781  13.353  -5.406  1.00 20.00    -0.270 OA
HETATM    5  S10 UNL     1     -40.067  15.630  -5.964  1.00 20.00    -0.055 SA
ENDROOT
BRANCH   2   6
HETATM    6  C7  UNL     1     -35.613  15.226  -4.406  1.00 20.00     0.035 C 
HETATM    7  C4  UNL     1     -35.903  16.148  -3.206  1.00 20.00     0.025 C 
HETATM    8  C5  UNL     1     -35.287  16.115  -5.621  1.00 20.00     0.025 C 
BRANCH   6   9
HETATM    9  C6  UNL     1     -34.399  14.310  -4.111  1.00 20.00     0.014 C 
HETATM   10  C3  UNL     1     -33.050  14.867  -4.554  1.00 20.00     0.006 C 
ENDBRANCH   6   9
ENDBRANCH   2   6
TORSDOF 2
ENDMDL
