MODEL 1
REMARK VINA RESULT:      -6.2      0.000      0.000
REMARK  2 active torsions:
REMARK  status: ('A' for Active; 'I' for Inactive)
REMARK    1  A    between atoms: C7_7  and  C11_11 
REMARK    2  A    between atoms: C8_8  and  C12_12 
ROOT
HETATM    1  C1  UNL     1     -32.475  10.219   0.277  1.00 20.00     0.012 C 
HETATM    2  C2  UNL     1     -32.280   9.207   0.894  1.00 20.00    -0.117 C 
HETATM    3  C11 UNL     1     -32.035   7.969   1.639  1.00 20.00     0.105 C 
ENDROOT
BRANCH   3   4
HETATM    4  C7  UNL     1     -32.985   7.848   2.827  1.00 20.00     0.067 C 
HETATM    5  C3  UNL     1     -32.258   8.129   4.140  1.00 20.00     0.132 C 
HETATM    6  C4  UNL     1     -32.792   7.442   5.382  1.00 20.00     0.079 C 
HETATM    7  O13 UNL     1     -31.281   8.874   4.207  1.00 20.00    -0.298 OA
HETATM    8  C5  UNL     1     -34.288   7.193   5.240  1.00 20.00     0.012 C 
HETATM    9  C8  UNL     1     -34.629   6.313   4.024  1.00 20.00    -0.010 C 
HETATM   10  C6  UNL     1     -33.595   6.444   2.890  1.00 20.00     0.018 C 
BRANCH   9  11
HETATM   11  C12 UNL     1     -34.789   4.845   4.425  1.00 20.00    -0.019 C 
HETATM   12  C9  UNL     1     -33.752   3.980   3.714  1.00 20.00     0.010 C 
HETATM   13  C10 UNL     1     -34.673   4.688   5.939  1.00 20.00     0.010 C 
ENDBRANCH   9  11
ENDBRANCH   3   4
TORSDOF 2
ENDMDL
MODEL 2
REMARK VINA RESULT:      -5.9      1.177      4.880
REMARK  2 active torsions:
REMARK  status: ('A' for Active; 'I' for Inactive)
REMARK    1  A    between atoms: C7_7  and  C11_11 
REMARK    2  A    between atoms: C8_8  and  C12_12 
ROOT
HETATM    1  C1  UNL     1     -34.419   3.892   4.833  1.00 20.00     0.012 C 
HETATM    2  C2  UNL     1     -34.529   4.954   4.282  1.00 20.00    -0.117 C 
HETATM    3  C11 UNL     1     -34.672   6.248   3.608  1.00 20.00     0.105 C 
ENDROOT
BRANCH   3   4
HETATM    4  C7  UNL     1     -33.309   6.840   3.264  1.00 20.00     0.067 C 
HETATM    5  C3  UNL     1     -32.758   7.661   4.428  1.00 20.00     0.132 C 
HETATM    6  C4  UNL     1     -31.830   8.808   4.083  1.00 20.00     0.079 C 
HETATM    7  O13 UNL     1     -33.047   7.418   5.601  1.00 20.00    -0.298 OA
HETATM    8  C5  UNL     1     -31.084   8.507   2.789  1.00 20.00     0.012 C 
HETATM    9  C8  UNL     1     -32.032   8.285   1.598  1.00 20.00    -0.010 C 
HETATM   10  C6  UNL     1     -33.407   7.741   2.028  1.00 20.00     0.018 C 
BRANCH   9  11
HETATM   11  C12 UNL     1     -32.205   9.564   0.776  1.00 20.00    -0.019 C 
HETATM   12  C9  UNL     1     -32.939   9.268  -0.529  1.00 20.00     0.010 C 
HETATM   13  C10 UNL     1     -32.952  10.623   1.584  1.00 20.00     0.010 C 
ENDBRANCH   9  11
ENDBRANCH   3   4
TORSDOF 2
ENDMDL
MODEL 3
REMARK VINA RESULT:      -5.5     10.672     12.124
REMARK  2 active torsions:
REMARK  status: ('A' for Active; 'I' for Inactive)
REMARK    1  A    between atoms: C7_7  and  C11_11 
REMARK    2  A    between atoms: C8_8  and  C12_12 
ROOT
HETATM    1  C1  UNL     1     -39.530  16.642  -4.156  1.00 20.00     0.012 C 
HETATM    2  C2  UNL     1     -38.806  15.735  -4.463  1.00 20.00    -0.117 C 
HETATM    3  C11 UNL     1     -37.930  14.620  -4.837  1.00 20.00     0.105 C 
ENDROOT
BRANCH   3   4
HETATM    4  C7  UNL     1     -36.463  15.034  -4.783  1.00 20.00     0.067 C 
HETATM    5  C3  UNL     1     -35.548  13.812  -4.789  1.00 20.00     0.132 C 
HETATM    6  C4  UNL     1     -34.206  13.954  -4.097  1.00 20.00     0.079 C 
HETATM    7  O13 UNL     1     -35.869  12.750  -5.324  1.00 20.00    -0.298 OA
HETATM    8  C5  UNL     1     -33.738  15.402  -4.153  1.00 20.00     0.012 C 
HETATM    9  C8  UNL     1     -34.728  16.369  -3.479  1.00 20.00    -0.010 C 
HETATM   10  C6  UNL     1     -36.179  15.857  -3.522  1.00 20.00     0.018 C 
BRANCH   9  11
HETATM   11  C12 UNL     1     -34.317  16.671  -2.037  1.00 20.00    -0.019 C 
HETATM   12  C9  UNL     1     -33.246  17.759  -2.001  1.00 20.00     0.010 C 
HETATM   13  C10 UNL     1     -35.531  17.085  -1.209  1.00 20.00     0.010 C 
ENDBRANCH   9  11
ENDBRANCH   3   4
TORSDOF 2
ENDMDL
MODEL 4
REMARK VINA RESULT:      -5.2     11.369     12.239
REMARK  2 active torsions:
REMARK  status: ('A' for Active; 'I' for Inactive)
REMARK    1  A    between atoms: C7_7  and  C11_11 
REMARK    2  A    between atoms: C8_8  and  C12_12 
ROOT
HETATM    1  C1  UNL     1     -39.135  15.109  -5.587  1.00 20.00     0.012 C 
HETATM    2  C2  UNL     1     -38.072  14.588  -5.388  1.00 20.00    -0.117 C 
HETATM    3  C11 UNL     1     -36.778  13.943  -5.144  1.00 20.00     0.105 C 
ENDROOT
BRANCH   3   4
HETATM    4  C7  UNL     1     -35.661  14.976  -5.040  1.00 20.00     0.067 C 
HETATM    5  C3  UNL     1     -34.310  14.361  -5.395  1.00 20.00     0.132 C 
HETATM    6  C4  UNL     1     -33.084  14.968  -4.740  1.00 20.00     0.079 C 
HETATM    7  O13 UNL     1     -34.201  13.414  -6.174  1.00 20.00    -0.298 OA
HETATM    8  C5  UNL     1     -33.327  16.441  -4.438  1.00 20.00     0.012 C 
HETATM    9  C8  UNL     1     -34.528  16.661  -3.500  1.00 20.00    -0.010 C 
HETATM   10  C6  UNL     1     -35.586  15.549  -3.620  1.00 20.00     0.018 C 
BRANCH   9  11
HETATM   11  C12 UNL     1     -34.079  16.809  -2.045  1.00 20.00    -0.019 C 
HETATM   12  C9  UNL     1     -33.085  17.959  -1.905  1.00 20.00     0.010 C 
HETATM   13  C10 UNL     1     -35.284  17.026  -1.132  1.00 20.00     0.010 C 
ENDBRANCH   9  11
ENDBRANCH   3   4
TORSDOF 2
ENDMDL
MODEL 5
REMARK VINA RESULT:      -5.1     11.327     12.290
REMARK  2 active torsions:
REMARK  status: ('A' for Active; 'I' for Inactive)
REMARK    1  A    between atoms: C7_7  and  C11_11 
REMARK    2  A    between atoms: C8_8  and  C12_12 
ROOT
HETATM    1  C1  UNL     1     -31.875  18.551  -0.092  1.00 20.00     0.012 C 
HETATM    2  C2  UNL     1     -32.812  18.246  -0.778  1.00 20.00    -0.117 C 
HETATM    3  C11 UNL     1     -33.962  17.878  -1.608  1.00 20.00     0.105 C 
ENDROOT
BRANCH   3   4
HETATM    4  C7  UNL     1     -33.538  16.975  -2.762  1.00 20.00     0.067 C 
HETATM    5  C3  UNL     1     -33.391  17.771  -4.057  1.00 20.00     0.132 C 
HETATM    6  C4  UNL     1     -33.638  17.027  -5.354  1.00 20.00     0.079 C 
HETATM    7  O13 UNL     1     -33.089  18.965  -4.065  1.00 20.00    -0.298 OA
HETATM    8  C5  UNL     1     -33.295  15.553  -5.186  1.00 20.00     0.012 C 
HETATM    9  C8  UNL     1     -34.125  14.875  -4.081  1.00 20.00    -0.010 C 
HETATM   10  C6  UNL     1     -34.566  15.859  -2.983  1.00 20.00     0.018 C 
BRANCH   9  11
HETATM   11  C12 UNL     1     -35.342  14.153  -4.662  1.00 20.00    -0.019 C 
HETATM   12  C9  UNL     1     -36.596  15.011  -4.513  1.00 20.00     0.010 C 
HETATM   13  C10 UNL     1     -35.105  13.799  -6.129  1.00 20.00     0.010 C 
ENDBRANCH   9  11
ENDBRANCH   3   4
TORSDOF 2
ENDMDL
MODEL 6
REMARK VINA RESULT:      -5.1     11.271     12.369
REMARK  2 active torsions:
REMARK  status: ('A' for Active; 'I' for Inactive)
REMARK    1  A    between atoms: C7_7  and  C11_11 
REMARK    2  A    between atoms: C8_8  and  C12_12 
ROOT
HETATM    1  C1  UNL     1     -33.604  16.295  -6.797  1.00 20.00     0.012 C 
HETATM    2  C2  UNL     1     -33.852  15.488  -5.944  1.00 20.00    -0.117 C 
HETATM    3  C11 UNL     1     -34.153  14.495  -4.908  1.00 20.00     0.105 C 
ENDROOT
BRANCH   3   4
HETATM    4  C7  UNL     1     -34.636  15.169  -3.628  1.00 20.00     0.067 C 
HETATM    5  C3  UNL     1     -36.035  15.752  -3.808  1.00 20.00     0.132 C 
HETATM    6  C4  UNL     1     -36.390  16.961  -2.966  1.00 20.00     0.079 C 
HETATM    7  O13 UNL     1     -36.850  15.276  -4.599  1.00 20.00    -0.298 OA
HETATM    8  C5  UNL     1     -35.611  16.936  -1.658  1.00 20.00     0.012 C 
HETATM    9  C8  UNL     1     -34.088  16.938  -1.877  1.00 20.00    -0.010 C 
HETATM   10  C6  UNL     1     -33.681  16.294  -3.215  1.00 20.00     0.018 C 
BRANCH   9  11
HETATM   11  C12 UNL     1     -33.511  18.351  -1.773  1.00 20.00    -0.019 C 
HETATM   12  C9  UNL     1     -32.284  18.364  -0.865  1.00 20.00     0.010 C 
HETATM   13  C10 UNL     1     -33.160  18.889  -3.159  1.00 20.00     0.010 C 
ENDBRANCH   9  11
ENDBRANCH   3   4
TORSDOF 2
ENDMDL
MODEL 7
REMARK VINA RESULT:      -5.0     11.304     12.189
REMARK  2 active torsions:
REMARK  status: ('A' for Active; 'I' for Inactive)
REMARK    1  A    between atoms: C7_7  and  C11_11 
REMARK    2  A    between atoms: C8_8  and  C12_12 
ROOT
HETATM    1  C1  UNL     1     -36.897  18.399  -0.891  1.00 20.00     0.012 C 
HETATM    2  C2  UNL     1     -35.747  18.067  -0.801  1.00 20.00    -0.117 C 
HETATM    3  C11 UNL     1     -34.342  17.666  -0.683  1.00 20.00     0.105 C 
ENDROOT
BRANCH   3   4
HETATM    4  C7  UNL     1     -33.860  16.976  -1.955  1.00 20.00     0.067 C 
HETATM    5  C3  UNL     1     -33.343  17.995  -2.969  1.00 20.00     0.132 C 
HETATM    6  C4  UNL     1     -33.458  17.625  -4.435  1.00 20.00     0.079 C 
HETATM    7  O13 UNL     1     -32.855  19.073  -2.630  1.00 20.00    -0.298 OA
HETATM    8  C5  UNL     1     -33.398  16.112  -4.600  1.00 20.00     0.012 C 
HETATM    9  C8  UNL     1     -34.521  15.389  -3.836  1.00 20.00    -0.010 C 
HETATM   10  C6  UNL     1     -34.995  16.172  -2.598  1.00 20.00     0.018 C 
BRANCH   9  11
HETATM   11  C12 UNL     1     -35.707  15.079  -4.751  1.00 20.00    -0.019 C 
HETATM   12  C9  UNL     1     -35.769  13.585  -5.060  1.00 20.00     0.010 C 
HETATM   13  C10 UNL     1     -37.012  15.550  -4.113  1.00 20.00     0.010 C 
ENDBRANCH   9  11
ENDBRANCH   3   4
TORSDOF 2
ENDMDL
MODEL 8
REMARK VINA RESULT:      -5.0     11.148     12.197
REMARK  2 active torsions:
REMARK  status: ('A' for Active; 'I' for Inactive)
REMARK    1  A    between atoms: C7_7  and  C11_11 
REMARK    2  A    between atoms: C8_8  and  C12_12 
ROOT
HETATM    1  C1  UNL     1     -35.244  17.195  -0.726  1.00 20.00     0.012 C 
HETATM    2  C2  UNL     1     -34.687  16.871  -1.740  1.00 20.00    -0.117 C 
HETATM    3  C11 UNL     1     -34.002  16.484  -2.976  1.00 20.00     0.105 C 
ENDROOT
BRANCH   3   4
HETATM    4  C7  UNL     1     -34.690  15.293  -3.634  1.00 20.00     0.067 C 
HETATM    5  C3  UNL     1     -33.828  14.710  -4.752  1.00 20.00     0.132 C 
HETATM    6  C4  UNL     1     -34.553  14.027  -5.895  1.00 20.00     0.079 C 
HETATM    7  O13 UNL     1     -32.599  14.783  -4.742  1.00 20.00    -0.298 OA
HETATM    8  C5  UNL     1     -35.871  13.441  -5.405  1.00 20.00     0.012 C 
HETATM    9  C8  UNL     1     -36.809  14.508  -4.813  1.00 20.00    -0.010 C 
HETATM   10  C6  UNL     1     -36.045  15.706  -4.220  1.00 20.00     0.018 C 
BRANCH   9  11
HETATM   11  C12 UNL     1     -37.826  14.992  -5.849  1.00 20.00    -0.019 C 
HETATM   12  C9  UNL     1     -39.236  14.974  -5.264  1.00 20.00     0.010 C 
HETATM   13  C10 UNL     1     -37.466  16.391  -6.341  1.00 20.00     0.010 C 
ENDBRANCH   9  11
ENDBRANCH   3   4
TORSDOF 2
ENDMDL
MODEL 9
REMARK VINA RESULT:      -4.9      1.978      4.815
REMARK  2 active torsions:
REMARK  status: ('A' for Active; 'I' for Inactive)
REMARK    1  A    between atoms: C7_7  and  C11_11 
REMARK    2  A    between atoms: C8_8  and  C12_12 
ROOT
HETATM    1  C1  UNL     1     -33.437   7.974   6.835  1.00 20.00     0.012 C 
HETATM    2  C2  UNL     1     -34.049   7.091   6.299  1.00 20.00    -0.117 C 
HETATM    3  C11 UNL     1     -34.800   6.011   5.653  1.00 20.00     0.105 C 
ENDROOT
BRANCH   3   4
HETATM    4  C7  UNL     1     -34.554   5.997   4.147  1.00 20.00     0.067 C 
HETATM    5  C3  UNL     1     -33.919   4.679   3.708  1.00 20.00     0.132 C 
HETATM    6  C4  UNL     1     -33.029   4.721   2.482  1.00 20.00     0.079 C 
HETATM    7  O13 UNL     1     -34.108   3.623   4.312  1.00 20.00    -0.298 OA
HETATM    8  C5  UNL     1     -33.477   5.835   1.546  1.00 20.00     0.012 C 
HETATM    9  C8  UNL     1     -33.434   7.221   2.214  1.00 20.00    -0.010 C 
HETATM   10  C6  UNL     1     -33.632   7.150   3.739  1.00 20.00     0.018 C 
BRANCH   9  11
HETATM   11  C12 UNL     1     -32.135   7.959   1.884  1.00 20.00    -0.019 C 
HETATM   12  C9  UNL     1     -32.419   9.185   1.019  1.00 20.00     0.010 C 
HETATM   13  C10 UNL     1     -31.407   8.362   3.164  1.00 20.00     0.010 C 
ENDBRANCH   9  11
ENDBRANCH   3   4
TORSDOF 2
ENDMDL
