MODEL 1
REMARK VINA RESULT:      -5.3      0.000      0.000
REMARK  1 active torsions:
REMARK  status: ('A' for Active; 'I' for Inactive)
REMARK    1  A    between atoms: C1_1  and  C6_6 
ROOT
HETATM    1  C2  UNL     1     -34.419   6.440   5.862  1.00 20.00     0.027 C 
HETATM    2  C3  UNL     1     -33.311   7.279   5.232  1.00 20.00     0.017 C 
HETATM    3  C4  UNL     1     -34.519   5.082   5.180  1.00 20.00     0.167 C 
HETATM    4  C5  UNL     1     -33.624   5.910   3.150  1.00 20.00     0.181 C 
HETATM    5  C6  UNL     1     -33.467   7.319   3.713  1.00 20.00     0.096 C 
HETATM    6  O8  UNL     1     -34.715   5.234   3.775  1.00 20.00    -0.390 OA
ENDROOT
BRANCH   5   7
HETATM    7  C1  UNL     1     -32.281   7.994   3.100  1.00 20.00     0.225 C 
HETATM    8  O7  UNL     1     -31.236   8.155   3.722  1.00 20.00    -0.279 OA
HETATM    9 CL9  UNL     1     -32.586   8.492   1.462  1.00 20.00    -0.043 Cl
ENDBRANCH   5   7
TORSDOF 1
ENDMDL
MODEL 2
REMARK VINA RESULT:      -4.5      1.572      2.110
REMARK  1 active torsions:
REMARK  status: ('A' for Active; 'I' for Inactive)
REMARK    1  A    between atoms: C1_1  and  C6_6 
ROOT
HETATM    1  C2  UNL     1     -34.190   4.404   4.103  1.00 20.00     0.027 C 
HETATM    2  C3  UNL     1     -33.685   5.431   3.095  1.00 20.00     0.017 C 
HETATM    3  C4  UNL     1     -34.969   5.084   5.221  1.00 20.00     0.167 C 
HETATM    4  C5  UNL     1     -33.796   7.123   4.948  1.00 20.00     0.181 C 
HETATM    5  C6  UNL     1     -32.949   6.565   3.809  1.00 20.00     0.096 C 
HETATM    6  O8  UNL     1     -34.174   6.086   5.853  1.00 20.00    -0.390 OA
ENDROOT
BRANCH   5   7
HETATM    7  C1  UNL     1     -32.615   7.646   2.831  1.00 20.00     0.225 C 
HETATM    8  O7  UNL     1     -33.280   7.827   1.816  1.00 20.00    -0.279 OA
HETATM    9 CL9  UNL     1     -31.218   8.559   3.318  1.00 20.00    -0.043 Cl
ENDBRANCH   5   7
TORSDOF 1
ENDMDL
MODEL 3
REMARK VINA RESULT:      -4.3      2.396      4.087
REMARK  1 active torsions:
REMARK  status: ('A' for Active; 'I' for Inactive)
REMARK    1  A    between atoms: C1_1  and  C6_6 
ROOT
HETATM    1  C2  UNL     1     -32.640   7.152   2.250  1.00 20.00     0.027 C 
HETATM    2  C3  UNL     1     -33.196   5.845   2.807  1.00 20.00     0.017 C 
HETATM    3  C4  UNL     1     -31.993   7.976   3.354  1.00 20.00     0.167 C 
HETATM    4  C5  UNL     1     -33.353   7.002   5.031  1.00 20.00     0.181 C 
HETATM    5  C6  UNL     1     -34.079   6.114   4.025  1.00 20.00     0.096 C 
HETATM    6  O8  UNL     1     -32.917   8.214   4.415  1.00 20.00    -0.390 OA
ENDROOT
BRANCH   5   7
HETATM    7  C1  UNL     1     -34.472   4.820   4.662  1.00 20.00     0.225 C 
HETATM    8  O7  UNL     1     -34.481   3.767   4.032  1.00 20.00    -0.279 OA
HETATM    9 CL9  UNL     1     -34.891   5.016   6.337  1.00 20.00    -0.043 Cl
ENDBRANCH   5   7
TORSDOF 1
ENDMDL
MODEL 4
REMARK VINA RESULT:      -4.1     11.634     12.419
REMARK  1 active torsions:
REMARK  status: ('A' for Active; 'I' for Inactive)
REMARK    1  A    between atoms: C1_1  and  C6_6 
ROOT
HETATM    1  C2  UNL     1     -33.922  16.451  -3.221  1.00 20.00     0.027 C 
HETATM    2  C3  UNL     1     -35.101  15.531  -3.519  1.00 20.00     0.017 C 
HETATM    3  C4  UNL     1     -33.321  16.992  -4.512  1.00 20.00     0.167 C 
HETATM    4  C5  UNL     1     -34.058  15.125  -5.768  1.00 20.00     0.181 C 
HETATM    5  C6  UNL     1     -34.708  14.474  -4.551  1.00 20.00     0.096 C 
HETATM    6  O8  UNL     1     -32.941  15.924  -5.379  1.00 20.00    -0.390 OA
ENDROOT
BRANCH   5   7
HETATM    7  C1  UNL     1     -35.915  13.693  -4.962  1.00 20.00     0.225 C 
HETATM    8  O7  UNL     1     -35.828  12.546  -5.389  1.00 20.00    -0.279 OA
HETATM    9 CL9  UNL     1     -37.383  14.603  -4.756  1.00 20.00    -0.043 Cl
ENDBRANCH   5   7
TORSDOF 1
ENDMDL
MODEL 5
REMARK VINA RESULT:      -4.0      2.571      3.605
REMARK  1 active torsions:
REMARK  status: ('A' for Active; 'I' for Inactive)
REMARK    1  A    between atoms: C1_1  and  C6_6 
ROOT
HETATM    1  C2  UNL     1     -31.569   8.385   3.204  1.00 20.00     0.027 C 
HETATM    2  C3  UNL     1     -32.348   8.087   4.481  1.00 20.00     0.017 C 
HETATM    3  C4  UNL     1     -32.472   8.268   1.983  1.00 20.00     0.167 C 
HETATM    4  C5  UNL     1     -33.922   6.737   3.063  1.00 20.00     0.181 C 
HETATM    5  C6  UNL     1     -33.106   6.766   4.352  1.00 20.00     0.096 C 
HETATM    6  O8  UNL     1     -33.088   6.982   1.930  1.00 20.00    -0.390 OA
ENDROOT
BRANCH   5   7
HETATM    7  C1  UNL     1     -33.998   6.576   5.536  1.00 20.00     0.225 C 
HETATM    8  O7  UNL     1     -34.167   7.464   6.366  1.00 20.00    -0.279 OA
HETATM    9 CL9  UNL     1     -34.722   4.996   5.563  1.00 20.00    -0.043 Cl
ENDBRANCH   5   7
TORSDOF 1
ENDMDL
MODEL 6
REMARK VINA RESULT:      -4.0     11.650     12.140
REMARK  1 active torsions:
REMARK  status: ('A' for Active; 'I' for Inactive)
REMARK    1  A    between atoms: C1_1  and  C6_6 
ROOT
HETATM    1  C2  UNL     1     -33.833  16.176  -3.267  1.00 20.00     0.027 C 
HETATM    2  C3  UNL     1     -33.907  14.908  -4.112  1.00 20.00     0.017 C 
HETATM    3  C4  UNL     1     -35.154  16.427  -2.554  1.00 20.00     0.167 C 
HETATM    4  C5  UNL     1     -36.393  15.260  -4.202  1.00 20.00     0.181 C 
HETATM    5  C6  UNL     1     -35.142  14.936  -5.013  1.00 20.00     0.096 C 
HETATM    6  O8  UNL     1     -36.230  16.487  -3.490  1.00 20.00    -0.390 OA
ENDROOT
BRANCH   5   7
HETATM    7  C1  UNL     1     -35.296  13.618  -5.702  1.00 20.00     0.225 C 
HETATM    8  O7  UNL     1     -35.984  12.719  -5.228  1.00 20.00    -0.279 OA
HETATM    9 CL9  UNL     1     -34.403  13.550  -7.192  1.00 20.00    -0.043 Cl
ENDBRANCH   5   7
TORSDOF 1
ENDMDL
MODEL 7
REMARK VINA RESULT:      -4.0     11.526     12.457
REMARK  1 active torsions:
REMARK  status: ('A' for Active; 'I' for Inactive)
REMARK    1  A    between atoms: C1_1  and  C6_6 
ROOT
HETATM    1  C2  UNL     1     -34.342  13.651  -7.317  1.00 20.00     0.027 C 
HETATM    2  C3  UNL     1     -33.992  14.947  -6.593  1.00 20.00     0.017 C 
HETATM    3  C4  UNL     1     -35.628  13.054  -6.763  1.00 20.00     0.167 C 
HETATM    4  C5  UNL     1     -35.322  14.075  -4.648  1.00 20.00     0.181 C 
HETATM    5  C6  UNL     1     -34.017  14.739  -5.079  1.00 20.00     0.096 C 
HETATM    6  O8  UNL     1     -35.525  12.851  -5.354  1.00 20.00    -0.390 OA
ENDROOT
BRANCH   5   7
HETATM    7  C1  UNL     1     -33.847  16.051  -4.384  1.00 20.00     0.225 C 
HETATM    8  O7  UNL     1     -33.238  16.982  -4.902  1.00 20.00    -0.279 OA
HETATM    9 CL9  UNL     1     -34.599  16.064  -2.816  1.00 20.00    -0.043 Cl
ENDBRANCH   5   7
TORSDOF 1
ENDMDL
MODEL 8
REMARK VINA RESULT:      -3.9     11.619     12.345
REMARK  1 active torsions:
REMARK  status: ('A' for Active; 'I' for Inactive)
REMARK    1  A    between atoms: C1_1  and  C6_6 
ROOT
HETATM    1  C2  UNL     1     -34.037  14.144  -7.109  1.00 20.00     0.027 C 
HETATM    2  C3  UNL     1     -34.254  15.201  -6.031  1.00 20.00     0.017 C 
HETATM    3  C4  UNL     1     -35.235  13.208  -7.193  1.00 20.00     0.167 C 
HETATM    4  C5  UNL     1     -35.828  13.583  -4.931  1.00 20.00     0.181 C 
HETATM    5  C6  UNL     1     -34.666  14.547  -4.713  1.00 20.00     0.096 C 
HETATM    6  O8  UNL     1     -35.501  12.611  -5.924  1.00 20.00    -0.390 OA
ENDROOT
BRANCH   5   7
HETATM    7  C1  UNL     1     -35.043  15.600  -3.720  1.00 20.00     0.225 C 
HETATM    8  O7  UNL     1     -36.216  15.862  -3.471  1.00 20.00    -0.279 OA
HETATM    9 CL9  UNL     1     -33.650  16.358  -3.010  1.00 20.00    -0.043 Cl
ENDBRANCH   5   7
TORSDOF 1
ENDMDL
MODEL 9
REMARK VINA RESULT:      -3.9      1.686      2.524
REMARK  1 active torsions:
REMARK  status: ('A' for Active; 'I' for Inactive)
REMARK    1  A    between atoms: C1_1  and  C6_6 
ROOT
HETATM    1  C2  UNL     1     -33.885   6.038   3.417  1.00 20.00     0.027 C 
HETATM    2  C3  UNL     1     -33.481   6.902   2.227  1.00 20.00     0.017 C 
HETATM    3  C4  UNL     1     -33.948   6.870   4.690  1.00 20.00     0.167 C 
HETATM    4  C5  UNL     1     -32.372   8.440   3.875  1.00 20.00     0.181 C 
HETATM    5  C6  UNL     1     -32.218   7.701   2.549  1.00 20.00     0.096 C 
HETATM    6  O8  UNL     1     -32.704   7.531   4.925  1.00 20.00    -0.390 OA
ENDROOT
BRANCH   5   7
HETATM    7  C1  UNL     1     -31.936   8.670   1.445  1.00 20.00     0.225 C 
HETATM    8  O7  UNL     1     -31.060   8.462   0.612  1.00 20.00    -0.279 OA
HETATM    9 CL9  UNL     1     -32.977  10.060   1.512  1.00 20.00    -0.043 Cl
ENDBRANCH   5   7
TORSDOF 1
ENDMDL
