MODEL 1
REMARK VINA RESULT:      -5.1      0.000      0.000
REMARK  0 active torsions:
REMARK  status: ('A' for Active; 'I' for Inactive)
ROOT
HETATM    1  C1  UNL     1     -31.765   8.584   3.364  1.00 20.00    -0.006 C 
HETATM    2  C2  UNL     1     -31.739   7.779   2.298  1.00 20.00     0.112 C 
HETATM    3  C3  UNL     1     -33.267   6.286   3.105  1.00 20.00     0.023 C 
HETATM    4  C4  UNL     1     -34.140   6.501   5.494  1.00 20.00     0.136 C 
HETATM    5  C5  UNL     1     -32.570   8.228   4.566  1.00 20.00     0.046 C 
HETATM    6  C6  UNL     1     -34.020   4.982   2.966  1.00 20.00     0.056 C 
HETATM    7  C7  UNL     1     -34.865   5.186   5.314  1.00 20.00     0.079 C 
HETATM    8  C8  UNL     1     -34.126   4.302   4.321  1.00 20.00     0.013 C 
HETATM    9  C9  UNL     1     -33.681   7.227   4.234  1.00 20.00     0.106 C 
HETATM   10  N10 UNL     1     -32.386   6.577   2.195  1.00 20.00    -0.269 NA
HETATM   11  O11 UNL     1     -34.040   7.007   6.613  1.00 20.00    -0.297 OA
ENDROOT
TORSDOF 0
ENDMDL
MODEL 2
REMARK VINA RESULT:      -5.0     11.927     13.162
REMARK  0 active torsions:
REMARK  status: ('A' for Active; 'I' for Inactive)
ROOT
HETATM    1  C1  UNL     1     -34.188  16.040  -3.321  1.00 20.00    -0.006 C 
HETATM    2  C2  UNL     1     -33.506  16.839  -4.147  1.00 20.00     0.112 C 
HETATM    3  C3  UNL     1     -34.136  15.771  -6.064  1.00 20.00     0.023 C 
HETATM    4  C4  UNL     1     -35.483  13.606  -5.949  1.00 20.00     0.136 C 
HETATM    5  C5  UNL     1     -34.918  14.851  -3.842  1.00 20.00     0.046 C 
HETATM    6  C6  UNL     1     -34.027  15.602  -7.563  1.00 20.00     0.056 C 
HETATM    7  C7  UNL     1     -35.337  13.472  -7.449  1.00 20.00     0.079 C 
HETATM    8  C8  UNL     1     -34.046  14.124  -7.918  1.00 20.00     0.013 C 
HETATM    9  C9  UNL     1     -35.221  14.979  -5.339  1.00 20.00     0.106 C 
HETATM   10  N10 UNL     1     -33.372  16.656  -5.496  1.00 20.00    -0.269 NA
HETATM   11  O11 UNL     1     -35.915  12.665  -5.281  1.00 20.00    -0.297 OA
ENDROOT
TORSDOF 0
ENDMDL
MODEL 3
REMARK VINA RESULT:      -5.0     12.092     12.615
REMARK  0 active torsions:
REMARK  status: ('A' for Active; 'I' for Inactive)
ROOT
HETATM    1  C1  UNL     1     -34.519  16.971  -2.057  1.00 20.00    -0.006 C 
HETATM    2  C2  UNL     1     -35.573  17.041  -1.238  1.00 20.00     0.112 C 
HETATM    3  C3  UNL     1     -34.488  18.155   0.433  1.00 20.00     0.023 C 
HETATM    4  C4  UNL     1     -31.973  18.566   0.285  1.00 20.00     0.136 C 
HETATM    5  C5  UNL     1     -33.184  17.467  -1.622  1.00 20.00     0.046 C 
HETATM    6  C6  UNL     1     -34.481  18.729   1.832  1.00 20.00     0.056 C 
HETATM    7  C7  UNL     1     -32.013  19.120   1.692  1.00 20.00     0.079 C 
HETATM    8  C8  UNL     1     -33.135  18.472   2.487  1.00 20.00     0.013 C 
HETATM    9  C9  UNL     1     -33.296  18.469  -0.467  1.00 20.00     0.106 C 
HETATM   10  N10 UNL     1     -35.552  17.518   0.043  1.00 20.00    -0.269 NA
HETATM   11  O11 UNL     1     -30.893  18.323  -0.257  1.00 20.00    -0.297 OA
ENDROOT
TORSDOF 0
ENDMDL
MODEL 4
REMARK VINA RESULT:      -5.0     12.007     12.353
REMARK  0 active torsions:
REMARK  status: ('A' for Active; 'I' for Inactive)
ROOT
HETATM    1  C1  UNL     1     -31.953  18.854   2.204  1.00 20.00    -0.006 C 
HETATM    2  C2  UNL     1     -31.083  18.868   1.189  1.00 20.00     0.112 C 
HETATM    3  C3  UNL     1     -32.613  18.357  -0.427  1.00 20.00     0.023 C 
HETATM    4  C4  UNL     1     -35.013  17.762   0.213  1.00 20.00     0.136 C 
HETATM    5  C5  UNL     1     -33.373  18.463   1.983  1.00 20.00     0.046 C 
HETATM    6  C6  UNL     1     -32.931  18.014  -1.865  1.00 20.00     0.056 C 
HETATM    7  C7  UNL     1     -35.280  17.418  -1.235  1.00 20.00     0.079 C 
HETATM    8  C8  UNL     1     -34.006  16.940  -1.913  1.00 20.00     0.013 C 
HETATM    9  C9  UNL     1     -33.786  18.618   0.515  1.00 20.00     0.106 C 
HETATM   10  N10 UNL     1     -31.365  18.512  -0.102  1.00 20.00    -0.269 NA
HETATM   11  O11 UNL     1     -35.828  17.458   1.085  1.00 20.00    -0.297 OA
ENDROOT
TORSDOF 0
ENDMDL
MODEL 5
REMARK VINA RESULT:      -4.4      2.163      4.157
REMARK  0 active torsions:
REMARK  status: ('A' for Active; 'I' for Inactive)
ROOT
HETATM    1  C1  UNL     1     -34.863   4.654   5.659  1.00 20.00    -0.006 C 
HETATM    2  C2  UNL     1     -34.753   5.798   6.342  1.00 20.00     0.112 C 
HETATM    3  C3  UNL     1     -33.739   6.967   4.664  1.00 20.00     0.023 C 
HETATM    4  C4  UNL     1     -33.035   5.785   2.513  1.00 20.00     0.136 C 
HETATM    5  C5  UNL     1     -34.279   4.524   4.295  1.00 20.00     0.046 C 
HETATM    6  C6  UNL     1     -33.061   8.226   4.172  1.00 20.00     0.056 C 
HETATM    7  C7  UNL     1     -32.359   7.063   2.070  1.00 20.00     0.079 C 
HETATM    8  C8  UNL     1     -31.890   7.863   3.274  1.00 20.00     0.013 C 
HETATM    9  C9  UNL     1     -34.066   5.890   3.633  1.00 20.00     0.106 C 
HETATM   10  N10 UNL     1     -34.099   6.919   5.911  1.00 20.00    -0.269 NA
HETATM   11  O11 UNL     1     -32.838   4.733   1.903  1.00 20.00    -0.297 OA
ENDROOT
TORSDOF 0
ENDMDL
MODEL 6
REMARK VINA RESULT:      -4.4     11.877     12.699
REMARK  0 active torsions:
REMARK  status: ('A' for Active; 'I' for Inactive)
ROOT
HETATM    1  C1  UNL     1     -36.310  13.779  -7.092  1.00 20.00    -0.006 C 
HETATM    2  C2  UNL     1     -35.028  13.404  -7.134  1.00 20.00     0.112 C 
HETATM    3  C3  UNL     1     -34.455  14.337  -5.130  1.00 20.00     0.023 C 
HETATM    4  C4  UNL     1     -36.133  15.775  -3.852  1.00 20.00     0.136 C 
HETATM    5  C5  UNL     1     -36.817  14.635  -5.983  1.00 20.00     0.046 C 
HETATM    6  C6  UNL     1     -33.399  14.693  -4.108  1.00 20.00     0.056 C 
HETATM    7  C7  UNL     1     -35.040  16.114  -2.862  1.00 20.00     0.079 C 
HETATM    8  C8  UNL     1     -33.679  16.073  -3.537  1.00 20.00     0.013 C 
HETATM    9  C9  UNL     1     -35.915  14.558  -4.746  1.00 20.00     0.106 C 
HETATM   10  N10 UNL     1     -34.066  13.767  -6.231  1.00 20.00    -0.269 NA
HETATM   11  O11 UNL     1     -37.198  16.395  -3.838  1.00 20.00    -0.297 OA
ENDROOT
TORSDOF 0
ENDMDL
MODEL 7
REMARK VINA RESULT:      -4.3     12.020     12.637
REMARK  0 active torsions:
REMARK  status: ('A' for Active; 'I' for Inactive)
ROOT
HETATM    1  C1  UNL     1     -36.496  13.708  -5.724  1.00 20.00    -0.006 C 
HETATM    2  C2  UNL     1     -37.525  14.287  -5.098  1.00 20.00     0.112 C 
HETATM    3  C3  UNL     1     -36.255  15.736  -3.872  1.00 20.00     0.023 C 
HETATM    4  C4  UNL     1     -33.708  15.573  -3.919  1.00 20.00     0.136 C 
HETATM    5  C5  UNL     1     -35.093  14.071  -5.380  1.00 20.00     0.046 C 
HETATM    6  C6  UNL     1     -36.150  16.795  -2.798  1.00 20.00     0.056 C 
HETATM    7  C7  UNL     1     -33.653  16.626  -2.834  1.00 20.00     0.079 C 
HETATM    8  C8  UNL     1     -34.899  16.563  -1.966  1.00 20.00     0.013 C 
HETATM    9  C9  UNL     1     -35.009  15.444  -4.704  1.00 20.00     0.106 C 
HETATM   10  N10 UNL     1     -37.423  15.212  -4.095  1.00 20.00    -0.269 NA
HETATM   11  O11 UNL     1     -32.696  14.939  -4.221  1.00 20.00    -0.297 OA
ENDROOT
TORSDOF 0
ENDMDL
MODEL 8
REMARK VINA RESULT:      -4.3     12.229     13.093
REMARK  0 active torsions:
REMARK  status: ('A' for Active; 'I' for Inactive)
ROOT
HETATM    1  C1  UNL     1     -32.937  15.586  -4.892  1.00 20.00    -0.006 C 
HETATM    2  C2  UNL     1     -33.381  16.839  -5.033  1.00 20.00     0.112 C 
HETATM    3  C3  UNL     1     -35.597  16.291  -5.070  1.00 20.00     0.023 C 
HETATM    4  C4  UNL     1     -36.318  13.842  -5.101  1.00 20.00     0.136 C 
HETATM    5  C5  UNL     1     -33.884  14.437  -4.915  1.00 20.00     0.046 C 
HETATM    6  C6  UNL     1     -37.042  16.700  -5.247  1.00 20.00     0.056 C 
HETATM    7  C7  UNL     1     -37.747  14.299  -5.291  1.00 20.00     0.079 C 
HETATM    8  C8  UNL     1     -37.788  15.629  -6.025  1.00 20.00     0.013 C 
HETATM    9  C9  UNL     1     -35.317  14.871  -4.585  1.00 20.00     0.106 C 
HETATM   10  N10 UNL     1     -34.684  17.200  -5.239  1.00 20.00    -0.269 NA
HETATM   11  O11 UNL     1     -36.020  12.656  -5.246  1.00 20.00    -0.297 OA
ENDROOT
TORSDOF 0
ENDMDL
MODEL 9
REMARK VINA RESULT:      -4.3     12.005     13.126
REMARK  0 active torsions:
REMARK  status: ('A' for Active; 'I' for Inactive)
ROOT
HETATM    1  C1  UNL     1     -39.201  15.455  -4.827  1.00 20.00    -0.006 C 
HETATM    2  C2  UNL     1     -38.854  16.627  -4.287  1.00 20.00     0.112 C 
HETATM    3  C3  UNL     1     -36.607  16.221  -4.291  1.00 20.00     0.023 C 
HETATM    4  C4  UNL     1     -35.714  13.925  -4.963  1.00 20.00     0.136 C 
HETATM    5  C5  UNL     1     -38.176  14.409  -5.099  1.00 20.00     0.046 C 
HETATM    6  C6  UNL     1     -35.203  16.637  -3.915  1.00 20.00     0.056 C 
HETATM    7  C7  UNL     1     -34.329  14.381  -4.561  1.00 20.00     0.079 C 
HETATM    8  C8  UNL     1     -34.411  15.423  -3.457  1.00 20.00     0.013 C 
HETATM    9  C9  UNL     1     -36.767  15.004  -5.199  1.00 20.00     0.106 C 
HETATM   10  N10 UNL     1     -37.588  16.981  -3.907  1.00 20.00    -0.269 NA
HETATM   11  O11 UNL     1     -35.932  12.736  -5.201  1.00 20.00    -0.297 OA
ENDROOT
TORSDOF 0
ENDMDL
