MODEL 1
REMARK VINA RESULT:      -5.0      0.000      0.000
REMARK  3 active torsions:
REMARK  status: ('A' for Active; 'I' for Inactive)
REMARK    1  A    between atoms: C2_2  and  C7_7 
REMARK    2  A    between atoms: C5_5  and  C7_7 
REMARK    3  A    between atoms: C6_6  and  C7_7 
ROOT
HETATM    1  C7  UNL     1     -33.651   7.179   3.656  1.00 20.00     0.016 C 
ENDROOT
BRANCH   1   2
HETATM    2  C2  UNL     1     -32.261   7.370   3.040  1.00 20.00     0.149 A 
HETATM    3  C1  UNL     1     -31.933   8.587   2.220  1.00 20.00     0.200 A 
HETATM    4  O8  UNL     1     -31.512   8.460   3.589  1.00 20.00    -0.381 OA
ENDBRANCH   1   2
BRANCH   1   5
HETATM    5  C5  UNL     1     -33.608   7.278   5.195  1.00 20.00     0.002 C 
HETATM    6  C3  UNL     1     -34.380   6.176   5.905  1.00 20.00     0.005 C 
ENDBRANCH   1   5
BRANCH   1   7
HETATM    7  C6  UNL     1     -34.267   5.822   3.255  1.00 20.00     0.002 C 
HETATM    8  C4  UNL     1     -33.259   4.830   2.692  1.00 20.00     0.005 C 
ENDBRANCH   1   7
TORSDOF 3
ENDMDL
MODEL 2
REMARK VINA RESULT:      -4.3      0.949      2.414
REMARK  3 active torsions:
REMARK  status: ('A' for Active; 'I' for Inactive)
REMARK    1  A    between atoms: C2_2  and  C7_7 
REMARK    2  A    between atoms: C5_5  and  C7_7 
REMARK    3  A    between atoms: C6_6  and  C7_7 
ROOT
HETATM    1  C7  UNL     1     -33.122   6.870   3.868  1.00 20.00     0.016 C 
ENDROOT
BRANCH   1   2
HETATM    2  C2  UNL     1     -32.962   8.180   3.089  1.00 20.00     0.149 A 
HETATM    3  C1  UNL     1     -31.626   8.603   2.545  1.00 20.00     0.200 A 
HETATM    4  O8  UNL     1     -32.631   8.011   1.706  1.00 20.00    -0.381 OA
ENDBRANCH   1   2
BRANCH   1   5
HETATM    5  C5  UNL     1     -33.923   5.826   3.064  1.00 20.00     0.002 C 
HETATM    6  C3  UNL     1     -33.083   4.664   2.553  1.00 20.00     0.005 C 
ENDBRANCH   1   5
BRANCH   1   7
HETATM    7  C6  UNL     1     -33.817   7.102   5.227  1.00 20.00     0.002 C 
HETATM    8  C4  UNL     1     -34.513   5.866   5.781  1.00 20.00     0.005 C 
ENDBRANCH   1   7
TORSDOF 3
ENDMDL
MODEL 3
REMARK VINA RESULT:      -4.2      1.357      3.100
REMARK  3 active torsions:
REMARK  status: ('A' for Active; 'I' for Inactive)
REMARK    1  A    between atoms: C2_2  and  C7_7 
REMARK    2  A    between atoms: C5_5  and  C7_7 
REMARK    3  A    between atoms: C6_6  and  C7_7 
ROOT
HETATM    1  C7  UNL     1     -32.723   6.939   3.730  1.00 20.00     0.016 C 
ENDROOT
BRANCH   1   2
HETATM    2  C2  UNL     1     -33.838   7.319   4.709  1.00 20.00     0.149 A 
HETATM    3  C1  UNL     1     -34.272   6.378   5.798  1.00 20.00     0.200 A 
HETATM    4  O8  UNL     1     -33.406   7.494   6.063  1.00 20.00    -0.381 OA
ENDBRANCH   1   2
BRANCH   1   5
HETATM    5  C5  UNL     1     -31.920   8.175   3.275  1.00 20.00     0.002 C 
HETATM    6  C3  UNL     1     -32.028   8.467   1.785  1.00 20.00     0.005 C 
ENDBRANCH   1   5
BRANCH   1   7
HETATM    7  C6  UNL     1     -33.284   6.217   2.485  1.00 20.00     0.002 C 
HETATM    8  C4  UNL     1     -33.102   4.706   2.515  1.00 20.00     0.005 C 
ENDBRANCH   1   7
TORSDOF 3
ENDMDL
MODEL 4
REMARK VINA RESULT:      -4.2      1.629      3.366
REMARK  3 active torsions:
REMARK  status: ('A' for Active; 'I' for Inactive)
REMARK    1  A    between atoms: C2_2  and  C7_7 
REMARK    2  A    between atoms: C5_5  and  C7_7 
REMARK    3  A    between atoms: C6_6  and  C7_7 
ROOT
HETATM    1  C7  UNL     1     -33.443   7.233   3.520  1.00 20.00     0.016 C 
ENDROOT
BRANCH   1   2
HETATM    2  C2  UNL     1     -33.255   6.758   4.964  1.00 20.00     0.149 A 
HETATM    3  C1  UNL     1     -33.938   7.457   6.107  1.00 20.00     0.200 A 
HETATM    4  O8  UNL     1     -34.435   6.219   5.570  1.00 20.00    -0.381 OA
ENDBRANCH   1   2
BRANCH   1   5
HETATM    5  C5  UNL     1     -33.926   6.088   2.605  1.00 20.00     0.002 C 
HETATM    6  C3  UNL     1     -33.038   4.853   2.641  1.00 20.00     0.005 C 
ENDBRANCH   1   5
BRANCH   1   7
HETATM    7  C6  UNL     1     -32.137   7.821   2.943  1.00 20.00     0.002 C 
HETATM    8  C4  UNL     1     -32.341   8.664   1.692  1.00 20.00     0.005 C 
ENDBRANCH   1   7
TORSDOF 3
ENDMDL
MODEL 5
REMARK VINA RESULT:      -4.1      1.683      2.913
REMARK  3 active torsions:
REMARK  status: ('A' for Active; 'I' for Inactive)
REMARK    1  A    between atoms: C2_2  and  C7_7 
REMARK    2  A    between atoms: C5_5  and  C7_7 
REMARK    3  A    between atoms: C6_6  and  C7_7 
ROOT
HETATM    1  C7  UNL     1     -32.600   7.196   3.707  1.00 20.00     0.016 C 
ENDROOT
BRANCH   1   2
HETATM    2  C2  UNL     1     -33.222   6.315   2.619  1.00 20.00     0.149 A 
HETATM    3  C1  UNL     1     -33.185   4.815   2.716  1.00 20.00     0.200 A 
HETATM    4  O8  UNL     1     -34.366   5.566   3.043  1.00 20.00    -0.381 OA
ENDBRANCH   1   2
BRANCH   1   5
HETATM    5  C5  UNL     1     -33.677   7.820   4.617  1.00 20.00     0.002 C 
HETATM    6  C3  UNL     1     -33.761   7.183   5.998  1.00 20.00     0.005 C 
ENDBRANCH   1   5
BRANCH   1   7
HETATM    7  C6  UNL     1     -31.740   8.324   3.098  1.00 20.00     0.002 C 
HETATM    8  C4  UNL     1     -32.072   8.638   1.646  1.00 20.00     0.005 C 
ENDBRANCH   1   7
TORSDOF 3
ENDMDL
MODEL 6
REMARK VINA RESULT:      -3.8      1.827      2.942
REMARK  3 active torsions:
REMARK  status: ('A' for Active; 'I' for Inactive)
REMARK    1  A    between atoms: C2_2  and  C7_7 
REMARK    2  A    between atoms: C5_5  and  C7_7 
REMARK    3  A    between atoms: C6_6  and  C7_7 
ROOT
HETATM    1  C7  UNL     1     -34.071   6.718   3.895  1.00 20.00     0.016 C 
ENDROOT
BRANCH   1   2
HETATM    2  C2  UNL     1     -33.383   6.805   5.261  1.00 20.00     0.149 A 
HETATM    3  C1  UNL     1     -33.503   8.037   6.115  1.00 20.00     0.200 A 
HETATM    4  O8  UNL     1     -34.280   6.857   6.376  1.00 20.00    -0.381 OA
ENDBRANCH   1   2
BRANCH   1   5
HETATM    5  C5  UNL     1     -35.009   5.496   3.809  1.00 20.00     0.002 C 
HETATM    6  C3  UNL     1     -34.402   4.213   4.359  1.00 20.00     0.005 C 
ENDBRANCH   1   5
BRANCH   1   7
HETATM    7  C6  UNL     1     -33.042   6.645   2.747  1.00 20.00     0.002 C 
HETATM    8  C4  UNL     1     -32.230   7.920   2.564  1.00 20.00     0.005 C 
ENDBRANCH   1   7
TORSDOF 3
ENDMDL
MODEL 7
REMARK VINA RESULT:      -3.8      1.759      3.447
REMARK  3 active torsions:
REMARK  status: ('A' for Active; 'I' for Inactive)
REMARK    1  A    between atoms: C2_2  and  C7_7 
REMARK    2  A    between atoms: C5_5  and  C7_7 
REMARK    3  A    between atoms: C6_6  and  C7_7 
ROOT
HETATM    1  C7  UNL     1     -33.913   6.952   3.671  1.00 20.00     0.016 C 
ENDROOT
BRANCH   1   2
HETATM    2  C2  UNL     1     -34.064   5.669   2.846  1.00 20.00     0.149 A 
HETATM    3  C1  UNL     1     -32.917   4.713   2.678  1.00 20.00     0.200 A 
HETATM    4  O8  UNL     1     -33.983   4.460   3.608  1.00 20.00    -0.381 OA
ENDBRANCH   1   2
BRANCH   1   5
HETATM    5  C5  UNL     1     -32.505   7.562   3.518  1.00 20.00     0.002 C 
HETATM    6  C3  UNL     1     -32.302   8.328   2.218  1.00 20.00     0.005 C 
ENDBRANCH   1   5
BRANCH   1   7
HETATM    7  C6  UNL     1     -34.193   6.698   5.168  1.00 20.00     0.002 C 
HETATM    8  C4  UNL     1     -33.410   7.609   6.104  1.00 20.00     0.005 C 
ENDBRANCH   1   7
TORSDOF 3
ENDMDL
MODEL 8
REMARK VINA RESULT:      -3.7      1.393      3.280
REMARK  3 active torsions:
REMARK  status: ('A' for Active; 'I' for Inactive)
REMARK    1  A    between atoms: C2_2  and  C7_7 
REMARK    2  A    between atoms: C5_5  and  C7_7 
REMARK    3  A    between atoms: C6_6  and  C7_7 
ROOT
HETATM    1  C7  UNL     1     -33.459   7.339   3.880  1.00 20.00     0.016 C 
ENDROOT
BRANCH   1   2
HETATM    2  C2  UNL     1     -33.831   5.916   3.454  1.00 20.00     0.149 A 
HETATM    3  C1  UNL     1     -34.111   5.583   2.015  1.00 20.00     0.200 A 
HETATM    4  O8  UNL     1     -32.853   5.266   2.634  1.00 20.00    -0.381 OA
ENDBRANCH   1   2
BRANCH   1   5
HETATM    5  C5  UNL     1     -32.036   7.716   3.420  1.00 20.00     0.002 C 
HETATM    6  C3  UNL     1     -32.003   8.611   2.188  1.00 20.00     0.005 C 
ENDBRANCH   1   5
BRANCH   1   7
HETATM    7  C6  UNL     1     -33.556   7.515   5.411  1.00 20.00     0.002 C 
HETATM    8  C4  UNL     1     -34.312   6.396   6.114  1.00 20.00     0.005 C 
ENDBRANCH   1   7
TORSDOF 3
ENDMDL
MODEL 9
REMARK VINA RESULT:      -3.5     11.408     12.062
REMARK  3 active torsions:
REMARK  status: ('A' for Active; 'I' for Inactive)
REMARK    1  A    between atoms: C2_2  and  C7_7 
REMARK    2  A    between atoms: C5_5  and  C7_7 
REMARK    3  A    between atoms: C6_6  and  C7_7 
ROOT
HETATM    1  C7  UNL     1     -33.592  17.653  -0.877  1.00 20.00     0.016 C 
ENDROOT
BRANCH   1   2
HETATM    2  C2  UNL     1     -32.558  18.756  -0.629  1.00 20.00     0.149 A 
HETATM    3  C1  UNL     1     -31.819  18.850   0.676  1.00 20.00     0.200 A 
HETATM    4  O8  UNL     1     -31.211  18.289  -0.499  1.00 20.00    -0.381 OA
ENDBRANCH   1   2
BRANCH   1   5
HETATM    5  C5  UNL     1     -33.517  17.119  -2.322  1.00 20.00     0.002 C 
HETATM    6  C3  UNL     1     -34.713  16.271  -2.730  1.00 20.00     0.005 C 
ENDBRANCH   1   5
BRANCH   1   7
HETATM    7  C6  UNL     1     -35.027  18.149  -0.597  1.00 20.00     0.002 C 
HETATM    8  C4  UNL     1     -35.642  17.571   0.669  1.00 20.00     0.005 C 
ENDBRANCH   1   7
TORSDOF 3
ENDMDL
