MODEL 1
REMARK VINA RESULT:      -5.1      0.000      0.000
REMARK  3 active torsions:
REMARK  status: ('A' for Active; 'I' for Inactive)
REMARK    1  A    between atoms: C2_2  and  C6_6 
REMARK    2  A    between atoms: C6_6  and  C7_7 
REMARK    3  A    between atoms: C7_7  and  C8_8 
ROOT
HETATM    1  C6  UNL     1     -33.329   7.249   2.277  1.00 20.00     0.040 C 
ENDROOT
BRANCH   1   2
HETATM    2  C2  UNL     1     -32.244   8.315   2.300  1.00 20.00     0.079 A 
HETATM    3  C1  UNL     1     -32.395   9.551   1.446  1.00 20.00     0.206 A 
HETATM    4  O9  UNL     1     -31.549   8.460   1.054  1.00 20.00    -0.375 OA
HETATM    5  C3  UNL     1     -31.348   8.352   3.495  1.00 20.00     0.048 C 
ENDBRANCH   1   2
BRANCH   1   6
HETATM    6  C7  UNL     1     -33.132   6.229   3.401  1.00 20.00     0.007 C 
BRANCH   6   7
HETATM    7  C8  UNL     1     -34.303   6.182   4.400  1.00 20.00    -0.023 C 
HETATM    8  C4  UNL     1     -33.950   6.991   5.652  1.00 20.00     0.009 C 
HETATM    9  C5  UNL     1     -34.677   4.754   4.797  1.00 20.00     0.009 C 
ENDBRANCH   6   7
ENDBRANCH   1   6
TORSDOF 3
ENDMDL
MODEL 2
REMARK VINA RESULT:      -5.1      1.877      4.336
REMARK  3 active torsions:
REMARK  status: ('A' for Active; 'I' for Inactive)
REMARK    1  A    between atoms: C2_2  and  C6_6 
REMARK    2  A    between atoms: C6_6  and  C7_7 
REMARK    3  A    between atoms: C7_7  and  C8_8 
ROOT
HETATM    1  C6  UNL     1     -33.119   6.108   3.200  1.00 20.00     0.040 C 
ENDROOT
BRANCH   1   2
HETATM    2  C2  UNL     1     -34.066   5.987   4.385  1.00 20.00     0.079 A 
HETATM    3  C1  UNL     1     -34.714   4.657   4.687  1.00 20.00     0.206 A 
HETATM    4  O9  UNL     1     -35.424   5.709   4.014  1.00 20.00    -0.375 OA
HETATM    5  C3  UNL     1     -33.936   7.006   5.469  1.00 20.00     0.048 C 
ENDBRANCH   1   2
BRANCH   1   6
HETATM    6  C7  UNL     1     -33.374   7.395   2.412  1.00 20.00     0.007 C 
BRANCH   6   7
HETATM    7  C8  UNL     1     -32.090   8.185   2.094  1.00 20.00    -0.023 C 
HETATM    8  C4  UNL     1     -31.307   8.443   3.384  1.00 20.00     0.009 C 
HETATM    9  C5  UNL     1     -32.378   9.511   1.391  1.00 20.00     0.009 C 
ENDBRANCH   6   7
ENDBRANCH   1   6
TORSDOF 3
ENDMDL
MODEL 3
REMARK VINA RESULT:      -5.0      1.885      4.479
REMARK  3 active torsions:
REMARK  status: ('A' for Active; 'I' for Inactive)
REMARK    1  A    between atoms: C2_2  and  C6_6 
REMARK    2  A    between atoms: C6_6  and  C7_7 
REMARK    3  A    between atoms: C7_7  and  C8_8 
ROOT
HETATM    1  C6  UNL     1     -32.918   6.702   2.777  1.00 20.00     0.040 C 
ENDROOT
BRANCH   1   2
HETATM    2  C2  UNL     1     -33.813   6.383   3.966  1.00 20.00     0.079 A 
HETATM    3  C1  UNL     1     -34.375   4.990   4.122  1.00 20.00     0.206 A 
HETATM    4  O9  UNL     1     -35.165   6.072   3.605  1.00 20.00    -0.375 OA
HETATM    5  C3  UNL     1     -33.699   7.269   5.163  1.00 20.00     0.048 C 
ENDBRANCH   1   2
BRANCH   1   6
HETATM    6  C7  UNL     1     -32.507   8.176   2.769  1.00 20.00     0.007 C 
BRANCH   6   7
HETATM    7  C8  UNL     1     -32.588   8.829   1.377  1.00 20.00    -0.023 C 
HETATM    8  C4  UNL     1     -31.283   8.587   0.614  1.00 20.00     0.009 C 
HETATM    9  C5  UNL     1     -32.873  10.329   1.450  1.00 20.00     0.009 C 
ENDBRANCH   6   7
ENDBRANCH   1   6
TORSDOF 3
ENDMDL
MODEL 4
REMARK VINA RESULT:      -4.8      1.222      1.533
REMARK  3 active torsions:
REMARK  status: ('A' for Active; 'I' for Inactive)
REMARK    1  A    between atoms: C2_2  and  C6_6 
REMARK    2  A    between atoms: C6_6  and  C7_7 
REMARK    3  A    between atoms: C7_7  and  C8_8 
ROOT
HETATM    1  C6  UNL     1     -33.567   6.211   2.804  1.00 20.00     0.040 C 
ENDROOT
BRANCH   1   2
HETATM    2  C2  UNL     1     -32.815   7.494   3.124  1.00 20.00     0.079 A 
HETATM    3  C1  UNL     1     -32.602   8.523   2.039  1.00 20.00     0.206 A 
HETATM    4  O9  UNL     1     -31.562   7.617   2.437  1.00 20.00    -0.375 OA
HETATM    5  C3  UNL     1     -32.759   7.913   4.557  1.00 20.00     0.048 C 
ENDBRANCH   1   2
BRANCH   1   6
HETATM    6  C7  UNL     1     -34.856   6.101   3.621  1.00 20.00     0.007 C 
BRANCH   6   7
HETATM    7  C8  UNL     1     -34.902   4.862   4.533  1.00 20.00    -0.023 C 
HETATM    8  C4  UNL     1     -34.626   5.274   5.982  1.00 20.00     0.009 C 
HETATM    9  C5  UNL     1     -33.907   3.783   4.105  1.00 20.00     0.009 C 
ENDBRANCH   6   7
ENDBRANCH   1   6
TORSDOF 3
ENDMDL
MODEL 5
REMARK VINA RESULT:      -4.5      1.201      1.668
REMARK  3 active torsions:
REMARK  status: ('A' for Active; 'I' for Inactive)
REMARK    1  A    between atoms: C2_2  and  C6_6 
REMARK    2  A    between atoms: C6_6  and  C7_7 
REMARK    3  A    between atoms: C7_7  and  C8_8 
ROOT
HETATM    1  C6  UNL     1     -31.941   8.435   2.905  1.00 20.00     0.040 C 
ENDROOT
BRANCH   1   2
HETATM    2  C2  UNL     1     -32.081   9.085   1.536  1.00 20.00     0.079 A 
HETATM    3  C1  UNL     1     -32.575  10.508   1.434  1.00 20.00     0.206 A 
HETATM    4  O9  UNL     1     -33.436   9.388   1.176  1.00 20.00    -0.375 OA
HETATM    5  C3  UNL     1     -31.278   8.502   0.419  1.00 20.00     0.048 C 
ENDBRANCH   1   2
BRANCH   1   6
HETATM    6  C7  UNL     1     -32.685   7.099   2.967  1.00 20.00     0.007 C 
BRANCH   6   7
HETATM    7  C8  UNL     1     -33.929   7.130   3.874  1.00 20.00    -0.023 C 
HETATM    8  C4  UNL     1     -33.503   7.321   5.333  1.00 20.00     0.009 C 
HETATM    9  C5  UNL     1     -34.778   5.866   3.745  1.00 20.00     0.009 C 
ENDBRANCH   6   7
ENDBRANCH   1   6
TORSDOF 3
ENDMDL
MODEL 6
REMARK VINA RESULT:      -4.5      2.163      4.505
REMARK  3 active torsions:
REMARK  status: ('A' for Active; 'I' for Inactive)
REMARK    1  A    between atoms: C2_2  and  C6_6 
REMARK    2  A    between atoms: C6_6  and  C7_7 
REMARK    3  A    between atoms: C7_7  and  C8_8 
ROOT
HETATM    1  C6  UNL     1     -33.414   7.673   3.533  1.00 20.00     0.040 C 
ENDROOT
BRANCH   1   2
HETATM    2  C2  UNL     1     -33.845   6.214   3.519  1.00 20.00     0.079 A 
HETATM    3  C1  UNL     1     -35.272   5.856   3.854  1.00 20.00     0.206 A 
HETATM    4  O9  UNL     1     -34.211   5.707   4.810  1.00 20.00    -0.375 OA
HETATM    5  C3  UNL     1     -33.017   5.266   2.714  1.00 20.00     0.048 C 
ENDBRANCH   1   2
BRANCH   1   6
HETATM    6  C7  UNL     1     -32.175   7.897   2.663  1.00 20.00     0.007 C 
BRANCH   6   7
HETATM    7  C8  UNL     1     -32.463   8.698   1.379  1.00 20.00    -0.023 C 
HETATM    8  C4  UNL     1     -31.272   8.589   0.422  1.00 20.00     0.009 C 
HETATM    9  C5  UNL     1     -32.763  10.170   1.662  1.00 20.00     0.009 C 
ENDBRANCH   6   7
ENDBRANCH   1   6
TORSDOF 3
ENDMDL
MODEL 7
REMARK VINA RESULT:      -4.3      1.001      1.982
REMARK  3 active torsions:
REMARK  status: ('A' for Active; 'I' for Inactive)
REMARK    1  A    between atoms: C2_2  and  C6_6 
REMARK    2  A    between atoms: C6_6  and  C7_7 
REMARK    3  A    between atoms: C7_7  and  C8_8 
ROOT
HETATM    1  C6  UNL     1     -32.362   8.078   2.283  1.00 20.00     0.040 C 
ENDROOT
BRANCH   1   2
HETATM    2  C2  UNL     1     -32.462   9.192   1.252  1.00 20.00     0.079 A 
HETATM    3  C1  UNL     1     -32.714   8.846  -0.196  1.00 20.00     0.206 A 
HETATM    4  O9  UNL     1     -31.403   9.181   0.284  1.00 20.00    -0.375 OA
HETATM    5  C3  UNL     1     -32.804  10.557   1.753  1.00 20.00     0.048 C 
ENDBRANCH   1   2
BRANCH   1   6
HETATM    6  C7  UNL     1     -33.681   7.896   3.038  1.00 20.00     0.007 C 
BRANCH   6   7
HETATM    7  C8  UNL     1     -33.644   6.758   4.074  1.00 20.00    -0.023 C 
HETATM    8  C4  UNL     1     -34.848   5.833   3.871  1.00 20.00     0.009 C 
HETATM    9  C5  UNL     1     -33.630   7.276   5.512  1.00 20.00     0.009 C 
ENDBRANCH   6   7
ENDBRANCH   1   6
TORSDOF 3
ENDMDL
MODEL 8
REMARK VINA RESULT:      -4.0      1.150      2.045
REMARK  3 active torsions:
REMARK  status: ('A' for Active; 'I' for Inactive)
REMARK    1  A    between atoms: C2_2  and  C6_6 
REMARK    2  A    between atoms: C6_6  and  C7_7 
REMARK    3  A    between atoms: C7_7  and  C8_8 
ROOT
HETATM    1  C6  UNL     1     -32.931   6.530   2.693  1.00 20.00     0.040 C 
ENDROOT
BRANCH   1   2
HETATM    2  C2  UNL     1     -32.259   7.889   2.567  1.00 20.00     0.079 A 
HETATM    3  C1  UNL     1     -30.932   8.130   3.248  1.00 20.00     0.206 A 
HETATM    4  O9  UNL     1     -32.167   8.606   3.806  1.00 20.00    -0.375 OA
HETATM    5  C3  UNL     1     -32.656   8.743   1.407  1.00 20.00     0.048 C 
ENDBRANCH   1   2
BRANCH   1   6
HETATM    6  C7  UNL     1     -34.147   6.594   3.620  1.00 20.00     0.007 C 
BRANCH   6   7
HETATM    7  C8  UNL     1     -33.868   6.060   5.037  1.00 20.00    -0.023 C 
HETATM    8  C4  UNL     1     -34.810   4.893   5.346  1.00 20.00     0.009 C 
HETATM    9  C5  UNL     1     -34.017   7.141   6.108  1.00 20.00     0.009 C 
ENDBRANCH   6   7
ENDBRANCH   1   6
TORSDOF 3
ENDMDL
MODEL 9
REMARK VINA RESULT:      -3.9     10.618     11.196
REMARK  3 active torsions:
REMARK  status: ('A' for Active; 'I' for Inactive)
REMARK    1  A    between atoms: C2_2  and  C6_6 
REMARK    2  A    between atoms: C6_6  and  C7_7 
REMARK    3  A    between atoms: C7_7  and  C8_8 
ROOT
HETATM    1  C6  UNL     1     -35.026  15.656  -3.611  1.00 20.00     0.040 C 
ENDROOT
BRANCH   1   2
HETATM    2  C2  UNL     1     -34.372  14.592  -4.481  1.00 20.00     0.079 A 
HETATM    3  C1  UNL     1     -35.095  14.085  -5.706  1.00 20.00     0.206 A 
HETATM    4  O9  UNL     1     -35.067  13.337  -4.480  1.00 20.00    -0.375 OA
HETATM    5  C3  UNL     1     -32.887  14.456  -4.393  1.00 20.00     0.048 C 
ENDBRANCH   1   2
BRANCH   1   6
HETATM    6  C7  UNL     1     -34.039  16.771  -3.259  1.00 20.00     0.007 C 
BRANCH   6   7
HETATM    7  C8  UNL     1     -33.859  16.976  -1.743  1.00 20.00    -0.023 C 
HETATM    8  C4  UNL     1     -35.228  17.144  -1.077  1.00 20.00     0.009 C 
HETATM    9  C5  UNL     1     -32.974  18.179  -1.416  1.00 20.00     0.009 C 
ENDBRANCH   6   7
ENDBRANCH   1   6
TORSDOF 3
ENDMDL
