MODEL 1
REMARK VINA RESULT:      -4.3      0.000      0.000
REMARK  1 active torsions:
REMARK  status: ('A' for Active; 'I' for Inactive)
REMARK    1  A    between atoms: C4_4  and  C5_5 
ROOT
HETATM    1  C1  UNL     1     -34.391   6.039   5.185  1.00 20.00     0.007 A 
HETATM    2  C2  UNL     1     -33.739   7.231   5.828  1.00 20.00     0.007 A 
HETATM    3  C4  UNL     1     -33.932   7.193   4.338  1.00 20.00     0.017 A 
ENDROOT
BRANCH   3   4
HETATM    4  C5  UNL     1     -32.770   7.084   3.363  1.00 20.00     0.149 A 
HETATM    5  C3  UNL     1     -32.487   8.098   2.295  1.00 20.00     0.200 A 
HETATM    6  O6  UNL     1     -31.748   8.068   3.525  1.00 20.00    -0.381 OA
ENDBRANCH   3   4
TORSDOF 1
ENDMDL
MODEL 2
REMARK VINA RESULT:      -3.8      1.323      3.083
REMARK  1 active torsions:
REMARK  status: ('A' for Active; 'I' for Inactive)
REMARK    1  A    between atoms: C4_4  and  C5_5 
ROOT
HETATM    1  C1  UNL     1     -32.523   8.113   2.177  1.00 20.00     0.007 A 
HETATM    2  C2  UNL     1     -31.613   8.161   3.372  1.00 20.00     0.007 A 
HETATM    3  C4  UNL     1     -32.731   7.158   3.319  1.00 20.00     0.017 A 
ENDROOT
BRANCH   3   4
HETATM    4  C5  UNL     1     -33.940   7.230   4.238  1.00 20.00     0.149 A 
HETATM    5  C3  UNL     1     -34.303   6.150   5.215  1.00 20.00     0.200 A 
HETATM    6  O6  UNL     1     -33.639   7.354   5.629  1.00 20.00    -0.381 OA
ENDBRANCH   3   4
TORSDOF 1
ENDMDL
MODEL 3
REMARK VINA RESULT:      -3.8      2.089      4.029
REMARK  1 active torsions:
REMARK  status: ('A' for Active; 'I' for Inactive)
REMARK    1  A    between atoms: C4_4  and  C5_5 
ROOT
HETATM    1  C1  UNL     1     -32.870   9.280  -0.042  1.00 20.00     0.007 A 
HETATM    2  C2  UNL     1     -32.445  10.425   0.834  1.00 20.00     0.007 A 
HETATM    3  C4  UNL     1     -32.112   9.013   1.228  1.00 20.00     0.017 A 
ENDROOT
BRANCH   3   4
HETATM    4  C5  UNL     1     -32.741   8.327   2.430  1.00 20.00     0.149 A 
HETATM    5  C3  UNL     1     -32.536   6.878   2.759  1.00 20.00     0.200 A 
HETATM    6  O6  UNL     1     -31.823   7.918   3.446  1.00 20.00    -0.381 OA
ENDBRANCH   3   4
TORSDOF 1
ENDMDL
MODEL 4
REMARK VINA RESULT:      -3.6      1.979      3.292
REMARK  1 active torsions:
REMARK  status: ('A' for Active; 'I' for Inactive)
REMARK    1  A    between atoms: C4_4  and  C5_5 
ROOT
HETATM    1  C1  UNL     1     -31.903   7.851   3.529  1.00 20.00     0.007 A 
HETATM    2  C2  UNL     1     -32.588   7.894   2.192  1.00 20.00     0.007 A 
HETATM    3  C4  UNL     1     -33.358   7.491   3.417  1.00 20.00     0.017 A 
ENDROOT
BRANCH   3   4
HETATM    4  C5  UNL     1     -33.872   6.076   3.634  1.00 20.00     0.149 A 
HETATM    5  C3  UNL     1     -34.617   5.645   4.862  1.00 20.00     0.200 A 
HETATM    6  O6  UNL     1     -35.294   5.940   3.631  1.00 20.00    -0.381 OA
ENDBRANCH   3   4
TORSDOF 1
ENDMDL
MODEL 5
REMARK VINA RESULT:      -3.6      2.657      3.265
REMARK  1 active torsions:
REMARK  status: ('A' for Active; 'I' for Inactive)
REMARK    1  A    between atoms: C4_4  and  C5_5 
ROOT
HETATM    1  C1  UNL     1     -32.529   7.166   2.692  1.00 20.00     0.007 A 
HETATM    2  C2  UNL     1     -31.640   8.175   3.363  1.00 20.00     0.007 A 
HETATM    3  C4  UNL     1     -32.575   8.607   2.268  1.00 20.00     0.017 A 
ENDROOT
BRANCH   3   4
HETATM    4  C5  UNL     1     -32.083   9.077   0.908  1.00 20.00     0.149 A 
HETATM    5  C3  UNL     1     -32.998   9.420  -0.230  1.00 20.00     0.200 A 
HETATM    6  O6  UNL     1     -32.393  10.434   0.587  1.00 20.00    -0.381 OA
ENDBRANCH   3   4
TORSDOF 1
ENDMDL
MODEL 6
REMARK VINA RESULT:      -3.6      2.109      3.456
REMARK  1 active torsions:
REMARK  status: ('A' for Active; 'I' for Inactive)
REMARK    1  A    between atoms: C4_4  and  C5_5 
ROOT
HETATM    1  C1  UNL     1     -32.954   6.648   2.936  1.00 20.00     0.007 A 
HETATM    2  C2  UNL     1     -33.027   5.161   2.731  1.00 20.00     0.007 A 
HETATM    3  C4  UNL     1     -34.270   5.934   3.071  1.00 20.00     0.017 A 
ENDROOT
BRANCH   3   4
HETATM    4  C5  UNL     1     -34.989   5.786   4.402  1.00 20.00     0.149 A 
HETATM    5  C3  UNL     1     -34.557   4.832   5.476  1.00 20.00     0.200 A 
HETATM    6  O6  UNL     1     -34.255   6.234   5.543  1.00 20.00    -0.381 OA
ENDBRANCH   3   4
TORSDOF 1
ENDMDL
MODEL 7
REMARK VINA RESULT:      -3.5      1.708      2.572
REMARK  1 active torsions:
REMARK  status: ('A' for Active; 'I' for Inactive)
REMARK    1  A    between atoms: C4_4  and  C5_5 
ROOT
HETATM    1  C1  UNL     1     -33.657   4.842   3.257  1.00 20.00     0.007 A 
HETATM    2  C2  UNL     1     -34.448   4.474   4.480  1.00 20.00     0.007 A 
HETATM    3  C4  UNL     1     -34.690   5.791   3.797  1.00 20.00     0.017 A 
ENDROOT
BRANCH   3   4
HETATM    4  C5  UNL     1     -34.327   7.124   4.434  1.00 20.00     0.149 A 
HETATM    5  C3  UNL     1     -33.729   7.252   5.803  1.00 20.00     0.200 A 
HETATM    6  O6  UNL     1     -32.928   7.348   4.616  1.00 20.00    -0.381 OA
ENDBRANCH   3   4
TORSDOF 1
ENDMDL
MODEL 8
REMARK VINA RESULT:      -3.4      2.292      3.173
REMARK  1 active torsions:
REMARK  status: ('A' for Active; 'I' for Inactive)
REMARK    1  A    between atoms: C4_4  and  C5_5 
ROOT
HETATM    1  C1  UNL     1     -33.658   7.424   5.602  1.00 20.00     0.007 A 
HETATM    2  C2  UNL     1     -33.049   7.213   4.244  1.00 20.00     0.007 A 
HETATM    3  C4  UNL     1     -34.496   6.880   4.479  1.00 20.00     0.017 A 
ENDROOT
BRANCH   3   4
HETATM    4  C5  UNL     1     -35.022   5.454   4.464  1.00 20.00     0.149 A 
HETATM    5  C3  UNL     1     -34.151   4.251   4.249  1.00 20.00     0.200 A 
HETATM    6  O6  UNL     1     -34.597   4.639   5.558  1.00 20.00    -0.381 OA
ENDBRANCH   3   4
TORSDOF 1
ENDMDL
MODEL 9
REMARK VINA RESULT:      -3.4      1.740      2.457
REMARK  1 active torsions:
REMARK  status: ('A' for Active; 'I' for Inactive)
REMARK    1  A    between atoms: C4_4  and  C5_5 
ROOT
HETATM    1  C1  UNL     1     -33.627   7.263   3.722  1.00 20.00     0.007 A 
HETATM    2  C2  UNL     1     -32.973   6.188   2.901  1.00 20.00     0.007 A 
HETATM    3  C4  UNL     1     -32.512   7.613   2.776  1.00 20.00     0.017 A 
ENDROOT
BRANCH   3   4
HETATM    4  C5  UNL     1     -32.733   8.439   1.518  1.00 20.00     0.149 A 
HETATM    5  C3  UNL     1     -32.347   9.883   1.397  1.00 20.00     0.200 A 
HETATM    6  O6  UNL     1     -31.543   8.835   0.835  1.00 20.00    -0.381 OA
ENDBRANCH   3   4
TORSDOF 1
ENDMDL
