MODEL 1
REMARK VINA RESULT:      -4.9      0.000      0.000
REMARK  3 active torsions:
REMARK  status: ('A' for Active; 'I' for Inactive)
REMARK    1  A    between atoms: C3_3  and  C4_4 
REMARK    2  A    between atoms: C4_4  and  C6_6 
REMARK    3  A    between atoms: C5_5  and  C6_6 
ROOT
HETATM    1  C2  UNL     1     -34.076   3.976   4.240  1.00 20.00     0.011 C 
HETATM    2  C6  UNL     1     -34.823   5.281   4.542  1.00 20.00    -0.005 C 
ENDROOT
BRANCH   2   3
HETATM    3  C4  UNL     1     -34.533   6.316   3.436  1.00 20.00     0.005 C 
BRANCH   3   4
HETATM    4  C3  UNL     1     -33.154   6.154   2.792  1.00 20.00    -0.004 C 
HETATM    5  C1  UNL     1     -32.414   7.482   2.726  1.00 20.00     0.005 C 
ENDBRANCH   3   4
ENDBRANCH   2   3
BRANCH   2   6
HETATM    6  C5  UNL     1     -34.534   5.771   5.970  1.00 20.00     0.119 C 
HETATM    7 CL7  UNL     1     -33.797   7.390   6.033  1.00 20.00    -0.130 Cl
ENDBRANCH   2   6
TORSDOF 3
ENDMDL
MODEL 2
REMARK VINA RESULT:      -4.7      1.705      2.999
REMARK  3 active torsions:
REMARK  status: ('A' for Active; 'I' for Inactive)
REMARK    1  A    between atoms: C3_3  and  C4_4 
REMARK    2  A    between atoms: C4_4  and  C6_6 
REMARK    3  A    between atoms: C5_5  and  C6_6 
ROOT
HETATM    1  C2  UNL     1     -33.038   4.765   2.449  1.00 20.00     0.011 C 
HETATM    2  C6  UNL     1     -33.257   6.018   3.304  1.00 20.00    -0.005 C 
ENDROOT
BRANCH   2   3
HETATM    3  C4  UNL     1     -34.660   5.972   3.946  1.00 20.00     0.005 C 
BRANCH   3   4
HETATM    4  C3  UNL     1     -34.634   5.946   5.475  1.00 20.00    -0.004 C 
HETATM    5  C1  UNL     1     -33.859   7.130   6.036  1.00 20.00     0.005 C 
ENDBRANCH   3   4
ENDBRANCH   2   3
BRANCH   2   6
HETATM    6  C5  UNL     1     -32.958   7.298   2.507  1.00 20.00     0.119 C 
HETATM    7 CL7  UNL     1     -31.609   8.252   3.170  1.00 20.00    -0.130 Cl
ENDBRANCH   2   6
TORSDOF 3
ENDMDL
MODEL 3
REMARK VINA RESULT:      -4.6      1.122      1.657
REMARK  3 active torsions:
REMARK  status: ('A' for Active; 'I' for Inactive)
REMARK    1  A    between atoms: C3_3  and  C4_4 
REMARK    2  A    between atoms: C4_4  and  C6_6 
REMARK    3  A    between atoms: C5_5  and  C6_6 
ROOT
HETATM    1  C2  UNL     1     -33.057   5.039   2.632  1.00 20.00     0.011 C 
HETATM    2  C6  UNL     1     -34.146   5.933   3.236  1.00 20.00    -0.005 C 
ENDROOT
BRANCH   2   3
HETATM    3  C4  UNL     1     -33.570   7.337   3.518  1.00 20.00     0.005 C 
BRANCH   3   4
HETATM    4  C3  UNL     1     -32.161   7.544   2.960  1.00 20.00    -0.004 C 
HETATM    5  C1  UNL     1     -32.147   8.606   1.871  1.00 20.00     0.005 C 
ENDBRANCH   3   4
ENDBRANCH   2   3
BRANCH   2   6
HETATM    6  C5  UNL     1     -34.815   5.260   4.446  1.00 20.00     0.119 C 
HETATM    7 CL7  UNL     1     -34.441   6.048   5.997  1.00 20.00    -0.130 Cl
ENDBRANCH   2   6
TORSDOF 3
ENDMDL
MODEL 4
REMARK VINA RESULT:      -4.6      1.921      3.357
REMARK  3 active torsions:
REMARK  status: ('A' for Active; 'I' for Inactive)
REMARK    1  A    between atoms: C3_3  and  C4_4 
REMARK    2  A    between atoms: C4_4  and  C6_6 
REMARK    3  A    between atoms: C5_5  and  C6_6 
ROOT
HETATM    1  C2  UNL     1     -33.587   7.362   5.622  1.00 20.00     0.011 C 
HETATM    2  C6  UNL     1     -33.823   7.330   4.108  1.00 20.00    -0.005 C 
ENDROOT
BRANCH   2   3
HETATM    3  C4  UNL     1     -34.777   6.171   3.753  1.00 20.00     0.005 C 
BRANCH   3   4
HETATM    4  C3  UNL     1     -34.816   5.065   4.810  1.00 20.00    -0.004 C 
HETATM    5  C1  UNL     1     -34.046   3.835   4.353  1.00 20.00     0.005 C 
ENDBRANCH   3   4
ENDBRANCH   2   3
BRANCH   2   6
HETATM    6  C5  UNL     1     -32.493   7.324   3.335  1.00 20.00     0.119 C 
HETATM    7 CL7  UNL     1     -32.471   8.435   1.945  1.00 20.00    -0.130 Cl
ENDBRANCH   2   6
TORSDOF 3
ENDMDL
MODEL 5
REMARK VINA RESULT:      -4.6      1.729      2.487
REMARK  3 active torsions:
REMARK  status: ('A' for Active; 'I' for Inactive)
REMARK    1  A    between atoms: C3_3  and  C4_4 
REMARK    2  A    between atoms: C4_4  and  C6_6 
REMARK    3  A    between atoms: C5_5  and  C6_6 
ROOT
HETATM    1  C2  UNL     1     -33.384   5.854   2.856  1.00 20.00     0.011 C 
HETATM    2  C6  UNL     1     -33.370   7.242   3.507  1.00 20.00    -0.005 C 
ENDROOT
BRANCH   2   3
HETATM    3  C4  UNL     1     -32.037   7.952   3.192  1.00 20.00     0.005 C 
BRANCH   3   4
HETATM    4  C3  UNL     1     -31.869   8.311   1.714  1.00 20.00    -0.004 C 
HETATM    5  C1  UNL     1     -32.518   9.648   1.391  1.00 20.00     0.005 C 
ENDBRANCH   3   4
ENDBRANCH   2   3
BRANCH   2   6
HETATM    6  C5  UNL     1     -33.714   7.161   5.004  1.00 20.00     0.119 C 
HETATM    7 CL7  UNL     1     -34.545   5.655   5.463  1.00 20.00    -0.130 Cl
ENDBRANCH   2   6
TORSDOF 3
ENDMDL
MODEL 6
REMARK VINA RESULT:      -4.5      1.911      2.537
REMARK  3 active torsions:
REMARK  status: ('A' for Active; 'I' for Inactive)
REMARK    1  A    between atoms: C3_3  and  C4_4 
REMARK    2  A    between atoms: C4_4  and  C6_6 
REMARK    3  A    between atoms: C5_5  and  C6_6 
ROOT
HETATM    1  C2  UNL     1     -33.724   7.365   5.860  1.00 20.00     0.011 C 
HETATM    2  C6  UNL     1     -33.652   6.639   4.511  1.00 20.00    -0.005 C 
ENDROOT
BRANCH   2   3
HETATM    3  C4  UNL     1     -33.493   7.669   3.373  1.00 20.00     0.005 C 
BRANCH   3   4
HETATM    4  C3  UNL     1     -32.035   7.963   3.013  1.00 20.00    -0.004 C 
HETATM    5  C1  UNL     1     -31.924   8.618   1.644  1.00 20.00     0.005 C 
ENDBRANCH   3   4
ENDBRANCH   2   3
BRANCH   2   6
HETATM    6  C5  UNL     1     -34.832   5.668   4.336  1.00 20.00     0.119 C 
HETATM    7 CL7  UNL     1     -34.367   3.954   4.454  1.00 20.00    -0.130 Cl
ENDBRANCH   2   6
TORSDOF 3
ENDMDL
MODEL 7
REMARK VINA RESULT:      -4.3      2.379      4.145
REMARK  3 active torsions:
REMARK  status: ('A' for Active; 'I' for Inactive)
REMARK    1  A    between atoms: C3_3  and  C4_4 
REMARK    2  A    between atoms: C4_4  and  C6_6 
REMARK    3  A    between atoms: C5_5  and  C6_6 
ROOT
HETATM    1  C2  UNL     1     -31.503   8.209   3.706  1.00 20.00     0.011 C 
HETATM    2  C6  UNL     1     -32.691   7.935   2.776  1.00 20.00    -0.005 C 
ENDROOT
BRANCH   2   3
HETATM    3  C4  UNL     1     -33.049   6.435   2.816  1.00 20.00     0.005 C 
BRANCH   3   4
HETATM    4  C3  UNL     1     -34.444   6.153   3.380  1.00 20.00    -0.004 C 
HETATM    5  C1  UNL     1     -34.415   6.034   4.896  1.00 20.00     0.005 C 
ENDBRANCH   3   4
ENDBRANCH   2   3
BRANCH   2   6
HETATM    6  C5  UNL     1     -32.439   8.496   1.367  1.00 20.00     0.119 C 
HETATM    7 CL7  UNL     1     -32.733  10.246   1.233  1.00 20.00    -0.130 Cl
ENDBRANCH   2   6
TORSDOF 3
ENDMDL
MODEL 8
REMARK VINA RESULT:      -4.3      2.189      3.635
REMARK  3 active torsions:
REMARK  status: ('A' for Active; 'I' for Inactive)
REMARK    1  A    between atoms: C3_3  and  C4_4 
REMARK    2  A    between atoms: C4_4  and  C6_6 
REMARK    3  A    between atoms: C5_5  and  C6_6 
ROOT
HETATM    1  C2  UNL     1     -33.491   6.250   2.343  1.00 20.00     0.011 C 
HETATM    2  C6  UNL     1     -32.883   6.918   3.582  1.00 20.00    -0.005 C 
ENDROOT
BRANCH   2   3
HETATM    3  C4  UNL     1     -34.010   7.393   4.523  1.00 20.00     0.005 C 
BRANCH   3   4
HETATM    4  C3  UNL     1     -34.082   6.610   5.836  1.00 20.00    -0.004 C 
HETATM    5  C1  UNL     1     -34.632   5.209   5.616  1.00 20.00     0.005 C 
ENDBRANCH   3   4
ENDBRANCH   2   3
BRANCH   2   6
HETATM    6  C5  UNL     1     -31.873   8.009   3.190  1.00 20.00     0.119 C 
HETATM    7 CL7  UNL     1     -32.072   8.598   1.522  1.00 20.00    -0.130 Cl
ENDBRANCH   2   6
TORSDOF 3
ENDMDL
MODEL 9
REMARK VINA RESULT:      -4.3      1.100      3.035
REMARK  3 active torsions:
REMARK  status: ('A' for Active; 'I' for Inactive)
REMARK    1  A    between atoms: C3_3  and  C4_4 
REMARK    2  A    between atoms: C4_4  and  C6_6 
REMARK    3  A    between atoms: C5_5  and  C6_6 
ROOT
HETATM    1  C2  UNL     1     -32.400   8.111   2.125  1.00 20.00     0.011 C 
HETATM    2  C6  UNL     1     -32.620   7.185   3.327  1.00 20.00    -0.005 C 
ENDROOT
BRANCH   2   3
HETATM    3  C4  UNL     1     -33.868   6.309   3.089  1.00 20.00     0.005 C 
BRANCH   3   4
HETATM    4  C3  UNL     1     -33.589   4.808   3.180  1.00 20.00    -0.004 C 
HETATM    5  C1  UNL     1     -34.302   4.183   4.371  1.00 20.00     0.005 C 
ENDBRANCH   3   4
ENDBRANCH   2   3
BRANCH   2   6
HETATM    6  C5  UNL     1     -32.633   7.975   4.645  1.00 20.00     0.119 C 
HETATM    7 CL7  UNL     1     -33.716   7.285   5.879  1.00 20.00    -0.130 Cl
ENDBRANCH   2   6
TORSDOF 3
ENDMDL
