MODEL 1
REMARK VINA RESULT:      -4.9      0.000      0.000
REMARK  1 active torsions:
REMARK  status: ('A' for Active; 'I' for Inactive)
REMARK    1  A    between atoms: C1_1  and  C2_2 
ROOT
HETATM    1  C1  UNL     1     -33.313   5.839   2.937  1.00 20.00     0.437 C 
HETATM    2  F3  UNL     1     -32.345   6.758   3.150  1.00 20.00    -0.166 F 
HETATM    3  F4  UNL     1     -33.966   6.196   1.807  1.00 20.00    -0.166 F 
HETATM    4  F5  UNL     1     -32.702   4.658   2.693  1.00 20.00    -0.166 F 
ENDROOT
BRANCH   1   5
HETATM    5  C2  UNL     1     -34.261   5.744   4.121  1.00 20.00     0.286 C 
HETATM    6 CL6  UNL     1     -34.210   4.096   4.811  1.00 20.00    -0.074 Cl
HETATM    7 CL7  UNL     1     -33.785   6.917   5.381  1.00 20.00    -0.074 Cl
HETATM    8 CL8  UNL     1     -35.930   6.102   3.595  1.00 20.00    -0.074 Cl
ENDBRANCH   1   5
TORSDOF 1
ENDMDL
MODEL 2
REMARK VINA RESULT:      -4.9      0.002      1.781
REMARK  1 active torsions:
REMARK  status: ('A' for Active; 'I' for Inactive)
REMARK    1  A    between atoms: C1_1  and  C2_2 
ROOT
HETATM    1  C1  UNL     1     -33.313   5.840   2.938  1.00 20.00     0.437 C 
HETATM    2  F3  UNL     1     -32.344   6.758   3.153  1.00 20.00    -0.166 F 
HETATM    3  F4  UNL     1     -33.964   6.199   1.808  1.00 20.00    -0.166 F 
HETATM    4  F5  UNL     1     -32.703   4.659   2.693  1.00 20.00    -0.166 F 
ENDROOT
BRANCH   1   5
HETATM    5  C2  UNL     1     -34.262   5.744   4.121  1.00 20.00     0.286 C 
HETATM    6 CL6  UNL     1     -35.931   6.102   3.594  1.00 20.00    -0.074 Cl
HETATM    7 CL7  UNL     1     -34.211   4.097   4.812  1.00 20.00    -0.074 Cl
HETATM    8 CL8  UNL     1     -33.785   6.917   5.380  1.00 20.00    -0.074 Cl
ENDBRANCH   1   5
TORSDOF 1
ENDMDL
MODEL 3
REMARK VINA RESULT:      -4.9      0.016      1.779
REMARK  1 active torsions:
REMARK  status: ('A' for Active; 'I' for Inactive)
REMARK    1  A    between atoms: C1_1  and  C2_2 
ROOT
HETATM    1  C1  UNL     1     -33.309   5.842   2.928  1.00 20.00     0.437 C 
HETATM    2  F3  UNL     1     -32.349   6.770   3.138  1.00 20.00    -0.166 F 
HETATM    3  F4  UNL     1     -33.967   6.193   1.799  1.00 20.00    -0.166 F 
HETATM    4  F5  UNL     1     -32.687   4.666   2.683  1.00 20.00    -0.166 F 
ENDROOT
BRANCH   1   5
HETATM    5  C2  UNL     1     -34.254   5.738   4.113  1.00 20.00     0.286 C 
HETATM    6 CL6  UNL     1     -33.772   6.902   5.381  1.00 20.00    -0.074 Cl
HETATM    7 CL7  UNL     1     -35.925   6.101   3.596  1.00 20.00    -0.074 Cl
HETATM    8 CL8  UNL     1     -34.200   4.086   4.791  1.00 20.00    -0.074 Cl
ENDBRANCH   1   5
TORSDOF 1
ENDMDL
MODEL 4
REMARK VINA RESULT:      -4.6      1.657      2.522
REMARK  1 active torsions:
REMARK  status: ('A' for Active; 'I' for Inactive)
REMARK    1  A    between atoms: C1_1  and  C2_2 
ROOT
HETATM    1  C1  UNL     1     -33.462   7.094   4.259  1.00 20.00     0.437 C 
HETATM    2  F3  UNL     1     -34.188   8.127   3.775  1.00 20.00    -0.166 F 
HETATM    3  F4  UNL     1     -32.281   7.088   3.599  1.00 20.00    -0.166 F 
HETATM    4  F5  UNL     1     -33.196   7.360   5.558  1.00 20.00    -0.166 F 
ENDROOT
BRANCH   1   5
HETATM    5  C2  UNL     1     -34.196   5.773   4.099  1.00 20.00     0.286 C 
HETATM    6 CL6  UNL     1     -34.315   4.947   5.679  1.00 20.00    -0.074 Cl
HETATM    7 CL7  UNL     1     -35.842   6.062   3.468  1.00 20.00    -0.074 Cl
HETATM    8 CL8  UNL     1     -33.312   4.720   2.958  1.00 20.00    -0.074 Cl
ENDBRANCH   1   5
TORSDOF 1
ENDMDL
MODEL 5
REMARK VINA RESULT:      -4.6      1.668      2.263
REMARK  1 active torsions:
REMARK  status: ('A' for Active; 'I' for Inactive)
REMARK    1  A    between atoms: C1_1  and  C2_2 
ROOT
HETATM    1  C1  UNL     1     -33.472   7.103   4.262  1.00 20.00     0.437 C 
HETATM    2  F3  UNL     1     -34.188   8.127   3.746  1.00 20.00    -0.166 F 
HETATM    3  F4  UNL     1     -32.274   7.093   3.635  1.00 20.00    -0.166 F 
HETATM    4  F5  UNL     1     -33.242   7.386   5.565  1.00 20.00    -0.166 F 
ENDROOT
BRANCH   1   5
HETATM    5  C2  UNL     1     -34.197   5.777   4.099  1.00 20.00     0.286 C 
HETATM    6 CL6  UNL     1     -33.308   4.734   2.952  1.00 20.00    -0.074 Cl
HETATM    7 CL7  UNL     1     -34.308   4.944   5.675  1.00 20.00    -0.074 Cl
HETATM    8 CL8  UNL     1     -35.846   6.058   3.472  1.00 20.00    -0.074 Cl
ENDBRANCH   1   5
TORSDOF 1
ENDMDL
MODEL 6
REMARK VINA RESULT:      -4.6      1.666      2.726
REMARK  1 active torsions:
REMARK  status: ('A' for Active; 'I' for Inactive)
REMARK    1  A    between atoms: C1_1  and  C2_2 
ROOT
HETATM    1  C1  UNL     1     -33.472   7.099   4.262  1.00 20.00     0.437 C 
HETATM    2  F3  UNL     1     -34.190   8.125   3.753  1.00 20.00    -0.166 F 
HETATM    3  F4  UNL     1     -32.277   7.091   3.629  1.00 20.00    -0.166 F 
HETATM    4  F5  UNL     1     -33.235   7.380   5.564  1.00 20.00    -0.166 F 
ENDROOT
BRANCH   1   5
HETATM    5  C2  UNL     1     -34.198   5.775   4.099  1.00 20.00     0.286 C 
HETATM    6 CL6  UNL     1     -35.847   6.057   3.472  1.00 20.00    -0.074 Cl
HETATM    7 CL7  UNL     1     -33.312   4.729   2.954  1.00 20.00    -0.074 Cl
HETATM    8 CL8  UNL     1     -34.311   4.945   5.677  1.00 20.00    -0.074 Cl
ENDBRANCH   1   5
TORSDOF 1
ENDMDL
MODEL 7
REMARK VINA RESULT:      -4.3      2.300      3.027
REMARK  1 active torsions:
REMARK  status: ('A' for Active; 'I' for Inactive)
REMARK    1  A    between atoms: C1_1  and  C2_2 
ROOT
HETATM    1  C1  UNL     1     -34.621   5.603   4.291  1.00 20.00     0.437 C 
HETATM    2  F3  UNL     1     -35.926   5.805   3.998  1.00 20.00    -0.166 F 
HETATM    3  F4  UNL     1     -34.319   6.394   5.346  1.00 20.00    -0.166 F 
HETATM    4  F5  UNL     1     -34.493   4.320   4.699  1.00 20.00    -0.166 F 
ENDROOT
BRANCH   1   5
HETATM    5  C2  UNL     1     -33.729   5.902   3.098  1.00 20.00     0.286 C 
HETATM    6 CL6  UNL     1     -32.751   4.463   2.693  1.00 20.00    -0.074 Cl
HETATM    7 CL7  UNL     1     -34.728   6.342   1.683  1.00 20.00    -0.074 Cl
HETATM    8 CL8  UNL     1     -32.635   7.260   3.481  1.00 20.00    -0.074 Cl
ENDBRANCH   1   5
TORSDOF 1
ENDMDL
MODEL 8
REMARK VINA RESULT:      -4.3      2.300      3.022
REMARK  1 active torsions:
REMARK  status: ('A' for Active; 'I' for Inactive)
REMARK    1  A    between atoms: C1_1  and  C2_2 
ROOT
HETATM    1  C1  UNL     1     -34.603   5.565   4.318  1.00 20.00     0.437 C 
HETATM    2  F3  UNL     1     -34.293   6.343   5.380  1.00 20.00    -0.166 F 
HETATM    3  F4  UNL     1     -34.459   4.277   4.707  1.00 20.00    -0.166 F 
HETATM    4  F5  UNL     1     -35.914   5.758   4.046  1.00 20.00    -0.166 F 
ENDROOT
BRANCH   1   5
HETATM    5  C2  UNL     1     -33.730   5.885   3.117  1.00 20.00     0.286 C 
HETATM    6 CL6  UNL     1     -34.752   6.335   1.722  1.00 20.00    -0.074 Cl
HETATM    7 CL7  UNL     1     -32.640   7.248   3.501  1.00 20.00    -0.074 Cl
HETATM    8 CL8  UNL     1     -32.747   4.459   2.682  1.00 20.00    -0.074 Cl
ENDBRANCH   1   5
TORSDOF 1
ENDMDL
MODEL 9
REMARK VINA RESULT:      -4.3      2.301      3.022
REMARK  1 active torsions:
REMARK  status: ('A' for Active; 'I' for Inactive)
REMARK    1  A    between atoms: C1_1  and  C2_2 
ROOT
HETATM    1  C1  UNL     1     -34.604   5.563   4.320  1.00 20.00     0.437 C 
HETATM    2  F3  UNL     1     -34.461   4.276   4.707  1.00 20.00    -0.166 F 
HETATM    3  F4  UNL     1     -35.915   5.758   4.046  1.00 20.00    -0.166 F 
HETATM    4  F5  UNL     1     -34.295   6.341   5.382  1.00 20.00    -0.166 F 
ENDROOT
BRANCH   1   5
HETATM    5  C2  UNL     1     -33.731   5.885   3.119  1.00 20.00     0.286 C 
HETATM    6 CL6  UNL     1     -34.754   6.334   1.724  1.00 20.00    -0.074 Cl
HETATM    7 CL7  UNL     1     -32.642   7.248   3.503  1.00 20.00    -0.074 Cl
HETATM    8 CL8  UNL     1     -32.747   4.459   2.682  1.00 20.00    -0.074 Cl
ENDBRANCH   1   5
TORSDOF 1
ENDMDL
