MODEL 1
REMARK VINA RESULT:      -4.2      0.000      0.000
REMARK  3 active torsions:
REMARK  status: ('A' for Active; 'I' for Inactive)
REMARK    1  A    between atoms: C1_1  and  C4_4 
REMARK    2  A    between atoms: C1_1  and  O6_6 
REMARK    3  A    between atoms: C5_5  and  O6_6 
ROOT
HETATM    1  C1  UNL     1     -34.091   6.762   4.294  1.00 20.00     0.112 C 
HETATM    2  S7  UNL     1     -33.669   7.286   5.822  1.00 20.00    -0.058 SA
ENDROOT
BRANCH   1   3
HETATM    3  C4  UNL     1     -35.018   5.601   4.049  1.00 20.00     0.072 C 
HETATM    4  C2  UNL     1     -34.407   4.290   4.518  1.00 20.00     0.013 C 
ENDBRANCH   1   3
BRANCH   1   5
HETATM    5  O6  UNL     1     -33.579   7.466   3.269  1.00 20.00    -0.344 OA
BRANCH   5   6
HETATM    6  C5  UNL     1     -32.166   7.674   3.121  1.00 20.00     0.172 C 
HETATM    7  C3  UNL     1     -31.915   8.475   1.862  1.00 20.00     0.034 C 
ENDBRANCH   5   6
ENDBRANCH   1   5
TORSDOF 3
ENDMDL
MODEL 2
REMARK VINA RESULT:      -4.1      1.809      1.956
REMARK  3 active torsions:
REMARK  status: ('A' for Active; 'I' for Inactive)
REMARK    1  A    between atoms: C1_1  and  C4_4 
REMARK    2  A    between atoms: C1_1  and  O6_6 
REMARK    3  A    between atoms: C5_5  and  O6_6 
ROOT
HETATM    1  C1  UNL     1     -33.186   7.161   3.964  1.00 20.00     0.112 C 
HETATM    2  S7  UNL     1     -33.677   5.977   2.893  1.00 20.00    -0.058 SA
ENDROOT
BRANCH   1   3
HETATM    3  C4  UNL     1     -33.684   7.245   5.383  1.00 20.00     0.072 C 
HETATM    4  C2  UNL     1     -34.439   5.988   5.784  1.00 20.00     0.013 C 
ENDBRANCH   1   3
BRANCH   1   5
HETATM    5  O6  UNL     1     -32.276   8.035   3.498  1.00 20.00    -0.344 OA
BRANCH   5   6
HETATM    6  C5  UNL     1     -31.944   8.114   2.103  1.00 20.00     0.172 C 
HETATM    7  C3  UNL     1     -32.450   9.429   1.550  1.00 20.00     0.034 C 
ENDBRANCH   5   6
ENDBRANCH   1   5
TORSDOF 3
ENDMDL
MODEL 3
REMARK VINA RESULT:      -3.9      0.649      3.523
REMARK  3 active torsions:
REMARK  status: ('A' for Active; 'I' for Inactive)
REMARK    1  A    between atoms: C1_1  and  C4_4 
REMARK    2  A    between atoms: C1_1  and  O6_6 
REMARK    3  A    between atoms: C5_5  and  O6_6 
ROOT
HETATM    1  C1  UNL     1     -33.300   7.189   4.098  1.00 20.00     0.112 C 
HETATM    2  S7  UNL     1     -33.595   7.457   5.720  1.00 20.00    -0.058 SA
ENDROOT
BRANCH   1   3
HETATM    3  C4  UNL     1     -32.101   7.746   3.377  1.00 20.00     0.072 C 
HETATM    4  C2  UNL     1     -32.488   8.365   2.044  1.00 20.00     0.013 C 
ENDBRANCH   1   3
BRANCH   1   5
HETATM    5  O6  UNL     1     -34.187   6.406   3.460  1.00 20.00    -0.344 OA
BRANCH   5   6
HETATM    6  C5  UNL     1     -35.036   5.488   4.168  1.00 20.00     0.172 C 
HETATM    7  C3  UNL     1     -34.301   4.178   4.351  1.00 20.00     0.034 C 
ENDBRANCH   5   6
ENDBRANCH   1   5
TORSDOF 3
ENDMDL
MODEL 4
REMARK VINA RESULT:      -3.9      1.872      3.897
REMARK  3 active torsions:
REMARK  status: ('A' for Active; 'I' for Inactive)
REMARK    1  A    between atoms: C1_1  and  C4_4 
REMARK    2  A    between atoms: C1_1  and  O6_6 
REMARK    3  A    between atoms: C5_5  and  O6_6 
ROOT
HETATM    1  C1  UNL     1     -32.983   7.085   3.338  1.00 20.00     0.112 C 
HETATM    2  S7  UNL     1     -33.142   5.581   2.630  1.00 20.00    -0.058 SA
ENDROOT
BRANCH   1   3
HETATM    3  C4  UNL     1     -31.871   8.041   2.998  1.00 20.00     0.072 C 
HETATM    4  C2  UNL     1     -32.127   8.748   1.677  1.00 20.00     0.013 C 
ENDBRANCH   1   3
BRANCH   1   5
HETATM    5  O6  UNL     1     -33.939   7.423   4.221  1.00 20.00    -0.344 OA
BRANCH   5   6
HETATM    6  C5  UNL     1     -33.829   7.106   5.618  1.00 20.00     0.172 C 
HETATM    7  C3  UNL     1     -34.539   5.795   5.883  1.00 20.00     0.034 C 
ENDBRANCH   5   6
ENDBRANCH   1   5
TORSDOF 3
ENDMDL
MODEL 5
REMARK VINA RESULT:      -3.9      2.039      3.044
REMARK  3 active torsions:
REMARK  status: ('A' for Active; 'I' for Inactive)
REMARK    1  A    between atoms: C1_1  and  C4_4 
REMARK    2  A    between atoms: C1_1  and  O6_6 
REMARK    3  A    between atoms: C5_5  and  O6_6 
ROOT
HETATM    1  C1  UNL     1     -33.272   7.166   3.313  1.00 20.00     0.112 C 
HETATM    2  S7  UNL     1     -31.850   8.032   3.181  1.00 20.00    -0.058 SA
ENDROOT
BRANCH   1   3
HETATM    3  C4  UNL     1     -33.659   6.068   2.357  1.00 20.00     0.072 C 
HETATM    4  C2  UNL     1     -33.018   4.743   2.740  1.00 20.00     0.013 C 
ENDBRANCH   1   3
BRANCH   1   5
HETATM    5  O6  UNL     1     -34.057   7.479   4.359  1.00 20.00    -0.344 OA
BRANCH   5   6
HETATM    6  C5  UNL     1     -33.797   6.976   5.680  1.00 20.00     0.172 C 
HETATM    7  C3  UNL     1     -34.564   5.686   5.875  1.00 20.00     0.034 C 
ENDBRANCH   5   6
ENDBRANCH   1   5
TORSDOF 3
ENDMDL
MODEL 6
REMARK VINA RESULT:      -3.8      1.858      2.287
REMARK  3 active torsions:
REMARK  status: ('A' for Active; 'I' for Inactive)
REMARK    1  A    between atoms: C1_1  and  C4_4 
REMARK    2  A    between atoms: C1_1  and  O6_6 
REMARK    3  A    between atoms: C5_5  and  O6_6 
ROOT
HETATM    1  C1  UNL     1     -34.254   5.777   4.534  1.00 20.00     0.112 C 
HETATM    2  S7  UNL     1     -34.253   4.134   4.236  1.00 20.00    -0.058 SA
ENDROOT
BRANCH   1   3
HETATM    3  C4  UNL     1     -34.399   6.363   5.914  1.00 20.00     0.072 C 
HETATM    4  C2  UNL     1     -33.547   7.611   6.083  1.00 20.00     0.013 C 
ENDBRANCH   1   3
BRANCH   1   5
HETATM    5  O6  UNL     1     -34.079   6.569   3.462  1.00 20.00    -0.344 OA
BRANCH   5   6
HETATM    6  C5  UNL     1     -32.876   6.532   2.678  1.00 20.00     0.172 C 
HETATM    7  C3  UNL     1     -32.285   7.924   2.616  1.00 20.00     0.034 C 
ENDBRANCH   5   6
ENDBRANCH   1   5
TORSDOF 3
ENDMDL
MODEL 7
REMARK VINA RESULT:      -3.8      1.995      3.348
REMARK  3 active torsions:
REMARK  status: ('A' for Active; 'I' for Inactive)
REMARK    1  A    between atoms: C1_1  and  C4_4 
REMARK    2  A    between atoms: C1_1  and  O6_6 
REMARK    3  A    between atoms: C5_5  and  O6_6 
ROOT
HETATM    1  C1  UNL     1     -33.133   7.325   3.602  1.00 20.00     0.112 C 
HETATM    2  S7  UNL     1     -32.407   8.037   2.277  1.00 20.00    -0.058 SA
ENDROOT
BRANCH   1   3
HETATM    3  C4  UNL     1     -32.867   7.760   5.019  1.00 20.00     0.072 C 
HETATM    4  C2  UNL     1     -33.919   7.222   5.975  1.00 20.00     0.013 C 
ENDBRANCH   1   3
BRANCH   1   5
HETATM    5  O6  UNL     1     -34.014   6.344   3.334  1.00 20.00    -0.344 OA
BRANCH   5   6
HETATM    6  C5  UNL     1     -33.604   4.975   3.188  1.00 20.00     0.172 C 
HETATM    7  C3  UNL     1     -34.254   4.148   4.276  1.00 20.00     0.034 C 
ENDBRANCH   5   6
ENDBRANCH   1   5
TORSDOF 3
ENDMDL
MODEL 8
REMARK VINA RESULT:      -3.7      1.712      4.195
REMARK  3 active torsions:
REMARK  status: ('A' for Active; 'I' for Inactive)
REMARK    1  A    between atoms: C1_1  and  C4_4 
REMARK    2  A    between atoms: C1_1  and  O6_6 
REMARK    3  A    between atoms: C5_5  and  O6_6 
ROOT
HETATM    1  C1  UNL     1     -32.365   8.153   2.231  1.00 20.00     0.112 C 
HETATM    2  S7  UNL     1     -31.523   8.237   3.671  1.00 20.00    -0.058 SA
ENDROOT
BRANCH   1   3
HETATM    3  C4  UNL     1     -32.006   8.972   1.020  1.00 20.00     0.072 C 
HETATM    4  C2  UNL     1     -32.705  10.322   1.030  1.00 20.00     0.013 C 
ENDBRANCH   1   3
BRANCH   1   5
HETATM    5  O6  UNL     1     -33.381   7.273   2.194  1.00 20.00    -0.344 OA
BRANCH   5   6
HETATM    6  C5  UNL     1     -33.379   6.077   2.990  1.00 20.00     0.172 C 
HETATM    7  C3  UNL     1     -34.710   5.955   3.699  1.00 20.00     0.034 C 
ENDBRANCH   5   6
ENDBRANCH   1   5
TORSDOF 3
ENDMDL
MODEL 9
REMARK VINA RESULT:      -3.6      1.794      2.330
REMARK  3 active torsions:
REMARK  status: ('A' for Active; 'I' for Inactive)
REMARK    1  A    between atoms: C1_1  and  C4_4 
REMARK    2  A    between atoms: C1_1  and  O6_6 
REMARK    3  A    between atoms: C5_5  and  O6_6 
ROOT
HETATM    1  C1  UNL     1     -32.711   7.456   2.677  1.00 20.00     0.112 C 
HETATM    2  S7  UNL     1     -31.618   8.155   3.729  1.00 20.00    -0.058 SA
ENDROOT
BRANCH   1   3
HETATM    3  C4  UNL     1     -33.512   6.227   3.020  1.00 20.00     0.072 C 
HETATM    4  C2  UNL     1     -34.199   6.367   4.369  1.00 20.00     0.013 C 
ENDBRANCH   1   3
BRANCH   1   5
HETATM    5  O6  UNL     1     -32.872   8.078   1.496  1.00 20.00    -0.344 OA
BRANCH   5   6
HETATM    6  C5  UNL     1     -31.919   9.035   1.007  1.00 20.00     0.172 C 
HETATM    7  C3  UNL     1     -32.612  10.368   0.819  1.00 20.00     0.034 C 
ENDBRANCH   5   6
ENDBRANCH   1   5
TORSDOF 3
ENDMDL
