MODEL 1
REMARK VINA RESULT:      -4.4      0.000      0.000
REMARK  0 active torsions:
REMARK  status: ('A' for Active; 'I' for Inactive)
ROOT
HETATM    1  C1  UNL     1     -32.649   6.536   3.218  1.00 20.00     0.013 C 
HETATM    2  C2  UNL     1     -32.827   5.004   3.206  1.00 20.00     0.013 C 
HETATM    3  C3  UNL     1     -34.102   7.142   5.226  1.00 20.00     0.280 C 
HETATM    4  C4  UNL     1     -34.385   4.716   5.205  1.00 20.00     0.280 C 
HETATM    5  C5  UNL     1     -34.007   7.090   3.688  1.00 20.00     0.086 C 
HETATM    6  C6  UNL     1     -34.278   4.768   3.669  1.00 20.00     0.086 C 
HETATM    7  C7  UNL     1     -34.960   6.029   3.167  1.00 20.00     0.254 C 
HETATM    8  N8  UNL     1     -33.771   5.868   5.882  1.00 20.00     0.084 N 
HETATM    9  F9  UNL     1     -36.215   6.171   3.624  1.00 20.00    -0.205 F 
HETATM   10  F10 UNL     1     -35.011   6.046   1.816  1.00 20.00    -0.205 F 
HETATM   11  H21 UNL     1     -32.759   5.750   5.863  1.00 20.00     0.315 HD
ENDROOT
TORSDOF 0
ENDMDL
MODEL 2
REMARK VINA RESULT:      -4.2     12.152     13.064
REMARK  0 active torsions:
REMARK  status: ('A' for Active; 'I' for Inactive)
ROOT
HETATM    1  C1  UNL     1     -35.750  15.830  -4.240  1.00 20.00     0.013 C 
HETATM    2  C2  UNL     1     -35.670  15.130  -5.612  1.00 20.00     0.013 C 
HETATM    3  C3  UNL     1     -33.441  16.910  -4.151  1.00 20.00     0.280 C 
HETATM    4  C4  UNL     1     -33.314  15.801  -6.323  1.00 20.00     0.280 C 
HETATM    5  C5  UNL     1     -34.322  15.743  -3.666  1.00 20.00     0.086 C 
HETATM    6  C6  UNL     1     -34.203  14.682  -5.745  1.00 20.00     0.086 C 
HETATM    7  C7  UNL     1     -33.826  14.452  -4.292  1.00 20.00     0.254 C 
HETATM    8  N8  UNL     1     -33.437  17.082  -5.611  1.00 20.00     0.084 N 
HETATM    9  F9  UNL     1     -32.512  14.244  -4.110  1.00 20.00    -0.205 F 
HETATM   10  F10 UNL     1     -34.484  13.385  -3.786  1.00 20.00    -0.205 F 
HETATM   11  H21 UNL     1     -34.316  17.519  -5.886  1.00 20.00     0.315 HD
ENDROOT
TORSDOF 0
ENDMDL
MODEL 3
REMARK VINA RESULT:      -4.2     12.069     12.908
REMARK  0 active torsions:
REMARK  status: ('A' for Active; 'I' for Inactive)
ROOT
HETATM    1  C1  UNL     1     -35.757  15.732  -5.498  1.00 20.00     0.013 C 
HETATM    2  C2  UNL     1     -35.522  14.307  -4.957  1.00 20.00     0.013 C 
HETATM    3  C3  UNL     1     -33.388  16.666  -5.350  1.00 20.00     0.280 C 
HETATM    4  C4  UNL     1     -33.017  14.409  -4.491  1.00 20.00     0.280 C 
HETATM    5  C5  UNL     1     -34.786  16.625  -4.703  1.00 20.00     0.086 C 
HETATM    6  C6  UNL     1     -34.431  14.465  -3.881  1.00 20.00     0.086 C 
HETATM    7  C7  UNL     1     -34.701  15.875  -3.385  1.00 20.00     0.254 C 
HETATM    8  N8  UNL     1     -32.820  15.336  -5.616  1.00 20.00     0.084 N 
HETATM    9  F9  UNL     1     -33.744  16.343  -2.568  1.00 20.00    -0.205 F 
HETATM   10  F10 UNL     1     -35.875  15.935  -2.718  1.00 20.00    -0.205 F 
HETATM   11  H21 UNL     1     -33.283  14.947  -6.437  1.00 20.00     0.315 HD
ENDROOT
TORSDOF 0
ENDMDL
MODEL 4
REMARK VINA RESULT:      -4.1     12.022     12.904
REMARK  0 active torsions:
REMARK  status: ('A' for Active; 'I' for Inactive)
ROOT
HETATM    1  C1  UNL     1     -33.342  15.904  -6.095  1.00 20.00     0.013 C 
HETATM    2  C2  UNL     1     -33.343  16.674  -4.759  1.00 20.00     0.013 C 
HETATM    3  C3  UNL     1     -35.612  14.748  -5.950  1.00 20.00     0.280 C 
HETATM    4  C4  UNL     1     -35.613  15.968  -3.834  1.00 20.00     0.280 C 
HETATM    5  C5  UNL     1     -34.087  14.588  -5.796  1.00 20.00     0.086 C 
HETATM    6  C6  UNL     1     -34.088  15.756  -3.771  1.00 20.00     0.086 C 
HETATM    7  C7  UNL     1     -33.755  14.383  -4.328  1.00 20.00     0.254 C 
HETATM    8  N8  UNL     1     -36.167  15.880  -5.193  1.00 20.00     0.084 N 
HETATM    9  F9  UNL     1     -34.460  13.393  -3.757  1.00 20.00    -0.205 F 
HETATM   10  F10 UNL     1     -32.443  14.100  -4.164  1.00 20.00    -0.205 F 
HETATM   11  H21 UNL     1     -35.941  16.741  -5.689  1.00 20.00     0.315 HD
ENDROOT
TORSDOF 0
ENDMDL
MODEL 5
REMARK VINA RESULT:      -4.1     12.040     12.910
REMARK  0 active torsions:
REMARK  status: ('A' for Active; 'I' for Inactive)
ROOT
HETATM    1  C1  UNL     1     -33.174  14.465  -4.534  1.00 20.00     0.013 C 
HETATM    2  C2  UNL     1     -33.164  15.907  -5.082  1.00 20.00     0.013 C 
HETATM    3  C3  UNL     1     -35.555  13.773  -5.135  1.00 20.00     0.280 C 
HETATM    4  C4  UNL     1     -35.539  16.057  -6.000  1.00 20.00     0.280 C 
HETATM    5  C5  UNL     1     -34.609  14.247  -4.015  1.00 20.00     0.086 C 
HETATM    6  C6  UNL     1     -34.593  16.433  -4.843  1.00 20.00     0.086 C 
HETATM    7  C7  UNL     1     -34.995  15.656  -3.602  1.00 20.00     0.254 C 
HETATM    8  N8  UNL     1     -35.528  14.624  -6.333  1.00 20.00     0.084 N 
HETATM    9  F9  UNL     1     -36.296  15.782  -3.295  1.00 20.00    -0.205 F 
HETATM   10  F10 UNL     1     -34.279  16.059  -2.528  1.00 20.00    -0.205 F 
HETATM   11  H21 UNL     1     -34.674  14.422  -6.852  1.00 20.00     0.315 HD
ENDROOT
TORSDOF 0
ENDMDL
MODEL 6
REMARK VINA RESULT:      -4.0     12.023     12.962
REMARK  0 active torsions:
REMARK  status: ('A' for Active; 'I' for Inactive)
ROOT
HETATM    1  C1  UNL     1     -34.892  15.840  -3.486  1.00 20.00     0.013 C 
HETATM    2  C2  UNL     1     -35.381  16.604  -4.734  1.00 20.00     0.013 C 
HETATM    3  C3  UNL     1     -33.097  14.364  -4.538  1.00 20.00     0.280 C 
HETATM    4  C4  UNL     1     -33.873  15.572  -6.513  1.00 20.00     0.280 C 
HETATM    5  C5  UNL     1     -34.538  14.430  -3.997  1.00 20.00     0.086 C 
HETATM    6  C6  UNL     1     -35.281  15.588  -5.887  1.00 20.00     0.086 C 
HETATM    7  C7  UNL     1     -35.510  14.278  -5.153  1.00 20.00     0.254 C 
HETATM    8  N8  UNL     1     -32.790  15.402  -5.533  1.00 20.00     0.084 N 
HETATM    9  F9  UNL     1     -35.270  13.196  -5.910  1.00 20.00    -0.205 F 
HETATM   10  F10 UNL     1     -36.783  14.192  -4.707  1.00 20.00    -0.205 F 
HETATM   11  H21 UNL     1     -32.657  16.286  -5.044  1.00 20.00     0.315 HD
ENDROOT
TORSDOF 0
ENDMDL
MODEL 7
REMARK VINA RESULT:      -4.0     12.270     13.106
REMARK  0 active torsions:
REMARK  status: ('A' for Active; 'I' for Inactive)
ROOT
HETATM    1  C1  UNL     1     -33.622  16.161  -3.321  1.00 20.00     0.013 C 
HETATM    2  C2  UNL     1     -35.153  16.111  -3.142  1.00 20.00     0.013 C 
HETATM    3  C3  UNL     1     -33.472  16.354  -5.861  1.00 20.00     0.280 C 
HETATM    4  C4  UNL     1     -35.897  16.273  -5.577  1.00 20.00     0.280 C 
HETATM    5  C5  UNL     1     -33.352  15.416  -4.643  1.00 20.00     0.086 C 
HETATM    6  C6  UNL     1     -35.673  15.340  -4.371  1.00 20.00     0.086 C 
HETATM    7  C7  UNL     1     -34.500  14.422  -4.667  1.00 20.00     0.254 C 
HETATM    8  N8  UNL     1     -34.732  17.110  -5.903  1.00 20.00     0.084 N 
HETATM    9  F9  UNL     1     -34.616  13.772  -5.836  1.00 20.00    -0.205 F 
HETATM   10  F10 UNL     1     -34.356  13.495  -3.694  1.00 20.00    -0.205 F 
HETATM   11  H21 UNL     1     -34.678  17.865  -5.220  1.00 20.00     0.315 HD
ENDROOT
TORSDOF 0
ENDMDL
MODEL 8
REMARK VINA RESULT:      -4.0      1.114      2.693
REMARK  0 active torsions:
REMARK  status: ('A' for Active; 'I' for Inactive)
ROOT
HETATM    1  C1  UNL     1     -33.973   5.193   5.227  1.00 20.00     0.013 C 
HETATM    2  C2  UNL     1     -34.041   6.730   5.344  1.00 20.00     0.013 C 
HETATM    3  C3  UNL     1     -32.896   4.965   2.925  1.00 20.00     0.280 C 
HETATM    4  C4  UNL     1     -33.007   7.398   3.110  1.00 20.00     0.280 C 
HETATM    5  C5  UNL     1     -34.207   4.897   3.733  1.00 20.00     0.086 C 
HETATM    6  C6  UNL     1     -34.313   7.226   3.911  1.00 20.00     0.086 C 
HETATM    7  C7  UNL     1     -35.097   6.061   3.333  1.00 20.00     0.254 C 
HETATM    8  N8  UNL     1     -32.141   6.210   3.127  1.00 20.00     0.084 N 
HETATM    9  F9  UNL     1     -35.287   6.153   2.008  1.00 20.00    -0.205 F 
HETATM   10  F10 UNL     1     -36.313   5.961   3.917  1.00 20.00    -0.205 F 
HETATM   11  H21 UNL     1     -31.679   6.162   4.035  1.00 20.00     0.315 HD
ENDROOT
TORSDOF 0
ENDMDL
MODEL 9
REMARK VINA RESULT:      -4.0     12.502     13.124
REMARK  0 active torsions:
REMARK  status: ('A' for Active; 'I' for Inactive)
ROOT
HETATM    1  C1  UNL     1     -35.442  16.224  -3.029  1.00 20.00     0.013 C 
HETATM    2  C2  UNL     1     -33.911  16.396  -2.955  1.00 20.00     0.013 C 
HETATM    3  C3  UNL     1     -35.596  14.254  -4.643  1.00 20.00     0.280 C 
HETATM    4  C4  UNL     1     -33.172  14.528  -4.527  1.00 20.00     0.280 C 
HETATM    5  C5  UNL     1     -35.723  15.781  -4.479  1.00 20.00     0.086 C 
HETATM    6  C6  UNL     1     -33.403  16.043  -4.366  1.00 20.00     0.086 C 
HETATM    7  C7  UNL     1     -34.585  16.457  -5.224  1.00 20.00     0.254 C 
HETATM    8  N8  UNL     1     -34.329  13.708  -4.137  1.00 20.00     0.084 N 
HETATM    9  F9  UNL     1     -34.479  16.062  -6.502  1.00 20.00    -0.205 F 
HETATM   10  F10 UNL     1     -34.737  17.801  -5.221  1.00 20.00    -0.205 F 
HETATM   11  H21 UNL     1     -34.374  13.680  -3.119  1.00 20.00     0.315 HD
ENDROOT
TORSDOF 0
ENDMDL
