MODEL 1
REMARK VINA RESULT:      -5.0      0.000      0.000
REMARK  3 active torsions:
REMARK  status: ('A' for Active; 'I' for Inactive)
REMARK    1  A    between atoms: C3_3  and  C4_4 
REMARK    2  A    between atoms: C3_3  and  C5_5 
REMARK    3  A    between atoms: C4_4  and  O6_6 
ROOT
HETATM    1  C1  UNL     1     -34.353   4.915   4.996  1.00 20.00     0.022 A 
HETATM    2  C2  UNL     1     -35.459   5.503   4.167  1.00 20.00     0.022 A 
HETATM    3  C3  UNL     1     -34.083   6.127   4.135  1.00 20.00     0.079 A 
ENDROOT
BRANCH   3   4
HETATM    4  C4  UNL     1     -33.893   7.451   4.822  1.00 20.00     0.182 C 
BRANCH   4   5
HETATM    5  O6  UNL     1     -33.078   7.273   5.974  1.00 20.00    -0.400 OA
HETATM    6  H16 UNL     1     -33.612   6.784   6.621  1.00 20.00     0.209 HD
ENDBRANCH   4   5
ENDBRANCH   3   4
BRANCH   3   7
HETATM    7  C5  UNL     1     -33.252   5.941   2.895  1.00 20.00     0.397 C 
HETATM    8  F7  UNL     1     -33.982   6.181   1.785  1.00 20.00    -0.170 F 
HETATM    9  F8  UNL     1     -32.198   6.784   2.890  1.00 20.00    -0.170 F 
HETATM   10  F9  UNL     1     -32.777   4.680   2.816  1.00 20.00    -0.170 F 
ENDBRANCH   3   7
TORSDOF 3
ENDMDL
MODEL 2
REMARK VINA RESULT:      -4.7      2.303      2.915
REMARK  3 active torsions:
REMARK  status: ('A' for Active; 'I' for Inactive)
REMARK    1  A    between atoms: C3_3  and  C4_4 
REMARK    2  A    between atoms: C3_3  and  C5_5 
REMARK    3  A    between atoms: C4_4  and  O6_6 
ROOT
HETATM    1  C1  UNL     1     -33.986   5.787   2.078  1.00 20.00     0.022 A 
HETATM    2  C2  UNL     1     -32.948   4.958   2.777  1.00 20.00     0.022 A 
HETATM    3  C3  UNL     1     -33.587   6.123   3.496  1.00 20.00     0.079 A 
ENDROOT
BRANCH   3   4
HETATM    4  C4  UNL     1     -32.755   7.355   3.721  1.00 20.00     0.182 C 
BRANCH   4   5
HETATM    5  O6  UNL     1     -32.808   8.179   2.563  1.00 20.00    -0.400 OA
HETATM    6  H16 UNL     1     -32.176   7.807   1.927  1.00 20.00     0.209 HD
ENDBRANCH   4   5
ENDBRANCH   3   4
BRANCH   3   7
HETATM    7  C5  UNL     1     -34.569   5.822   4.595  1.00 20.00     0.397 C 
HETATM    8  F7  UNL     1     -35.833   5.807   4.122  1.00 20.00    -0.170 F 
HETATM    9  F8  UNL     1     -34.318   4.618   5.150  1.00 20.00    -0.170 F 
HETATM   10  F9  UNL     1     -34.501   6.752   5.571  1.00 20.00    -0.170 F 
ENDBRANCH   3   7
TORSDOF 3
ENDMDL
MODEL 3
REMARK VINA RESULT:      -4.7      1.991      2.678
REMARK  3 active torsions:
REMARK  status: ('A' for Active; 'I' for Inactive)
REMARK    1  A    between atoms: C3_3  and  C4_4 
REMARK    2  A    between atoms: C3_3  and  C5_5 
REMARK    3  A    between atoms: C4_4  and  O6_6 
ROOT
HETATM    1  C1  UNL     1     -33.085   4.961   2.873  1.00 20.00     0.022 A 
HETATM    2  C2  UNL     1     -33.990   5.809   2.025  1.00 20.00     0.022 A 
HETATM    3  C3  UNL     1     -33.977   5.992   3.525  1.00 20.00     0.079 A 
ENDROOT
BRANCH   3   4
HETATM    4  C4  UNL     1     -35.165   5.503   4.306  1.00 20.00     0.182 C 
BRANCH   4   5
HETATM    5  O6  UNL     1     -34.903   4.194   4.795  1.00 20.00    -0.400 OA
HETATM    6  H16 UNL     1     -33.941   4.126   4.906  1.00 20.00     0.209 HD
ENDBRANCH   4   5
ENDBRANCH   3   4
BRANCH   3   7
HETATM    7  C5  UNL     1     -33.332   7.234   4.078  1.00 20.00     0.397 C 
HETATM    8  F7  UNL     1     -32.069   7.366   3.621  1.00 20.00    -0.170 F 
HETATM    9  F8  UNL     1     -34.022   8.337   3.719  1.00 20.00    -0.170 F 
HETATM   10  F9  UNL     1     -33.285   7.193   5.427  1.00 20.00    -0.170 F 
ENDBRANCH   3   7
TORSDOF 3
ENDMDL
MODEL 4
REMARK VINA RESULT:      -4.7      1.991      2.600
REMARK  3 active torsions:
REMARK  status: ('A' for Active; 'I' for Inactive)
REMARK    1  A    between atoms: C3_3  and  C4_4 
REMARK    2  A    between atoms: C3_3  and  C5_5 
REMARK    3  A    between atoms: C4_4  and  O6_6 
ROOT
HETATM    1  C1  UNL     1     -33.085   4.961   2.873  1.00 20.00     0.022 A 
HETATM    2  C2  UNL     1     -33.990   5.808   2.025  1.00 20.00     0.022 A 
HETATM    3  C3  UNL     1     -33.976   5.992   3.524  1.00 20.00     0.079 A 
ENDROOT
BRANCH   3   4
HETATM    4  C4  UNL     1     -35.165   5.504   4.306  1.00 20.00     0.182 C 
BRANCH   4   5
HETATM    5  O6  UNL     1     -34.902   4.194   4.795  1.00 20.00    -0.400 OA
HETATM    6  H16 UNL     1     -35.622   3.976   5.409  1.00 20.00     0.209 HD
ENDBRANCH   4   5
ENDBRANCH   3   4
BRANCH   3   7
HETATM    7  C5  UNL     1     -33.331   7.234   4.077  1.00 20.00     0.397 C 
HETATM    8  F7  UNL     1     -34.022   8.337   3.717  1.00 20.00    -0.170 F 
HETATM    9  F8  UNL     1     -33.285   7.194   5.425  1.00 20.00    -0.170 F 
HETATM   10  F9  UNL     1     -32.068   7.366   3.621  1.00 20.00    -0.170 F 
ENDBRANCH   3   7
TORSDOF 3
ENDMDL
MODEL 5
REMARK VINA RESULT:      -4.5      1.928      2.733
REMARK  3 active torsions:
REMARK  status: ('A' for Active; 'I' for Inactive)
REMARK    1  A    between atoms: C3_3  and  C4_4 
REMARK    2  A    between atoms: C3_3  and  C5_5 
REMARK    3  A    between atoms: C4_4  and  O6_6 
ROOT
HETATM    1  C1  UNL     1     -33.892   7.442   3.089  1.00 20.00     0.022 A 
HETATM    2  C2  UNL     1     -32.783   6.438   3.216  1.00 20.00     0.022 A 
HETATM    3  C3  UNL     1     -33.810   6.565   4.316  1.00 20.00     0.079 A 
ENDROOT
BRANCH   3   4
HETATM    4  C4  UNL     1     -33.382   7.202   5.610  1.00 20.00     0.182 C 
BRANCH   4   5
HETATM    5  O6  UNL     1     -32.418   8.214   5.343  1.00 20.00    -0.400 OA
HETATM    6  H16 UNL     1     -31.740   8.142   6.033  1.00 20.00     0.209 HD
ENDBRANCH   4   5
ENDBRANCH   3   4
BRANCH   3   7
HETATM    7  C5  UNL     1     -34.824   5.464   4.467  1.00 20.00     0.397 C 
HETATM    8  F7  UNL     1     -34.358   4.307   3.951  1.00 20.00    -0.170 F 
HETATM    9  F8  UNL     1     -35.117   5.252   5.767  1.00 20.00    -0.170 F 
HETATM   10  F9  UNL     1     -35.971   5.773   3.826  1.00 20.00    -0.170 F 
ENDBRANCH   3   7
TORSDOF 3
ENDMDL
MODEL 6
REMARK VINA RESULT:      -4.5      1.445      2.059
REMARK  3 active torsions:
REMARK  status: ('A' for Active; 'I' for Inactive)
REMARK    1  A    between atoms: C3_3  and  C4_4 
REMARK    2  A    between atoms: C3_3  and  C5_5 
REMARK    3  A    between atoms: C4_4  and  O6_6 
ROOT
HETATM    1  C1  UNL     1     -34.028   5.186   3.666  1.00 20.00     0.022 A 
HETATM    2  C2  UNL     1     -35.045   6.215   3.263  1.00 20.00     0.022 A 
HETATM    3  C3  UNL     1     -33.816   6.636   4.033  1.00 20.00     0.079 A 
ENDROOT
BRANCH   3   4
HETATM    4  C4  UNL     1     -33.986   7.031   5.474  1.00 20.00     0.182 C 
BRANCH   4   5
HETATM    5  O6  UNL     1     -34.403   5.898   6.227  1.00 20.00    -0.400 OA
HETATM    6  H16 UNL     1     -35.363   5.823   6.110  1.00 20.00     0.209 HD
ENDBRANCH   4   5
ENDBRANCH   3   4
BRANCH   3   7
HETATM    7  C5  UNL     1     -32.750   7.402   3.297  1.00 20.00     0.397 C 
HETATM    8  F7  UNL     1     -31.887   7.977   4.160  1.00 20.00    -0.170 F 
HETATM    9  F8  UNL     1     -32.045   6.588   2.484  1.00 20.00    -0.170 F 
HETATM   10  F9  UNL     1     -33.294   8.379   2.539  1.00 20.00    -0.170 F 
ENDBRANCH   3   7
TORSDOF 3
ENDMDL
MODEL 7
REMARK VINA RESULT:      -4.5      2.348      2.947
REMARK  3 active torsions:
REMARK  status: ('A' for Active; 'I' for Inactive)
REMARK    1  A    between atoms: C3_3  and  C4_4 
REMARK    2  A    between atoms: C3_3  and  C5_5 
REMARK    3  A    between atoms: C4_4  and  O6_6 
ROOT
HETATM    1  C1  UNL     1     -35.398   5.771   3.752  1.00 20.00     0.022 A 
HETATM    2  C2  UNL     1     -34.537   4.827   4.541  1.00 20.00     0.022 A 
HETATM    3  C3  UNL     1     -33.987   6.169   4.117  1.00 20.00     0.079 A 
ENDROOT
BRANCH   3   4
HETATM    4  C4  UNL     1     -32.957   6.194   3.021  1.00 20.00     0.182 C 
BRANCH   4   5
HETATM    5  O6  UNL     1     -33.030   7.437   2.333  1.00 20.00    -0.400 OA
HETATM    6  H16 UNL     1     -32.728   7.271   1.426  1.00 20.00     0.209 HD
ENDBRANCH   4   5
ENDBRANCH   3   4
BRANCH   3   7
HETATM    7  C5  UNL     1     -33.802   7.222   5.174  1.00 20.00     0.397 C 
HETATM    8  F7  UNL     1     -32.504   7.577   5.279  1.00 20.00    -0.170 F 
HETATM    9  F8  UNL     1     -34.514   8.331   4.881  1.00 20.00    -0.170 F 
HETATM   10  F9  UNL     1     -34.209   6.773   6.380  1.00 20.00    -0.170 F 
ENDBRANCH   3   7
TORSDOF 3
ENDMDL
MODEL 8
REMARK VINA RESULT:      -4.4      1.510      2.067
REMARK  3 active torsions:
REMARK  status: ('A' for Active; 'I' for Inactive)
REMARK    1  A    between atoms: C3_3  and  C4_4 
REMARK    2  A    between atoms: C3_3  and  C5_5 
REMARK    3  A    between atoms: C4_4  and  O6_6 
ROOT
HETATM    1  C1  UNL     1     -34.702   7.244   4.488  1.00 20.00     0.022 A 
HETATM    2  C2  UNL     1     -33.301   7.214   5.029  1.00 20.00     0.022 A 
HETATM    3  C3  UNL     1     -33.829   6.036   4.244  1.00 20.00     0.079 A 
ENDROOT
BRANCH   3   4
HETATM    4  C4  UNL     1     -34.147   4.772   4.996  1.00 20.00     0.182 C 
BRANCH   4   5
HETATM    5  O6  UNL     1     -35.371   4.232   4.514  1.00 20.00    -0.400 OA
HETATM    6  H16 UNL     1     -35.204   3.928   3.608  1.00 20.00     0.209 HD
ENDBRANCH   4   5
ENDBRANCH   3   4
BRANCH   3   7
HETATM    7  C5  UNL     1     -33.297   5.819   2.854  1.00 20.00     0.397 C 
HETATM    8  F7  UNL     1     -34.279   5.945   1.936  1.00 20.00    -0.170 F 
HETATM    9  F8  UNL     1     -32.335   6.718   2.559  1.00 20.00    -0.170 F 
HETATM   10  F9  UNL     1     -32.765   4.584   2.727  1.00 20.00    -0.170 F 
ENDBRANCH   3   7
TORSDOF 3
ENDMDL
MODEL 9
REMARK VINA RESULT:      -4.4      1.509      2.435
REMARK  3 active torsions:
REMARK  status: ('A' for Active; 'I' for Inactive)
REMARK    1  A    between atoms: C3_3  and  C4_4 
REMARK    2  A    between atoms: C3_3  and  C5_5 
REMARK    3  A    between atoms: C4_4  and  O6_6 
ROOT
HETATM    1  C1  UNL     1     -34.693   7.244   4.498  1.00 20.00     0.022 A 
HETATM    2  C2  UNL     1     -33.287   7.214   5.025  1.00 20.00     0.022 A 
HETATM    3  C3  UNL     1     -33.822   6.036   4.245  1.00 20.00     0.079 A 
ENDROOT
BRANCH   3   4
HETATM    4  C4  UNL     1     -34.133   4.772   4.999  1.00 20.00     0.182 C 
BRANCH   4   5
HETATM    5  O6  UNL     1     -35.365   4.235   4.532  1.00 20.00    -0.400 OA
HETATM    6  H16 UNL     1     -35.772   3.778   5.285  1.00 20.00     0.209 HD
ENDBRANCH   4   5
ENDBRANCH   3   4
BRANCH   3   7
HETATM    7  C5  UNL     1     -33.303   5.820   2.849  1.00 20.00     0.397 C 
HETATM    8  F7  UNL     1     -32.777   4.584   2.717  1.00 20.00    -0.170 F 
HETATM    9  F8  UNL     1     -34.293   5.950   1.941  1.00 20.00    -0.170 F 
HETATM   10  F9  UNL     1     -32.340   6.717   2.548  1.00 20.00    -0.170 F 
ENDBRANCH   3   7
TORSDOF 3
ENDMDL
