MODEL 1
REMARK VINA RESULT:      -6.7      0.000      0.000
REMARK  1 active torsions:
REMARK  status: ('A' for Active; 'I' for Inactive)
REMARK    1  A    between atoms: C7_7  and  C8_8 
ROOT
HETATM    1  C1  UNL     1     -34.159   6.596   5.276  1.00 20.00     0.132 C 
HETATM    2  C2  UNL     1     -34.550   5.137   5.270  1.00 20.00     0.079 C 
HETATM    3  C3  UNL     1     -33.746   4.363   4.232  1.00 20.00     0.008 C 
HETATM    4  C4  UNL     1     -33.989   4.896   2.821  1.00 20.00     0.006 C 
HETATM    5  C5  UNL     1     -33.979   7.236   3.950  1.00 20.00     0.073 A 
HETATM    6  C6  UNL     1     -33.844   6.382   2.713  1.00 20.00     0.011 A 
HETATM    7  C7  UNL     1     -32.641   7.113   3.257  1.00 20.00     0.110 A 
HETATM    8  O9  UNL     1     -34.054   7.256   6.303  1.00 20.00    -0.298 OA
ENDROOT
BRANCH   7   9
HETATM    9  C8  UNL     1     -32.077   8.275   2.515  1.00 20.00     0.392 C 
HETATM   10  F10 UNL     1     -31.306   7.876   1.476  1.00 20.00    -0.171 F 
HETATM   11  F11 UNL     1     -33.057   9.066   2.011  1.00 20.00    -0.171 F 
HETATM   12  F12 UNL     1     -31.307   9.049   3.317  1.00 20.00    -0.171 F 
ENDBRANCH   7   9
TORSDOF 1
ENDMDL
MODEL 2
REMARK VINA RESULT:      -6.5      1.770      2.563
REMARK  1 active torsions:
REMARK  status: ('A' for Active; 'I' for Inactive)
REMARK    1  A    between atoms: C7_7  and  C8_8 
ROOT
HETATM    1  C1  UNL     1     -33.203   5.114   2.877  1.00 20.00     0.132 C 
HETATM    2  C2  UNL     1     -34.147   4.752   3.999  1.00 20.00     0.079 C 
HETATM    3  C3  UNL     1     -34.935   5.971   4.462  1.00 20.00     0.008 C 
HETATM    4  C4  UNL     1     -34.013   7.068   4.992  1.00 20.00     0.006 C 
HETATM    5  C5  UNL     1     -32.450   6.382   3.033  1.00 20.00     0.073 A 
HETATM    6  C6  UNL     1     -32.883   7.394   4.065  1.00 20.00     0.011 A 
HETATM    7  C7  UNL     1     -33.103   7.676   2.599  1.00 20.00     0.110 A 
HETATM    8  O9  UNL     1     -33.002   4.388   1.911  1.00 20.00    -0.298 OA
ENDROOT
BRANCH   7   9
HETATM    9  C8  UNL     1     -32.296   8.723   1.912  1.00 20.00     0.392 C 
HETATM   10  F10 UNL     1     -31.594   9.470   2.797  1.00 20.00    -0.171 F 
HETATM   11  F11 UNL     1     -31.405   8.177   1.048  1.00 20.00    -0.171 F 
HETATM   12  F12 UNL     1     -33.081   9.568   1.202  1.00 20.00    -0.171 F 
ENDBRANCH   7   9
TORSDOF 1
ENDMDL
MODEL 3
REMARK VINA RESULT:      -6.1      1.890      2.717
REMARK  1 active torsions:
REMARK  status: ('A' for Active; 'I' for Inactive)
REMARK    1  A    between atoms: C7_7  and  C8_8 
ROOT
HETATM    1  C1  UNL     1     -33.749   6.360   3.123  1.00 20.00     0.132 C 
HETATM    2  C2  UNL     1     -33.781   6.409   4.632  1.00 20.00     0.079 C 
HETATM    3  C3  UNL     1     -33.486   7.816   5.137  1.00 20.00     0.008 C 
HETATM    4  C4  UNL     1     -32.100   8.290   4.704  1.00 20.00     0.006 C 
HETATM    5  C5  UNL     1     -32.642   7.094   2.462  1.00 20.00     0.073 A 
HETATM    6  C6  UNL     1     -31.837   8.105   3.242  1.00 20.00     0.011 A 
HETATM    7  C7  UNL     1     -32.809   8.572   2.186  1.00 20.00     0.110 A 
HETATM    8  O9  UNL     1     -34.542   5.705   2.457  1.00 20.00    -0.298 OA
ENDROOT
BRANCH   7   9
HETATM    9  C8  UNL     1     -32.303   9.153   0.911  1.00 20.00     0.392 C 
HETATM   10  F10 UNL     1     -31.089   8.649   0.584  1.00 20.00    -0.171 F 
HETATM   11  F11 UNL     1     -33.141   8.892  -0.122  1.00 20.00    -0.171 F 
HETATM   12  F12 UNL     1     -32.173  10.499   0.996  1.00 20.00    -0.171 F 
ENDBRANCH   7   9
TORSDOF 1
ENDMDL
MODEL 4
REMARK VINA RESULT:      -4.8     11.644     12.315
REMARK  1 active torsions:
REMARK  status: ('A' for Active; 'I' for Inactive)
REMARK    1  A    between atoms: C7_7  and  C8_8 
ROOT
HETATM    1  C1  UNL     1     -32.212  18.491  -0.323  1.00 20.00     0.132 C 
HETATM    2  C2  UNL     1     -32.817  19.058   0.939  1.00 20.00     0.079 C 
HETATM    3  C3  UNL     1     -34.192  18.457   1.202  1.00 20.00     0.008 C 
HETATM    4  C4  UNL     1     -35.165  18.762   0.065  1.00 20.00     0.006 C 
HETATM    5  C5  UNL     1     -33.121  18.357  -1.487  1.00 20.00     0.073 A 
HETATM    6  C6  UNL     1     -34.615  18.445  -1.291  1.00 20.00     0.011 A 
HETATM    7  C7  UNL     1     -33.975  17.115  -1.607  1.00 20.00     0.110 A 
HETATM    8  O9  UNL     1     -31.024  18.210  -0.428  1.00 20.00    -0.298 OA
ENDROOT
BRANCH   7   9
HETATM    9  C8  UNL     1     -34.188  16.483  -2.939  1.00 20.00     0.392 C 
HETATM   10  F10 UNL     1     -34.415  17.412  -3.899  1.00 20.00    -0.171 F 
HETATM   11  F11 UNL     1     -33.108  15.760  -3.325  1.00 20.00    -0.171 F 
HETATM   12  F12 UNL     1     -35.252  15.645  -2.927  1.00 20.00    -0.171 F 
ENDBRANCH   7   9
TORSDOF 1
ENDMDL
MODEL 5
REMARK VINA RESULT:      -4.8     11.404     12.577
REMARK  1 active torsions:
REMARK  status: ('A' for Active; 'I' for Inactive)
REMARK    1  A    between atoms: C7_7  and  C8_8 
ROOT
HETATM    1  C1  UNL     1     -33.683  18.275  -4.263  1.00 20.00     0.132 C 
HETATM    2  C2  UNL     1     -33.624  19.090  -2.994  1.00 20.00     0.079 C 
HETATM    3  C3  UNL     1     -33.159  18.237  -1.820  1.00 20.00     0.008 C 
HETATM    4  C4  UNL     1     -34.112  17.072  -1.558  1.00 20.00     0.006 C 
HETATM    5  C5  UNL     1     -34.264  16.915  -4.147  1.00 20.00     0.073 A 
HETATM    6  C6  UNL     1     -34.438  16.283  -2.788  1.00 20.00     0.011 A 
HETATM    7  C7  UNL     1     -33.368  15.773  -3.722  1.00 20.00     0.110 A 
HETATM    8  O9  UNL     1     -33.338  18.710  -5.355  1.00 20.00    -0.298 OA
ENDROOT
BRANCH   7   9
HETATM    9  C8  UNL     1     -33.513  14.435  -4.362  1.00 20.00     0.392 C 
HETATM   10  F10 UNL     1     -32.417  13.666  -4.160  1.00 20.00    -0.171 F 
HETATM   11  F11 UNL     1     -34.578  13.759  -3.865  1.00 20.00    -0.171 F 
HETATM   12  F12 UNL     1     -33.691  14.542  -5.701  1.00 20.00    -0.171 F 
ENDBRANCH   7   9
TORSDOF 1
ENDMDL
MODEL 6
REMARK VINA RESULT:      -4.8     11.479     12.357
REMARK  1 active torsions:
REMARK  status: ('A' for Active; 'I' for Inactive)
REMARK    1  A    between atoms: C7_7  and  C8_8 
ROOT
HETATM    1  C1  UNL     1     -33.492  18.614  -2.944  1.00 20.00     0.132 C 
HETATM    2  C2  UNL     1     -33.909  19.065  -1.564  1.00 20.00     0.079 C 
HETATM    3  C3  UNL     1     -34.091  17.872  -0.634  1.00 20.00     0.008 C 
HETATM    4  C4  UNL     1     -35.177  16.925  -1.140  1.00 20.00     0.006 C 
HETATM    5  C5  UNL     1     -34.201  17.433  -3.494  1.00 20.00     0.073 A 
HETATM    6  C6  UNL     1     -35.014  16.548  -2.581  1.00 20.00     0.011 A 
HETATM    7  C7  UNL     1     -33.702  16.050  -3.137  1.00 20.00     0.110 A 
HETATM    8  O9  UNL     1     -32.663  19.210  -3.621  1.00 20.00    -0.298 OA
ENDROOT
BRANCH   7   9
HETATM    9  C8  UNL     1     -33.691  14.974  -4.167  1.00 20.00     0.392 C 
HETATM   10  F10 UNL     1     -34.692  14.084  -3.967  1.00 20.00    -0.171 F 
HETATM   11  F11 UNL     1     -33.842  15.479  -5.415  1.00 20.00    -0.171 F 
HETATM   12  F12 UNL     1     -32.525  14.283  -4.150  1.00 20.00    -0.171 F 
ENDBRANCH   7   9
TORSDOF 1
ENDMDL
MODEL 7
REMARK VINA RESULT:      -4.7     11.676     12.543
REMARK  1 active torsions:
REMARK  status: ('A' for Active; 'I' for Inactive)
REMARK    1  A    between atoms: C7_7  and  C8_8 
ROOT
HETATM    1  C1  UNL     1     -35.566  13.640  -5.823  1.00 20.00     0.132 C 
HETATM    2  C2  UNL     1     -35.124  13.563  -7.265  1.00 20.00     0.079 C 
HETATM    3  C3  UNL     1     -33.928  14.473  -7.517  1.00 20.00     0.008 C 
HETATM    4  C4  UNL     1     -34.264  15.935  -7.231  1.00 20.00     0.006 C 
HETATM    5  C5  UNL     1     -35.611  14.994  -5.218  1.00 20.00     0.073 A 
HETATM    6  C6  UNL     1     -34.915  16.147  -5.899  1.00 20.00     0.011 A 
HETATM    7  C7  UNL     1     -34.344  15.571  -4.626  1.00 20.00     0.110 A 
HETATM    8  O9  UNL     1     -35.935  12.663  -5.182  1.00 20.00    -0.298 OA
ENDROOT
BRANCH   7   9
HETATM    9  C8  UNL     1     -34.404  16.355  -3.361  1.00 20.00     0.392 C 
HETATM   10  F10 UNL     1     -33.213  16.350  -2.716  1.00 20.00    -0.171 F 
HETATM   11  F11 UNL     1     -34.733  17.649  -3.593  1.00 20.00    -0.171 F 
HETATM   12  F12 UNL     1     -35.329  15.851  -2.508  1.00 20.00    -0.171 F 
ENDBRANCH   7   9
TORSDOF 1
ENDMDL
MODEL 8
REMARK VINA RESULT:      -4.7     11.515     12.419
REMARK  1 active torsions:
REMARK  status: ('A' for Active; 'I' for Inactive)
REMARK    1  A    between atoms: C7_7  and  C8_8 
ROOT
HETATM    1  C1  UNL     1     -33.397  18.675  -2.932  1.00 20.00     0.132 C 
HETATM    2  C2  UNL     1     -33.805  19.129  -1.552  1.00 20.00     0.079 C 
HETATM    3  C3  UNL     1     -33.996  17.938  -0.621  1.00 20.00     0.008 C 
HETATM    4  C4  UNL     1     -35.091  17.000  -1.124  1.00 20.00     0.006 C 
HETATM    5  C5  UNL     1     -34.119  17.500  -3.481  1.00 20.00     0.073 A 
HETATM    6  C6  UNL     1     -34.936  16.623  -2.565  1.00 20.00     0.011 A 
HETATM    7  C7  UNL     1     -33.631  16.113  -3.125  1.00 20.00     0.110 A 
HETATM    8  O9  UNL     1     -32.564  19.263  -3.612  1.00 20.00    -0.298 OA
ENDROOT
BRANCH   7   9
HETATM    9  C8  UNL     1     -33.632  15.037  -4.155  1.00 20.00     0.392 C 
HETATM   10  F10 UNL     1     -33.733  15.547  -5.406  1.00 20.00    -0.171 F 
HETATM   11  F11 UNL     1     -32.494  14.302  -4.109  1.00 20.00    -0.171 F 
HETATM   12  F12 UNL     1     -34.671  14.184  -3.981  1.00 20.00    -0.171 F 
ENDBRANCH   7   9
TORSDOF 1
ENDMDL
MODEL 9
REMARK VINA RESULT:      -4.7     11.336     12.342
REMARK  1 active torsions:
REMARK  status: ('A' for Active; 'I' for Inactive)
REMARK    1  A    between atoms: C7_7  and  C8_8 
ROOT
HETATM    1  C1  UNL     1     -34.622  14.453  -4.681  1.00 20.00     0.132 C 
HETATM    2  C2  UNL     1     -34.135  14.626  -6.099  1.00 20.00     0.079 C 
HETATM    3  C3  UNL     1     -33.221  15.839  -6.217  1.00 20.00     0.008 C 
HETATM    4  C4  UNL     1     -33.946  17.128  -5.834  1.00 20.00     0.006 C 
HETATM    5  C5  UNL     1     -35.047  15.686  -3.975  1.00 20.00     0.073 A 
HETATM    6  C6  UNL     1     -34.668  17.039  -4.525  1.00 20.00     0.011 A 
HETATM    7  C7  UNL     1     -34.000  16.523  -3.274  1.00 20.00     0.110 A 
HETATM    8  O9  UNL     1     -34.733  13.359  -4.139  1.00 20.00    -0.298 OA
ENDROOT
BRANCH   7   9
HETATM    9  C8  UNL     1     -34.305  17.146  -1.956  1.00 20.00     0.392 C 
HETATM   10  F10 UNL     1     -34.851  18.377  -2.102  1.00 20.00    -0.171 F 
HETATM   11  F11 UNL     1     -35.181  16.397  -1.243  1.00 20.00    -0.171 F 
HETATM   12  F12 UNL     1     -33.188  17.286  -1.202  1.00 20.00    -0.171 F 
ENDBRANCH   7   9
TORSDOF 1
ENDMDL
