MODEL 1
REMARK VINA RESULT:      -4.8      0.000      0.000
REMARK  0 active torsions:
REMARK  status: ('A' for Active; 'I' for Inactive)
ROOT
HETATM    1  C1  UNL     1     -36.079  17.032  -5.462  1.00 20.00     0.027 C 
HETATM    2  C2  UNL     1     -36.251  15.902  -6.476  1.00 20.00     0.027 C 
HETATM    3  C3  UNL     1     -33.090  14.652  -4.464  1.00 20.00     0.009 C 
HETATM    4  C4  UNL     1     -33.554  17.026  -5.102  1.00 20.00     0.030 C 
HETATM    5  C5  UNL     1     -35.086  15.786  -3.469  1.00 20.00     0.030 C 
HETATM    6  C6  UNL     1     -33.839  15.138  -6.802  1.00 20.00     0.030 C 
HETATM    7  C7  UNL     1     -35.369  13.897  -5.168  1.00 20.00     0.030 C 
HETATM    8  C8  UNL     1     -33.046  15.670  -5.603  1.00 20.00    -0.010 C 
HETATM    9  C9  UNL     1     -34.538  14.463  -4.012  1.00 20.00    -0.010 C 
HETATM   10  C10 UNL     1     -34.941  16.974  -4.436  1.00 20.00     0.038 C 
HETATM   11  C11 UNL     1     -35.280  14.715  -6.469  1.00 20.00     0.038 C 
HETATM   12 CL12 UNL     1     -35.112  18.494  -3.442  1.00 20.00    -0.119 Cl
HETATM   13 CL13 UNL     1     -35.842  13.628  -7.822  1.00 20.00    -0.119 Cl
ENDROOT
TORSDOF 0
ENDMDL
MODEL 2
REMARK VINA RESULT:      -4.8      0.112      3.669
REMARK  0 active torsions:
REMARK  status: ('A' for Active; 'I' for Inactive)
ROOT
HETATM    1  C1  UNL     1     -36.281  15.754  -6.500  1.00 20.00     0.027 C 
HETATM    2  C2  UNL     1     -36.162  16.911  -5.510  1.00 20.00     0.027 C 
HETATM    3  C3  UNL     1     -33.052  14.704  -4.482  1.00 20.00     0.009 C 
HETATM    4  C4  UNL     1     -35.294  13.822  -5.158  1.00 20.00     0.030 C 
HETATM    5  C5  UNL     1     -33.835  15.104  -6.825  1.00 20.00     0.030 C 
HETATM    6  C6  UNL     1     -35.099  15.757  -3.499  1.00 20.00     0.030 C 
HETATM    7  C7  UNL     1     -33.638  17.039  -5.165  1.00 20.00     0.030 C 
HETATM    8  C8  UNL     1     -34.486  14.451  -4.018  1.00 20.00    -0.010 C 
HETATM    9  C9  UNL     1     -33.066  15.700  -5.642  1.00 20.00    -0.010 C 
HETATM   10  C10 UNL     1     -35.252  14.617  -6.475  1.00 20.00     0.038 C 
HETATM   11  C11 UNL     1     -35.017  16.931  -4.490  1.00 20.00     0.038 C 
HETATM   12 CL12 UNL     1     -35.765  13.475  -7.803  1.00 20.00    -0.119 Cl
HETATM   13 CL13 UNL     1     -35.260  18.460  -3.526  1.00 20.00    -0.119 Cl
ENDROOT
TORSDOF 0
ENDMDL
MODEL 3
REMARK VINA RESULT:      -4.6      1.403      1.981
REMARK  0 active torsions:
REMARK  status: ('A' for Active; 'I' for Inactive)
ROOT
HETATM    1  C1  UNL     1     -35.602  16.319  -2.963  1.00 20.00     0.027 C 
HETATM    2  C2  UNL     1     -36.602  15.736  -3.959  1.00 20.00     0.027 C 
HETATM    3  C3  UNL     1     -33.294  15.757  -6.118  1.00 20.00     0.009 C 
HETATM    4  C4  UNL     1     -33.984  17.543  -4.509  1.00 20.00     0.030 C 
HETATM    5  C5  UNL     1     -33.435  15.183  -3.686  1.00 20.00     0.030 C 
HETATM    6  C6  UNL     1     -35.659  16.572  -6.178  1.00 20.00     0.030 C 
HETATM    7  C7  UNL     1     -35.109  14.211  -5.357  1.00 20.00     0.030 C 
HETATM    8  C8  UNL     1     -34.203  16.968  -5.912  1.00 20.00    -0.010 C 
HETATM    9  C9  UNL     1     -33.667  14.669  -5.111  1.00 20.00    -0.010 C 
HETATM   10  C10 UNL     1     -34.138  16.516  -3.374  1.00 20.00     0.038 C 
HETATM   11  C11 UNL     1     -36.140  15.353  -5.371  1.00 20.00     0.038 C 
HETATM   12 CL12 UNL     1     -33.317  17.219  -1.903  1.00 20.00    -0.119 Cl
HETATM   13 CL13 UNL     1     -37.631  14.715  -6.207  1.00 20.00    -0.119 Cl
ENDROOT
TORSDOF 0
ENDMDL
MODEL 4
REMARK VINA RESULT:      -4.6      1.399      3.713
REMARK  0 active torsions:
REMARK  status: ('A' for Active; 'I' for Inactive)
ROOT
HETATM    1  C1  UNL     1     -36.588  15.733  -3.947  1.00 20.00     0.027 C 
HETATM    2  C2  UNL     1     -35.596  16.333  -2.952  1.00 20.00     0.027 C 
HETATM    3  C3  UNL     1     -33.276  15.766  -6.098  1.00 20.00     0.009 C 
HETATM    4  C4  UNL     1     -35.078  14.211  -5.329  1.00 20.00     0.030 C 
HETATM    5  C5  UNL     1     -35.647  16.560  -6.170  1.00 20.00     0.030 C 
HETATM    6  C6  UNL     1     -33.417  15.211  -3.662  1.00 20.00     0.030 C 
HETATM    7  C7  UNL     1     -33.985  17.560  -4.505  1.00 20.00     0.030 C 
HETATM    8  C8  UNL     1     -33.641  14.683  -5.084  1.00 20.00    -0.010 C 
HETATM    9  C9  UNL     1     -34.196  16.971  -5.903  1.00 20.00    -0.010 C 
HETATM   10  C10 UNL     1     -36.119  15.344  -5.354  1.00 20.00     0.038 C 
HETATM   11  C11 UNL     1     -34.132  16.539  -3.362  1.00 20.00     0.038 C 
HETATM   12 CL12 UNL     1     -37.603  14.685  -6.189  1.00 20.00    -0.119 Cl
HETATM   13 CL13 UNL     1     -33.320  17.261  -1.896  1.00 20.00    -0.119 Cl
ENDROOT
TORSDOF 0
ENDMDL
MODEL 5
REMARK VINA RESULT:      -4.5      1.544      2.043
REMARK  0 active torsions:
REMARK  status: ('A' for Active; 'I' for Inactive)
ROOT
HETATM    1  C1  UNL     1     -35.088  18.082  -4.117  1.00 20.00     0.027 C 
HETATM    2  C2  UNL     1     -34.717  17.894  -5.588  1.00 20.00     0.027 C 
HETATM    3  C3  UNL     1     -34.499  14.179  -4.264  1.00 20.00     0.009 C 
HETATM    4  C4  UNL     1     -33.758  16.210  -3.006  1.00 20.00     0.030 C 
HETATM    5  C5  UNL     1     -36.225  15.859  -3.589  1.00 20.00     0.030 C 
HETATM    6  C6  UNL     1     -33.133  15.898  -5.465  1.00 20.00     0.030 C 
HETATM    7  C7  UNL     1     -35.600  15.545  -6.048  1.00 20.00     0.030 C 
HETATM    8  C8  UNL     1     -33.389  15.219  -4.115  1.00 20.00    -0.010 C 
HETATM    9  C9  UNL     1     -35.792  14.877  -4.682  1.00 20.00    -0.010 C 
HETATM   10  C10 UNL     1     -35.138  16.869  -3.180  1.00 20.00     0.038 C 
HETATM   11  C11 UNL     1     -34.390  16.493  -6.121  1.00 20.00     0.038 C 
HETATM   12 CL12 UNL     1     -35.618  17.539  -1.552  1.00 20.00    -0.119 Cl
HETATM   13 CL13 UNL     1     -34.006  16.732  -7.889  1.00 20.00    -0.119 Cl
ENDROOT
TORSDOF 0
ENDMDL
MODEL 6
REMARK VINA RESULT:      -4.5      1.607      3.578
REMARK  0 active torsions:
REMARK  status: ('A' for Active; 'I' for Inactive)
ROOT
HETATM    1  C1  UNL     1     -34.953  17.962  -5.461  1.00 20.00     0.027 C 
HETATM    2  C2  UNL     1     -35.400  18.071  -4.004  1.00 20.00     0.027 C 
HETATM    3  C3  UNL     1     -34.461  14.241  -4.231  1.00 20.00     0.009 C 
HETATM    4  C4  UNL     1     -35.603  15.560  -6.024  1.00 20.00     0.030 C 
HETATM    5  C5  UNL     1     -33.204  16.109  -5.322  1.00 20.00     0.030 C 
HETATM    6  C6  UNL     1     -36.357  15.743  -3.588  1.00 20.00     0.030 C 
HETATM    7  C7  UNL     1     -33.957  16.289  -2.885  1.00 20.00     0.030 C 
HETATM    8  C8  UNL     1     -35.793  14.835  -4.687  1.00 20.00    -0.010 C 
HETATM    9  C9  UNL     1     -33.456  15.370  -4.004  1.00 20.00    -0.010 C 
HETATM   10  C10 UNL     1     -34.481  16.613  -6.017  1.00 20.00     0.038 C 
HETATM   11  C11 UNL     1     -35.381  16.829  -3.103  1.00 20.00     0.038 C 
HETATM   12 CL12 UNL     1     -34.045  16.938  -7.759  1.00 20.00    -0.119 Cl
HETATM   13 CL13 UNL     1     -35.988  17.405  -1.481  1.00 20.00    -0.119 Cl
ENDROOT
TORSDOF 0
ENDMDL
MODEL 7
REMARK VINA RESULT:      -4.5      1.239      2.877
REMARK  0 active torsions:
REMARK  status: ('A' for Active; 'I' for Inactive)
ROOT
HETATM    1  C1  UNL     1     -33.292  15.307  -3.925  1.00 20.00     0.027 C 
HETATM    2  C2  UNL     1     -33.625  14.378  -5.091  1.00 20.00     0.027 C 
HETATM    3  C3  UNL     1     -36.778  16.757  -5.085  1.00 20.00     0.009 C 
HETATM    4  C4  UNL     1     -35.616  15.888  -3.047  1.00 20.00     0.030 C 
HETATM    5  C5  UNL     1     -34.419  17.475  -4.660  1.00 20.00     0.030 C 
HETATM    6  C6  UNL     1     -36.174  14.330  -4.995  1.00 20.00     0.030 C 
HETATM    7  C7  UNL     1     -34.979  15.917  -6.609  1.00 20.00     0.030 C 
HETATM    8  C8  UNL     1     -36.603  15.547  -4.168  1.00 20.00    -0.010 C 
HETATM    9  C9  UNL     1     -35.438  17.092  -5.739  1.00 20.00    -0.010 C 
HETATM   10  C10 UNL     1     -34.263  16.430  -3.541  1.00 20.00     0.038 C 
HETATM   11  C11 UNL     1     -34.932  14.567  -5.871  1.00 20.00     0.038 C 
HETATM   12 CL12 UNL     1     -33.480  17.278  -2.127  1.00 20.00    -0.119 Cl
HETATM   13 CL13 UNL     1     -34.923  13.263  -7.147  1.00 20.00    -0.119 Cl
ENDROOT
TORSDOF 0
ENDMDL
MODEL 8
REMARK VINA RESULT:      -4.5      1.237      3.957
REMARK  0 active torsions:
REMARK  status: ('A' for Active; 'I' for Inactive)
ROOT
HETATM    1  C1  UNL     1     -33.617  14.388  -5.083  1.00 20.00     0.027 C 
HETATM    2  C2  UNL     1     -33.292  15.320  -3.917  1.00 20.00     0.027 C 
HETATM    3  C3  UNL     1     -36.785  16.747  -5.087  1.00 20.00     0.009 C 
HETATM    4  C4  UNL     1     -34.978  15.917  -6.605  1.00 20.00     0.030 C 
HETATM    5  C5  UNL     1     -36.166  14.324  -4.993  1.00 20.00     0.030 C 
HETATM    6  C6  UNL     1     -34.431  17.480  -4.657  1.00 20.00     0.030 C 
HETATM    7  C7  UNL     1     -35.622  15.888  -3.045  1.00 20.00     0.030 C 
HETATM    8  C8  UNL     1     -35.446  17.091  -5.738  1.00 20.00    -0.010 C 
HETATM    9  C9  UNL     1     -36.604  15.539  -4.168  1.00 20.00    -0.010 C 
HETATM   10  C10 UNL     1     -34.923  14.569  -5.866  1.00 20.00     0.038 C 
HETATM   11  C11 UNL     1     -34.271  16.438  -3.536  1.00 20.00     0.038 C 
HETATM   12 CL12 UNL     1     -34.903  13.263  -7.141  1.00 20.00    -0.119 Cl
HETATM   13 CL13 UNL     1     -33.497  17.292  -2.122  1.00 20.00    -0.119 Cl
ENDROOT
TORSDOF 0
ENDMDL
MODEL 9
REMARK VINA RESULT:      -4.4      1.973      3.491
REMARK  0 active torsions:
REMARK  status: ('A' for Active; 'I' for Inactive)
ROOT
HETATM    1  C1  UNL     1     -34.570  15.794  -3.257  1.00 20.00     0.027 C 
HETATM    2  C2  UNL     1     -35.876  16.566  -3.075  1.00 20.00     0.027 C 
HETATM    3  C3  UNL     1     -36.447  14.924  -6.622  1.00 20.00     0.009 C 
HETATM    4  C4  UNL     1     -34.280  15.858  -5.791  1.00 20.00     0.030 C 
HETATM    5  C5  UNL     1     -35.339  13.814  -4.672  1.00 20.00     0.030 C 
HETATM    6  C6  UNL     1     -36.463  17.154  -5.488  1.00 20.00     0.030 C 
HETATM    7  C7  UNL     1     -37.522  15.110  -4.370  1.00 20.00     0.030 C 
HETATM    8  C8  UNL     1     -35.652  16.206  -6.378  1.00 20.00    -0.010 C 
HETATM    9  C9  UNL     1     -36.683  14.215  -5.288  1.00 20.00    -0.010 C 
HETATM   10  C10 UNL     1     -34.337  14.974  -4.533  1.00 20.00     0.038 C 
HETATM   11  C11 UNL     1     -36.948  16.524  -4.171  1.00 20.00     0.038 C 
HETATM   12 CL12 UNL     1     -32.684  14.229  -4.329  1.00 20.00    -0.119 Cl
HETATM   13 CL13 UNL     1     -38.309  17.569  -3.551  1.00 20.00    -0.119 Cl
ENDROOT
TORSDOF 0
ENDMDL
