MODEL 1
REMARK VINA RESULT:      -5.9      0.000      0.000
REMARK  3 active torsions:
REMARK  status: ('A' for Active; 'I' for Inactive)
REMARK    1  A    between atoms: C1_1  and  C4_4 
REMARK       I    between atoms: C1_1  and  N10_10 
REMARK    2  A    between atoms: C8_8  and  C9_9 
REMARK    3  A    between atoms: C9_9  and  N10_10 
ROOT
HETATM    1  C1  UNL     1     -32.090   8.235   2.378  1.00 20.00     0.222 C 
HETATM    2  N10 UNL     1     -33.233   7.474   2.274  1.00 20.00    -0.352 N 
HETATM    3  O11 UNL     1     -31.269   8.204   3.287  1.00 20.00    -0.273 OA
HETATM    4  H28 UNL     1     -33.827   7.601   1.465  1.00 20.00     0.163 HD
ENDROOT
BRANCH   2   5
HETATM    5  C9  UNL     1     -33.621   6.494   3.275  1.00 20.00     0.025 C 
HETATM    6  C6  UNL     1     -35.126   6.220   3.121  1.00 20.00     0.038 C 
HETATM    7  C7  UNL     1     -32.852   5.189   3.030  1.00 20.00     0.038 C 
BRANCH   5   8
HETATM    8  C8  UNL     1     -33.359   7.050   4.694  1.00 20.00     0.026 C 
HETATM    9  C5  UNL     1     -34.240   6.460   5.791  1.00 20.00     0.007 C 
ENDBRANCH   5   8
ENDBRANCH   2   5
BRANCH   1  10
HETATM   10  C4  UNL     1     -31.887   9.174   1.234  1.00 20.00     0.078 A 
HETATM   11  C2  UNL     1     -32.904   9.195   0.142  1.00 20.00     0.015 A 
HETATM   12  C3  UNL     1     -32.806  10.342   1.103  1.00 20.00     0.015 A 
ENDBRANCH   1  10
TORSDOF 3
ENDMDL
MODEL 2
REMARK VINA RESULT:      -5.2      0.650      1.629
REMARK  3 active torsions:
REMARK  status: ('A' for Active; 'I' for Inactive)
REMARK    1  A    between atoms: C1_1  and  C4_4 
REMARK       I    between atoms: C1_1  and  N10_10 
REMARK    2  A    between atoms: C8_8  and  C9_9 
REMARK    3  A    between atoms: C9_9  and  N10_10 
ROOT
HETATM    1  C1  UNL     1     -32.222   8.080   2.502  1.00 20.00     0.222 C 
HETATM    2  N10 UNL     1     -33.421   7.409   2.401  1.00 20.00    -0.352 N 
HETATM    3  O11 UNL     1     -31.436   8.039   3.441  1.00 20.00    -0.273 OA
HETATM    4  H28 UNL     1     -33.977   7.533   1.564  1.00 20.00     0.163 HD
ENDROOT
BRANCH   2   5
HETATM    5  C9  UNL     1     -33.923   6.531   3.445  1.00 20.00     0.025 C 
HETATM    6  C6  UNL     1     -33.601   7.167   4.806  1.00 20.00     0.038 C 
HETATM    7  C7  UNL     1     -35.446   6.400   3.307  1.00 20.00     0.038 C 
BRANCH   5   8
HETATM    8  C8  UNL     1     -33.225   5.153   3.362  1.00 20.00     0.026 C 
HETATM    9  C5  UNL     1     -33.954   4.017   4.072  1.00 20.00     0.007 C 
ENDBRANCH   5   8
ENDBRANCH   2   5
BRANCH   1  10
HETATM   10  C4  UNL     1     -31.905   8.924   1.312  1.00 20.00     0.078 A 
HETATM   11  C2  UNL     1     -32.939   9.069   0.246  1.00 20.00     0.015 A 
HETATM   12  C3  UNL     1     -32.622  10.222   1.150  1.00 20.00     0.015 A 
ENDBRANCH   1  10
TORSDOF 3
ENDMDL
MODEL 3
REMARK VINA RESULT:      -5.1      0.609      1.490
REMARK  3 active torsions:
REMARK  status: ('A' for Active; 'I' for Inactive)
REMARK    1  A    between atoms: C1_1  and  C4_4 
REMARK       I    between atoms: C1_1  and  N10_10 
REMARK    2  A    between atoms: C8_8  and  C9_9 
REMARK    3  A    between atoms: C9_9  and  N10_10 
ROOT
HETATM    1  C1  UNL     1     -31.991   8.355   2.197  1.00 20.00     0.222 C 
HETATM    2  N10 UNL     1     -33.160   7.628   2.241  1.00 20.00    -0.352 N 
HETATM    3  O11 UNL     1     -31.067   8.308   3.000  1.00 20.00    -0.273 OA
HETATM    4  H28 UNL     1     -33.843   7.765   1.508  1.00 20.00     0.163 HD
ENDROOT
BRANCH   2   5
HETATM    5  C9  UNL     1     -33.452   6.670   3.294  1.00 20.00     0.025 C 
HETATM    6  C6  UNL     1     -32.610   5.409   3.046  1.00 20.00     0.038 C 
HETATM    7  C7  UNL     1     -33.056   7.272   4.650  1.00 20.00     0.038 C 
BRANCH   5   8
HETATM    8  C8  UNL     1     -34.950   6.283   3.261  1.00 20.00     0.026 C 
HETATM    9  C5  UNL     1     -35.380   5.281   4.328  1.00 20.00     0.007 C 
ENDBRANCH   5   8
ENDBRANCH   2   5
BRANCH   1  10
HETATM   10  C4  UNL     1     -31.901   9.276   1.025  1.00 20.00     0.078 A 
HETATM   11  C2  UNL     1     -33.046   9.326   0.069  1.00 20.00     0.015 A 
HETATM   12  C3  UNL     1     -32.787  10.476   0.995  1.00 20.00     0.015 A 
ENDBRANCH   1  10
TORSDOF 3
ENDMDL
MODEL 4
REMARK VINA RESULT:      -4.8      1.351      4.496
REMARK  3 active torsions:
REMARK  status: ('A' for Active; 'I' for Inactive)
REMARK    1  A    between atoms: C1_1  and  C4_4 
REMARK       I    between atoms: C1_1  and  N10_10 
REMARK    2  A    between atoms: C8_8  and  C9_9 
REMARK    3  A    between atoms: C9_9  and  N10_10 
ROOT
HETATM    1  C1  UNL     1     -33.661   6.928   3.822  1.00 20.00     0.222 C 
HETATM    2  N10 UNL     1     -33.229   7.215   2.546  1.00 20.00    -0.352 N 
HETATM    3  O11 UNL     1     -33.348   7.515   4.851  1.00 20.00    -0.273 OA
HETATM    4  H28 UNL     1     -33.569   6.647   1.781  1.00 20.00     0.163 HD
ENDROOT
BRANCH   2   5
HETATM    5  C9  UNL     1     -32.307   8.299   2.251  1.00 20.00     0.025 C 
HETATM    6  C6  UNL     1     -31.277   8.378   3.390  1.00 20.00     0.038 C 
HETATM    7  C7  UNL     1     -31.571   7.994   0.938  1.00 20.00     0.038 C 
BRANCH   5   8
HETATM    8  C8  UNL     1     -33.070   9.642   2.175  1.00 20.00     0.026 C 
HETATM    9  C5  UNL     1     -32.617  10.579   1.061  1.00 20.00     0.007 C 
ENDBRANCH   5   8
ENDBRANCH   2   5
BRANCH   1  10
HETATM   10  C4  UNL     1     -34.607   5.775   3.891  1.00 20.00     0.078 A 
HETATM   11  C2  UNL     1     -34.047   4.404   4.074  1.00 20.00     0.015 A 
HETATM   12  C3  UNL     1     -34.780   5.075   5.197  1.00 20.00     0.015 A 
ENDBRANCH   1  10
TORSDOF 3
ENDMDL
MODEL 5
REMARK VINA RESULT:      -4.7      1.374      1.537
REMARK  3 active torsions:
REMARK  status: ('A' for Active; 'I' for Inactive)
REMARK    1  A    between atoms: C1_1  and  C4_4 
REMARK       I    between atoms: C1_1  and  N10_10 
REMARK    2  A    between atoms: C8_8  and  C9_9 
REMARK    3  A    between atoms: C9_9  and  N10_10 
ROOT
HETATM    1  C1  UNL     1     -32.987   7.332   2.409  1.00 20.00     0.222 C 
HETATM    2  N10 UNL     1     -33.282   7.071   3.728  1.00 20.00    -0.352 N 
HETATM    3  O11 UNL     1     -33.401   6.723   1.430  1.00 20.00    -0.273 OA
HETATM    4  H28 UNL     1     -32.869   7.657   4.442  1.00 20.00     0.163 HD
ENDROOT
BRANCH   2   5
HETATM    5  C9  UNL     1     -34.164   5.991   4.140  1.00 20.00     0.025 C 
HETATM    6  C6  UNL     1     -35.539   6.220   3.493  1.00 20.00     0.038 C 
HETATM    7  C7  UNL     1     -33.596   4.656   3.638  1.00 20.00     0.038 C 
BRANCH   5   8
HETATM    8  C8  UNL     1     -34.330   5.995   5.678  1.00 20.00     0.026 C 
HETATM    9  C5  UNL     1     -33.871   7.273   6.373  1.00 20.00     0.007 C 
ENDBRANCH   5   8
ENDBRANCH   2   5
BRANCH   1  10
HETATM   10  C4  UNL     1     -32.063   8.490   2.218  1.00 20.00     0.078 A 
HETATM   11  C2  UNL     1     -31.474   8.716   0.865  1.00 20.00     0.015 A 
HETATM   12  C3  UNL     1     -32.529   9.642   1.393  1.00 20.00     0.015 A 
ENDBRANCH   1  10
TORSDOF 3
ENDMDL
MODEL 6
REMARK VINA RESULT:      -4.6      1.331      4.544
REMARK  3 active torsions:
REMARK  status: ('A' for Active; 'I' for Inactive)
REMARK    1  A    between atoms: C1_1  and  C4_4 
REMARK       I    between atoms: C1_1  and  N10_10 
REMARK    2  A    between atoms: C8_8  and  C9_9 
REMARK    3  A    between atoms: C9_9  and  N10_10 
ROOT
HETATM    1  C1  UNL     1     -33.647   6.953   3.798  1.00 20.00     0.222 C 
HETATM    2  N10 UNL     1     -33.242   7.304   2.530  1.00 20.00    -0.352 N 
HETATM    3  O11 UNL     1     -33.312   7.487   4.849  1.00 20.00    -0.273 OA
HETATM    4  H28 UNL     1     -33.598   6.775   1.744  1.00 20.00     0.163 HD
ENDROOT
BRANCH   2   5
HETATM    5  C9  UNL     1     -32.326   8.401   2.270  1.00 20.00     0.025 C 
HETATM    6  C6  UNL     1     -33.103   9.720   2.405  1.00 20.00     0.038 C 
HETATM    7  C7  UNL     1     -31.201   8.379   3.316  1.00 20.00     0.038 C 
BRANCH   5   8
HETATM    8  C8  UNL     1     -31.765   8.299   0.832  1.00 20.00     0.026 C 
HETATM    9  C5  UNL     1     -32.443   9.206  -0.190  1.00 20.00     0.007 C 
ENDBRANCH   5   8
ENDBRANCH   2   5
BRANCH   1  10
HETATM   10  C4  UNL     1     -34.593   5.798   3.829  1.00 20.00     0.078 A 
HETATM   11  C2  UNL     1     -34.033   4.423   3.983  1.00 20.00     0.015 A 
HETATM   12  C3  UNL     1     -34.778   5.064   5.115  1.00 20.00     0.015 A 
ENDBRANCH   1  10
TORSDOF 3
ENDMDL
MODEL 7
REMARK VINA RESULT:      -4.1      0.832      4.326
REMARK  3 active torsions:
REMARK  status: ('A' for Active; 'I' for Inactive)
REMARK    1  A    between atoms: C1_1  and  C4_4 
REMARK       I    between atoms: C1_1  and  N10_10 
REMARK    2  A    between atoms: C8_8  and  C9_9 
REMARK    3  A    between atoms: C9_9  and  N10_10 
ROOT
HETATM    1  C1  UNL     1     -32.618   7.577   2.865  1.00 20.00     0.222 C 
HETATM    2  N10 UNL     1     -33.130   7.884   1.623  1.00 20.00    -0.352 N 
HETATM    3  O11 UNL     1     -31.749   8.191   3.472  1.00 20.00    -0.273 OA
HETATM    4  H28 UNL     1     -33.851   7.288   1.236  1.00 20.00     0.163 HD
ENDROOT
BRANCH   2   5
HETATM    5  C9  UNL     1     -32.681   9.027   0.847  1.00 20.00     0.025 C 
HETATM    6  C6  UNL     1     -31.145   9.042   0.856  1.00 20.00     0.038 C 
HETATM    7  C7  UNL     1     -33.167   8.876  -0.602  1.00 20.00     0.038 C 
BRANCH   5   8
HETATM    8  C8  UNL     1     -33.196  10.340   1.484  1.00 20.00     0.026 C 
HETATM    9  C5  UNL     1     -32.111  11.341   1.863  1.00 20.00     0.007 C 
ENDBRANCH   5   8
ENDBRANCH   2   5
BRANCH   1  10
HETATM   10  C4  UNL     1     -33.228   6.362   3.482  1.00 20.00     0.078 A 
HETATM   11  C2  UNL     1     -34.088   6.531   4.690  1.00 20.00     0.015 A 
HETATM   12  C3  UNL     1     -34.704   6.173   3.371  1.00 20.00     0.015 A 
ENDBRANCH   1  10
TORSDOF 3
ENDMDL
MODEL 8
REMARK VINA RESULT:      -4.1     10.724     11.830
REMARK  3 active torsions:
REMARK  status: ('A' for Active; 'I' for Inactive)
REMARK    1  A    between atoms: C1_1  and  C4_4 
REMARK       I    between atoms: C1_1  and  N10_10 
REMARK    2  A    between atoms: C8_8  and  C9_9 
REMARK    3  A    between atoms: C9_9  and  N10_10 
ROOT
HETATM    1  C1  UNL     1     -36.470  13.918  -5.456  1.00 20.00     0.222 C 
HETATM    2  N10 UNL     1     -35.765  14.991  -5.957  1.00 20.00    -0.352 N 
HETATM    3  O11 UNL     1     -36.031  12.800  -5.216  1.00 20.00    -0.273 OA
HETATM    4  H28 UNL     1     -36.255  15.863  -6.109  1.00 20.00     0.163 HD
ENDROOT
BRANCH   2   5
HETATM    5  C9  UNL     1     -34.349  14.924  -6.274  1.00 20.00     0.025 C 
HETATM    6  C6  UNL     1     -34.144  13.834  -7.338  1.00 20.00     0.038 C 
HETATM    7  C7  UNL     1     -33.896  16.273  -6.851  1.00 20.00     0.038 C 
BRANCH   5   8
HETATM    8  C8  UNL     1     -33.537  14.546  -5.012  1.00 20.00     0.026 C 
HETATM    9  C5  UNL     1     -33.576  15.575  -3.888  1.00 20.00     0.007 C 
ENDBRANCH   5   8
ENDBRANCH   2   5
BRANCH   1  10
HETATM   10  C4  UNL     1     -37.911  14.213  -5.201  1.00 20.00     0.078 A 
HETATM   11  C2  UNL     1     -38.262  15.457  -4.454  1.00 20.00     0.015 A 
HETATM   12  C3  UNL     1     -38.541  15.356  -5.924  1.00 20.00     0.015 A 
ENDBRANCH   1  10
TORSDOF 3
ENDMDL
MODEL 9
REMARK VINA RESULT:      -4.0      0.951      4.447
REMARK  3 active torsions:
REMARK  status: ('A' for Active; 'I' for Inactive)
REMARK    1  A    between atoms: C1_1  and  C4_4 
REMARK       I    between atoms: C1_1  and  N10_10 
REMARK    2  A    between atoms: C8_8  and  C9_9 
REMARK    3  A    between atoms: C9_9  and  N10_10 
ROOT
HETATM    1  C1  UNL     1     -32.532   7.751   3.117  1.00 20.00     0.222 C 
HETATM    2  N10 UNL     1     -33.118   8.174   1.944  1.00 20.00    -0.352 N 
HETATM    3  O11 UNL     1     -31.476   8.148   3.595  1.00 20.00    -0.273 OA
HETATM    4  H28 UNL     1     -33.997   7.759   1.665  1.00 20.00     0.163 HD
ENDROOT
BRANCH   2   5
HETATM    5  C9  UNL     1     -32.527   9.192   1.092  1.00 20.00     0.025 C 
HETATM    6  C6  UNL     1     -32.599  10.539   1.829  1.00 20.00     0.038 C 
HETATM    7  C7  UNL     1     -31.053   8.845   0.836  1.00 20.00     0.038 C 
BRANCH   5   8
HETATM    8  C8  UNL     1     -33.321   9.306  -0.231  1.00 20.00     0.026 C 
HETATM    9  C5  UNL     1     -32.655   8.658  -1.441  1.00 20.00     0.007 C 
ENDBRANCH   5   8
ENDBRANCH   2   5
BRANCH   1  10
HETATM   10  C4  UNL     1     -33.315   6.700   3.834  1.00 20.00     0.078 A 
HETATM   11  C2  UNL     1     -34.676   6.356   3.327  1.00 20.00     0.015 A 
HETATM   12  C3  UNL     1     -33.541   5.393   3.150  1.00 20.00     0.015 A 
ENDBRANCH   1  10
TORSDOF 3
ENDMDL
