MODEL 1
REMARK VINA RESULT:      -5.9      0.000      0.000
REMARK  1 active torsions:
REMARK  status: ('A' for Active; 'I' for Inactive)
REMARK    1  A    between atoms: C7_7  and  C8_8 
ROOT
HETATM    1  C1  UNL     1     -34.428   4.687   5.491  1.00 20.00     0.005 C 
HETATM    2  C2  UNL     1     -33.963   4.179   4.118  1.00 20.00     0.005 C 
HETATM    3  C3  UNL     1     -35.412   6.028   3.788  1.00 20.00     0.010 C 
HETATM    4  C4  UNL     1     -33.578   6.986   4.961  1.00 20.00     0.010 C 
HETATM    5  C5  UNL     1     -34.842   6.139   5.201  1.00 20.00    -0.014 C 
HETATM    6  C6  UNL     1     -34.131   5.418   3.218  1.00 20.00    -0.009 C 
HETATM    7  C7  UNL     1     -33.050   6.454   3.612  1.00 20.00     0.004 C 
ENDROOT
BRANCH   7   8
HETATM    8  C8  UNL     1     -32.887   7.561   2.577  1.00 20.00     0.119 C 
HETATM    9 CL9  UNL     1     -31.454   8.538   2.947  1.00 20.00    -0.130 Cl
ENDBRANCH   7   8
TORSDOF 1
ENDMDL
MODEL 2
REMARK VINA RESULT:      -4.1      1.185      1.805
REMARK  1 active torsions:
REMARK  status: ('A' for Active; 'I' for Inactive)
REMARK    1  A    between atoms: C7_7  and  C8_8 
ROOT
HETATM    1  C1  UNL     1     -34.155   3.858   3.872  1.00 20.00     0.005 C 
HETATM    2  C2  UNL     1     -33.227   4.845   3.148  1.00 20.00     0.005 C 
HETATM    3  C3  UNL     1     -35.247   5.965   3.687  1.00 20.00     0.010 C 
HETATM    4  C4  UNL     1     -34.348   5.424   5.822  1.00 20.00     0.010 C 
HETATM    5  C5  UNL     1     -35.108   4.784   4.645  1.00 20.00    -0.014 C 
HETATM    6  C6  UNL     1     -33.739   6.215   3.629  1.00 20.00    -0.009 C 
HETATM    7  C7  UNL     1     -33.359   6.380   5.121  1.00 20.00     0.004 C 
ENDROOT
BRANCH   7   8
HETATM    8  C8  UNL     1     -33.497   7.816   5.612  1.00 20.00     0.119 C 
HETATM    9 CL9  UNL     1     -32.113   8.784   5.072  1.00 20.00    -0.130 Cl
ENDBRANCH   7   8
TORSDOF 1
ENDMDL
MODEL 3
REMARK VINA RESULT:      -4.1      1.440      2.505
REMARK  1 active torsions:
REMARK  status: ('A' for Active; 'I' for Inactive)
REMARK    1  A    between atoms: C7_7  and  C8_8 
ROOT
HETATM    1  C1  UNL     1     -34.800   6.000   4.006  1.00 20.00     0.005 C 
HETATM    2  C2  UNL     1     -33.868   6.965   4.753  1.00 20.00     0.005 C 
HETATM    3  C3  UNL     1     -32.585   5.752   3.169  1.00 20.00     0.010 C 
HETATM    4  C4  UNL     1     -34.100   6.979   1.806  1.00 20.00     0.010 C 
HETATM    5  C5  UNL     1     -34.039   5.726   2.699  1.00 20.00    -0.014 C 
HETATM    6  C6  UNL     1     -32.705   7.157   3.762  1.00 20.00    -0.009 C 
HETATM    7  C7  UNL     1     -33.218   7.994   2.566  1.00 20.00     0.004 C 
ENDROOT
BRANCH   7   8
HETATM    8  C8  UNL     1     -32.091   8.543   1.699  1.00 20.00     0.119 C 
HETATM    9 CL9  UNL     1     -32.526  10.141   1.068  1.00 20.00    -0.130 Cl
ENDBRANCH   7   8
TORSDOF 1
ENDMDL
MODEL 4
REMARK VINA RESULT:      -4.0     11.911     12.741
REMARK  1 active torsions:
REMARK  status: ('A' for Active; 'I' for Inactive)
REMARK    1  A    between atoms: C7_7  and  C8_8 
ROOT
HETATM    1  C1  UNL     1     -33.650  16.656  -2.798  1.00 20.00     0.005 C 
HETATM    2  C2  UNL     1     -35.122  16.317  -2.515  1.00 20.00     0.005 C 
HETATM    3  C3  UNL     1     -34.871  16.706  -4.842  1.00 20.00     0.010 C 
HETATM    4  C4  UNL     1     -33.513  14.790  -4.469  1.00 20.00     0.010 C 
HETATM    5  C5  UNL     1     -33.500  16.319  -4.291  1.00 20.00    -0.014 C 
HETATM    6  C6  UNL     1     -35.622  15.791  -3.873  1.00 20.00    -0.009 C 
HETATM    7  C7  UNL     1     -34.970  14.410  -4.128  1.00 20.00     0.004 C 
ENDROOT
BRANCH   7   8
HETATM    8  C8  UNL     1     -35.645  13.636  -5.256  1.00 20.00     0.119 C 
HETATM    9 CL9  UNL     1     -34.610  13.625  -6.695  1.00 20.00    -0.130 Cl
ENDBRANCH   7   8
TORSDOF 1
ENDMDL
MODEL 5
REMARK VINA RESULT:      -4.0      2.147      3.597
REMARK  1 active torsions:
REMARK  status: ('A' for Active; 'I' for Inactive)
REMARK    1  A    between atoms: C7_7  and  C8_8 
ROOT
HETATM    1  C1  UNL     1     -32.188   8.612   2.715  1.00 20.00     0.005 C 
HETATM    2  C2  UNL     1     -33.265   8.082   1.756  1.00 20.00     0.005 C 
HETATM    3  C3  UNL     1     -32.258   6.236   2.854  1.00 20.00     0.010 C 
HETATM    4  C4  UNL     1     -33.279   7.430   4.640  1.00 20.00     0.010 C 
HETATM    5  C5  UNL     1     -32.037   7.467   3.731  1.00 20.00    -0.014 C 
HETATM    6  C6  UNL     1     -33.626   6.715   2.366  1.00 20.00    -0.009 C 
HETATM    7  C7  UNL     1     -34.397   6.960   3.685  1.00 20.00     0.004 C 
ENDROOT
BRANCH   7   8
HETATM    8  C8  UNL     1     -35.107   5.711   4.197  1.00 20.00     0.119 C 
HETATM    9 CL9  UNL     1     -34.549   5.317   5.833  1.00 20.00    -0.130 Cl
ENDBRANCH   7   8
TORSDOF 1
ENDMDL
MODEL 6
REMARK VINA RESULT:      -3.9     11.737     12.646
REMARK  1 active torsions:
REMARK  status: ('A' for Active; 'I' for Inactive)
REMARK    1  A    between atoms: C7_7  and  C8_8 
ROOT
HETATM    1  C1  UNL     1     -34.809  14.219  -4.196  1.00 20.00     0.005 C 
HETATM    2  C2  UNL     1     -33.347  14.622  -4.441  1.00 20.00     0.005 C 
HETATM    3  C3  UNL     1     -34.740  16.455  -5.012  1.00 20.00     0.010 C 
HETATM    4  C4  UNL     1     -35.128  16.192  -2.680  1.00 20.00     0.010 C 
HETATM    5  C5  UNL     1     -35.517  15.575  -4.036  1.00 20.00    -0.014 C 
HETATM    6  C6  UNL     1     -33.392  16.158  -4.351  1.00 20.00    -0.009 C 
HETATM    7  C7  UNL     1     -33.639  16.551  -2.874  1.00 20.00     0.004 C 
ENDROOT
BRANCH   7   8
HETATM    8  C8  UNL     1     -33.359  18.024  -2.599  1.00 20.00     0.119 C 
HETATM    9 CL9  UNL     1     -32.474  18.204  -1.073  1.00 20.00    -0.130 Cl
ENDBRANCH   7   8
TORSDOF 1
ENDMDL
MODEL 7
REMARK VINA RESULT:      -3.9     11.829     12.781
REMARK  1 active torsions:
REMARK  status: ('A' for Active; 'I' for Inactive)
REMARK    1  A    between atoms: C7_7  and  C8_8 
ROOT
HETATM    1  C1  UNL     1     -33.894  14.996  -6.409  1.00 20.00     0.005 C 
HETATM    2  C2  UNL     1     -35.022  14.292  -5.640  1.00 20.00     0.005 C 
HETATM    3  C3  UNL     1     -33.111  14.409  -4.238  1.00 20.00     0.010 C 
HETATM    4  C4  UNL     1     -33.667  16.697  -4.579  1.00 20.00     0.010 C 
HETATM    5  C5  UNL     1     -32.980  15.513  -5.286  1.00 20.00    -0.014 C 
HETATM    6  C6  UNL     1     -34.635  14.529  -4.168  1.00 20.00    -0.009 C 
HETATM    7  C7  UNL     1     -34.848  16.027  -3.845  1.00 20.00     0.004 C 
ENDROOT
BRANCH   7   8
HETATM    8  C8  UNL     1     -34.837  16.317  -2.348  1.00 20.00     0.119 C 
HETATM    9 CL9  UNL     1     -33.408  17.275  -1.921  1.00 20.00    -0.130 Cl
ENDBRANCH   7   8
TORSDOF 1
ENDMDL
MODEL 8
REMARK VINA RESULT:      -3.8     11.915     13.108
REMARK  1 active torsions:
REMARK  status: ('A' for Active; 'I' for Inactive)
REMARK    1  A    between atoms: C7_7  and  C8_8 
ROOT
HETATM    1  C1  UNL     1     -34.384  16.084  -3.346  1.00 20.00     0.005 C 
HETATM    2  C2  UNL     1     -33.489  16.793  -4.373  1.00 20.00     0.005 C 
HETATM    3  C3  UNL     1     -33.027  14.467  -4.447  1.00 20.00     0.010 C 
HETATM    4  C4  UNL     1     -35.300  14.585  -5.136  1.00 20.00     0.010 C 
HETATM    5  C5  UNL     1     -34.430  14.638  -3.867  1.00 20.00    -0.014 C 
HETATM    6  C6  UNL     1     -33.164  15.673  -5.378  1.00 20.00    -0.009 C 
HETATM    7  C7  UNL     1     -34.451  15.347  -6.175  1.00 20.00     0.004 C 
ENDROOT
BRANCH   7   8
HETATM    8  C8  UNL     1     -34.180  14.515  -7.423  1.00 20.00     0.119 C 
HETATM    9 CL9  UNL     1     -35.043  12.969  -7.327  1.00 20.00    -0.130 Cl
ENDBRANCH   7   8
TORSDOF 1
ENDMDL
MODEL 9
REMARK VINA RESULT:      -3.7      2.233      3.703
REMARK  1 active torsions:
REMARK  status: ('A' for Active; 'I' for Inactive)
REMARK    1  A    between atoms: C7_7  and  C8_8 
ROOT
HETATM    1  C1  UNL     1     -31.725   8.059   2.922  1.00 20.00     0.005 C 
HETATM    2  C2  UNL     1     -32.150   8.028   4.398  1.00 20.00     0.005 C 
HETATM    3  C3  UNL     1     -34.097   7.888   3.050  1.00 20.00     0.010 C 
HETATM    4  C4  UNL     1     -32.920   5.894   2.502  1.00 20.00     0.010 C 
HETATM    5  C5  UNL     1     -32.918   7.405   2.206  1.00 20.00    -0.014 C 
HETATM    6  C6  UNL     1     -33.518   7.323   4.348  1.00 20.00    -0.009 C 
HETATM    7  C7  UNL     1     -33.284   5.832   4.001  1.00 20.00     0.004 C 
ENDROOT
BRANCH   7   8
HETATM    8  C8  UNL     1     -34.509   4.964   4.263  1.00 20.00     0.119 C 
HETATM    9 CL9  UNL     1     -34.834   4.873   6.004  1.00 20.00    -0.130 Cl
ENDBRANCH   7   8
TORSDOF 1
ENDMDL
