MODEL 1
REMARK VINA RESULT:      -4.4      0.000      0.000
REMARK  1 active torsions:
REMARK  status: ('A' for Active; 'I' for Inactive)
REMARK    1  A    between atoms: C1_1  and  C5_5 
ROOT
HETATM    1  C2  UNL     1     -34.660   4.959   5.922  1.00 20.00     0.002 C 
HETATM    2  C3  UNL     1     -34.275   4.392   4.545  1.00 20.00     0.016 C 
HETATM    3  C4  UNL     1     -34.122   6.324   5.457  1.00 20.00     0.016 C 
HETATM    4  C5  UNL     1     -34.296   5.848   3.980  1.00 20.00     0.009 C 
HETATM    5  C6  UNL     1     -35.641   6.246   3.367  1.00 20.00     0.023 C 
ENDROOT
BRANCH   4   6
HETATM    6  C1  UNL     1     -33.123   6.206   3.026  1.00 20.00     0.240 C 
HETATM    7  O7  UNL     1     -32.993   7.305   2.496  1.00 20.00    -0.306 OA
ENDBRANCH   4   6
TORSDOF 1
ENDMDL
MODEL 2
REMARK VINA RESULT:      -4.3      1.339      1.719
REMARK  1 active torsions:
REMARK  status: ('A' for Active; 'I' for Inactive)
REMARK    1  A    between atoms: C1_1  and  C5_5 
ROOT
HETATM    1  C2  UNL     1     -33.984   7.205   5.913  1.00 20.00     0.002 C 
HETATM    2  C3  UNL     1     -34.359   5.716   5.814  1.00 20.00     0.016 C 
HETATM    3  C4  UNL     1     -33.365   7.092   4.508  1.00 20.00     0.016 C 
HETATM    4  C5  UNL     1     -34.249   5.828   4.260  1.00 20.00     0.009 C 
HETATM    5  C6  UNL     1     -35.581   6.142   3.575  1.00 20.00     0.023 C 
ENDROOT
BRANCH   4   6
HETATM    6  C1  UNL     1     -33.528   4.643   3.561  1.00 20.00     0.240 C 
HETATM    7  O7  UNL     1     -33.042   4.716   2.437  1.00 20.00    -0.306 OA
ENDBRANCH   4   6
TORSDOF 1
ENDMDL
MODEL 3
REMARK VINA RESULT:      -4.2      1.011      1.779
REMARK  1 active torsions:
REMARK  status: ('A' for Active; 'I' for Inactive)
REMARK    1  A    between atoms: C1_1  and  C5_5 
ROOT
HETATM    1  C2  UNL     1     -35.034   4.681   4.580  1.00 20.00     0.002 C 
HETATM    2  C3  UNL     1     -35.311   6.026   3.886  1.00 20.00     0.016 C 
HETATM    3  C4  UNL     1     -33.534   4.917   4.331  1.00 20.00     0.016 C 
HETATM    4  C5  UNL     1     -33.835   6.442   4.183  1.00 20.00     0.009 C 
HETATM    5  C6  UNL     1     -33.673   7.224   5.489  1.00 20.00     0.023 C 
ENDROOT
BRANCH   4   6
HETATM    6  C1  UNL     1     -33.100   7.153   3.013  1.00 20.00     0.240 C 
HETATM    7  O7  UNL     1     -32.166   7.932   3.176  1.00 20.00    -0.306 OA
ENDBRANCH   4   6
TORSDOF 1
ENDMDL
MODEL 4
REMARK VINA RESULT:      -4.2      0.970      1.771
REMARK  1 active torsions:
REMARK  status: ('A' for Active; 'I' for Inactive)
REMARK    1  A    between atoms: C1_1  and  C5_5 
ROOT
HETATM    1  C2  UNL     1     -34.916   5.480   5.121  1.00 20.00     0.002 C 
HETATM    2  C3  UNL     1     -33.579   6.238   5.056  1.00 20.00     0.016 C 
HETATM    3  C4  UNL     1     -35.219   5.992   3.702  1.00 20.00     0.016 C 
HETATM    4  C5  UNL     1     -33.687   6.225   3.498  1.00 20.00     0.009 C 
HETATM    5  C6  UNL     1     -32.972   5.039   2.847  1.00 20.00     0.023 C 
ENDROOT
BRANCH   4   6
HETATM    6  C1  UNL     1     -33.308   7.558   2.797  1.00 20.00     0.240 C 
HETATM    7  O7  UNL     1     -32.186   7.798   2.363  1.00 20.00    -0.306 OA
ENDBRANCH   4   6
TORSDOF 1
ENDMDL
MODEL 5
REMARK VINA RESULT:      -4.1      1.842      2.908
REMARK  1 active torsions:
REMARK  status: ('A' for Active; 'I' for Inactive)
REMARK    1  A    between atoms: C1_1  and  C5_5 
ROOT
HETATM    1  C2  UNL     1     -32.886   7.558   3.349  1.00 20.00     0.002 C 
HETATM    2  C3  UNL     1     -33.525   7.184   4.697  1.00 20.00     0.016 C 
HETATM    3  C4  UNL     1     -33.090   6.099   2.903  1.00 20.00     0.016 C 
HETATM    4  C5  UNL     1     -34.192   5.956   4.000  1.00 20.00     0.009 C 
HETATM    5  C6  UNL     1     -35.605   6.240   3.485  1.00 20.00     0.023 C 
ENDROOT
BRANCH   4   6
HETATM    6  C1  UNL     1     -34.152   4.631   4.812  1.00 20.00     0.240 C 
HETATM    7  O7  UNL     1     -34.511   3.549   4.358  1.00 20.00    -0.306 OA
ENDBRANCH   4   6
TORSDOF 1
ENDMDL
MODEL 6
REMARK VINA RESULT:      -4.0      1.516      2.581
REMARK  1 active torsions:
REMARK  status: ('A' for Active; 'I' for Inactive)
REMARK    1  A    between atoms: C1_1  and  C5_5 
ROOT
HETATM    1  C2  UNL     1     -33.142   4.751   2.694  1.00 20.00     0.002 C 
HETATM    2  C3  UNL     1     -33.102   6.178   3.267  1.00 20.00     0.016 C 
HETATM    3  C4  UNL     1     -33.851   4.305   3.986  1.00 20.00     0.016 C 
HETATM    4  C5  UNL     1     -34.274   5.790   4.223  1.00 20.00     0.009 C 
HETATM    5  C6  UNL     1     -35.657   6.125   3.660  1.00 20.00     0.023 C 
ENDROOT
BRANCH   4   6
HETATM    6  C1  UNL     1     -34.131   6.294   5.685  1.00 20.00     0.240 C 
HETATM    7  O7  UNL     1     -33.957   7.472   5.980  1.00 20.00    -0.306 OA
ENDBRANCH   4   6
TORSDOF 1
ENDMDL
MODEL 7
REMARK VINA RESULT:      -3.9      1.502      2.790
REMARK  1 active torsions:
REMARK  status: ('A' for Active; 'I' for Inactive)
REMARK    1  A    between atoms: C1_1  and  C5_5 
ROOT
HETATM    1  C2  UNL     1     -34.278   5.945   2.396  1.00 20.00     0.002 C 
HETATM    2  C3  UNL     1     -35.336   6.136   3.496  1.00 20.00     0.016 C 
HETATM    3  C4  UNL     1     -33.195   6.112   3.477  1.00 20.00     0.016 C 
HETATM    4  C5  UNL     1     -34.261   5.727   4.552  1.00 20.00     0.009 C 
HETATM    5  C6  UNL     1     -34.273   4.235   4.891  1.00 20.00     0.023 C 
ENDROOT
BRANCH   4   6
HETATM    6  C1  UNL     1     -34.240   6.591   5.844  1.00 20.00     0.240 C 
HETATM    7  O7  UNL     1     -33.398   7.456   6.065  1.00 20.00    -0.306 OA
ENDBRANCH   4   6
TORSDOF 1
ENDMDL
MODEL 8
REMARK VINA RESULT:      -3.8      2.220      3.691
REMARK  1 active torsions:
REMARK  status: ('A' for Active; 'I' for Inactive)
REMARK    1  A    between atoms: C1_1  and  C5_5 
ROOT
HETATM    1  C2  UNL     1     -31.886   8.457   1.973  1.00 20.00     0.002 C 
HETATM    2  C3  UNL     1     -33.380   8.200   2.231  1.00 20.00     0.016 C 
HETATM    3  C4  UNL     1     -31.596   7.889   3.374  1.00 20.00     0.016 C 
HETATM    4  C5  UNL     1     -32.976   7.160   3.323  1.00 20.00     0.009 C 
HETATM    5  C6  UNL     1     -32.888   5.725   2.797  1.00 20.00     0.023 C 
ENDROOT
BRANCH   4   6
HETATM    6  C1  UNL     1     -33.806   7.221   4.636  1.00 20.00     0.240 C 
HETATM    7  O7  UNL     1     -34.437   6.268   5.082  1.00 20.00    -0.306 OA
ENDBRANCH   4   6
TORSDOF 1
ENDMDL
MODEL 9
REMARK VINA RESULT:      -3.8      1.908      3.136
REMARK  1 active torsions:
REMARK  status: ('A' for Active; 'I' for Inactive)
REMARK    1  A    between atoms: C1_1  and  C5_5 
ROOT
HETATM    1  C2  UNL     1     -32.676   7.594   2.675  1.00 20.00     0.002 C 
HETATM    2  C3  UNL     1     -32.672   6.169   3.255  1.00 20.00     0.016 C 
HETATM    3  C4  UNL     1     -34.156   7.704   3.082  1.00 20.00     0.016 C 
HETATM    4  C5  UNL     1     -33.920   6.553   4.112  1.00 20.00     0.009 C 
HETATM    5  C6  UNL     1     -33.567   7.054   5.514  1.00 20.00     0.023 C 
ENDROOT
BRANCH   4   6
HETATM    6  C1  UNL     1     -35.039   5.477   4.170  1.00 20.00     0.240 C 
HETATM    7  O7  UNL     1     -34.867   4.345   4.610  1.00 20.00    -0.306 OA
ENDBRANCH   4   6
TORSDOF 1
ENDMDL
