MODEL 1
REMARK VINA RESULT:      -4.8      0.000      0.000
REMARK  2 active torsions:
REMARK  status: ('A' for Active; 'I' for Inactive)
REMARK    1  A    between atoms: C1_1  and  C9_9 
REMARK    2  A    between atoms: C2_2  and  C8_8 
ROOT
HETATM    1  C1  UNL     1     -33.233   6.826   4.405  1.00 20.00    -0.016 C 
HETATM    2  C2  UNL     1     -32.573   7.612   3.530  1.00 20.00    -0.087 C 
HETATM    3  C3  UNL     1     -31.604   8.648   4.049  1.00 20.00     0.043 C 
ENDROOT
BRANCH   1   4
HETATM    4  C9  UNL     1     -34.256   5.713   4.191  1.00 20.00    -0.033 C 
HETATM    5  C5  UNL     1     -34.616   5.125   5.577  1.00 20.00     0.018 C 
HETATM    6  C6  UNL     1     -35.569   6.209   3.561  1.00 20.00     0.018 C 
HETATM    7  C7  UNL     1     -33.649   4.582   3.346  1.00 20.00     0.018 C 
ENDBRANCH   1   4
BRANCH   2   8
HETATM    8  C8  UNL     1     -32.656   7.539   2.023  1.00 20.00     0.029 C 
HETATM    9  C4  UNL     1     -32.154   8.808   1.344  1.00 20.00     0.010 C 
ENDBRANCH   2   8
TORSDOF 2
ENDMDL
MODEL 2
REMARK VINA RESULT:      -4.7      0.079      1.439
REMARK  2 active torsions:
REMARK  status: ('A' for Active; 'I' for Inactive)
REMARK    1  A    between atoms: C1_1  and  C9_9 
REMARK    2  A    between atoms: C2_2  and  C8_8 
ROOT
HETATM    1  C1  UNL     1     -33.253   6.813   4.469  1.00 20.00    -0.016 C 
HETATM    2  C2  UNL     1     -32.597   7.603   3.594  1.00 20.00    -0.087 C 
HETATM    3  C3  UNL     1     -31.684   8.688   4.115  1.00 20.00     0.043 C 
ENDROOT
BRANCH   1   4
HETATM    4  C9  UNL     1     -34.226   5.657   4.254  1.00 20.00    -0.033 C 
HETATM    5  C5  UNL     1     -35.500   6.225   3.582  1.00 20.00     0.018 C 
HETATM    6  C6  UNL     1     -33.676   4.567   3.318  1.00 20.00     0.018 C 
HETATM    7  C7  UNL     1     -34.641   5.047   5.602  1.00 20.00     0.018 C 
ENDBRANCH   1   4
BRANCH   2   8
HETATM    8  C8  UNL     1     -32.633   7.491   2.088  1.00 20.00     0.029 C 
HETATM    9  C4  UNL     1     -32.161   8.762   1.392  1.00 20.00     0.010 C 
ENDBRANCH   2   8
TORSDOF 2
ENDMDL
MODEL 3
REMARK VINA RESULT:      -4.5      1.102      4.341
REMARK  2 active torsions:
REMARK  status: ('A' for Active; 'I' for Inactive)
REMARK    1  A    between atoms: C1_1  and  C9_9 
REMARK    2  A    between atoms: C2_2  and  C8_8 
ROOT
HETATM    1  C1  UNL     1     -33.094   7.374   2.330  1.00 20.00    -0.016 C 
HETATM    2  C2  UNL     1     -33.658   6.911   3.464  1.00 20.00    -0.087 C 
HETATM    3  C3  UNL     1     -34.546   5.690   3.406  1.00 20.00     0.043 C 
ENDROOT
BRANCH   1   4
HETATM    4  C9  UNL     1     -32.170   8.561   2.073  1.00 20.00    -0.033 C 
HETATM    5  C5  UNL     1     -31.433   8.310   0.734  1.00 20.00     0.018 C 
HETATM    6  C6  UNL     1     -32.923   9.895   1.925  1.00 20.00     0.018 C 
HETATM    7  C7  UNL     1     -31.109   8.665   3.180  1.00 20.00     0.018 C 
ENDBRANCH   1   4
BRANCH   2   8
HETATM    8  C8  UNL     1     -33.456   7.465   4.854  1.00 20.00     0.029 C 
HETATM    9  C4  UNL     1     -34.156   6.638   5.926  1.00 20.00     0.010 C 
ENDBRANCH   2   8
TORSDOF 2
ENDMDL
MODEL 4
REMARK VINA RESULT:      -4.4      1.432      4.549
REMARK  2 active torsions:
REMARK  status: ('A' for Active; 'I' for Inactive)
REMARK    1  A    between atoms: C1_1  and  C9_9 
REMARK    2  A    between atoms: C2_2  and  C8_8 
ROOT
HETATM    1  C1  UNL     1     -33.213   7.813   1.493  1.00 20.00    -0.016 C 
HETATM    2  C2  UNL     1     -33.189   7.290   2.736  1.00 20.00    -0.087 C 
HETATM    3  C3  UNL     1     -33.963   6.025   3.024  1.00 20.00     0.043 C 
ENDROOT
BRANCH   1   4
HETATM    4  C9  UNL     1     -32.549   9.055   0.906  1.00 20.00    -0.033 C 
HETATM    5  C5  UNL     1     -33.136   9.286  -0.508  1.00 20.00     0.018 C 
HETATM    6  C6  UNL     1     -32.825  10.332   1.719  1.00 20.00     0.018 C 
HETATM    7  C7  UNL     1     -31.035   8.833   0.755  1.00 20.00     0.018 C 
ENDBRANCH   1   4
BRANCH   2   8
HETATM    8  C8  UNL     1     -32.403   7.818   3.913  1.00 20.00     0.029 C 
HETATM    9  C4  UNL     1     -33.124   7.617   5.241  1.00 20.00     0.010 C 
ENDBRANCH   2   8
TORSDOF 2
ENDMDL
MODEL 5
REMARK VINA RESULT:      -4.4      1.113      4.349
REMARK  2 active torsions:
REMARK  status: ('A' for Active; 'I' for Inactive)
REMARK    1  A    between atoms: C1_1  and  C9_9 
REMARK    2  A    between atoms: C2_2  and  C8_8 
ROOT
HETATM    1  C1  UNL     1     -33.103   7.393   2.274  1.00 20.00    -0.016 C 
HETATM    2  C2  UNL     1     -33.620   6.943   3.435  1.00 20.00    -0.087 C 
HETATM    3  C3  UNL     1     -34.536   5.741   3.422  1.00 20.00     0.043 C 
ENDROOT
BRANCH   1   4
HETATM    4  C9  UNL     1     -32.169   8.561   1.970  1.00 20.00    -0.033 C 
HETATM    5  C5  UNL     1     -31.134   8.654   3.118  1.00 20.00     0.018 C 
HETATM    6  C6  UNL     1     -31.373   8.378   0.666  1.00 20.00     0.018 C 
HETATM    7  C7  UNL     1     -32.954   9.882   1.938  1.00 20.00     0.018 C 
ENDBRANCH   1   4
BRANCH   2   8
HETATM    8  C8  UNL     1     -33.339   7.493   4.813  1.00 20.00     0.029 C 
HETATM    9  C4  UNL     1     -34.100   6.756   5.909  1.00 20.00     0.010 C 
ENDBRANCH   2   8
TORSDOF 2
ENDMDL
MODEL 6
REMARK VINA RESULT:      -4.4      1.112      4.332
REMARK  2 active torsions:
REMARK  status: ('A' for Active; 'I' for Inactive)
REMARK    1  A    between atoms: C1_1  and  C9_9 
REMARK    2  A    between atoms: C2_2  and  C8_8 
ROOT
HETATM    1  C1  UNL     1     -33.114   7.350   2.342  1.00 20.00    -0.016 C 
HETATM    2  C2  UNL     1     -33.693   6.911   3.478  1.00 20.00    -0.087 C 
HETATM    3  C3  UNL     1     -34.642   5.736   3.421  1.00 20.00     0.043 C 
ENDROOT
BRANCH   1   4
HETATM    4  C9  UNL     1     -32.134   8.491   2.084  1.00 20.00    -0.033 C 
HETATM    5  C5  UNL     1     -32.946   9.807   2.004  1.00 20.00     0.018 C 
HETATM    6  C6  UNL     1     -31.101   8.671   3.210  1.00 20.00     0.018 C 
HETATM    7  C7  UNL     1     -31.426   8.294   0.734  1.00 20.00     0.018 C 
ENDBRANCH   1   4
BRANCH   2   8
HETATM    8  C8  UNL     1     -33.456   7.449   4.869  1.00 20.00     0.029 C 
HETATM    9  C4  UNL     1     -34.161   6.631   5.945  1.00 20.00     0.010 C 
ENDBRANCH   2   8
TORSDOF 2
ENDMDL
MODEL 7
REMARK VINA RESULT:      -4.1      1.567      4.446
REMARK  2 active torsions:
REMARK  status: ('A' for Active; 'I' for Inactive)
REMARK    1  A    between atoms: C1_1  and  C9_9 
REMARK    2  A    between atoms: C2_2  and  C8_8 
ROOT
HETATM    1  C1  UNL     1     -32.928   8.667   2.507  1.00 20.00    -0.016 C 
HETATM    2  C2  UNL     1     -33.090   7.421   2.996  1.00 20.00    -0.087 C 
HETATM    3  C3  UNL     1     -33.587   7.238   4.411  1.00 20.00     0.043 C 
ENDROOT
BRANCH   1   4
HETATM    4  C9  UNL     1     -32.450   9.164   1.145  1.00 20.00    -0.033 C 
HETATM    5  C5  UNL     1     -32.369  10.709   1.203  1.00 20.00     0.018 C 
HETATM    6  C6  UNL     1     -31.046   8.657   0.772  1.00 20.00     0.018 C 
HETATM    7  C7  UNL     1     -33.463   8.790   0.052  1.00 20.00     0.018 C 
ENDBRANCH   1   4
BRANCH   2   8
HETATM    8  C8  UNL     1     -32.871   6.130   2.244  1.00 20.00     0.029 C 
HETATM    9  C4  UNL     1     -33.419   4.916   2.985  1.00 20.00     0.010 C 
ENDBRANCH   2   8
TORSDOF 2
ENDMDL
MODEL 8
REMARK VINA RESULT:      -4.1      1.198      3.891
REMARK  2 active torsions:
REMARK  status: ('A' for Active; 'I' for Inactive)
REMARK    1  A    between atoms: C1_1  and  C9_9 
REMARK    2  A    between atoms: C2_2  and  C8_8 
ROOT
HETATM    1  C1  UNL     1     -33.083   7.539   4.407  1.00 20.00    -0.016 C 
HETATM    2  C2  UNL     1     -34.015   6.759   4.990  1.00 20.00    -0.087 C 
HETATM    3  C3  UNL     1     -34.281   6.903   6.471  1.00 20.00     0.043 C 
ENDROOT
BRANCH   1   4
HETATM    4  C9  UNL     1     -32.597   7.625   2.963  1.00 20.00    -0.033 C 
HETATM    5  C5  UNL     1     -31.175   8.237   2.974  1.00 20.00     0.018 C 
HETATM    6  C6  UNL     1     -32.487   6.252   2.277  1.00 20.00     0.018 C 
HETATM    7  C7  UNL     1     -33.503   8.561   2.146  1.00 20.00     0.018 C 
ENDBRANCH   1   4
BRANCH   2   8
HETATM    8  C8  UNL     1     -34.898   5.748   4.297  1.00 20.00     0.029 C 
HETATM    9  C4  UNL     1     -34.521   4.310   4.630  1.00 20.00     0.010 C 
ENDBRANCH   2   8
TORSDOF 2
ENDMDL
MODEL 9
REMARK VINA RESULT:      -4.0     11.038     12.244
REMARK  2 active torsions:
REMARK  status: ('A' for Active; 'I' for Inactive)
REMARK    1  A    between atoms: C1_1  and  C9_9 
REMARK    2  A    between atoms: C2_2  and  C8_8 
ROOT
HETATM    1  C1  UNL     1     -33.489  16.620  -3.440  1.00 20.00    -0.016 C 
HETATM    2  C2  UNL     1     -33.911  17.007  -2.219  1.00 20.00    -0.087 C 
HETATM    3  C3  UNL     1     -32.997  17.836  -1.347  1.00 20.00     0.043 C 
ENDROOT
BRANCH   1   4
HETATM    4  C9  UNL     1     -34.168  15.793  -4.528  1.00 20.00    -0.033 C 
HETATM    5  C5  UNL     1     -33.199  15.703  -5.732  1.00 20.00     0.018 C 
HETATM    6  C6  UNL     1     -34.474  14.350  -4.092  1.00 20.00     0.018 C 
HETATM    7  C7  UNL     1     -35.450  16.491  -5.011  1.00 20.00     0.018 C 
ENDBRANCH   1   4
BRANCH   2   8
HETATM    8  C8  UNL     1     -35.269  16.739  -1.615  1.00 20.00     0.029 C 
HETATM    9  C4  UNL     1     -35.464  17.432  -0.272  1.00 20.00     0.010 C 
ENDBRANCH   2   8
TORSDOF 2
ENDMDL
