MODEL 1
REMARK VINA RESULT:      -5.5      0.000      0.000
REMARK  4 active torsions:
REMARK  status: ('A' for Active; 'I' for Inactive)
REMARK    1  A    between atoms: C2_2  and  C3_3 
REMARK    2  A    between atoms: C3_3  and  C5_5 
REMARK    3  A    between atoms: C5_5  and  C6_6 
REMARK    4  A    between atoms: C6_6  and  C7_7 
ROOT
HETATM    1  C3  UNL     1     -33.292   6.884   3.402  1.00 20.00     0.154 C 
HETATM    2  O8  UNL     1     -33.687   6.272   2.408  1.00 20.00    -0.293 OA
ENDROOT
BRANCH   1   3
HETATM    3  C2  UNL     1     -33.925   6.604   4.737  1.00 20.00    -0.025 C 
HETATM    4  C1  UNL     1     -33.677   7.369   5.809  1.00 20.00     0.022 C 
HETATM    5  C4  UNL     1     -34.851   5.425   4.805  1.00 20.00     0.051 C 
ENDBRANCH   1   3
BRANCH   1   6
HETATM    6  C5  UNL     1     -32.179   7.922   3.311  1.00 20.00     0.084 C 
BRANCH   6   7
HETATM    7  C6  UNL     1     -31.856   8.297   1.861  1.00 20.00     0.023 C 
BRANCH   7   8
HETATM    8  C7  UNL     1     -32.562   9.566   1.394  1.00 20.00     0.115 C 
HETATM    9 CL9  UNL     1     -33.059   9.466  -0.309  1.00 20.00    -0.130 Cl
ENDBRANCH   7   8
ENDBRANCH   6   7
ENDBRANCH   1   6
TORSDOF 4
ENDMDL
MODEL 2
REMARK VINA RESULT:      -5.5      0.191      1.185
REMARK  4 active torsions:
REMARK  status: ('A' for Active; 'I' for Inactive)
REMARK    1  A    between atoms: C2_2  and  C3_3 
REMARK    2  A    between atoms: C3_3  and  C5_5 
REMARK    3  A    between atoms: C5_5  and  C6_6 
REMARK    4  A    between atoms: C6_6  and  C7_7 
ROOT
HETATM    1  C3  UNL     1     -33.440   6.714   3.425  1.00 20.00     0.154 C 
HETATM    2  O8  UNL     1     -33.835   6.112   2.426  1.00 20.00    -0.293 OA
ENDROOT
BRANCH   1   3
HETATM    3  C2  UNL     1     -34.044   6.392   4.764  1.00 20.00    -0.025 C 
HETATM    4  C1  UNL     1     -34.817   5.313   4.948  1.00 20.00     0.022 C 
HETATM    5  C4  UNL     1     -33.737   7.343   5.884  1.00 20.00     0.051 C 
ENDBRANCH   1   3
BRANCH   1   6
HETATM    6  C5  UNL     1     -32.355   7.782   3.337  1.00 20.00     0.084 C 
BRANCH   6   7
HETATM    7  C6  UNL     1     -32.001   8.128   1.888  1.00 20.00     0.023 C 
BRANCH   7   8
HETATM    8  C7  UNL     1     -32.493   9.507   1.459  1.00 20.00     0.115 C 
HETATM    9 CL9  UNL     1     -33.040   9.525  -0.232  1.00 20.00    -0.130 Cl
ENDBRANCH   7   8
ENDBRANCH   6   7
ENDBRANCH   1   6
TORSDOF 4
ENDMDL
MODEL 3
REMARK VINA RESULT:      -5.3      1.280      1.668
REMARK  4 active torsions:
REMARK  status: ('A' for Active; 'I' for Inactive)
REMARK    1  A    between atoms: C2_2  and  C3_3 
REMARK    2  A    between atoms: C3_3  and  C5_5 
REMARK    3  A    between atoms: C5_5  and  C6_6 
REMARK    4  A    between atoms: C6_6  and  C7_7 
ROOT
HETATM    1  C3  UNL     1     -32.809   7.541   3.696  1.00 20.00     0.154 C 
HETATM    2  O8  UNL     1     -31.941   8.121   4.350  1.00 20.00    -0.293 OA
ENDROOT
BRANCH   1   3
HETATM    3  C2  UNL     1     -33.897   6.794   4.418  1.00 20.00    -0.025 C 
HETATM    4  C1  UNL     1     -34.761   6.003   3.766  1.00 20.00     0.022 C 
HETATM    5  C4  UNL     1     -33.963   6.980   5.905  1.00 20.00     0.051 C 
ENDBRANCH   1   3
BRANCH   1   6
HETATM    6  C5  UNL     1     -32.806   7.559   2.172  1.00 20.00     0.084 C 
BRANCH   6   7
HETATM    7  C6  UNL     1     -31.831   8.597   1.607  1.00 20.00     0.023 C 
BRANCH   7   8
HETATM    8  C7  UNL     1     -32.526   9.819   1.017  1.00 20.00     0.115 C 
HETATM    9 CL9  UNL     1     -33.247   9.477  -0.571  1.00 20.00    -0.130 Cl
ENDBRANCH   7   8
ENDBRANCH   6   7
ENDBRANCH   1   6
TORSDOF 4
ENDMDL
MODEL 4
REMARK VINA RESULT:      -5.2      1.494      1.789
REMARK  4 active torsions:
REMARK  status: ('A' for Active; 'I' for Inactive)
REMARK    1  A    between atoms: C2_2  and  C3_3 
REMARK    2  A    between atoms: C3_3  and  C5_5 
REMARK    3  A    between atoms: C5_5  and  C6_6 
REMARK    4  A    between atoms: C6_6  and  C7_7 
ROOT
HETATM    1  C3  UNL     1     -33.382   7.033   4.204  1.00 20.00     0.154 C 
HETATM    2  O8  UNL     1     -32.892   7.695   5.120  1.00 20.00    -0.293 OA
ENDROOT
BRANCH   1   3
HETATM    3  C2  UNL     1     -34.520   6.095   4.503  1.00 20.00    -0.025 C 
HETATM    4  C1  UNL     1     -35.515   5.893   3.629  1.00 20.00     0.022 C 
HETATM    5  C4  UNL     1     -34.481   5.398   5.831  1.00 20.00     0.051 C 
ENDBRANCH   1   3
BRANCH   1   6
HETATM    6  C5  UNL     1     -32.862   7.137   2.776  1.00 20.00     0.084 C 
BRANCH   6   7
HETATM    7  C6  UNL     1     -31.894   8.311   2.596  1.00 20.00     0.023 C 
BRANCH   7   8
HETATM    8  C7  UNL     1     -31.901   8.889   1.185  1.00 20.00     0.115 C 
HETATM    9 CL9  UNL     1     -32.730  10.460   1.111  1.00 20.00    -0.130 Cl
ENDBRANCH   7   8
ENDBRANCH   6   7
ENDBRANCH   1   6
TORSDOF 4
ENDMDL
MODEL 5
REMARK VINA RESULT:      -5.1      2.549      4.279
REMARK  4 active torsions:
REMARK  status: ('A' for Active; 'I' for Inactive)
REMARK    1  A    between atoms: C2_2  and  C3_3 
REMARK    2  A    between atoms: C3_3  and  C5_5 
REMARK    3  A    between atoms: C5_5  and  C6_6 
REMARK    4  A    between atoms: C6_6  and  C7_7 
ROOT
HETATM    1  C3  UNL     1     -33.152   6.485   2.888  1.00 20.00     0.154 C 
HETATM    2  O8  UNL     1     -32.656   5.408   2.552  1.00 20.00    -0.293 OA
ENDROOT
BRANCH   1   3
HETATM    3  C2  UNL     1     -32.346   7.745   2.730  1.00 20.00    -0.025 C 
HETATM    4  C1  UNL     1     -31.505   8.168   3.684  1.00 20.00     0.022 C 
HETATM    5  C4  UNL     1     -32.533   8.503   1.449  1.00 20.00     0.051 C 
ENDBRANCH   1   3
BRANCH   1   6
HETATM    6  C5  UNL     1     -34.560   6.571   3.463  1.00 20.00     0.084 C 
BRANCH   6   7
HETATM    7  C6  UNL     1     -34.904   5.359   4.335  1.00 20.00     0.023 C 
BRANCH   7   8
HETATM    8  C7  UNL     1     -34.493   5.528   5.794  1.00 20.00     0.115 C 
HETATM    9 CL9  UNL     1     -33.958   7.186   6.149  1.00 20.00    -0.130 Cl
ENDBRANCH   7   8
ENDBRANCH   6   7
ENDBRANCH   1   6
TORSDOF 4
ENDMDL
MODEL 6
REMARK VINA RESULT:      -5.1      2.834      4.756
REMARK  4 active torsions:
REMARK  status: ('A' for Active; 'I' for Inactive)
REMARK    1  A    between atoms: C2_2  and  C3_3 
REMARK    2  A    between atoms: C3_3  and  C5_5 
REMARK    3  A    between atoms: C5_5  and  C6_6 
REMARK    4  A    between atoms: C6_6  and  C7_7 
ROOT
HETATM    1  C3  UNL     1     -32.132   8.126   2.652  1.00 20.00     0.154 C 
HETATM    2  O8  UNL     1     -31.423   8.419   3.616  1.00 20.00    -0.293 OA
ENDROOT
BRANCH   1   3
HETATM    3  C2  UNL     1     -32.059   8.964   1.405  1.00 20.00    -0.025 C 
HETATM    4  C1  UNL     1     -31.323   8.592   0.348  1.00 20.00     0.022 C 
HETATM    5  C4  UNL     1     -32.855  10.236   1.405  1.00 20.00     0.051 C 
ENDBRANCH   1   3
BRANCH   1   6
HETATM    6  C5  UNL     1     -33.086   6.938   2.695  1.00 20.00     0.084 C 
BRANCH   6   7
HETATM    7  C6  UNL     1     -33.875   6.876   4.006  1.00 20.00     0.023 C 
BRANCH   7   8
HETATM    8  C7  UNL     1     -34.992   5.838   3.990  1.00 20.00     0.115 C 
HETATM    9 CL9  UNL     1     -34.477   4.290   4.694  1.00 20.00    -0.130 Cl
ENDBRANCH   7   8
ENDBRANCH   6   7
ENDBRANCH   1   6
TORSDOF 4
ENDMDL
MODEL 7
REMARK VINA RESULT:      -5.1      2.935      4.800
REMARK  4 active torsions:
REMARK  status: ('A' for Active; 'I' for Inactive)
REMARK    1  A    between atoms: C2_2  and  C3_3 
REMARK    2  A    between atoms: C3_3  and  C5_5 
REMARK    3  A    between atoms: C5_5  and  C6_6 
REMARK    4  A    between atoms: C6_6  and  C7_7 
ROOT
HETATM    1  C3  UNL     1     -32.198   8.184   2.607  1.00 20.00     0.154 C 
HETATM    2  O8  UNL     1     -31.420   8.391   3.540  1.00 20.00    -0.293 OA
ENDROOT
BRANCH   1   3
HETATM    3  C2  UNL     1     -32.152   9.080   1.400  1.00 20.00    -0.025 C 
HETATM    4  C1  UNL     1     -32.825  10.238   1.355  1.00 20.00     0.022 C 
HETATM    5  C4  UNL     1     -31.313   8.609   0.248  1.00 20.00     0.051 C 
ENDBRANCH   1   3
BRANCH   1   6
HETATM    6  C5  UNL     1     -33.210   7.045   2.650  1.00 20.00     0.084 C 
BRANCH   6   7
HETATM    7  C6  UNL     1     -33.824   6.868   4.042  1.00 20.00     0.023 C 
BRANCH   7   8
HETATM    8  C7  UNL     1     -34.789   5.690   4.131  1.00 20.00     0.115 C 
HETATM    9 CL9  UNL     1     -34.636   4.815   5.670  1.00 20.00    -0.130 Cl
ENDBRANCH   7   8
ENDBRANCH   6   7
ENDBRANCH   1   6
TORSDOF 4
ENDMDL
MODEL 8
REMARK VINA RESULT:      -5.0      1.894      2.341
REMARK  4 active torsions:
REMARK  status: ('A' for Active; 'I' for Inactive)
REMARK    1  A    between atoms: C2_2  and  C3_3 
REMARK    2  A    between atoms: C3_3  and  C5_5 
REMARK    3  A    between atoms: C5_5  and  C6_6 
REMARK    4  A    between atoms: C6_6  and  C7_7 
ROOT
HETATM    1  C3  UNL     1     -34.418   6.129   3.749  1.00 20.00     0.154 C 
HETATM    2  O8  UNL     1     -35.535   6.045   3.238  1.00 20.00    -0.293 OA
ENDROOT
BRANCH   1   3
HETATM    3  C2  UNL     1     -34.287   6.057   5.246  1.00 20.00    -0.025 C 
HETATM    4  C1  UNL     1     -34.615   4.952   5.930  1.00 20.00     0.022 C 
HETATM    5  C4  UNL     1     -33.768   7.286   5.933  1.00 20.00     0.051 C 
ENDBRANCH   1   3
BRANCH   1   6
HETATM    6  C5  UNL     1     -33.164   6.309   2.902  1.00 20.00     0.084 C 
BRANCH   6   7
HETATM    7  C6  UNL     1     -33.205   7.597   2.073  1.00 20.00     0.023 C 
BRANCH   7   8
HETATM    8  C7  UNL     1     -31.921   8.414   2.163  1.00 20.00     0.115 C 
HETATM    9 CL9  UNL     1     -31.211   8.366   3.792  1.00 20.00    -0.130 Cl
ENDBRANCH   7   8
ENDBRANCH   6   7
ENDBRANCH   1   6
TORSDOF 4
ENDMDL
MODEL 9
REMARK VINA RESULT:      -4.6      2.854      4.547
REMARK  4 active torsions:
REMARK  status: ('A' for Active; 'I' for Inactive)
REMARK    1  A    between atoms: C2_2  and  C3_3 
REMARK    2  A    between atoms: C3_3  and  C5_5 
REMARK    3  A    between atoms: C5_5  and  C6_6 
REMARK    4  A    between atoms: C6_6  and  C7_7 
ROOT
HETATM    1  C3  UNL     1     -31.725   8.699   1.361  1.00 20.00     0.154 C 
HETATM    2  O8  UNL     1     -30.897   8.235   0.576  1.00 20.00    -0.293 OA
ENDROOT
BRANCH   1   3
HETATM    3  C2  UNL     1     -32.653   9.786   0.892  1.00 20.00    -0.025 C 
HETATM    4  C1  UNL     1     -32.871  10.890   1.621  1.00 20.00     0.022 C 
HETATM    5  C4  UNL     1     -33.321   9.571  -0.434  1.00 20.00     0.051 C 
ENDBRANCH   1   3
BRANCH   1   6
HETATM    6  C5  UNL     1     -31.829   8.202   2.798  1.00 20.00     0.084 C 
BRANCH   6   7
HETATM    7  C6  UNL     1     -33.175   7.526   3.080  1.00 20.00     0.023 C 
BRANCH   7   8
HETATM    8  C7  UNL     1     -33.149   6.016   2.866  1.00 20.00     0.115 C 
HETATM    9 CL9  UNL     1     -34.329   5.175   3.896  1.00 20.00    -0.130 Cl
ENDBRANCH   7   8
ENDBRANCH   6   7
ENDBRANCH   1   6
TORSDOF 4
ENDMDL
