MODEL 1
REMARK VINA RESULT:      -5.0      0.000      0.000
REMARK  3 active torsions:
REMARK  status: ('A' for Active; 'I' for Inactive)
REMARK    1  A    between atoms: C4_4  and  C7_7 
REMARK    2  A    between atoms: C6_6  and  C7_7 
REMARK    3  A    between atoms: C7_7  and  O9_9 
ROOT
HETATM    1  C1  UNL     1     -33.756   5.203   3.579  1.00 20.00     0.035 C 
HETATM    2  C2  UNL     1     -34.507   4.220   4.451  1.00 20.00     0.168 C 
HETATM    3  C3  UNL     1     -34.243   6.204   5.643  1.00 20.00     0.174 C 
HETATM    4  C4  UNL     1     -34.198   6.528   4.160  1.00 20.00     0.040 C 
HETATM    5  O8  UNL     1     -34.635   4.826   5.746  1.00 20.00    -0.391 OA
ENDROOT
BRANCH   4   6
HETATM    6  C7  UNL     1     -33.289   7.693   3.816  1.00 20.00     0.124 C 
BRANCH   6   7
HETATM    7  C6  UNL     1     -32.454   7.401   2.566  1.00 20.00     0.027 C 
HETATM    8  C5  UNL     1     -32.053   8.670   1.824  1.00 20.00     0.007 C 
ENDBRANCH   6   7
BRANCH   6   9
HETATM    9  O9  UNL     1     -32.410   7.937   4.913  1.00 20.00    -0.395 OA
HETATM   10  H23 UNL     1     -32.901   7.703   5.716  1.00 20.00     0.210 HD
ENDBRANCH   6   9
ENDBRANCH   4   6
TORSDOF 3
ENDMDL
MODEL 2
REMARK VINA RESULT:      -4.7      1.160      1.580
REMARK  3 active torsions:
REMARK  status: ('A' for Active; 'I' for Inactive)
REMARK    1  A    between atoms: C4_4  and  C7_7 
REMARK    2  A    between atoms: C6_6  and  C7_7 
REMARK    3  A    between atoms: C7_7  and  O9_9 
ROOT
HETATM    1  C1  UNL     1     -33.848   6.913   5.481  1.00 20.00     0.035 C 
HETATM    2  C2  UNL     1     -34.684   5.655   5.594  1.00 20.00     0.168 C 
HETATM    3  C3  UNL     1     -34.338   6.106   3.334  1.00 20.00     0.174 C 
HETATM    4  C4  UNL     1     -33.202   6.732   4.125  1.00 20.00     0.040 C 
HETATM    5  O8  UNL     1     -35.084   5.302   4.261  1.00 20.00    -0.391 OA
ENDROOT
BRANCH   4   6
HETATM    6  C7  UNL     1     -32.666   8.013   3.515  1.00 20.00     0.124 C 
BRANCH   6   7
HETATM    7  C6  UNL     1     -32.475   7.876   2.002  1.00 20.00     0.027 C 
HETATM    8  C5  UNL     1     -32.226   9.216   1.322  1.00 20.00     0.007 C 
ENDBRANCH   6   7
BRANCH   6   9
HETATM    9  O9  UNL     1     -31.408   8.322   4.113  1.00 20.00    -0.395 OA
HETATM   10  H23 UNL     1     -31.147   9.191   3.771  1.00 20.00     0.210 HD
ENDBRANCH   6   9
ENDBRANCH   4   6
TORSDOF 3
ENDMDL
MODEL 3
REMARK VINA RESULT:      -4.6      0.949      1.030
REMARK  3 active torsions:
REMARK  status: ('A' for Active; 'I' for Inactive)
REMARK    1  A    between atoms: C4_4  and  C7_7 
REMARK    2  A    between atoms: C6_6  and  C7_7 
REMARK    3  A    between atoms: C7_7  and  O9_9 
ROOT
HETATM    1  C1  UNL     1     -33.515   5.898   3.177  1.00 20.00     0.035 C 
HETATM    2  C2  UNL     1     -34.419   5.101   4.093  1.00 20.00     0.168 C 
HETATM    3  C3  UNL     1     -33.814   7.067   5.188  1.00 20.00     0.174 C 
HETATM    4  C4  UNL     1     -33.720   7.306   3.691  1.00 20.00     0.040 C 
HETATM    5  O8  UNL     1     -34.436   5.783   5.356  1.00 20.00    -0.391 OA
ENDROOT
BRANCH   4   6
HETATM    6  C7  UNL     1     -32.627   8.279   3.294  1.00 20.00     0.124 C 
BRANCH   6   7
HETATM    7  C6  UNL     1     -32.185   8.064   1.843  1.00 20.00     0.027 C 
HETATM    8  C5  UNL     1     -32.214   9.350   1.028  1.00 20.00     0.007 C 
ENDBRANCH   6   7
BRANCH   6   9
HETATM    9  O9  UNL     1     -31.503   8.092   4.152  1.00 20.00    -0.395 OA
HETATM   10  H23 UNL     1     -31.556   7.181   4.479  1.00 20.00     0.210 HD
ENDBRANCH   6   9
ENDBRANCH   4   6
TORSDOF 3
ENDMDL
MODEL 4
REMARK VINA RESULT:      -4.4      1.396      4.102
REMARK  3 active torsions:
REMARK  status: ('A' for Active; 'I' for Inactive)
REMARK    1  A    between atoms: C4_4  and  C7_7 
REMARK    2  A    between atoms: C6_6  and  C7_7 
REMARK    3  A    between atoms: C7_7  and  O9_9 
ROOT
HETATM    1  C1  UNL     1     -33.059   7.835   1.790  1.00 20.00     0.035 C 
HETATM    2  C2  UNL     1     -31.871   8.768   1.889  1.00 20.00     0.168 C 
HETATM    3  C3  UNL     1     -32.167   7.735   3.957  1.00 20.00     0.174 C 
HETATM    4  C4  UNL     1     -32.757   6.835   2.885  1.00 20.00     0.040 C 
HETATM    5  O8  UNL     1     -31.470   8.785   3.268  1.00 20.00    -0.391 OA
ENDROOT
BRANCH   4   6
HETATM    6  C7  UNL     1     -33.960   6.038   3.350  1.00 20.00     0.124 C 
BRANCH   6   7
HETATM    7  C6  UNL     1     -34.339   6.386   4.792  1.00 20.00     0.027 C 
HETATM    8  C5  UNL     1     -34.598   5.147   5.641  1.00 20.00     0.007 C 
ENDBRANCH   6   7
BRANCH   6   9
HETATM    9  O9  UNL     1     -33.655   4.647   3.274  1.00 20.00    -0.395 OA
HETATM   10  H23 UNL     1     -33.724   4.401   2.339  1.00 20.00     0.210 HD
ENDBRANCH   6   9
ENDBRANCH   4   6
TORSDOF 3
ENDMDL
MODEL 5
REMARK VINA RESULT:      -4.4      1.518      3.929
REMARK  3 active torsions:
REMARK  status: ('A' for Active; 'I' for Inactive)
REMARK    1  A    between atoms: C4_4  and  C7_7 
REMARK    2  A    between atoms: C6_6  and  C7_7 
REMARK    3  A    between atoms: C7_7  and  O9_9 
ROOT
HETATM    1  C1  UNL     1     -31.911   8.136   4.014  1.00 20.00     0.035 C 
HETATM    2  C2  UNL     1     -31.663   8.597   2.592  1.00 20.00     0.168 C 
HETATM    3  C3  UNL     1     -33.230   6.872   2.542  1.00 20.00     0.174 C 
HETATM    4  C4  UNL     1     -33.297   7.539   3.905  1.00 20.00     0.040 C 
HETATM    5  O8  UNL     1     -32.368   7.689   1.733  1.00 20.00    -0.391 OA
ENDROOT
BRANCH   4   6
HETATM    6  C7  UNL     1     -33.656   6.590   5.033  1.00 20.00     0.124 C 
BRANCH   6   7
HETATM    7  C6  UNL     1     -34.833   5.688   4.652  1.00 20.00     0.027 C 
HETATM    8  C5  UNL     1     -34.447   4.215   4.604  1.00 20.00     0.007 C 
ENDBRANCH   6   7
BRANCH   6   9
HETATM    9  O9  UNL     1     -34.011   7.351   6.186  1.00 20.00    -0.395 OA
HETATM   10  H23 UNL     1     -34.001   6.735   6.935  1.00 20.00     0.210 HD
ENDBRANCH   6   9
ENDBRANCH   4   6
TORSDOF 3
ENDMDL
MODEL 6
REMARK VINA RESULT:      -4.2      1.591      4.035
REMARK  3 active torsions:
REMARK  status: ('A' for Active; 'I' for Inactive)
REMARK    1  A    between atoms: C4_4  and  C7_7 
REMARK    2  A    between atoms: C6_6  and  C7_7 
REMARK    3  A    between atoms: C7_7  and  O9_9 
ROOT
HETATM    1  C1  UNL     1     -32.989   7.509   4.695  1.00 20.00     0.035 C 
HETATM    2  C2  UNL     1     -31.951   8.588   4.468  1.00 20.00     0.168 C 
HETATM    3  C3  UNL     1     -32.254   7.429   2.469  1.00 20.00     0.174 C 
HETATM    4  C4  UNL     1     -33.522   7.297   3.295  1.00 20.00     0.040 C 
HETATM    5  O8  UNL     1     -31.426   8.388   3.147  1.00 20.00    -0.391 OA
ENDROOT
BRANCH   4   6
HETATM    6  C7  UNL     1     -34.245   5.978   3.098  1.00 20.00     0.124 C 
BRANCH   6   7
HETATM    7  C6  UNL     1     -35.023   5.573   4.353  1.00 20.00     0.027 C 
HETATM    8  C5  UNL     1     -34.496   4.286   4.975  1.00 20.00     0.007 C 
ENDBRANCH   6   7
BRANCH   6   9
HETATM    9  O9  UNL     1     -33.288   4.962   2.799  1.00 20.00    -0.395 OA
HETATM   10  H23 UNL     1     -33.484   4.219   3.389  1.00 20.00     0.210 HD
ENDBRANCH   6   9
ENDBRANCH   4   6
TORSDOF 3
ENDMDL
MODEL 7
REMARK VINA RESULT:      -3.9      2.175      4.747
REMARK  3 active torsions:
REMARK  status: ('A' for Active; 'I' for Inactive)
REMARK    1  A    between atoms: C4_4  and  C7_7 
REMARK    2  A    between atoms: C6_6  and  C7_7 
REMARK    3  A    between atoms: C7_7  and  O9_9 
ROOT
HETATM    1  C1  UNL     1     -33.002   9.699   2.212  1.00 20.00     0.035 C 
HETATM    2  C2  UNL     1     -32.693  10.254   0.837  1.00 20.00     0.168 C 
HETATM    3  C3  UNL     1     -31.420   8.328   1.152  1.00 20.00     0.174 C 
HETATM    4  C4  UNL     1     -32.651   8.237   2.038  1.00 20.00     0.040 C 
HETATM    5  O8  UNL     1     -31.611   9.473   0.307  1.00 20.00    -0.391 OA
ENDROOT
BRANCH   4   6
HETATM    6  C7  UNL     1     -32.415   7.495   3.339  1.00 20.00     0.124 C 
BRANCH   6   7
HETATM    7  C6  UNL     1     -33.734   7.182   4.052  1.00 20.00     0.027 C 
HETATM    8  C5  UNL     1     -33.618   7.297   5.567  1.00 20.00     0.007 C 
ENDBRANCH   6   7
BRANCH   6   9
HETATM    9  O9  UNL     1     -31.606   8.300   4.195  1.00 20.00    -0.395 OA
HETATM   10  H23 UNL     1     -31.542   7.826   5.038  1.00 20.00     0.210 HD
ENDBRANCH   6   9
ENDBRANCH   4   6
TORSDOF 3
ENDMDL
MODEL 8
REMARK VINA RESULT:      -3.9     11.537     12.563
REMARK  3 active torsions:
REMARK  status: ('A' for Active; 'I' for Inactive)
REMARK    1  A    between atoms: C4_4  and  C7_7 
REMARK    2  A    between atoms: C6_6  and  C7_7 
REMARK    3  A    between atoms: C7_7  and  O9_9 
ROOT
HETATM    1  C1  UNL     1     -34.352  14.079  -6.632  1.00 20.00     0.035 C 
HETATM    2  C2  UNL     1     -35.574  13.187  -6.689  1.00 20.00     0.168 C 
HETATM    3  C3  UNL     1     -35.120  13.665  -4.454  1.00 20.00     0.174 C 
HETATM    4  C4  UNL     1     -34.549  14.784  -5.308  1.00 20.00     0.040 C 
HETATM    5  O8  UNL     1     -35.899  12.840  -5.335  1.00 20.00    -0.391 OA
ENDROOT
BRANCH   4   6
HETATM    6  C7  UNL     1     -33.287  15.404  -4.739  1.00 20.00     0.124 C 
BRANCH   6   7
HETATM    7  C6  UNL     1     -33.567  16.779  -4.124  1.00 20.00     0.027 C 
HETATM    8  C5  UNL     1     -33.851  16.701  -2.629  1.00 20.00     0.007 C 
ENDBRANCH   6   7
BRANCH   6   9
HETATM    9  O9  UNL     1     -32.328  15.552  -5.785  1.00 20.00    -0.395 OA
HETATM   10  H23 UNL     1     -31.482  15.754  -5.355  1.00 20.00     0.210 HD
ENDBRANCH   6   9
ENDBRANCH   4   6
TORSDOF 3
ENDMDL
MODEL 9
REMARK VINA RESULT:      -3.9      1.778      2.479
REMARK  3 active torsions:
REMARK  status: ('A' for Active; 'I' for Inactive)
REMARK    1  A    between atoms: C4_4  and  C7_7 
REMARK    2  A    between atoms: C6_6  and  C7_7 
REMARK    3  A    between atoms: C7_7  and  O9_9 
ROOT
HETATM    1  C1  UNL     1     -33.158   6.501   2.332  1.00 20.00     0.035 C 
HETATM    2  C2  UNL     1     -33.924   5.788   3.427  1.00 20.00     0.168 C 
HETATM    3  C3  UNL     1     -32.990   7.723   4.327  1.00 20.00     0.174 C 
HETATM    4  C4  UNL     1     -33.166   7.929   2.833  1.00 20.00     0.040 C 
HETATM    5  O8  UNL     1     -33.654   6.491   4.649  1.00 20.00    -0.391 OA
ENDROOT
BRANCH   4   6
HETATM    6  C7  UNL     1     -32.105   8.814   2.208  1.00 20.00     0.124 C 
BRANCH   6   7
HETATM    7  C6  UNL     1     -32.731   9.964   1.414  1.00 20.00     0.027 C 
HETATM    8  C5  UNL     1     -32.932   9.617  -0.055  1.00 20.00     0.007 C 
ENDBRANCH   6   7
BRANCH   6   9
HETATM    9  O9  UNL     1     -31.302   8.028   1.328  1.00 20.00    -0.395 OA
HETATM   10  H23 UNL     1     -31.772   8.000   0.480  1.00 20.00     0.210 HD
ENDBRANCH   6   9
ENDBRANCH   4   6
TORSDOF 3
ENDMDL
