MODEL 1
REMARK VINA RESULT:      -7.1      0.000      0.000
REMARK  2 active torsions:
REMARK  status: ('A' for Active; 'I' for Inactive)
REMARK    1  A    between atoms: C8_8  and  C11_11 
REMARK    2  A    between atoms: C10_10  and  C11_11 
ROOT
HETATM    1  C11 UNL     1     -32.418   7.305   3.222  1.00 20.00     0.046 C 
ENDROOT
BRANCH   1   2
HETATM    2  C8  UNL     1     -32.368   8.337   2.158  1.00 20.00    -0.076 A 
HETATM    3  C4  UNL     1     -31.585   8.367   1.067  1.00 20.00     0.003 A 
HETATM    4  C3  UNL     1     -31.870   9.556   0.306  1.00 20.00    -0.003 A 
HETATM    5  C5  UNL     1     -32.828  10.266   0.921  1.00 20.00    -0.022 A 
HETATM    6  C9  UNL     1     -33.249   9.557   2.176  1.00 20.00     0.061 A 
ENDBRANCH   1   2
BRANCH   1   7
HETATM    7  C10 UNL     1     -33.801   7.240   3.845  1.00 20.00     0.034 A 
HETATM    8  C6  UNL     1     -33.747   7.191   5.351  1.00 20.00    -0.018 A 
HETATM    9  C1  UNL     1     -34.331   6.065   5.785  1.00 20.00    -0.004 A 
HETATM   10  C2  UNL     1     -34.802   5.301   4.660  1.00 20.00    -0.004 A 
HETATM   11  C7  UNL     1     -34.511   5.950   3.523  1.00 20.00    -0.018 A 
ENDBRANCH   1   7
TORSDOF 2
ENDMDL
MODEL 2
REMARK VINA RESULT:      -7.1      0.084      1.147
REMARK  2 active torsions:
REMARK  status: ('A' for Active; 'I' for Inactive)
REMARK    1  A    between atoms: C8_8  and  C11_11 
REMARK    2  A    between atoms: C10_10  and  C11_11 
ROOT
HETATM    1  C11 UNL     1     -32.495   7.283   3.150  1.00 20.00     0.046 C 
ENDROOT
BRANCH   1   2
HETATM    2  C8  UNL     1     -32.458   8.387   2.160  1.00 20.00    -0.076 A 
HETATM    3  C4  UNL     1     -33.172   9.523   2.156  1.00 20.00     0.003 A 
HETATM    4  C3  UNL     1     -32.816  10.309   1.004  1.00 20.00    -0.003 A 
HETATM    5  C5  UNL     1     -31.880   9.664   0.290  1.00 20.00    -0.022 A 
HETATM    6  C9  UNL     1     -31.551   8.360   0.959  1.00 20.00     0.061 A 
ENDBRANCH   1   2
BRANCH   1   7
HETATM    7  C10 UNL     1     -33.848   7.219   3.836  1.00 20.00     0.034 A 
HETATM    8  C6  UNL     1     -33.725   7.178   5.339  1.00 20.00    -0.018 A 
HETATM    9  C1  UNL     1     -34.286   6.053   5.805  1.00 20.00    -0.004 A 
HETATM   10  C2  UNL     1     -34.806   5.282   4.707  1.00 20.00    -0.004 A 
HETATM   11  C7  UNL     1     -34.569   5.925   3.555  1.00 20.00    -0.018 A 
ENDBRANCH   1   7
TORSDOF 2
ENDMDL
MODEL 3
REMARK VINA RESULT:      -6.7      0.423      4.977
REMARK  2 active torsions:
REMARK  status: ('A' for Active; 'I' for Inactive)
REMARK    1  A    between atoms: C8_8  and  C11_11 
REMARK    2  A    between atoms: C10_10  and  C11_11 
ROOT
HETATM    1  C11 UNL     1     -32.190   7.987   3.419  1.00 20.00     0.046 C 
ENDROOT
BRANCH   1   2
HETATM    2  C8  UNL     1     -33.155   7.166   4.190  1.00 20.00    -0.076 A 
HETATM    3  C4  UNL     1     -33.451   7.240   5.497  1.00 20.00     0.003 A 
HETATM    4  C3  UNL     1     -34.445   6.250   5.821  1.00 20.00    -0.003 A 
HETATM    5  C5  UNL     1     -34.769   5.559   4.718  1.00 20.00    -0.022 A 
HETATM    6  C9  UNL     1     -33.974   6.075   3.552  1.00 20.00     0.061 A 
ENDBRANCH   1   2
BRANCH   1   7
HETATM    7  C10 UNL     1     -32.692   8.226   2.007  1.00 20.00     0.034 A 
HETATM    8  C6  UNL     1     -31.564   8.381   1.018  1.00 20.00    -0.018 A 
HETATM    9  C1  UNL     1     -31.641   9.585   0.434  1.00 20.00    -0.004 A 
HETATM   10  C2  UNL     1     -32.772  10.304   0.958  1.00 20.00    -0.004 A 
HETATM   11  C7  UNL     1     -33.402   9.549   1.870  1.00 20.00    -0.018 A 
ENDBRANCH   1   7
TORSDOF 2
ENDMDL
MODEL 4
REMARK VINA RESULT:      -6.7      0.536      4.911
REMARK  2 active torsions:
REMARK  status: ('A' for Active; 'I' for Inactive)
REMARK    1  A    between atoms: C8_8  and  C11_11 
REMARK    2  A    between atoms: C10_10  and  C11_11 
ROOT
HETATM    1  C11 UNL     1     -33.025   7.076   2.368  1.00 20.00     0.046 C 
ENDROOT
BRANCH   1   2
HETATM    2  C8  UNL     1     -33.507   6.843   3.751  1.00 20.00    -0.076 A 
HETATM    3  C4  UNL     1     -33.220   7.543   4.859  1.00 20.00     0.003 A 
HETATM    4  C3  UNL     1     -33.907   6.964   5.984  1.00 20.00    -0.003 A 
HETATM    5  C5  UNL     1     -34.622   5.905   5.578  1.00 20.00    -0.022 A 
HETATM    6  C9  UNL     1     -34.441   5.715   4.099  1.00 20.00     0.061 A 
ENDBRANCH   1   2
BRANCH   1   7
HETATM    7  C10 UNL     1     -32.279   8.395   2.271  1.00 20.00     0.034 A 
HETATM    8  C6  UNL     1     -33.210   9.564   2.073  1.00 20.00    -0.018 A 
HETATM    9  C1  UNL     1     -32.913  10.185   0.923  1.00 20.00    -0.004 A 
HETATM   10  C2  UNL     1     -31.811   9.515   0.283  1.00 20.00    -0.004 A 
HETATM   11  C7  UNL     1     -31.420   8.475   1.034  1.00 20.00    -0.018 A 
ENDBRANCH   1   7
TORSDOF 2
ENDMDL
MODEL 5
REMARK VINA RESULT:      -6.6      0.428      4.947
REMARK  2 active torsions:
REMARK  status: ('A' for Active; 'I' for Inactive)
REMARK    1  A    between atoms: C8_8  and  C11_11 
REMARK    2  A    between atoms: C10_10  and  C11_11 
ROOT
HETATM    1  C11 UNL     1     -32.305   8.035   3.424  1.00 20.00     0.046 C 
ENDROOT
BRANCH   1   2
HETATM    2  C8  UNL     1     -33.242   7.133   4.137  1.00 20.00    -0.076 A 
HETATM    3  C4  UNL     1     -33.957   6.114   3.635  1.00 20.00     0.003 A 
HETATM    4  C3  UNL     1     -34.734   5.510   4.685  1.00 20.00    -0.003 A 
HETATM    5  C5  UNL     1     -34.504   6.151   5.841  1.00 20.00    -0.022 A 
HETATM    6  C9  UNL     1     -33.520   7.262   5.610  1.00 20.00     0.061 A 
ENDBRANCH   1   2
BRANCH   1   7
HETATM    7  C10 UNL     1     -32.777   8.290   2.004  1.00 20.00     0.034 A 
HETATM    8  C6  UNL     1     -31.635   8.326   1.020  1.00 20.00    -0.018 A 
HETATM    9  C1  UNL     1     -31.602   9.522   0.413  1.00 20.00    -0.004 A 
HETATM   10  C2  UNL     1     -32.668  10.347   0.916  1.00 20.00    -0.004 A 
HETATM   11  C7  UNL     1     -33.366   9.668   1.837  1.00 20.00    -0.018 A 
ENDBRANCH   1   7
TORSDOF 2
ENDMDL
MODEL 6
REMARK VINA RESULT:      -6.5      1.011      1.523
REMARK  2 active torsions:
REMARK  status: ('A' for Active; 'I' for Inactive)
REMARK    1  A    between atoms: C8_8  and  C11_11 
REMARK    2  A    between atoms: C10_10  and  C11_11 
ROOT
HETATM    1  C11 UNL     1     -33.095   5.916   2.788  1.00 20.00     0.046 C 
ENDROOT
BRANCH   1   2
HETATM    2  C8  UNL     1     -32.685   7.298   2.436  1.00 20.00    -0.076 A 
HETATM    3  C4  UNL     1     -33.132   8.066   1.430  1.00 20.00     0.003 A 
HETATM    4  C3  UNL     1     -32.457   9.338   1.462  1.00 20.00    -0.003 A 
HETATM    5  C5  UNL     1     -31.590   9.362   2.486  1.00 20.00    -0.022 A 
HETATM    6  C9  UNL     1     -31.646   8.053   3.220  1.00 20.00     0.061 A 
ENDBRANCH   1   2
BRANCH   1   7
HETATM    7  C10 UNL     1     -34.347   5.928   3.646  1.00 20.00     0.034 A 
HETATM    8  C6  UNL     1     -34.250   6.911   4.785  1.00 20.00    -0.018 A 
HETATM    9  C1  UNL     1     -34.376   6.261   5.951  1.00 20.00    -0.004 A 
HETATM   10  C2  UNL     1     -34.559   4.855   5.703  1.00 20.00    -0.004 A 
HETATM   11  C7  UNL     1     -34.546   4.627   4.382  1.00 20.00    -0.018 A 
ENDBRANCH   1   7
TORSDOF 2
ENDMDL
MODEL 7
REMARK VINA RESULT:      -4.9     10.186     11.342
REMARK  2 active torsions:
REMARK  status: ('A' for Active; 'I' for Inactive)
REMARK    1  A    between atoms: C8_8  and  C11_11 
REMARK    2  A    between atoms: C10_10  and  C11_11 
ROOT
HETATM    1  C11 UNL     1     -34.866  16.262  -2.826  1.00 20.00     0.046 C 
ENDROOT
BRANCH   1   2
HETATM    2  C8  UNL     1     -34.402  17.087  -1.684  1.00 20.00    -0.076 A 
HETATM    3  C4  UNL     1     -33.215  17.694  -1.525  1.00 20.00     0.003 A 
HETATM    4  C3  UNL     1     -33.196  18.387  -0.264  1.00 20.00    -0.003 A 
HETATM    5  C5  UNL     1     -34.369  18.214   0.363  1.00 20.00    -0.022 A 
HETATM    6  C9  UNL     1     -35.268  17.360  -0.484  1.00 20.00     0.061 A 
ENDBRANCH   1   2
BRANCH   1   7
HETATM    7  C10 UNL     1     -33.690  15.789  -3.663  1.00 20.00     0.034 A 
HETATM    8  C6  UNL     1     -33.491  16.633  -4.896  1.00 20.00    -0.018 A 
HETATM    9  C1  UNL     1     -33.598  15.863  -5.989  1.00 20.00    -0.004 A 
HETATM   10  C2  UNL     1     -33.867  14.505  -5.598  1.00 20.00    -0.004 A 
HETATM   11  C7  UNL     1     -33.928  14.426  -4.261  1.00 20.00    -0.018 A 
ENDBRANCH   1   7
TORSDOF 2
ENDMDL
MODEL 8
REMARK VINA RESULT:      -4.9     10.096     11.186
REMARK  2 active torsions:
REMARK  status: ('A' for Active; 'I' for Inactive)
REMARK    1  A    between atoms: C8_8  and  C11_11 
REMARK    2  A    between atoms: C10_10  and  C11_11 
ROOT
HETATM    1  C11 UNL     1     -33.718  16.248  -3.349  1.00 20.00     0.046 C 
ENDROOT
BRANCH   1   2
HETATM    2  C8  UNL     1     -33.913  16.981  -2.074  1.00 20.00    -0.076 A 
HETATM    3  C4  UNL     1     -33.049  17.790  -1.441  1.00 20.00     0.003 A 
HETATM    4  C3  UNL     1     -33.655  18.288  -0.234  1.00 20.00    -0.003 A 
HETATM    5  C5  UNL     1     -34.894  17.790  -0.114  1.00 20.00    -0.022 A 
HETATM    6  C9  UNL     1     -35.192  16.897  -1.284  1.00 20.00     0.061 A 
ENDBRANCH   1   2
BRANCH   1   7
HETATM    7  C10 UNL     1     -34.984  15.509  -3.745  1.00 20.00     0.034 A 
HETATM    8  C6  UNL     1     -34.698  14.117  -4.251  1.00 20.00    -0.018 A 
HETATM    9  C1  UNL     1     -35.144  13.997  -5.510  1.00 20.00    -0.004 A 
HETATM   10  C2  UNL     1     -35.736  15.239  -5.933  1.00 20.00    -0.004 A 
HETATM   11  C7  UNL     1     -35.660  16.134  -4.938  1.00 20.00    -0.018 A 
ENDBRANCH   1   7
TORSDOF 2
ENDMDL
MODEL 9
REMARK VINA RESULT:      -4.8     10.397     11.120
REMARK  2 active torsions:
REMARK  status: ('A' for Active; 'I' for Inactive)
REMARK    1  A    between atoms: C8_8  and  C11_11 
REMARK    2  A    between atoms: C10_10  and  C11_11 
ROOT
HETATM    1  C11 UNL     1     -35.607  15.836  -3.864  1.00 20.00     0.046 C 
ENDROOT
BRANCH   1   2
HETATM    2  C8  UNL     1     -34.844  16.526  -2.796  1.00 20.00    -0.076 A 
HETATM    3  C4  UNL     1     -33.569  16.944  -2.823  1.00 20.00     0.003 A 
HETATM    4  C3  UNL     1     -33.241  17.564  -1.566  1.00 20.00    -0.003 A 
HETATM    5  C5  UNL     1     -34.309  17.534  -0.756  1.00 20.00    -0.022 A 
HETATM    6  C9  UNL     1     -35.453  16.863  -1.461  1.00 20.00     0.061 A 
ENDBRANCH   1   2
BRANCH   1   7
HETATM    7  C10 UNL     1     -34.841  14.631  -4.381  1.00 20.00     0.034 A 
HETATM    8  C6  UNL     1     -34.011  14.961  -5.596  1.00 20.00    -0.018 A 
HETATM    9  C1  UNL     1     -34.403  14.199  -6.628  1.00 20.00    -0.004 A 
HETATM   10  C2  UNL     1     -35.477  13.337  -6.210  1.00 20.00    -0.004 A 
HETATM   11  C7  UNL     1     -35.757  13.561  -4.918  1.00 20.00    -0.018 A 
ENDBRANCH   1   7
TORSDOF 2
ENDMDL
