MODEL 1
REMARK VINA RESULT:      -4.9      0.000      0.000
REMARK  3 active torsions:
REMARK  status: ('A' for Active; 'I' for Inactive)
REMARK    1  A    between atoms: C4_4  and  C7_7 
REMARK    2  A    between atoms: C6_6  and  C7_7 
REMARK    3  A    between atoms: C7_7  and  O9_9 
ROOT
HETATM    1  C1  UNL     1     -34.965   5.953   3.762  1.00 20.00     0.035 C 
HETATM    2  C2  UNL     1     -34.596   4.764   4.625  1.00 20.00     0.168 C 
HETATM    3  C3  UNL     1     -34.153   6.709   5.829  1.00 20.00     0.174 C 
HETATM    4  C4  UNL     1     -34.137   7.075   4.354  1.00 20.00     0.040 C 
HETATM    5  O8  UNL     1     -34.210   5.277   5.906  1.00 20.00    -0.391 OA
ENDROOT
BRANCH   4   6
HETATM    6  C7  UNL     1     -32.718   7.097   3.790  1.00 20.00     0.124 C 
BRANCH   6   7
HETATM    7  C6  UNL     1     -32.716   7.405   2.289  1.00 20.00     0.027 C 
HETATM    8  C5  UNL     1     -32.117   8.770   1.976  1.00 20.00     0.007 C 
ENDBRANCH   6   7
BRANCH   6   9
HETATM    9  O9  UNL     1     -31.962   8.100   4.469  1.00 20.00    -0.395 OA
HETATM   10  H23 UNL     1     -31.524   8.624   3.782  1.00 20.00     0.210 HD
ENDBRANCH   6   9
ENDBRANCH   4   6
TORSDOF 3
ENDMDL
MODEL 2
REMARK VINA RESULT:      -4.5      1.355      1.583
REMARK  3 active torsions:
REMARK  status: ('A' for Active; 'I' for Inactive)
REMARK    1  A    between atoms: C4_4  and  C7_7 
REMARK    2  A    between atoms: C6_6  and  C7_7 
REMARK    3  A    between atoms: C7_7  and  O9_9 
ROOT
HETATM    1  C1  UNL     1     -33.328   4.783   2.854  1.00 20.00     0.035 C 
HETATM    2  C2  UNL     1     -33.983   4.155   4.068  1.00 20.00     0.168 C 
HETATM    3  C3  UNL     1     -35.055   6.175   3.618  1.00 20.00     0.174 C 
HETATM    4  C4  UNL     1     -33.667   6.251   3.004  1.00 20.00     0.040 C 
HETATM    5  O8  UNL     1     -35.093   4.988   4.426  1.00 20.00    -0.391 OA
ENDROOT
BRANCH   4   6
HETATM    6  C7  UNL     1     -32.681   6.975   3.920  1.00 20.00     0.124 C 
BRANCH   6   7
HETATM    7  C6  UNL     1     -31.927   8.078   3.169  1.00 20.00     0.027 C 
HETATM    8  C5  UNL     1     -32.549   8.391   1.815  1.00 20.00     0.007 C 
ENDBRANCH   6   7
BRANCH   6   9
HETATM    9  O9  UNL     1     -33.397   7.561   5.006  1.00 20.00    -0.395 OA
HETATM   10  H23 UNL     1     -33.978   8.235   4.620  1.00 20.00     0.210 HD
ENDBRANCH   6   9
ENDBRANCH   4   6
TORSDOF 3
ENDMDL
MODEL 3
REMARK VINA RESULT:      -4.4      1.277      3.801
REMARK  3 active torsions:
REMARK  status: ('A' for Active; 'I' for Inactive)
REMARK    1  A    between atoms: C4_4  and  C7_7 
REMARK    2  A    between atoms: C6_6  and  C7_7 
REMARK    3  A    between atoms: C7_7  and  O9_9 
ROOT
HETATM    1  C1  UNL     1     -32.865   7.082   2.097  1.00 20.00     0.035 C 
HETATM    2  C2  UNL     1     -32.815   8.560   1.770  1.00 20.00     0.168 C 
HETATM    3  C3  UNL     1     -31.457   8.173   3.624  1.00 20.00     0.174 C 
HETATM    4  C4  UNL     1     -32.470   7.042   3.558  1.00 20.00     0.040 C 
HETATM    5  O8  UNL     1     -31.863   9.157   2.661  1.00 20.00    -0.391 OA
ENDROOT
BRANCH   4   6
HETATM    6  C7  UNL     1     -33.662   7.293   4.480  1.00 20.00     0.124 C 
BRANCH   6   7
HETATM    7  C6  UNL     1     -34.673   6.144   4.413  1.00 20.00     0.027 C 
HETATM    8  C5  UNL     1     -34.562   5.200   5.603  1.00 20.00     0.007 C 
ENDBRANCH   6   7
BRANCH   6   9
HETATM    9  O9  UNL     1     -33.195   7.420   5.822  1.00 20.00    -0.395 OA
HETATM   10  H23 UNL     1     -33.659   8.182   6.203  1.00 20.00     0.210 HD
ENDBRANCH   6   9
ENDBRANCH   4   6
TORSDOF 3
ENDMDL
MODEL 4
REMARK VINA RESULT:      -4.2      1.747      3.938
REMARK  3 active torsions:
REMARK  status: ('A' for Active; 'I' for Inactive)
REMARK    1  A    between atoms: C4_4  and  C7_7 
REMARK    2  A    between atoms: C6_6  and  C7_7 
REMARK    3  A    between atoms: C7_7  and  O9_9 
ROOT
HETATM    1  C1  UNL     1     -32.658   8.008   4.511  1.00 20.00     0.035 C 
HETATM    2  C2  UNL     1     -31.391   8.108   3.687  1.00 20.00     0.168 C 
HETATM    3  C3  UNL     1     -33.185   7.785   2.235  1.00 20.00     0.174 C 
HETATM    4  C4  UNL     1     -33.601   7.253   3.597  1.00 20.00     0.040 C 
HETATM    5  O8  UNL     1     -31.781   8.074   2.308  1.00 20.00    -0.391 OA
ENDROOT
BRANCH   4   6
HETATM    6  C7  UNL     1     -33.407   5.741   3.698  1.00 20.00     0.124 C 
BRANCH   6   7
HETATM    7  C6  UNL     1     -34.653   5.054   4.268  1.00 20.00     0.027 C 
HETATM    8  C5  UNL     1     -34.655   5.021   5.790  1.00 20.00     0.007 C 
ENDBRANCH   6   7
BRANCH   6   9
HETATM    9  O9  UNL     1     -33.144   5.216   2.397  1.00 20.00    -0.395 OA
HETATM   10  H23 UNL     1     -32.219   4.927   2.401  1.00 20.00     0.210 HD
ENDBRANCH   6   9
ENDBRANCH   4   6
TORSDOF 3
ENDMDL
MODEL 5
REMARK VINA RESULT:      -4.0     11.565     12.389
REMARK  3 active torsions:
REMARK  status: ('A' for Active; 'I' for Inactive)
REMARK    1  A    between atoms: C4_4  and  C7_7 
REMARK    2  A    between atoms: C6_6  and  C7_7 
REMARK    3  A    between atoms: C7_7  and  O9_9 
ROOT
HETATM    1  C1  UNL     1     -35.197  14.859  -6.896  1.00 20.00     0.035 C 
HETATM    2  C2  UNL     1     -34.911  13.440  -7.344  1.00 20.00     0.168 C 
HETATM    3  C3  UNL     1     -35.605  13.381  -5.120  1.00 20.00     0.174 C 
HETATM    4  C4  UNL     1     -35.063  14.774  -5.389  1.00 20.00     0.040 C 
HETATM    5  O8  UNL     1     -35.278  12.575  -6.262  1.00 20.00    -0.391 OA
ENDROOT
BRANCH   4   6
HETATM    6  C7  UNL     1     -33.611  14.916  -4.935  1.00 20.00     0.124 C 
BRANCH   6   7
HETATM    7  C6  UNL     1     -33.477  15.931  -3.795  1.00 20.00     0.027 C 
HETATM    8  C5  UNL     1     -34.762  16.077  -2.992  1.00 20.00     0.007 C 
ENDBRANCH   6   7
BRANCH   6   9
HETATM    9  O9  UNL     1     -33.139  13.647  -4.483  1.00 20.00    -0.395 OA
HETATM   10  H23 UNL     1     -33.750  13.359  -3.789  1.00 20.00     0.210 HD
ENDBRANCH   6   9
ENDBRANCH   4   6
TORSDOF 3
ENDMDL
MODEL 6
REMARK VINA RESULT:      -3.6     11.766     12.500
REMARK  3 active torsions:
REMARK  status: ('A' for Active; 'I' for Inactive)
REMARK    1  A    between atoms: C4_4  and  C7_7 
REMARK    2  A    between atoms: C6_6  and  C7_7 
REMARK    3  A    between atoms: C7_7  and  O9_9 
ROOT
HETATM    1  C1  UNL     1     -35.630  14.848  -4.239  1.00 20.00     0.035 C 
HETATM    2  C2  UNL     1     -35.340  14.282  -5.614  1.00 20.00     0.168 C 
HETATM    3  C3  UNL     1     -33.341  14.363  -4.418  1.00 20.00     0.174 C 
HETATM    4  C4  UNL     1     -34.283  15.382  -3.798  1.00 20.00     0.040 C 
HETATM    5  O8  UNL     1     -33.957  13.905  -5.631  1.00 20.00    -0.391 OA
ENDROOT
BRANCH   4   6
HETATM    6  C7  UNL     1     -34.024  16.790  -4.331  1.00 20.00     0.124 C 
BRANCH   6   7
HETATM    7  C6  UNL     1     -33.499  17.718  -3.230  1.00 20.00     0.027 C 
HETATM    8  C5  UNL     1     -33.761  17.171  -1.834  1.00 20.00     0.007 C 
ENDBRANCH   6   7
BRANCH   6   9
HETATM    9  O9  UNL     1     -33.058  16.722  -5.379  1.00 20.00    -0.395 OA
HETATM   10  H23 UNL     1     -32.934  15.782  -5.577  1.00 20.00     0.210 HD
ENDBRANCH   6   9
ENDBRANCH   4   6
TORSDOF 3
ENDMDL
MODEL 7
REMARK VINA RESULT:      -3.6     11.445     12.099
REMARK  3 active torsions:
REMARK  status: ('A' for Active; 'I' for Inactive)
REMARK    1  A    between atoms: C4_4  and  C7_7 
REMARK    2  A    between atoms: C6_6  and  C7_7 
REMARK    3  A    between atoms: C7_7  and  O9_9 
ROOT
HETATM    1  C1  UNL     1     -33.400  15.821  -4.592  1.00 20.00     0.035 C 
HETATM    2  C2  UNL     1     -33.080  14.366  -4.317  1.00 20.00     0.168 C 
HETATM    3  C3  UNL     1     -35.393  14.586  -4.499  1.00 20.00     0.174 C 
HETATM    4  C4  UNL     1     -34.835  15.950  -4.125  1.00 20.00     0.040 C 
HETATM    5  O8  UNL     1     -34.317  13.644  -4.377  1.00 20.00    -0.391 OA
ENDROOT
BRANCH   4   6
HETATM    6  C7  UNL     1     -34.926  16.207  -2.622  1.00 20.00     0.124 C 
BRANCH   6   7
HETATM    7  C6  UNL     1     -33.921  17.273  -2.174  1.00 20.00     0.027 C 
HETATM    8  C5  UNL     1     -34.129  17.699  -0.728  1.00 20.00     0.007 C 
ENDBRANCH   6   7
BRANCH   6   9
HETATM    9  O9  UNL     1     -36.244  16.652  -2.304  1.00 20.00    -0.395 OA
HETATM   10  H23 UNL     1     -36.487  17.298  -2.984  1.00 20.00     0.210 HD
ENDBRANCH   6   9
ENDBRANCH   4   6
TORSDOF 3
ENDMDL
MODEL 8
REMARK VINA RESULT:      -3.6     11.709     12.372
REMARK  3 active torsions:
REMARK  status: ('A' for Active; 'I' for Inactive)
REMARK    1  A    between atoms: C4_4  and  C7_7 
REMARK    2  A    between atoms: C6_6  and  C7_7 
REMARK    3  A    between atoms: C7_7  and  O9_9 
ROOT
HETATM    1  C1  UNL     1     -34.346  14.411  -4.074  1.00 20.00     0.035 C 
HETATM    2  C2  UNL     1     -35.555  13.959  -4.867  1.00 20.00     0.168 C 
HETATM    3  C3  UNL     1     -35.359  16.271  -5.085  1.00 20.00     0.174 C 
HETATM    4  C4  UNL     1     -34.640  15.873  -3.806  1.00 20.00     0.040 C 
HETATM    5  O8  UNL     1     -36.069  15.112  -5.546  1.00 20.00    -0.391 OA
ENDROOT
BRANCH   4   6
HETATM    6  C7  UNL     1     -35.526  16.061  -2.576  1.00 20.00     0.124 C 
BRANCH   6   7
HETATM    7  C6  UNL     1     -34.866  16.986  -1.548  1.00 20.00     0.027 C 
HETATM    8  C5  UNL     1     -33.423  17.317  -1.903  1.00 20.00     0.007 C 
ENDBRANCH   6   7
BRANCH   6   9
HETATM    9  O9  UNL     1     -36.770  16.632  -2.980  1.00 20.00    -0.395 OA
HETATM   10  H23 UNL     1     -36.580  17.545  -3.243  1.00 20.00     0.210 HD
ENDBRANCH   6   9
ENDBRANCH   4   6
TORSDOF 3
ENDMDL
MODEL 9
REMARK VINA RESULT:      -3.5     11.590     13.022
REMARK  3 active torsions:
REMARK  status: ('A' for Active; 'I' for Inactive)
REMARK    1  A    between atoms: C4_4  and  C7_7 
REMARK    2  A    between atoms: C6_6  and  C7_7 
REMARK    3  A    between atoms: C7_7  and  O9_9 
ROOT
HETATM    1  C1  UNL     1     -33.788  15.472  -6.490  1.00 20.00     0.035 C 
HETATM    2  C2  UNL     1     -33.716  16.498  -5.377  1.00 20.00     0.168 C 
HETATM    3  C3  UNL     1     -33.368  14.388  -4.452  1.00 20.00     0.174 C 
HETATM    4  C4  UNL     1     -34.128  14.193  -5.753  1.00 20.00     0.040 C 
HETATM    5  O8  UNL     1     -33.353  15.797  -4.181  1.00 20.00    -0.391 OA
ENDROOT
BRANCH   4   6
HETATM    6  C7  UNL     1     -35.631  14.053  -5.517  1.00 20.00     0.124 C 
BRANCH   6   7
HETATM    7  C6  UNL     1     -36.421  14.225  -6.818  1.00 20.00     0.027 C 
HETATM    8  C5  UNL     1     -37.563  15.223  -6.679  1.00 20.00     0.007 C 
ENDBRANCH   6   7
BRANCH   6   9
HETATM    9  O9  UNL     1     -35.899  12.758  -4.981  1.00 20.00    -0.395 OA
HETATM   10  H23 UNL     1     -36.863  12.657  -4.977  1.00 20.00     0.210 HD
ENDBRANCH   6   9
ENDBRANCH   4   6
TORSDOF 3
ENDMDL
