MODEL 1
REMARK VINA RESULT:      -5.0      0.000      0.000
REMARK  3 active torsions:
REMARK  status: ('A' for Active; 'I' for Inactive)
REMARK    1  A    between atoms: C4_4  and  C7_7 
REMARK    2  A    between atoms: C6_6  and  C7_7 
REMARK    3  A    between atoms: C7_7  and  O9_9 
ROOT
HETATM    1  C1  UNL     1     -34.281   6.047   5.494  1.00 20.00     0.035 C 
HETATM    2  C2  UNL     1     -34.783   4.623   5.374  1.00 20.00     0.168 C 
HETATM    3  C3  UNL     1     -33.670   5.177   3.403  1.00 20.00     0.174 C 
HETATM    4  C4  UNL     1     -34.177   6.458   4.041  1.00 20.00     0.040 C 
HETATM    5  O8  UNL     1     -34.242   4.094   4.154  1.00 20.00    -0.391 OA
ENDROOT
BRANCH   4   6
HETATM    6  C7  UNL     1     -33.283   7.658   3.797  1.00 20.00     0.124 C 
BRANCH   6   7
HETATM    7  C6  UNL     1     -32.366   7.438   2.589  1.00 20.00     0.027 C 
HETATM    8  C5  UNL     1     -32.162   8.708   1.774  1.00 20.00     0.007 C 
ENDBRANCH   6   7
BRANCH   6   9
HETATM    9  O9  UNL     1     -32.476   7.881   4.953  1.00 20.00    -0.395 OA
HETATM   10  H23 UNL     1     -32.757   7.230   5.614  1.00 20.00     0.210 HD
ENDBRANCH   6   9
ENDBRANCH   4   6
TORSDOF 3
ENDMDL
MODEL 2
REMARK VINA RESULT:      -4.7      1.125      1.418
REMARK  3 active torsions:
REMARK  status: ('A' for Active; 'I' for Inactive)
REMARK    1  A    between atoms: C4_4  and  C7_7 
REMARK    2  A    between atoms: C6_6  and  C7_7 
REMARK    3  A    between atoms: C7_7  and  O9_9 
ROOT
HETATM    1  C1  UNL     1     -33.721   7.148   4.765  1.00 20.00     0.035 C 
HETATM    2  C2  UNL     1     -34.437   5.814   4.751  1.00 20.00     0.168 C 
HETATM    3  C3  UNL     1     -33.183   5.992   2.796  1.00 20.00     0.174 C 
HETATM    4  C4  UNL     1     -33.503   7.393   3.287  1.00 20.00     0.040 C 
HETATM    5  O8  UNL     1     -33.945   5.090   3.614  1.00 20.00    -0.391 OA
ENDROOT
BRANCH   4   6
HETATM    6  C7  UNL     1     -32.422   8.411   2.979  1.00 20.00     0.124 C 
BRANCH   6   7
HETATM    7  C6  UNL     1     -32.102   8.452   1.481  1.00 20.00     0.027 C 
HETATM    8  C5  UNL     1     -32.431   9.800   0.852  1.00 20.00     0.007 C 
ENDBRANCH   6   7
BRANCH   6   9
HETATM    9  O9  UNL     1     -31.237   8.064   3.694  1.00 20.00    -0.395 OA
HETATM   10  H23 UNL     1     -30.750   8.890   3.837  1.00 20.00     0.210 HD
ENDBRANCH   6   9
ENDBRANCH   4   6
TORSDOF 3
ENDMDL
MODEL 3
REMARK VINA RESULT:      -4.6      1.357      1.735
REMARK  3 active torsions:
REMARK  status: ('A' for Active; 'I' for Inactive)
REMARK    1  A    between atoms: C4_4  and  C7_7 
REMARK    2  A    between atoms: C6_6  and  C7_7 
REMARK    3  A    between atoms: C7_7  and  O9_9 
ROOT
HETATM    1  C1  UNL     1     -34.260   6.164   3.308  1.00 20.00     0.035 C 
HETATM    2  C2  UNL     1     -34.843   5.331   4.431  1.00 20.00     0.168 C 
HETATM    3  C3  UNL     1     -33.714   7.139   5.371  1.00 20.00     0.174 C 
HETATM    4  C4  UNL     1     -33.109   6.856   4.007  1.00 20.00     0.040 C 
HETATM    5  O8  UNL     1     -34.619   6.059   5.647  1.00 20.00    -0.391 OA
ENDROOT
BRANCH   4   6
HETATM    6  C7  UNL     1     -32.603   8.094   3.293  1.00 20.00     0.124 C 
BRANCH   6   7
HETATM    7  C6  UNL     1     -32.552   7.885   1.776  1.00 20.00     0.027 C 
HETATM    8  C5  UNL     1     -32.161   9.152   1.027  1.00 20.00     0.007 C 
ENDBRANCH   6   7
BRANCH   6   9
HETATM    9  O9  UNL     1     -31.290   8.398   3.761  1.00 20.00    -0.395 OA
HETATM   10  H23 UNL     1     -31.395   9.046   4.474  1.00 20.00     0.210 HD
ENDBRANCH   6   9
ENDBRANCH   4   6
TORSDOF 3
ENDMDL
MODEL 4
REMARK VINA RESULT:      -4.5      1.689      3.942
REMARK  3 active torsions:
REMARK  status: ('A' for Active; 'I' for Inactive)
REMARK    1  A    between atoms: C4_4  and  C7_7 
REMARK    2  A    between atoms: C6_6  and  C7_7 
REMARK    3  A    between atoms: C7_7  and  O9_9 
ROOT
HETATM    1  C1  UNL     1     -33.137   7.021   2.519  1.00 20.00     0.035 C 
HETATM    2  C2  UNL     1     -32.298   8.068   1.815  1.00 20.00     0.168 C 
HETATM    3  C3  UNL     1     -31.871   8.202   4.102  1.00 20.00     0.174 C 
HETATM    4  C4  UNL     1     -33.255   7.608   3.908  1.00 20.00     0.040 C 
HETATM    5  O8  UNL     1     -31.432   8.640   2.807  1.00 20.00    -0.391 OA
ENDROOT
BRANCH   4   6
HETATM    6  C7  UNL     1     -33.645   6.604   4.976  1.00 20.00     0.124 C 
BRANCH   6   7
HETATM    7  C6  UNL     1     -34.812   5.724   4.518  1.00 20.00     0.027 C 
HETATM    8  C5  UNL     1     -34.476   4.239   4.567  1.00 20.00     0.007 C 
ENDBRANCH   6   7
BRANCH   6   9
HETATM    9  O9  UNL     1     -34.031   7.304   6.157  1.00 20.00    -0.395 OA
HETATM   10  H23 UNL     1     -33.686   8.206   6.067  1.00 20.00     0.210 HD
ENDBRANCH   6   9
ENDBRANCH   4   6
TORSDOF 3
ENDMDL
MODEL 5
REMARK VINA RESULT:      -4.5      1.067      4.044
REMARK  3 active torsions:
REMARK  status: ('A' for Active; 'I' for Inactive)
REMARK    1  A    between atoms: C4_4  and  C7_7 
REMARK    2  A    between atoms: C6_6  and  C7_7 
REMARK    3  A    between atoms: C7_7  and  O9_9 
ROOT
HETATM    1  C1  UNL     1     -32.279   7.308   2.536  1.00 20.00     0.035 C 
HETATM    2  C2  UNL     1     -31.528   8.450   3.189  1.00 20.00     0.168 C 
HETATM    3  C3  UNL     1     -33.001   7.552   4.755  1.00 20.00     0.174 C 
HETATM    4  C4  UNL     1     -33.543   7.259   3.367  1.00 20.00     0.040 C 
HETATM    5  O8  UNL     1     -31.890   8.445   4.577  1.00 20.00    -0.391 OA
ENDROOT
BRANCH   4   6
HETATM    6  C7  UNL     1     -34.300   5.949   3.270  1.00 20.00     0.124 C 
BRANCH   6   7
HETATM    7  C6  UNL     1     -34.978   5.594   4.597  1.00 20.00     0.027 C 
HETATM    8  C5  UNL     1     -34.470   4.282   5.178  1.00 20.00     0.007 C 
ENDBRANCH   6   7
BRANCH   6   9
HETATM    9  O9  UNL     1     -33.388   4.907   2.926  1.00 20.00    -0.395 OA
HETATM   10  H23 UNL     1     -32.497   5.279   3.021  1.00 20.00     0.210 HD
ENDBRANCH   6   9
ENDBRANCH   4   6
TORSDOF 3
ENDMDL
MODEL 6
REMARK VINA RESULT:      -4.2      1.427      1.568
REMARK  3 active torsions:
REMARK  status: ('A' for Active; 'I' for Inactive)
REMARK    1  A    between atoms: C4_4  and  C7_7 
REMARK    2  A    between atoms: C6_6  and  C7_7 
REMARK    3  A    between atoms: C7_7  and  O9_9 
ROOT
HETATM    1  C1  UNL     1     -33.429   7.192   5.521  1.00 20.00     0.035 C 
HETATM    2  C2  UNL     1     -34.582   6.365   6.052  1.00 20.00     0.168 C 
HETATM    3  C3  UNL     1     -34.225   5.778   3.826  1.00 20.00     0.174 C 
HETATM    4  C4  UNL     1     -33.714   7.193   4.034  1.00 20.00     0.040 C 
HETATM    5  O8  UNL     1     -34.916   5.413   5.031  1.00 20.00    -0.391 OA
ENDROOT
BRANCH   4   6
HETATM    6  C7  UNL     1     -32.516   7.544   3.173  1.00 20.00     0.124 C 
BRANCH   6   7
HETATM    7  C6  UNL     1     -32.866   8.619   2.139  1.00 20.00     0.027 C 
HETATM    8  C5  UNL     1     -31.770   8.804   1.098  1.00 20.00     0.007 C 
ENDBRANCH   6   7
BRANCH   6   9
HETATM    9  O9  UNL     1     -32.075   6.373   2.488  1.00 20.00    -0.395 OA
HETATM   10  H23 UNL     1     -31.391   6.660   1.865  1.00 20.00     0.210 HD
ENDBRANCH   6   9
ENDBRANCH   4   6
TORSDOF 3
ENDMDL
MODEL 7
REMARK VINA RESULT:      -3.9      1.972      3.318
REMARK  3 active torsions:
REMARK  status: ('A' for Active; 'I' for Inactive)
REMARK    1  A    between atoms: C4_4  and  C7_7 
REMARK    2  A    between atoms: C6_6  and  C7_7 
REMARK    3  A    between atoms: C7_7  and  O9_9 
ROOT
HETATM    1  C1  UNL     1     -33.482   7.389   2.535  1.00 20.00     0.035 C 
HETATM    2  C2  UNL     1     -33.672   6.727   3.884  1.00 20.00     0.168 C 
HETATM    3  C3  UNL     1     -31.993   8.329   4.085  1.00 20.00     0.174 C 
HETATM    4  C4  UNL     1     -32.054   7.881   2.636  1.00 20.00     0.040 C 
HETATM    5  O8  UNL     1     -32.859   7.449   4.820  1.00 20.00    -0.391 OA
ENDROOT
BRANCH   4   6
HETATM    6  C7  UNL     1     -31.702   8.972   1.643  1.00 20.00     0.124 C 
BRANCH   6   7
HETATM    7  C6  UNL     1     -32.952   9.714   1.159  1.00 20.00     0.027 C 
HETATM    8  C5  UNL     1     -33.141   9.614  -0.349  1.00 20.00     0.007 C 
ENDBRANCH   6   7
BRANCH   6   9
HETATM    9  O9  UNL     1     -31.050   8.385   0.517  1.00 20.00    -0.395 OA
HETATM   10  H23 UNL     1     -30.211   8.857   0.409  1.00 20.00     0.210 HD
ENDBRANCH   6   9
ENDBRANCH   4   6
TORSDOF 3
ENDMDL
MODEL 8
REMARK VINA RESULT:      -3.9     11.553     12.549
REMARK  3 active torsions:
REMARK  status: ('A' for Active; 'I' for Inactive)
REMARK    1  A    between atoms: C4_4  and  C7_7 
REMARK    2  A    between atoms: C6_6  and  C7_7 
REMARK    3  A    between atoms: C7_7  and  O9_9 
ROOT
HETATM    1  C1  UNL     1     -34.237  14.575  -6.537  1.00 20.00     0.035 C 
HETATM    2  C2  UNL     1     -35.073  13.331  -6.759  1.00 20.00     0.168 C 
HETATM    3  C3  UNL     1     -35.001  13.768  -4.471  1.00 20.00     0.174 C 
HETATM    4  C4  UNL     1     -33.767  14.377  -5.113  1.00 20.00     0.040 C 
HETATM    5  O8  UNL     1     -35.642  12.982  -5.488  1.00 20.00    -0.391 OA
ENDROOT
BRANCH   4   6
HETATM    6  C7  UNL     1     -33.288  15.646  -4.434  1.00 20.00     0.124 C 
BRANCH   6   7
HETATM    7  C6  UNL     1     -34.283  16.122  -3.370  1.00 20.00     0.027 C 
HETATM    8  C5  UNL     1     -33.623  16.979  -2.298  1.00 20.00     0.007 C 
ENDBRANCH   6   7
BRANCH   6   9
HETATM    9  O9  UNL     1     -33.137  16.671  -5.415  1.00 20.00    -0.395 OA
HETATM   10  H23 UNL     1     -32.860  16.230  -6.233  1.00 20.00     0.210 HD
ENDBRANCH   6   9
ENDBRANCH   4   6
TORSDOF 3
ENDMDL
MODEL 9
REMARK VINA RESULT:      -3.9     11.936     13.248
REMARK  3 active torsions:
REMARK  status: ('A' for Active; 'I' for Inactive)
REMARK    1  A    between atoms: C4_4  and  C7_7 
REMARK    2  A    between atoms: C6_6  and  C7_7 
REMARK    3  A    between atoms: C7_7  and  O9_9 
ROOT
HETATM    1  C1  UNL     1     -33.994  14.525  -4.802  1.00 20.00     0.035 C 
HETATM    2  C2  UNL     1     -32.952  15.578  -5.118  1.00 20.00     0.168 C 
HETATM    3  C3  UNL     1     -34.398  15.408  -6.937  1.00 20.00     0.174 C 
HETATM    4  C4  UNL     1     -34.417  14.088  -6.187  1.00 20.00     0.040 C 
HETATM    5  O8  UNL     1     -33.345  16.192  -6.355  1.00 20.00    -0.391 OA
ENDROOT
BRANCH   4   6
HETATM    6  C7  UNL     1     -35.755  13.377  -6.233  1.00 20.00     0.124 C 
BRANCH   6   7
HETATM    7  C6  UNL     1     -36.912  14.370  -6.394  1.00 20.00     0.027 C 
HETATM    8  C5  UNL     1     -37.798  14.436  -5.157  1.00 20.00     0.007 C 
ENDBRANCH   6   7
BRANCH   6   9
HETATM    9  O9  UNL     1     -35.939  12.649  -5.020  1.00 20.00    -0.395 OA
HETATM   10  H23 UNL     1     -35.824  11.712  -5.241  1.00 20.00     0.210 HD
ENDBRANCH   6   9
ENDBRANCH   4   6
TORSDOF 3
ENDMDL
