MODEL 1
REMARK VINA RESULT:      -4.9      0.000      0.000
REMARK  1 active torsions:
REMARK  status: ('A' for Active; 'I' for Inactive)
REMARK    1  A    between atoms: C1_1  and  C4_4 
ROOT
HETATM    1  C1  UNL     1     -33.812   6.451   3.906  1.00 20.00     0.172 C 
HETATM    2  C2  UNL     1     -32.488   7.651   2.526  1.00 20.00     0.160 C 
HETATM    3  C3  UNL     1     -31.882   8.036   3.866  1.00 20.00     0.103 C 
HETATM    4  N5  UNL     1     -33.377   6.481   2.690  1.00 20.00    -0.278 NA
HETATM    5  S9  UNL     1     -33.203   7.642   5.026  1.00 20.00    -0.104 SA
ENDROOT
BRANCH   1   6
HETATM    6  C4  UNL     1     -34.773   5.431   4.412  1.00 20.00     0.440 C 
HETATM    7  F6  UNL     1     -36.014   5.639   3.918  1.00 20.00    -0.164 F 
HETATM    8  F7  UNL     1     -34.398   4.183   4.056  1.00 20.00    -0.164 F 
HETATM    9  F8  UNL     1     -34.861   5.460   5.760  1.00 20.00    -0.164 F 
ENDBRANCH   1   6
TORSDOF 1
ENDMDL
MODEL 2
REMARK VINA RESULT:      -4.9      0.011      1.260
REMARK  1 active torsions:
REMARK  status: ('A' for Active; 'I' for Inactive)
REMARK    1  A    between atoms: C1_1  and  C4_4 
ROOT
HETATM    1  C1  UNL     1     -33.816   6.446   3.903  1.00 20.00     0.172 C 
HETATM    2  C2  UNL     1     -32.483   7.636   2.524  1.00 20.00     0.160 C 
HETATM    3  C3  UNL     1     -31.883   8.028   3.865  1.00 20.00     0.103 C 
HETATM    4  N5  UNL     1     -33.375   6.469   2.690  1.00 20.00    -0.278 NA
HETATM    5  S9  UNL     1     -33.212   7.643   5.020  1.00 20.00    -0.104 SA
ENDROOT
BRANCH   1   6
HETATM    6  C4  UNL     1     -34.781   5.430   4.410  1.00 20.00     0.440 C 
HETATM    7  F6  UNL     1     -34.863   5.462   5.759  1.00 20.00    -0.164 F 
HETATM    8  F7  UNL     1     -36.023   5.645   3.922  1.00 20.00    -0.164 F 
HETATM    9  F8  UNL     1     -34.415   4.179   4.054  1.00 20.00    -0.164 F 
ENDBRANCH   1   6
TORSDOF 1
ENDMDL
MODEL 3
REMARK VINA RESULT:      -4.8      1.262      1.443
REMARK  1 active torsions:
REMARK  status: ('A' for Active; 'I' for Inactive)
REMARK    1  A    between atoms: C1_1  and  C4_4 
ROOT
HETATM    1  C1  UNL     1     -33.738   6.345   4.109  1.00 20.00     0.172 C 
HETATM    2  C2  UNL     1     -32.196   7.992   4.037  1.00 20.00     0.160 C 
HETATM    3  C3  UNL     1     -32.380   7.744   2.548  1.00 20.00     0.103 C 
HETATM    4  N5  UNL     1     -33.283   7.339   4.797  1.00 20.00    -0.278 NA
HETATM    5  S9  UNL     1     -33.094   6.091   2.508  1.00 20.00    -0.104 SA
ENDROOT
BRANCH   1   6
HETATM    6  C4  UNL     1     -34.810   5.430   4.593  1.00 20.00     0.440 C 
HETATM    7  F6  UNL     1     -35.994   5.706   4.002  1.00 20.00    -0.164 F 
HETATM    8  F7  UNL     1     -34.513   4.139   4.327  1.00 20.00    -0.164 F 
HETATM    9  F8  UNL     1     -34.988   5.540   5.929  1.00 20.00    -0.164 F 
ENDBRANCH   1   6
TORSDOF 1
ENDMDL
MODEL 4
REMARK VINA RESULT:      -4.7      3.041      3.829
REMARK  1 active torsions:
REMARK  status: ('A' for Active; 'I' for Inactive)
REMARK    1  A    between atoms: C1_1  and  C4_4 
ROOT
HETATM    1  C1  UNL     1     -33.296   7.130   4.038  1.00 20.00     0.172 C 
HETATM    2  C2  UNL     1     -34.247   6.689   6.037  1.00 20.00     0.160 C 
HETATM    3  C3  UNL     1     -34.617   5.418   5.288  1.00 20.00     0.103 C 
HETATM    4  N5  UNL     1     -33.210   7.433   5.291  1.00 20.00    -0.278 NA
HETATM    5  S9  UNL     1     -34.452   5.913   3.564  1.00 20.00    -0.104 SA
ENDROOT
BRANCH   1   6
HETATM    6  C4  UNL     1     -32.433   7.734   2.984  1.00 20.00     0.440 C 
HETATM    7  F6  UNL     1     -32.081   6.818   2.054  1.00 20.00    -0.164 F 
HETATM    8  F7  UNL     1     -33.069   8.740   2.344  1.00 20.00    -0.164 F 
HETATM    9  F8  UNL     1     -31.294   8.240   3.507  1.00 20.00    -0.164 F 
ENDBRANCH   1   6
TORSDOF 1
ENDMDL
MODEL 5
REMARK VINA RESULT:      -4.4      2.966      3.760
REMARK  1 active torsions:
REMARK  status: ('A' for Active; 'I' for Inactive)
REMARK    1  A    between atoms: C1_1  and  C4_4 
ROOT
HETATM    1  C1  UNL     1     -33.037   6.946   3.332  1.00 20.00     0.172 C 
HETATM    2  C2  UNL     1     -34.013   4.938   3.665  1.00 20.00     0.160 C 
HETATM    3  C3  UNL     1     -34.745   5.759   4.715  1.00 20.00     0.103 C 
HETATM    4  N5  UNL     1     -33.297   5.833   2.731  1.00 20.00    -0.278 NA
HETATM    5  S9  UNL     1     -33.647   7.167   4.951  1.00 20.00    -0.104 SA
ENDROOT
BRANCH   1   6
HETATM    6  C4  UNL     1     -32.279   8.064   2.703  1.00 20.00     0.440 C 
HETATM    7  F6  UNL     1     -31.416   8.626   3.580  1.00 20.00    -0.164 F 
HETATM    8  F7  UNL     1     -31.559   7.636   1.643  1.00 20.00    -0.164 F 
HETATM    9  F8  UNL     1     -33.106   9.039   2.266  1.00 20.00    -0.164 F 
ENDBRANCH   1   6
TORSDOF 1
ENDMDL
MODEL 6
REMARK VINA RESULT:      -4.2      2.514      3.236
REMARK  1 active torsions:
REMARK  status: ('A' for Active; 'I' for Inactive)
REMARK    1  A    between atoms: C1_1  and  C4_4 
ROOT
HETATM    1  C1  UNL     1     -33.682   6.402   3.855  1.00 20.00     0.172 C 
HETATM    2  C2  UNL     1     -33.894   7.278   5.925  1.00 20.00     0.160 C 
HETATM    3  C3  UNL     1     -34.527   5.914   6.155  1.00 20.00     0.103 C 
HETATM    4  N5  UNL     1     -33.163   7.287   4.640  1.00 20.00    -0.278 NA
HETATM    5  S9  UNL     1     -34.957   5.392   4.485  1.00 20.00    -0.104 SA
ENDROOT
BRANCH   1   6
HETATM    6  C4  UNL     1     -33.224   6.172   2.456  1.00 20.00     0.440 C 
HETATM    7  F6  UNL     1     -32.383   7.148   2.049  1.00 20.00    -0.164 F 
HETATM    8  F7  UNL     1     -32.568   4.996   2.341  1.00 20.00    -0.164 F 
HETATM    9  F8  UNL     1     -34.263   6.144   1.594  1.00 20.00    -0.164 F 
ENDBRANCH   1   6
TORSDOF 1
ENDMDL
MODEL 7
REMARK VINA RESULT:      -3.9      2.460      3.208
REMARK  1 active torsions:
REMARK  status: ('A' for Active; 'I' for Inactive)
REMARK    1  A    between atoms: C1_1  and  C4_4 
ROOT
HETATM    1  C1  UNL     1     -33.792   5.690   3.919  1.00 20.00     0.172 C 
HETATM    2  C2  UNL     1     -34.611   4.933   5.881  1.00 20.00     0.160 C 
HETATM    3  C3  UNL     1     -34.634   6.430   6.151  1.00 20.00     0.103 C 
HETATM    4  N5  UNL     1     -34.410   4.682   4.439  1.00 20.00    -0.278 NA
HETATM    5  S9  UNL     1     -33.465   7.068   4.937  1.00 20.00    -0.104 SA
ENDROOT
BRANCH   1   6
HETATM    6  C4  UNL     1     -33.381   5.755   2.488  1.00 20.00     0.440 C 
HETATM    7  F6  UNL     1     -32.490   6.749   2.279  1.00 20.00    -0.164 F 
HETATM    8  F7  UNL     1     -32.804   4.601   2.089  1.00 20.00    -0.164 F 
HETATM    9  F8  UNL     1     -34.440   5.981   1.679  1.00 20.00    -0.164 F 
ENDBRANCH   1   6
TORSDOF 1
ENDMDL
MODEL 8
REMARK VINA RESULT:      -3.9      3.866      4.535
REMARK  1 active torsions:
REMARK  status: ('A' for Active; 'I' for Inactive)
REMARK    1  A    between atoms: C1_1  and  C4_4 
ROOT
HETATM    1  C1  UNL     1     -32.573   8.124   2.162  1.00 20.00     0.172 C 
HETATM    2  C2  UNL     1     -33.551   6.504   3.392  1.00 20.00     0.160 C 
HETATM    3  C3  UNL     1     -32.985   7.370   4.507  1.00 20.00     0.103 C 
HETATM    4  N5  UNL     1     -33.513   7.240   2.111  1.00 20.00    -0.278 NA
HETATM    5  S9  UNL     1     -31.704   8.314   3.663  1.00 20.00    -0.104 SA
ENDROOT
BRANCH   1   6
HETATM    6  C4  UNL     1     -32.219   9.017   1.022  1.00 20.00     0.440 C 
HETATM    7  F6  UNL     1     -31.003   8.708   0.518  1.00 20.00    -0.164 F 
HETATM    8  F7  UNL     1     -33.115   8.910   0.017  1.00 20.00    -0.164 F 
HETATM    9  F8  UNL     1     -32.185  10.313   1.401  1.00 20.00    -0.164 F 
ENDBRANCH   1   6
TORSDOF 1
ENDMDL
MODEL 9
REMARK VINA RESULT:      -3.9     12.029     12.681
REMARK  1 active torsions:
REMARK  status: ('A' for Active; 'I' for Inactive)
REMARK    1  A    between atoms: C1_1  and  C4_4 
ROOT
HETATM    1  C1  UNL     1     -34.291  14.373  -5.135  1.00 20.00     0.172 C 
HETATM    2  C2  UNL     1     -36.297  13.395  -5.473  1.00 20.00     0.160 C 
HETATM    3  C3  UNL     1     -35.876  13.627  -6.916  1.00 20.00     0.103 C 
HETATM    4  N5  UNL     1     -35.140  13.579  -4.572  1.00 20.00    -0.278 NA
HETATM    5  S9  UNL     1     -34.624  14.913  -6.760  1.00 20.00    -0.104 SA
ENDROOT
BRANCH   1   6
HETATM    6  C4  UNL     1     -33.024  14.818  -4.488  1.00 20.00     0.440 C 
HETATM    7  F6  UNL     1     -32.276  15.561  -5.333  1.00 20.00    -0.164 F 
HETATM    8  F7  UNL     1     -33.270  15.571  -3.393  1.00 20.00    -0.164 F 
HETATM    9  F8  UNL     1     -32.272  13.765  -4.097  1.00 20.00    -0.164 F 
ENDBRANCH   1   6
TORSDOF 1
ENDMDL
