MODEL 1
REMARK VINA RESULT:      -5.3      0.000      0.000
REMARK  2 active torsions:
REMARK  status: ('A' for Active; 'I' for Inactive)
REMARK    1  A    between atoms: C2_2  and  C3_3 
REMARK    2  A    between atoms: C2_2  and  C4_4 
ROOT
HETATM    1  C2  UNL     1     -33.697   6.539   4.371  1.00 20.00     0.154 C 
ENDROOT
BRANCH   1   2
HETATM    2  C3  UNL     1     -33.268   6.621   2.909  1.00 20.00     0.174 C 
HETATM    3  C1  UNL     1     -32.374   7.819   2.647  1.00 20.00     0.045 C 
HETATM    4  F5  UNL     1     -32.565   5.497   2.596  1.00 20.00    -0.250 F 
ENDBRANCH   1   2
BRANCH   1   5
HETATM    5  C4  UNL     1     -34.760   5.483   4.593  1.00 20.00     0.390 C 
HETATM    6  F6  UNL     1     -35.090   5.413   5.901  1.00 20.00    -0.171 F 
HETATM    7  F7  UNL     1     -34.330   4.261   4.214  1.00 20.00    -0.171 F 
HETATM    8  F8  UNL     1     -35.884   5.763   3.901  1.00 20.00    -0.171 F 
ENDBRANCH   1   5
TORSDOF 2
ENDMDL
MODEL 2
REMARK VINA RESULT:      -5.3      0.018      1.332
REMARK  2 active torsions:
REMARK  status: ('A' for Active; 'I' for Inactive)
REMARK    1  A    between atoms: C2_2  and  C3_3 
REMARK    2  A    between atoms: C2_2  and  C4_4 
ROOT
HETATM    1  C2  UNL     1     -33.702   6.539   4.362  1.00 20.00     0.154 C 
ENDROOT
BRANCH   1   2
HETATM    2  C3  UNL     1     -33.274   6.607   2.899  1.00 20.00     0.174 C 
HETATM    3  C1  UNL     1     -32.393   7.812   2.622  1.00 20.00     0.045 C 
HETATM    4  F5  UNL     1     -32.559   5.488   2.600  1.00 20.00    -0.250 F 
ENDBRANCH   1   2
BRANCH   1   5
HETATM    5  C4  UNL     1     -34.756   5.477   4.597  1.00 20.00     0.390 C 
HETATM    6  F6  UNL     1     -35.880   5.767   3.905  1.00 20.00    -0.171 F 
HETATM    7  F7  UNL     1     -35.090   5.392   5.902  1.00 20.00    -0.171 F 
HETATM    8  F8  UNL     1     -34.329   4.262   4.195  1.00 20.00    -0.171 F 
ENDBRANCH   1   5
TORSDOF 2
ENDMDL
MODEL 3
REMARK VINA RESULT:      -5.3      0.013      1.339
REMARK  2 active torsions:
REMARK  status: ('A' for Active; 'I' for Inactive)
REMARK    1  A    between atoms: C2_2  and  C3_3 
REMARK    2  A    between atoms: C2_2  and  C4_4 
ROOT
HETATM    1  C2  UNL     1     -33.694   6.532   4.371  1.00 20.00     0.154 C 
ENDROOT
BRANCH   1   2
HETATM    2  C3  UNL     1     -33.271   6.611   2.906  1.00 20.00     0.174 C 
HETATM    3  C1  UNL     1     -32.384   7.813   2.637  1.00 20.00     0.045 C 
HETATM    4  F5  UNL     1     -32.561   5.490   2.596  1.00 20.00    -0.250 F 
ENDBRANCH   1   2
BRANCH   1   5
HETATM    5  C4  UNL     1     -34.762   5.483   4.598  1.00 20.00     0.390 C 
HETATM    6  F6  UNL     1     -34.322   4.268   4.199  1.00 20.00    -0.171 F 
HETATM    7  F7  UNL     1     -35.884   5.760   3.901  1.00 20.00    -0.171 F 
HETATM    8  F8  UNL     1     -35.092   5.391   5.903  1.00 20.00    -0.171 F 
ENDBRANCH   1   5
TORSDOF 2
ENDMDL
MODEL 4
REMARK VINA RESULT:      -5.3      1.411      3.562
REMARK  2 active torsions:
REMARK  status: ('A' for Active; 'I' for Inactive)
REMARK    1  A    between atoms: C2_2  and  C3_3 
REMARK    2  A    between atoms: C2_2  and  C4_4 
ROOT
HETATM    1  C2  UNL     1     -33.848   7.084   4.180  1.00 20.00     0.154 C 
ENDROOT
BRANCH   1   2
HETATM    2  C3  UNL     1     -34.574   5.742   4.150  1.00 20.00     0.174 C 
HETATM    3  C1  UNL     1     -34.633   5.100   5.524  1.00 20.00     0.045 C 
HETATM    4  F5  UNL     1     -35.853   5.947   3.729  1.00 20.00    -0.250 F 
ENDBRANCH   1   2
BRANCH   1   5
HETATM    5  C4  UNL     1     -32.760   7.164   3.129  1.00 20.00     0.390 C 
HETATM    6  F6  UNL     1     -31.644   7.722   3.647  1.00 20.00    -0.171 F 
HETATM    7  F7  UNL     1     -33.144   7.917   2.077  1.00 20.00    -0.171 F 
HETATM    8  F8  UNL     1     -32.431   5.939   2.667  1.00 20.00    -0.171 F 
ENDBRANCH   1   5
TORSDOF 2
ENDMDL
MODEL 5
REMARK VINA RESULT:      -5.2      1.573      3.156
REMARK  2 active torsions:
REMARK  status: ('A' for Active; 'I' for Inactive)
REMARK    1  A    between atoms: C2_2  and  C3_3 
REMARK    2  A    between atoms: C2_2  and  C4_4 
ROOT
HETATM    1  C2  UNL     1     -34.755   5.961   3.914  1.00 20.00     0.154 C 
ENDROOT
BRANCH   1   2
HETATM    2  C3  UNL     1     -34.156   5.834   5.312  1.00 20.00     0.174 C 
HETATM    3  C1  UNL     1     -33.883   7.191   5.935  1.00 20.00     0.045 C 
HETATM    4  F5  UNL     1     -35.044   5.178   6.110  1.00 20.00    -0.250 F 
ENDBRANCH   1   2
BRANCH   1   5
HETATM    5  C4  UNL     1     -33.712   5.782   2.831  1.00 20.00     0.390 C 
HETATM    6  F6  UNL     1     -34.259   5.979   1.611  1.00 20.00    -0.171 F 
HETATM    7  F7  UNL     1     -33.189   4.538   2.849  1.00 20.00    -0.171 F 
HETATM    8  F8  UNL     1     -32.699   6.663   2.973  1.00 20.00    -0.171 F 
ENDBRANCH   1   5
TORSDOF 2
ENDMDL
MODEL 6
REMARK VINA RESULT:      -5.2      1.273      1.813
REMARK  2 active torsions:
REMARK  status: ('A' for Active; 'I' for Inactive)
REMARK    1  A    between atoms: C2_2  and  C3_3 
REMARK    2  A    between atoms: C2_2  and  C4_4 
ROOT
HETATM    1  C2  UNL     1     -33.579   5.774   3.201  1.00 20.00     0.154 C 
ENDROOT
BRANCH   1   2
HETATM    2  C3  UNL     1     -33.070   7.164   3.570  1.00 20.00     0.174 C 
HETATM    3  C1  UNL     1     -32.268   7.791   2.444  1.00 20.00     0.045 C 
HETATM    4  F5  UNL     1     -34.141   7.969   3.819  1.00 20.00    -0.250 F 
ENDBRANCH   1   2
BRANCH   1   5
HETATM    5  C4  UNL     1     -34.545   5.230   4.233  1.00 20.00     0.390 C 
HETATM    6  F6  UNL     1     -35.800   5.660   3.977  1.00 20.00    -0.171 F 
HETATM    7  F7  UNL     1     -34.219   5.637   5.478  1.00 20.00    -0.171 F 
HETATM    8  F8  UNL     1     -34.563   3.881   4.226  1.00 20.00    -0.171 F 
ENDBRANCH   1   5
TORSDOF 2
ENDMDL
MODEL 7
REMARK VINA RESULT:      -5.0      1.362      1.838
REMARK  2 active torsions:
REMARK  status: ('A' for Active; 'I' for Inactive)
REMARK    1  A    between atoms: C2_2  and  C3_3 
REMARK    2  A    between atoms: C2_2  and  C4_4 
ROOT
HETATM    1  C2  UNL     1     -33.898   7.143   4.498  1.00 20.00     0.154 C 
ENDROOT
BRANCH   1   2
HETATM    2  C3  UNL     1     -32.625   7.305   3.672  1.00 20.00     0.174 C 
HETATM    3  C1  UNL     1     -32.908   7.915   2.311  1.00 20.00     0.045 C 
HETATM    4  F5  UNL     1     -31.777   8.138   4.336  1.00 20.00    -0.250 F 
ENDBRANCH   1   2
BRANCH   1   5
HETATM    5  C4  UNL     1     -34.555   5.797   4.271  1.00 20.00     0.390 C 
HETATM    6  F6  UNL     1     -35.714   5.946   3.592  1.00 20.00    -0.171 F 
HETATM    7  F7  UNL     1     -34.842   5.184   5.439  1.00 20.00    -0.171 F 
HETATM    8  F8  UNL     1     -33.760   4.977   3.552  1.00 20.00    -0.171 F 
ENDBRANCH   1   5
TORSDOF 2
ENDMDL
MODEL 8
REMARK VINA RESULT:      -4.9      2.384      3.469
REMARK  2 active torsions:
REMARK  status: ('A' for Active; 'I' for Inactive)
REMARK    1  A    between atoms: C2_2  and  C3_3 
REMARK    2  A    between atoms: C2_2  and  C4_4 
ROOT
HETATM    1  C2  UNL     1     -31.747   8.466   2.774  1.00 20.00     0.154 C 
ENDROOT
BRANCH   1   2
HETATM    2  C3  UNL     1     -32.146   8.751   1.328  1.00 20.00     0.174 C 
HETATM    3  C1  UNL     1     -32.592  10.189   1.137  1.00 20.00     0.045 C 
HETATM    4  F5  UNL     1     -31.065   8.538   0.527  1.00 20.00    -0.250 F 
ENDBRANCH   1   2
BRANCH   1   5
HETATM    5  C4  UNL     1     -32.706   7.507   3.449  1.00 20.00     0.390 C 
HETATM    6  F6  UNL     1     -32.487   6.243   3.024  1.00 20.00    -0.171 F 
HETATM    7  F7  UNL     1     -33.990   7.815   3.171  1.00 20.00    -0.171 F 
HETATM    8  F8  UNL     1     -32.554   7.522   4.789  1.00 20.00    -0.171 F 
ENDBRANCH   1   5
TORSDOF 2
ENDMDL
MODEL 9
REMARK VINA RESULT:      -4.9      3.728      5.288
REMARK  2 active torsions:
REMARK  status: ('A' for Active; 'I' for Inactive)
REMARK    1  A    between atoms: C2_2  and  C3_3 
REMARK    2  A    between atoms: C2_2  and  C4_4 
ROOT
HETATM    1  C2  UNL     1     -31.860   8.709   1.208  1.00 20.00     0.154 C 
ENDROOT
BRANCH   1   2
HETATM    2  C3  UNL     1     -32.201   8.336   2.647  1.00 20.00     0.174 C 
HETATM    3  C1  UNL     1     -32.936   7.010   2.729  1.00 20.00     0.045 C 
HETATM    4  F5  UNL     1     -31.043   8.217   3.354  1.00 20.00    -0.250 F 
ENDBRANCH   1   2
BRANCH   1   5
HETATM    5  C4  UNL     1     -32.724   9.842   0.695  1.00 20.00     0.390 C 
HETATM    6  F6  UNL     1     -31.972  10.939   0.455  1.00 20.00    -0.171 F 
HETATM    7  F7  UNL     1     -33.673  10.185   1.591  1.00 20.00    -0.171 F 
HETATM    8  F8  UNL     1     -33.341   9.507  -0.458  1.00 20.00    -0.171 F 
ENDBRANCH   1   5
TORSDOF 2
ENDMDL
