MODEL 1
REMARK VINA RESULT:      -3.8      0.000      0.000
REMARK  1 active torsions:
REMARK  status: ('A' for Active; 'I' for Inactive)
REMARK    1  A    between atoms: C4_4  and  C6_6 
ROOT
HETATM    1  C1  UNL     1     -35.465  12.968  -6.689  1.00 20.00     0.135 A 
HETATM    2  C2  UNL     1     -34.581  13.885  -7.213  1.00 20.00     0.136 A 
HETATM    3  C3  UNL     1     -35.246  13.934  -4.627  1.00 20.00     0.144 A 
HETATM    4  C4  UNL     1     -34.361  14.850  -5.151  1.00 20.00     0.065 A 
HETATM    5  N7  UNL     1     -35.814  12.976  -5.388  1.00 20.00    -0.270 NA
HETATM    6  N8  UNL     1     -34.013  14.843  -6.453  1.00 20.00    -0.261 NA
ENDROOT
BRANCH   4   7
HETATM    7  C6  UNL     1     -33.752  15.894  -4.282  1.00 20.00     0.107 C 
HETATM    8  C5  UNL     1     -33.441  17.181  -5.000  1.00 20.00     0.029 C 
HETATM    9 BR9  UNL     1     -34.930  16.261  -2.755  1.00 20.00    -0.085 Br
ENDBRANCH   4   7
TORSDOF 1
ENDMDL
MODEL 2
REMARK VINA RESULT:      -3.7     11.489     12.428
REMARK  1 active torsions:
REMARK  status: ('A' for Active; 'I' for Inactive)
REMARK    1  A    between atoms: C4_4  and  C6_6 
ROOT
HETATM    1  C1  UNL     1     -34.532   4.761   4.560  1.00 20.00     0.135 A 
HETATM    2  C2  UNL     1     -34.528   5.901   5.333  1.00 20.00     0.136 A 
HETATM    3  C3  UNL     1     -33.286   5.834   2.970  1.00 20.00     0.144 A 
HETATM    4  C4  UNL     1     -33.283   6.974   3.743  1.00 20.00     0.065 A 
HETATM    5  N7  UNL     1     -33.911   4.706   3.365  1.00 20.00    -0.270 NA
HETATM    6  N8  UNL     1     -33.904   7.028   4.938  1.00 20.00    -0.261 NA
ENDROOT
BRANCH   4   7
HETATM    7  C6  UNL     1     -32.583   8.202   3.274  1.00 20.00     0.107 C 
HETATM    8  C5  UNL     1     -31.187   8.353   3.819  1.00 20.00     0.029 C 
HETATM    9 BR9  UNL     1     -32.530   8.232   1.312  1.00 20.00    -0.085 Br
ENDBRANCH   4   7
TORSDOF 1
ENDMDL
MODEL 3
REMARK VINA RESULT:      -3.7      1.706      2.097
REMARK  1 active torsions:
REMARK  status: ('A' for Active; 'I' for Inactive)
REMARK    1  A    between atoms: C4_4  and  C6_6 
ROOT
HETATM    1  C1  UNL     1     -36.379  13.722  -5.217  1.00 20.00     0.135 A 
HETATM    2  C2  UNL     1     -36.939  14.892  -4.753  1.00 20.00     0.136 A 
HETATM    3  C3  UNL     1     -34.410  14.253  -4.183  1.00 20.00     0.144 A 
HETATM    4  C4  UNL     1     -34.969  15.424  -3.720  1.00 20.00     0.065 A 
HETATM    5  N7  UNL     1     -35.106  13.381  -4.940  1.00 20.00    -0.270 NA
HETATM    6  N8  UNL     1     -36.244  15.764  -3.996  1.00 20.00    -0.261 NA
ENDROOT
BRANCH   4   7
HETATM    7  C6  UNL     1     -34.170  16.364  -2.886  1.00 20.00     0.107 C 
HETATM    8  C5  UNL     1     -33.641  17.553  -3.645  1.00 20.00     0.029 C 
HETATM    9 BR9  UNL     1     -35.243  16.980  -1.362  1.00 20.00    -0.085 Br
ENDBRANCH   4   7
TORSDOF 1
ENDMDL
MODEL 4
REMARK VINA RESULT:      -3.7     11.433     12.328
REMARK  1 active torsions:
REMARK  status: ('A' for Active; 'I' for Inactive)
REMARK    1  A    between atoms: C4_4  and  C6_6 
ROOT
HETATM    1  C1  UNL     1     -34.600   4.972   4.691  1.00 20.00     0.135 A 
HETATM    2  C2  UNL     1     -34.048   4.980   3.429  1.00 20.00     0.136 A 
HETATM    3  C3  UNL     1     -33.815   7.090   5.049  1.00 20.00     0.144 A 
HETATM    4  C4  UNL     1     -33.261   7.097   3.788  1.00 20.00     0.065 A 
HETATM    5  N7  UNL     1     -34.494   6.026   5.523  1.00 20.00    -0.270 NA
HETATM    6  N8  UNL     1     -33.368   6.043   2.955  1.00 20.00    -0.261 NA
ENDROOT
BRANCH   4   7
HETATM    7  C6  UNL     1     -32.517   8.289   3.297  1.00 20.00     0.107 C 
HETATM    8  C5  UNL     1     -31.080   8.340   3.749  1.00 20.00     0.029 C 
HETATM    9 BR9  UNL     1     -32.593   8.364   1.337  1.00 20.00    -0.085 Br
ENDBRANCH   4   7
TORSDOF 1
ENDMDL
MODEL 5
REMARK VINA RESULT:      -3.6     11.648     12.642
REMARK  1 active torsions:
REMARK  status: ('A' for Active; 'I' for Inactive)
REMARK    1  A    between atoms: C4_4  and  C6_6 
ROOT
HETATM    1  C1  UNL     1     -34.723   5.124   5.462  1.00 20.00     0.135 A 
HETATM    2  C2  UNL     1     -34.412   4.601   4.227  1.00 20.00     0.136 A 
HETATM    3  C3  UNL     1     -33.654   7.068   4.909  1.00 20.00     0.144 A 
HETATM    4  C4  UNL     1     -33.341   6.545   3.674  1.00 20.00     0.065 A 
HETATM    5  N7  UNL     1     -34.350   6.366   5.826  1.00 20.00    -0.270 NA
HETATM    6  N8  UNL     1     -33.716   5.302   3.310  1.00 20.00    -0.261 NA
ENDROOT
BRANCH   4   7
HETATM    7  C6  UNL     1     -32.570   7.349   2.687  1.00 20.00     0.107 C 
HETATM    8  C5  UNL     1     -33.425   8.238   1.822  1.00 20.00     0.029 C 
HETATM    9 BR9  UNL     1     -31.223   8.434   3.617  1.00 20.00    -0.085 Br
ENDBRANCH   4   7
TORSDOF 1
ENDMDL
MODEL 6
REMARK VINA RESULT:      -3.6      1.940      2.455
REMARK  1 active torsions:
REMARK  status: ('A' for Active; 'I' for Inactive)
REMARK    1  A    between atoms: C4_4  and  C6_6 
ROOT
HETATM    1  C1  UNL     1     -37.914  14.529  -4.962  1.00 20.00     0.135 A 
HETATM    2  C2  UNL     1     -37.567  15.653  -4.247  1.00 20.00     0.136 A 
HETATM    3  C3  UNL     1     -35.726  13.865  -4.984  1.00 20.00     0.144 A 
HETATM    4  C4  UNL     1     -35.378  14.990  -4.270  1.00 20.00     0.065 A 
HETATM    5  N7  UNL     1     -37.001  13.614  -5.344  1.00 20.00    -0.270 NA
HETATM    6  N8  UNL     1     -36.292  15.904  -3.888  1.00 20.00    -0.261 NA
ENDROOT
BRANCH   4   7
HETATM    7  C6  UNL     1     -33.959  15.235  -3.891  1.00 20.00     0.107 C 
HETATM    8  C5  UNL     1     -33.048  15.480  -5.065  1.00 20.00     0.029 C 
HETATM    9 BR9  UNL     1     -33.853  16.751  -2.648  1.00 20.00    -0.085 Br
ENDBRANCH   4   7
TORSDOF 1
ENDMDL
MODEL 7
REMARK VINA RESULT:      -3.4     11.079     12.192
REMARK  1 active torsions:
REMARK  status: ('A' for Active; 'I' for Inactive)
REMARK    1  A    between atoms: C4_4  and  C6_6 
ROOT
HETATM    1  C1  UNL     1     -31.588   8.742   2.449  1.00 20.00     0.135 A 
HETATM    2  C2  UNL     1     -31.617   8.420   3.787  1.00 20.00     0.136 A 
HETATM    3  C3  UNL     1     -33.289   7.264   2.056  1.00 20.00     0.144 A 
HETATM    4  C4  UNL     1     -33.317   6.941   3.394  1.00 20.00     0.065 A 
HETATM    5  N7  UNL     1     -32.423   8.171   1.559  1.00 20.00    -0.270 NA
HETATM    6  N8  UNL     1     -32.482   7.513   4.284  1.00 20.00    -0.261 NA
ENDROOT
BRANCH   4   7
HETATM    7  C6  UNL     1     -34.286   5.934   3.908  1.00 20.00     0.107 C 
HETATM    8  C5  UNL     1     -33.923   4.511   3.572  1.00 20.00     0.029 C 
HETATM    9 BR9  UNL     1     -34.477   6.123   5.852  1.00 20.00    -0.085 Br
ENDBRANCH   4   7
TORSDOF 1
ENDMDL
MODEL 8
REMARK VINA RESULT:      -3.4     11.133     12.197
REMARK  1 active torsions:
REMARK  status: ('A' for Active; 'I' for Inactive)
REMARK    1  A    between atoms: C4_4  and  C6_6 
ROOT
HETATM    1  C1  UNL     1     -31.534   8.724   2.572  1.00 20.00     0.135 A 
HETATM    2  C2  UNL     1     -32.322   8.035   1.677  1.00 20.00     0.136 A 
HETATM    3  C3  UNL     1     -32.513   7.597   4.304  1.00 20.00     0.144 A 
HETATM    4  C4  UNL     1     -33.302   6.909   3.409  1.00 20.00     0.065 A 
HETATM    5  N7  UNL     1     -31.615   8.518   3.901  1.00 20.00    -0.270 NA
HETATM    6  N8  UNL     1     -33.220   7.115   2.080  1.00 20.00    -0.261 NA
ENDROOT
BRANCH   4   7
HETATM    7  C6  UNL     1     -34.285   5.899   3.890  1.00 20.00     0.107 C 
HETATM    8  C5  UNL     1     -33.927   4.481   3.532  1.00 20.00     0.029 C 
HETATM    9 BR9  UNL     1     -34.500   6.052   5.836  1.00 20.00    -0.085 Br
ENDBRANCH   4   7
TORSDOF 1
ENDMDL
MODEL 9
REMARK VINA RESULT:      -3.4      2.337      3.170
REMARK  1 active torsions:
REMARK  status: ('A' for Active; 'I' for Inactive)
REMARK    1  A    between atoms: C4_4  and  C6_6 
ROOT
HETATM    1  C1  UNL     1     -38.208  15.261  -4.410  1.00 20.00     0.135 A 
HETATM    2  C2  UNL     1     -37.162  16.142  -4.254  1.00 20.00     0.136 A 
HETATM    3  C3  UNL     1     -36.799  13.762  -5.408  1.00 20.00     0.144 A 
HETATM    4  C4  UNL     1     -35.752  14.644  -5.253  1.00 20.00     0.065 A 
HETATM    5  N7  UNL     1     -38.047  14.055  -4.990  1.00 20.00    -0.270 NA
HETATM    6  N8  UNL     1     -35.914  15.849  -4.672  1.00 20.00    -0.261 NA
ENDROOT
BRANCH   4   7
HETATM    7  C6  UNL     1     -34.387  14.286  -5.728  1.00 20.00     0.107 C 
HETATM    8  C5  UNL     1     -34.344  13.806  -7.155  1.00 20.00     0.029 C 
HETATM    9 BR9  UNL     1     -33.183  15.822  -5.514  1.00 20.00    -0.085 Br
ENDBRANCH   4   7
TORSDOF 1
ENDMDL
