MODEL 1
REMARK VINA RESULT:      -4.2      0.000      0.000
REMARK  0 active torsions:
REMARK  status: ('A' for Active; 'I' for Inactive)
ROOT
HETATM    1  C1  UNL     1     -33.435   5.636   3.402  1.00 20.00     0.025 A 
HETATM    2  C2  UNL     1     -33.141   6.898   3.753  1.00 20.00     0.091 A 
HETATM    3  C3  UNL     1     -34.212   4.870   4.412  1.00 20.00     0.227 A 
HETATM    4  C4  UNL     1     -33.075   4.923   2.137  1.00 20.00     0.055 C 
HETATM    5  O5  UNL     1     -34.557   3.707   4.269  1.00 20.00    -0.279 OA
HETATM    6  S6  UNL     1     -33.659   7.516   5.281  1.00 20.00    -0.036 SA
HETATM    7  S7  UNL     1     -34.599   5.800   5.843  1.00 20.00    -0.009 SA
HETATM    8 CL8  UNL     1     -32.248   7.972   2.736  1.00 20.00    -0.075 Cl
ENDROOT
TORSDOF 0
ENDMDL
MODEL 2
REMARK VINA RESULT:      -3.8     12.108     12.336
REMARK  0 active torsions:
REMARK  status: ('A' for Active; 'I' for Inactive)
ROOT
HETATM    1  C1  UNL     1     -34.544  14.591  -4.176  1.00 20.00     0.025 A 
HETATM    2  C2  UNL     1     -34.908  15.724  -3.556  1.00 20.00     0.091 A 
HETATM    3  C3  UNL     1     -35.639  13.896  -4.902  1.00 20.00     0.227 A 
HETATM    4  C4  UNL     1     -33.190  13.957  -4.220  1.00 20.00     0.055 C 
HETATM    5  O5  UNL     1     -35.495  12.847  -5.513  1.00 20.00    -0.279 OA
HETATM    6  S6  UNL     1     -36.546  16.269  -3.636  1.00 20.00    -0.036 SA
HETATM    7  S7  UNL     1     -37.175  14.729  -4.807  1.00 20.00    -0.009 SA
HETATM    8 CL8  UNL     1     -33.802  16.696  -2.652  1.00 20.00    -0.075 Cl
ENDROOT
TORSDOF 0
ENDMDL
MODEL 3
REMARK VINA RESULT:      -3.7      2.035      2.553
REMARK  0 active torsions:
REMARK  status: ('A' for Active; 'I' for Inactive)
ROOT
HETATM    1  C1  UNL     1     -33.643   6.730   4.873  1.00 20.00     0.025 A 
HETATM    2  C2  UNL     1     -33.104   6.719   3.644  1.00 20.00     0.091 A 
HETATM    3  C3  UNL     1     -34.354   5.481   5.255  1.00 20.00     0.227 A 
HETATM    4  C4  UNL     1     -33.614   7.832   5.884  1.00 20.00     0.055 C 
HETATM    5  O5  UNL     1     -34.913   5.316   6.328  1.00 20.00    -0.279 OA
HETATM    6  S6  UNL     1     -33.268   5.325   2.636  1.00 20.00    -0.036 SA
HETATM    7  S7  UNL     1     -34.311   4.249   4.013  1.00 20.00    -0.009 SA
HETATM    8 CL8  UNL     1     -32.232   8.060   2.989  1.00 20.00    -0.075 Cl
ENDROOT
TORSDOF 0
ENDMDL
MODEL 4
REMARK VINA RESULT:      -3.6      2.305      2.800
REMARK  0 active torsions:
REMARK  status: ('A' for Active; 'I' for Inactive)
ROOT
HETATM    1  C1  UNL     1     -33.264   6.544   3.720  1.00 20.00     0.025 A 
HETATM    2  C2  UNL     1     -33.497   5.272   3.361  1.00 20.00     0.091 A 
HETATM    3  C3  UNL     1     -33.816   6.930   5.046  1.00 20.00     0.227 A 
HETATM    4  C4  UNL     1     -32.531   7.599   2.955  1.00 20.00     0.055 C 
HETATM    5  O5  UNL     1     -33.711   8.048   5.528  1.00 20.00    -0.279 OA
HETATM    6  S6  UNL     1     -34.381   4.222   4.411  1.00 20.00    -0.036 SA
HETATM    7  S7  UNL     1     -34.636   5.621   5.867  1.00 20.00    -0.009 SA
HETATM    8 CL8  UNL     1     -32.950   4.604   1.865  1.00 20.00    -0.075 Cl
ENDROOT
TORSDOF 0
ENDMDL
MODEL 5
REMARK VINA RESULT:      -3.5     12.316     12.722
REMARK  0 active torsions:
REMARK  status: ('A' for Active; 'I' for Inactive)
ROOT
HETATM    1  C1  UNL     1     -34.983  15.569  -3.668  1.00 20.00     0.025 A 
HETATM    2  C2  UNL     1     -36.267  15.932  -3.815  1.00 20.00     0.091 A 
HETATM    3  C3  UNL     1     -34.613  14.296  -4.342  1.00 20.00     0.227 A 
HETATM    4  C4  UNL     1     -33.903  16.280  -2.917  1.00 20.00     0.055 C 
HETATM    5  O5  UNL     1     -33.494  13.807  -4.305  1.00 20.00    -0.279 OA
HETATM    6  S6  UNL     1     -37.349  14.944  -4.730  1.00 20.00    -0.036 SA
HETATM    7  S7  UNL     1     -35.940  13.556  -5.208  1.00 20.00    -0.009 SA
HETATM    8 CL8  UNL     1     -36.920  17.373  -3.120  1.00 20.00    -0.075 Cl
ENDROOT
TORSDOF 0
ENDMDL
MODEL 6
REMARK VINA RESULT:      -3.5     12.285     12.755
REMARK  0 active torsions:
REMARK  status: ('A' for Active; 'I' for Inactive)
ROOT
HETATM    1  C1  UNL     1     -36.722  14.852  -4.550  1.00 20.00     0.025 A 
HETATM    2  C2  UNL     1     -36.278  15.970  -3.955  1.00 20.00     0.091 A 
HETATM    3  C3  UNL     1     -35.681  13.822  -4.804  1.00 20.00     0.227 A 
HETATM    4  C4  UNL     1     -38.117  14.530  -4.984  1.00 20.00     0.055 C 
HETATM    5  O5  UNL     1     -35.901  12.749  -5.346  1.00 20.00    -0.279 OA
HETATM    6  S6  UNL     1     -34.606  16.128  -3.545  1.00 20.00    -0.036 SA
HETATM    7  S7  UNL     1     -34.091  14.286  -4.241  1.00 20.00    -0.009 SA
HETATM    8 CL8  UNL     1     -37.309  17.299  -3.564  1.00 20.00    -0.075 Cl
ENDROOT
TORSDOF 0
ENDMDL
MODEL 7
REMARK VINA RESULT:      -3.5     13.036     13.536
REMARK  0 active torsions:
REMARK  status: ('A' for Active; 'I' for Inactive)
ROOT
HETATM    1  C1  UNL     1     -34.826  14.866  -5.270  1.00 20.00     0.025 A 
HETATM    2  C2  UNL     1     -34.254  15.686  -6.165  1.00 20.00     0.091 A 
HETATM    3  C3  UNL     1     -35.372  13.604  -5.837  1.00 20.00     0.227 A 
HETATM    4  C4  UNL     1     -34.978  15.071  -3.796  1.00 20.00     0.055 C 
HETATM    5  O5  UNL     1     -35.936  12.747  -5.174  1.00 20.00    -0.279 OA
HETATM    6  S6  UNL     1     -34.197  15.243  -7.835  1.00 20.00    -0.036 SA
HETATM    7  S7  UNL     1     -35.125  13.453  -7.562  1.00 20.00    -0.009 SA
HETATM    8 CL8  UNL     1     -33.554  17.205  -5.734  1.00 20.00    -0.075 Cl
ENDROOT
TORSDOF 0
ENDMDL
MODEL 8
REMARK VINA RESULT:      -3.4      1.984      2.421
REMARK  0 active torsions:
REMARK  status: ('A' for Active; 'I' for Inactive)
ROOT
HETATM    1  C1  UNL     1     -33.261   6.566   3.816  1.00 20.00     0.025 A 
HETATM    2  C2  UNL     1     -33.778   6.672   5.050  1.00 20.00     0.091 A 
HETATM    3  C3  UNL     1     -33.437   5.236   3.176  1.00 20.00     0.227 A 
HETATM    4  C4  UNL     1     -32.537   7.611   3.027  1.00 20.00     0.055 C 
HETATM    5  O5  UNL     1     -33.020   4.955   2.062  1.00 20.00    -0.279 OA
HETATM    6  S6  UNL     1     -34.573   5.320   5.776  1.00 20.00    -0.036 SA
HETATM    7  S7  UNL     1     -34.311   4.095   4.172  1.00 20.00    -0.009 SA
HETATM    8 CL8  UNL     1     -33.691   8.123   5.984  1.00 20.00    -0.075 Cl
ENDROOT
TORSDOF 0
ENDMDL
MODEL 9
REMARK VINA RESULT:      -3.4     13.070     13.497
REMARK  0 active torsions:
REMARK  status: ('A' for Active; 'I' for Inactive)
ROOT
HETATM    1  C1  UNL     1     -35.206  14.582  -6.633  1.00 20.00     0.025 A 
HETATM    2  C2  UNL     1     -34.343  15.609  -6.590  1.00 20.00     0.091 A 
HETATM    3  C3  UNL     1     -35.272  13.769  -5.390  1.00 20.00     0.227 A 
HETATM    4  C4  UNL     1     -36.090  14.166  -7.766  1.00 20.00     0.055 C 
HETATM    5  O5  UNL     1     -35.992  12.791  -5.253  1.00 20.00    -0.279 OA
HETATM    6  S6  UNL     1     -33.411  15.901  -5.165  1.00 20.00    -0.036 SA
HETATM    7  S7  UNL     1     -34.217  14.350  -4.122  1.00 20.00    -0.009 SA
HETATM    8 CL8  UNL     1     -34.101  16.688  -7.918  1.00 20.00    -0.075 Cl
ENDROOT
TORSDOF 0
ENDMDL
