MODEL 1
REMARK VINA RESULT:      -5.6      0.000      0.000
REMARK  2 active torsions:
REMARK  status: ('A' for Active; 'I' for Inactive)
REMARK    1  A    between atoms: C3_3  and  C6_6 
REMARK    2  A    between atoms: C4_4  and  C7_7 
ROOT
HETATM    1  C1  UNL     1     -32.211   8.381   1.944  1.00 20.00    -0.176 C 
HETATM    2  C2  UNL     1     -31.484   8.679   0.911  1.00 20.00     0.091 C 
HETATM    3  C3  UNL     1     -32.939   8.085   2.979  1.00 20.00     0.072 C 
ENDROOT
BRANCH   3   4
HETATM    4  C6  UNL     1     -33.083   6.696   3.388  1.00 20.00     0.017 A 
HETATM    5  C5  UNL     1     -33.780   5.735   2.468  1.00 20.00     0.022 A 
HETATM    6  C7  UNL     1     -34.461   6.178   3.738  1.00 20.00     0.092 A 
BRANCH   6   7
HETATM    7  C4  UNL     1     -34.556   5.215   4.818  1.00 20.00     0.177 C 
HETATM    8  O8  UNL     1     -34.580   5.708   5.979  1.00 20.00    -0.648 OA
HETATM    9  O9  UNL     1     -34.600   4.008   4.448  1.00 20.00    -0.648 OA
ENDBRANCH   6   7
ENDBRANCH   3   4
TORSDOF 2
ENDMDL
MODEL 2
REMARK VINA RESULT:      -5.5      0.028      1.079
REMARK  2 active torsions:
REMARK  status: ('A' for Active; 'I' for Inactive)
REMARK    1  A    between atoms: C3_3  and  C6_6 
REMARK    2  A    between atoms: C4_4  and  C7_7 
ROOT
HETATM    1  C1  UNL     1     -32.203   8.379   1.953  1.00 20.00    -0.176 C 
HETATM    2  C2  UNL     1     -31.447   8.679   0.942  1.00 20.00     0.091 C 
HETATM    3  C3  UNL     1     -32.960   8.082   2.966  1.00 20.00     0.072 C 
ENDROOT
BRANCH   3   4
HETATM    4  C6  UNL     1     -33.086   6.696   3.393  1.00 20.00     0.017 A 
HETATM    5  C5  UNL     1     -33.746   5.708   2.473  1.00 20.00     0.022 A 
HETATM    6  C7  UNL     1     -34.460   6.156   3.723  1.00 20.00     0.092 A 
BRANCH   6   7
HETATM    7  C4  UNL     1     -34.558   5.207   4.815  1.00 20.00     0.177 C 
HETATM    8  O8  UNL     1     -34.596   3.992   4.472  1.00 20.00    -0.648 OA
HETATM    9  O9  UNL     1     -34.594   5.725   5.966  1.00 20.00    -0.648 OA
ENDBRANCH   6   7
ENDBRANCH   3   4
TORSDOF 2
ENDMDL
MODEL 3
REMARK VINA RESULT:      -5.3      3.144      4.617
REMARK  2 active torsions:
REMARK  status: ('A' for Active; 'I' for Inactive)
REMARK    1  A    between atoms: C3_3  and  C6_6 
REMARK    2  A    between atoms: C4_4  and  C7_7 
ROOT
HETATM    1  C1  UNL     1     -34.230   6.176   5.219  1.00 20.00    -0.176 C 
HETATM    2  C2  UNL     1     -34.681   5.052   5.687  1.00 20.00     0.091 C 
HETATM    3  C3  UNL     1     -33.780   7.303   4.754  1.00 20.00     0.072 C 
ENDROOT
BRANCH   3   4
HETATM    4  C6  UNL     1     -33.515   7.442   3.329  1.00 20.00     0.017 A 
HETATM    5  C5  UNL     1     -32.543   6.502   2.675  1.00 20.00     0.022 A 
HETATM    6  C7  UNL     1     -32.158   7.944   2.886  1.00 20.00     0.092 A 
BRANCH   6   7
HETATM    7  C4  UNL     1     -32.116   8.803   1.719  1.00 20.00     0.177 C 
HETATM    8  O8  UNL     1     -32.886   9.802   1.756  1.00 20.00    -0.648 OA
HETATM    9  O9  UNL     1     -31.311   8.433   0.818  1.00 20.00    -0.648 OA
ENDBRANCH   6   7
ENDBRANCH   3   4
TORSDOF 2
ENDMDL
MODEL 4
REMARK VINA RESULT:      -5.3      3.145      4.707
REMARK  2 active torsions:
REMARK  status: ('A' for Active; 'I' for Inactive)
REMARK    1  A    between atoms: C3_3  and  C6_6 
REMARK    2  A    between atoms: C4_4  and  C7_7 
ROOT
HETATM    1  C1  UNL     1     -34.226   6.178   5.219  1.00 20.00    -0.176 C 
HETATM    2  C2  UNL     1     -34.679   5.055   5.688  1.00 20.00     0.091 C 
HETATM    3  C3  UNL     1     -33.774   7.303   4.753  1.00 20.00     0.072 C 
ENDROOT
BRANCH   3   4
HETATM    4  C6  UNL     1     -33.508   7.441   3.329  1.00 20.00     0.017 A 
HETATM    5  C5  UNL     1     -32.533   6.502   2.677  1.00 20.00     0.022 A 
HETATM    6  C7  UNL     1     -32.153   7.946   2.885  1.00 20.00     0.092 A 
BRANCH   6   7
HETATM    7  C4  UNL     1     -32.111   8.803   1.717  1.00 20.00     0.177 C 
HETATM    8  O8  UNL     1     -31.313   8.439   0.809  1.00 20.00    -0.648 OA
HETATM    9  O9  UNL     1     -32.881   9.803   1.765  1.00 20.00    -0.648 OA
ENDBRANCH   6   7
ENDBRANCH   3   4
TORSDOF 2
ENDMDL
MODEL 5
REMARK VINA RESULT:      -5.2      3.387      4.869
REMARK  2 active torsions:
REMARK  status: ('A' for Active; 'I' for Inactive)
REMARK    1  A    between atoms: C3_3  and  C6_6 
REMARK    2  A    between atoms: C4_4  and  C7_7 
ROOT
HETATM    1  C1  UNL     1     -34.221   5.820   4.021  1.00 20.00    -0.176 C 
HETATM    2  C2  UNL     1     -34.475   4.596   4.371  1.00 20.00     0.091 C 
HETATM    3  C3  UNL     1     -33.970   7.046   3.672  1.00 20.00     0.072 C 
ENDROOT
BRANCH   3   4
HETATM    4  C6  UNL     1     -32.889   7.325   2.738  1.00 20.00     0.017 A 
HETATM    5  C5  UNL     1     -31.651   8.011   3.241  1.00 20.00     0.022 A 
HETATM    6  C7  UNL     1     -32.610   8.761   2.353  1.00 20.00     0.092 A 
BRANCH   6   7
HETATM    7  C4  UNL     1     -32.198   9.017   0.987  1.00 20.00     0.177 C 
HETATM    8  O8  UNL     1     -31.057   8.575   0.677  1.00 20.00    -0.648 OA
HETATM    9  O9  UNL     1     -33.038   9.651   0.290  1.00 20.00    -0.648 OA
ENDBRANCH   6   7
ENDBRANCH   3   4
TORSDOF 2
ENDMDL
MODEL 6
REMARK VINA RESULT:      -5.1      1.594      2.592
REMARK  2 active torsions:
REMARK  status: ('A' for Active; 'I' for Inactive)
REMARK    1  A    between atoms: C3_3  and  C6_6 
REMARK    2  A    between atoms: C4_4  and  C7_7 
ROOT
HETATM    1  C1  UNL     1     -32.546   9.206   0.267  1.00 20.00    -0.176 C 
HETATM    2  C2  UNL     1     -33.267   9.676  -0.705  1.00 20.00     0.091 C 
HETATM    3  C3  UNL     1     -31.822   8.735   1.238  1.00 20.00     0.072 C 
ENDROOT
BRANCH   3   4
HETATM    4  C6  UNL     1     -32.414   8.543   2.554  1.00 20.00     0.017 A 
HETATM    5  C5  UNL     1     -31.530   8.132   3.696  1.00 20.00     0.022 A 
HETATM    6  C7  UNL     1     -32.507   7.142   3.114  1.00 20.00     0.092 A 
BRANCH   6   7
HETATM    7  C4  UNL     1     -33.680   6.816   3.902  1.00 20.00     0.177 C 
HETATM    8  O8  UNL     1     -34.554   6.127   3.308  1.00 20.00    -0.648 OA
HETATM    9  O9  UNL     1     -33.668   7.268   5.081  1.00 20.00    -0.648 OA
ENDBRANCH   6   7
ENDBRANCH   3   4
TORSDOF 2
ENDMDL
MODEL 7
REMARK VINA RESULT:      -4.5     11.336     11.719
REMARK  2 active torsions:
REMARK  status: ('A' for Active; 'I' for Inactive)
REMARK    1  A    between atoms: C3_3  and  C6_6 
REMARK    2  A    between atoms: C4_4  and  C7_7 
ROOT
HETATM    1  C1  UNL     1     -34.839  16.726  -2.087  1.00 20.00    -0.176 C 
HETATM    2  C2  UNL     1     -35.288  17.084  -0.922  1.00 20.00     0.091 C 
HETATM    3  C3  UNL     1     -34.389  16.370  -3.252  1.00 20.00     0.072 C 
ENDROOT
BRANCH   3   4
HETATM    4  C6  UNL     1     -34.592  15.006  -3.720  1.00 20.00     0.017 A 
HETATM    5  C5  UNL     1     -33.793  14.513  -4.892  1.00 20.00     0.022 A 
HETATM    6  C7  UNL     1     -35.267  14.786  -5.056  1.00 20.00     0.092 A 
BRANCH   6   7
HETATM    7  C4  UNL     1     -36.151  13.644  -5.176  1.00 20.00     0.177 C 
HETATM    8  O8  UNL     1     -37.345  13.846  -4.821  1.00 20.00    -0.648 OA
HETATM    9  O9  UNL     1     -35.604  12.595  -5.619  1.00 20.00    -0.648 OA
ENDBRANCH   6   7
ENDBRANCH   3   4
TORSDOF 2
ENDMDL
MODEL 8
REMARK VINA RESULT:      -4.4     11.427     11.984
REMARK  2 active torsions:
REMARK  status: ('A' for Active; 'I' for Inactive)
REMARK    1  A    between atoms: C3_3  and  C6_6 
REMARK    2  A    between atoms: C4_4  and  C7_7 
ROOT
HETATM    1  C1  UNL     1     -34.042  16.866  -2.180  1.00 20.00    -0.176 C 
HETATM    2  C2  UNL     1     -33.228  17.630  -1.518  1.00 20.00     0.091 C 
HETATM    3  C3  UNL     1     -34.859  16.101  -2.840  1.00 20.00     0.072 C 
ENDROOT
BRANCH   3   4
HETATM    4  C6  UNL     1     -34.341  15.195  -3.854  1.00 20.00     0.017 A 
HETATM    5  C5  UNL     1     -33.900  15.757  -5.176  1.00 20.00     0.022 A 
HETATM    6  C7  UNL     1     -35.166  14.942  -5.097  1.00 20.00     0.092 A 
BRANCH   6   7
HETATM    7  C4  UNL     1     -35.137  13.605  -5.655  1.00 20.00     0.177 C 
HETATM    8  O8  UNL     1     -34.274  13.415  -6.556  1.00 20.00    -0.648 OA
HETATM    9  O9  UNL     1     -35.984  12.807  -5.163  1.00 20.00    -0.648 OA
ENDBRANCH   6   7
ENDBRANCH   3   4
TORSDOF 2
ENDMDL
MODEL 9
REMARK VINA RESULT:      -4.0     11.477     12.407
REMARK  2 active torsions:
REMARK  status: ('A' for Active; 'I' for Inactive)
REMARK    1  A    between atoms: C3_3  and  C6_6 
REMARK    2  A    between atoms: C4_4  and  C7_7 
ROOT
HETATM    1  C1  UNL     1     -34.513  16.738  -2.087  1.00 20.00    -0.176 C 
HETATM    2  C2  UNL     1     -35.256  17.028  -1.062  1.00 20.00     0.091 C 
HETATM    3  C3  UNL     1     -33.769  16.451  -3.112  1.00 20.00     0.072 C 
ENDROOT
BRANCH   3   4
HETATM    4  C6  UNL     1     -34.072  15.280  -3.921  1.00 20.00     0.017 A 
HETATM    5  C5  UNL     1     -32.961  14.333  -4.276  1.00 20.00     0.022 A 
HETATM    6  C7  UNL     1     -33.555  15.220  -5.341  1.00 20.00     0.092 A 
BRANCH   6   7
HETATM    7  C4  UNL     1     -34.406  14.596  -6.335  1.00 20.00     0.177 C 
HETATM    8  O8  UNL     1     -34.265  13.347  -6.458  1.00 20.00    -0.648 OA
HETATM    9  O9  UNL     1     -35.177  15.388  -6.945  1.00 20.00    -0.648 OA
ENDBRANCH   6   7
ENDBRANCH   3   4
TORSDOF 2
ENDMDL
