MODEL 1
REMARK VINA RESULT:      -4.8      0.000      0.000
REMARK  1 active torsions:
REMARK  status: ('A' for Active; 'I' for Inactive)
REMARK    1  A    between atoms: C3_3  and  C5_5 
ROOT
HETATM    1  C1  UNL     1     -34.826  16.719  -1.834  1.00 20.00     0.012 C 
HETATM    2  C2  UNL     1     -35.162  16.252  -2.887  1.00 20.00    -0.111 C 
HETATM    3  C4  UNL     1     -35.562  15.693  -4.147  1.00 20.00     0.088 A 
HETATM    4  C5  UNL     1     -35.073  14.311  -4.517  1.00 20.00     0.112 A 
HETATM    5  C6  UNL     1     -34.559  15.522  -5.275  1.00 20.00    -0.018 A 
HETATM    6  C7  UNL     1     -35.049  15.803  -6.675  1.00 20.00     0.017 C 
HETATM    7  C8  UNL     1     -33.110  15.897  -5.069  1.00 20.00     0.017 C 
ENDROOT
BRANCH   4   8
HETATM    8  C3  UNL     1     -36.015  13.416  -5.164  1.00 20.00     0.179 C 
HETATM    9  O9  UNL     1     -37.231  13.635  -4.904  1.00 20.00    -0.648 OA
HETATM   10  O10 UNL     1     -35.490  12.537  -5.902  1.00 20.00    -0.648 OA
ENDBRANCH   4   8
TORSDOF 1
ENDMDL
MODEL 2
REMARK VINA RESULT:      -4.8      0.061      1.025
REMARK  1 active torsions:
REMARK  status: ('A' for Active; 'I' for Inactive)
REMARK    1  A    between atoms: C3_3  and  C5_5 
ROOT
HETATM    1  C1  UNL     1     -34.861  16.733  -1.808  1.00 20.00     0.012 C 
HETATM    2  C2  UNL     1     -35.198  16.272  -2.863  1.00 20.00    -0.111 C 
HETATM    3  C4  UNL     1     -35.599  15.719  -4.125  1.00 20.00     0.088 A 
HETATM    4  C5  UNL     1     -35.085  14.352  -4.517  1.00 20.00     0.112 A 
HETATM    5  C6  UNL     1     -34.605  15.582  -5.265  1.00 20.00    -0.018 A 
HETATM    6  C7  UNL     1     -35.115  15.869  -6.657  1.00 20.00     0.017 C 
HETATM    7  C8  UNL     1     -33.161  15.984  -5.069  1.00 20.00     0.017 C 
ENDROOT
BRANCH   4   8
HETATM    8  C3  UNL     1     -36.016  13.445  -5.165  1.00 20.00     0.179 C 
HETATM    9  O9  UNL     1     -35.485  12.548  -5.877  1.00 20.00    -0.648 OA
HETATM   10  O10 UNL     1     -37.234  13.676  -4.926  1.00 20.00    -0.648 OA
ENDBRANCH   4   8
TORSDOF 1
ENDMDL
MODEL 3
REMARK VINA RESULT:      -4.6     11.616     12.401
REMARK  1 active torsions:
REMARK  status: ('A' for Active; 'I' for Inactive)
REMARK    1  A    between atoms: C3_3  and  C5_5 
ROOT
HETATM    1  C1  UNL     1     -31.725   8.452   1.731  1.00 20.00     0.012 C 
HETATM    2  C2  UNL     1     -32.577   8.040   2.469  1.00 20.00    -0.111 C 
HETATM    3  C4  UNL     1     -33.595   7.546   3.351  1.00 20.00     0.088 A 
HETATM    4  C5  UNL     1     -33.183   6.703   4.537  1.00 20.00     0.112 A 
HETATM    5  C6  UNL     1     -33.941   6.067   3.386  1.00 20.00    -0.018 A 
HETATM    6  C7  UNL     1     -35.400   5.709   3.546  1.00 20.00     0.017 C 
HETATM    7  C8  UNL     1     -33.183   5.086   2.522  1.00 20.00     0.017 C 
ENDROOT
BRANCH   4   8
HETATM    8  C3  UNL     1     -33.867   6.936   5.796  1.00 20.00     0.179 C 
HETATM    9  O9  UNL     1     -34.504   5.946   6.253  1.00 20.00    -0.648 OA
HETATM   10  O10 UNL     1     -33.730   8.099   6.266  1.00 20.00    -0.648 OA
ENDBRANCH   4   8
TORSDOF 1
ENDMDL
MODEL 4
REMARK VINA RESULT:      -4.5     10.976     11.784
REMARK  1 active torsions:
REMARK  status: ('A' for Active; 'I' for Inactive)
REMARK    1  A    between atoms: C3_3  and  C5_5 
ROOT
HETATM    1  C1  UNL     1     -34.060   7.524   6.697  1.00 20.00     0.012 C 
HETATM    2  C2  UNL     1     -33.559   7.291   5.632  1.00 20.00    -0.111 C 
HETATM    3  C4  UNL     1     -32.961   7.011   4.358  1.00 20.00     0.088 A 
HETATM    4  C5  UNL     1     -33.431   7.788   3.149  1.00 20.00     0.112 A 
HETATM    5  C6  UNL     1     -33.750   6.309   3.267  1.00 20.00    -0.018 A 
HETATM    6  C7  UNL     1     -33.004   5.304   2.421  1.00 20.00     0.017 C 
HETATM    7  C8  UNL     1     -35.196   5.934   3.493  1.00 20.00     0.017 C 
ENDROOT
BRANCH   4   8
HETATM    8  C3  UNL     1     -32.425   8.224   2.197  1.00 20.00     0.179 C 
HETATM    9  O9  UNL     1     -32.859   8.507   1.046  1.00 20.00    -0.648 OA
HETATM   10  O10 UNL     1     -31.248   8.263   2.652  1.00 20.00    -0.648 OA
ENDBRANCH   4   8
TORSDOF 1
ENDMDL
MODEL 5
REMARK VINA RESULT:      -4.2      1.500      2.703
REMARK  1 active torsions:
REMARK  status: ('A' for Active; 'I' for Inactive)
REMARK    1  A    between atoms: C3_3  and  C5_5 
ROOT
HETATM    1  C1  UNL     1     -34.120  18.149  -6.648  1.00 20.00     0.012 C 
HETATM    2  C2  UNL     1     -33.961  16.996  -6.359  1.00 20.00    -0.111 C 
HETATM    3  C4  UNL     1     -33.772  15.617  -6.011  1.00 20.00     0.088 A 
HETATM    4  C5  UNL     1     -34.940  14.844  -5.442  1.00 20.00     0.112 A 
HETATM    5  C6  UNL     1     -33.753  15.177  -4.558  1.00 20.00    -0.018 A 
HETATM    6  C7  UNL     1     -32.763  14.100  -4.181  1.00 20.00     0.017 C 
HETATM    7  C8  UNL     1     -33.979  16.184  -3.454  1.00 20.00     0.017 C 
ENDROOT
BRANCH   4   8
HETATM    8  C3  UNL     1     -35.127  13.477  -5.896  1.00 20.00     0.179 C 
HETATM    9  O9  UNL     1     -35.909  12.779  -5.193  1.00 20.00    -0.648 OA
HETATM   10  O10 UNL     1     -34.479  13.172  -6.936  1.00 20.00    -0.648 OA
ENDBRANCH   4   8
TORSDOF 1
ENDMDL
MODEL 6
REMARK VINA RESULT:      -4.2      2.108      2.960
REMARK  1 active torsions:
REMARK  status: ('A' for Active; 'I' for Inactive)
REMARK    1  A    between atoms: C3_3  and  C5_5 
ROOT
HETATM    1  C1  UNL     1     -35.166  17.070  -1.313  1.00 20.00     0.012 C 
HETATM    2  C2  UNL     1     -34.884  16.412  -2.275  1.00 20.00    -0.111 C 
HETATM    3  C4  UNL     1     -34.547  15.626  -3.428  1.00 20.00     0.088 A 
HETATM    4  C5  UNL     1     -34.679  16.252  -4.798  1.00 20.00     0.112 A 
HETATM    5  C6  UNL     1     -35.626  15.142  -4.380  1.00 20.00    -0.018 A 
HETATM    6  C7  UNL     1     -35.463  13.753  -4.950  1.00 20.00     0.017 C 
HETATM    7  C8  UNL     1     -37.071  15.522  -4.151  1.00 20.00     0.017 C 
ENDROOT
BRANCH   4   8
HETATM    8  C3  UNL     1     -33.637  15.969  -5.769  1.00 20.00     0.179 C 
HETATM    9  O9  UNL     1     -32.541  15.576  -5.283  1.00 20.00    -0.648 OA
HETATM   10  O10 UNL     1     -33.971  16.154  -6.972  1.00 20.00    -0.648 OA
ENDBRANCH   4   8
TORSDOF 1
ENDMDL
MODEL 7
REMARK VINA RESULT:      -4.1      1.742      2.425
REMARK  1 active torsions:
REMARK  status: ('A' for Active; 'I' for Inactive)
REMARK    1  A    between atoms: C3_3  and  C5_5 
ROOT
HETATM    1  C1  UNL     1     -33.106  17.787  -1.553  1.00 20.00     0.012 C 
HETATM    2  C2  UNL     1     -33.763  16.994  -2.169  1.00 20.00    -0.111 C 
HETATM    3  C4  UNL     1     -34.549  16.047  -2.907  1.00 20.00     0.088 A 
HETATM    4  C5  UNL     1     -34.235  15.826  -4.370  1.00 20.00     0.112 A 
HETATM    5  C6  UNL     1     -35.529  16.512  -3.970  1.00 20.00    -0.018 A 
HETATM    6  C7  UNL     1     -36.840  15.769  -4.064  1.00 20.00     0.017 C 
HETATM    7  C8  UNL     1     -35.657  17.981  -4.298  1.00 20.00     0.017 C 
ENDROOT
BRANCH   4   8
HETATM    8  C3  UNL     1     -34.278  14.463  -4.867  1.00 20.00     0.179 C 
HETATM    9  O9  UNL     1     -34.354  14.350  -6.122  1.00 20.00    -0.648 OA
HETATM   10  O10 UNL     1     -34.231  13.571  -3.974  1.00 20.00    -0.648 OA
ENDBRANCH   4   8
TORSDOF 1
ENDMDL
MODEL 8
REMARK VINA RESULT:      -4.0      1.703      2.296
REMARK  1 active torsions:
REMARK  status: ('A' for Active; 'I' for Inactive)
REMARK    1  A    between atoms: C3_3  and  C5_5 
ROOT
HETATM    1  C1  UNL     1     -35.478  17.265  -0.404  1.00 20.00     0.012 C 
HETATM    2  C2  UNL     1     -35.415  16.876  -1.537  1.00 20.00    -0.111 C 
HETATM    3  C4  UNL     1     -35.339  16.410  -2.892  1.00 20.00     0.088 A 
HETATM    4  C5  UNL     1     -34.123  15.619  -3.321  1.00 20.00     0.112 A 
HETATM    5  C6  UNL     1     -34.346  17.018  -3.868  1.00 20.00    -0.018 A 
HETATM    6  C7  UNL     1     -34.813  17.209  -5.291  1.00 20.00     0.017 C 
HETATM    7  C8  UNL     1     -33.389  18.095  -3.410  1.00 20.00     0.017 C 
ENDROOT
BRANCH   4   8
HETATM    8  C3  UNL     1     -34.338  14.475  -4.189  1.00 20.00     0.179 C 
HETATM    9  O9  UNL     1     -33.289  13.943  -4.647  1.00 20.00    -0.648 OA
HETATM   10  O10 UNL     1     -35.548  14.165  -4.367  1.00 20.00    -0.648 OA
ENDBRANCH   4   8
TORSDOF 1
ENDMDL
MODEL 9
REMARK VINA RESULT:      -3.9      2.580      3.769
REMARK  1 active torsions:
REMARK  status: ('A' for Active; 'I' for Inactive)
REMARK    1  A    between atoms: C3_3  and  C5_5 
ROOT
HETATM    1  C1  UNL     1     -35.713  17.480   0.744  1.00 20.00     0.012 C 
HETATM    2  C2  UNL     1     -35.350  17.552  -0.397  1.00 20.00    -0.111 C 
HETATM    3  C4  UNL     1     -34.914  17.638  -1.762  1.00 20.00     0.088 A 
HETATM    4  C5  UNL     1     -33.976  16.577  -2.293  1.00 20.00     0.112 A 
HETATM    5  C6  UNL     1     -33.477  17.997  -2.097  1.00 20.00    -0.018 A 
HETATM    6  C7  UNL     1     -33.256  18.893  -3.292  1.00 20.00     0.017 C 
HETATM    7  C8  UNL     1     -32.471  18.224  -0.992  1.00 20.00     0.017 C 
ENDROOT
BRANCH   4   8
HETATM    8  C3  UNL     1     -34.211  16.086  -3.639  1.00 20.00     0.179 C 
HETATM    9  O9  UNL     1     -35.373  16.286  -4.090  1.00 20.00    -0.648 OA
HETATM   10  O10 UNL     1     -33.217  15.525  -4.179  1.00 20.00    -0.648 OA
ENDBRANCH   4   8
TORSDOF 1
ENDMDL
