MODEL 1
REMARK VINA RESULT:      -4.7      0.000      0.000
REMARK  2 active torsions:
REMARK  status: ('A' for Active; 'I' for Inactive)
REMARK    1  A    between atoms: C1_1  and  C3_3 
REMARK    2  A    between atoms: C1_1  and  O7_7 
ROOT
HETATM    1  C2  UNL     1     -35.415   5.795   3.895  1.00 20.00     0.055 A 
HETATM    2  C3  UNL     1     -33.940   6.026   3.939  1.00 20.00     0.122 A 
HETATM    3  C4  UNL     1     -34.521   4.846   4.627  1.00 20.00     0.184 A 
HETATM    4  F8  UNL     1     -34.286   3.612   4.045  1.00 20.00    -0.248 F 
ENDROOT
BRANCH   2   5
HETATM    5  C1  UNL     1     -33.425   7.154   4.779  1.00 20.00     0.265 C 
HETATM    6  O6  UNL     1     -33.860   7.436   5.889  1.00 20.00    -0.265 OA
BRANCH   5   7
HETATM    7  O7  UNL     1     -32.421   7.796   4.117  1.00 20.00    -0.326 OA
HETATM    8  C5  UNL     1     -32.424   7.643   2.695  1.00 20.00     0.213 C 
ENDBRANCH   5   7
ENDBRANCH   2   5
TORSDOF 2
ENDMDL
MODEL 2
REMARK VINA RESULT:      -4.5      1.796      2.195
REMARK  2 active torsions:
REMARK  status: ('A' for Active; 'I' for Inactive)
REMARK    1  A    between atoms: C1_1  and  C3_3 
REMARK    2  A    between atoms: C1_1  and  O7_7 
ROOT
HETATM    1  C2  UNL     1     -33.720   7.327   5.732  1.00 20.00     0.055 A 
HETATM    2  C3  UNL     1     -34.095   6.797   4.388  1.00 20.00     0.122 A 
HETATM    3  C4  UNL     1     -34.026   5.876   5.549  1.00 20.00     0.184 A 
HETATM    4  F8  UNL     1     -35.233   5.410   6.042  1.00 20.00    -0.248 F 
ENDROOT
BRANCH   2   5
HETATM    5  C1  UNL     1     -33.026   6.700   3.342  1.00 20.00     0.265 C 
HETATM    6  O6  UNL     1     -32.862   5.726   2.619  1.00 20.00    -0.265 OA
BRANCH   5   7
HETATM    7  O7  UNL     1     -32.289   7.848   3.334  1.00 20.00    -0.326 OA
HETATM    8  C5  UNL     1     -32.167   8.492   2.062  1.00 20.00     0.213 C 
ENDBRANCH   5   7
ENDBRANCH   2   5
TORSDOF 2
ENDMDL
MODEL 3
REMARK VINA RESULT:      -4.5      2.442      3.387
REMARK  2 active torsions:
REMARK  status: ('A' for Active; 'I' for Inactive)
REMARK    1  A    between atoms: C1_1  and  C3_3 
REMARK    2  A    between atoms: C1_1  and  O7_7 
ROOT
HETATM    1  C2  UNL     1     -32.915   6.524   2.694  1.00 20.00     0.055 A 
HETATM    2  C3  UNL     1     -33.624   7.433   3.643  1.00 20.00     0.122 A 
HETATM    3  C4  UNL     1     -32.187   7.656   3.344  1.00 20.00     0.184 A 
HETATM    4  F8  UNL     1     -31.880   8.754   2.558  1.00 20.00    -0.248 F 
ENDROOT
BRANCH   2   5
HETATM    5  C1  UNL     1     -33.992   6.900   4.993  1.00 20.00     0.265 C 
HETATM    6  O6  UNL     1     -33.530   7.320   6.046  1.00 20.00    -0.265 OA
BRANCH   5   7
HETATM    7  O7  UNL     1     -34.902   5.893   4.854  1.00 20.00    -0.326 OA
HETATM    8  C5  UNL     1     -34.537   4.646   5.452  1.00 20.00     0.213 C 
ENDBRANCH   5   7
ENDBRANCH   2   5
TORSDOF 2
ENDMDL
MODEL 4
REMARK VINA RESULT:      -4.4      3.312      4.776
REMARK  2 active torsions:
REMARK  status: ('A' for Active; 'I' for Inactive)
REMARK    1  A    between atoms: C1_1  and  C3_3 
REMARK    2  A    between atoms: C1_1  and  O7_7 
ROOT
HETATM    1  C2  UNL     1     -32.539  10.324   1.080  1.00 20.00     0.055 A 
HETATM    2  C3  UNL     1     -31.873   8.994   1.206  1.00 20.00     0.122 A 
HETATM    3  C4  UNL     1     -33.058   9.144   0.324  1.00 20.00     0.184 A 
HETATM    4  F8  UNL     1     -32.823   9.104  -1.040  1.00 20.00    -0.248 F 
ENDROOT
BRANCH   2   5
HETATM    5  C1  UNL     1     -32.037   8.240   2.490  1.00 20.00     0.265 C 
HETATM    6  O6  UNL     1     -31.342   8.416   3.482  1.00 20.00    -0.265 OA
BRANCH   5   7
HETATM    7  O7  UNL     1     -33.063   7.348   2.370  1.00 20.00    -0.326 OA
HETATM    8  C5  UNL     1     -33.649   6.914   3.600  1.00 20.00     0.213 C 
ENDBRANCH   5   7
ENDBRANCH   2   5
TORSDOF 2
ENDMDL
MODEL 5
REMARK VINA RESULT:      -4.4      2.660      3.879
REMARK  2 active torsions:
REMARK  status: ('A' for Active; 'I' for Inactive)
REMARK    1  A    between atoms: C1_1  and  C3_3 
REMARK    2  A    between atoms: C1_1  and  O7_7 
ROOT
HETATM    1  C2  UNL     1     -31.561   8.312   3.368  1.00 20.00     0.055 A 
HETATM    2  C3  UNL     1     -32.312   7.147   2.813  1.00 20.00     0.122 A 
HETATM    3  C4  UNL     1     -32.288   8.430   2.068  1.00 20.00     0.184 A 
HETATM    4  F8  UNL     1     -31.529   8.461   0.911  1.00 20.00    -0.248 F 
ENDROOT
BRANCH   2   5
HETATM    5  C1  UNL     1     -33.587   6.742   3.486  1.00 20.00     0.265 C 
HETATM    6  O6  UNL     1     -34.398   5.960   3.006  1.00 20.00    -0.265 OA
BRANCH   5   7
HETATM    7  O7  UNL     1     -33.690   7.375   4.690  1.00 20.00    -0.326 OA
HETATM    8  C5  UNL     1     -34.164   6.567   5.772  1.00 20.00     0.213 C 
ENDBRANCH   5   7
ENDBRANCH   2   5
TORSDOF 2
ENDMDL
MODEL 6
REMARK VINA RESULT:      -4.3      2.348      3.068
REMARK  2 active torsions:
REMARK  status: ('A' for Active; 'I' for Inactive)
REMARK    1  A    between atoms: C1_1  and  C3_3 
REMARK    2  A    between atoms: C1_1  and  O7_7 
ROOT
HETATM    1  C2  UNL     1     -34.129   5.814   2.258  1.00 20.00     0.055 A 
HETATM    2  C3  UNL     1     -34.219   6.296   3.668  1.00 20.00     0.122 A 
HETATM    3  C4  UNL     1     -32.901   6.252   2.988  1.00 20.00     0.184 A 
HETATM    4  F8  UNL     1     -32.346   7.469   2.633  1.00 20.00    -0.248 F 
ENDROOT
BRANCH   2   5
HETATM    5  C1  UNL     1     -34.496   5.290   4.744  1.00 20.00     0.265 C 
HETATM    6  O6  UNL     1     -34.674   4.097   4.537  1.00 20.00    -0.265 OA
BRANCH   5   7
HETATM    7  O7  UNL     1     -34.517   5.913   5.957  1.00 20.00    -0.326 OA
HETATM    8  C5  UNL     1     -33.862   7.184   6.008  1.00 20.00     0.213 C 
ENDBRANCH   5   7
ENDBRANCH   2   5
TORSDOF 2
ENDMDL
MODEL 7
REMARK VINA RESULT:      -4.3      1.469      1.657
REMARK  2 active torsions:
REMARK  status: ('A' for Active; 'I' for Inactive)
REMARK    1  A    between atoms: C1_1  and  C3_3 
REMARK    2  A    between atoms: C1_1  and  O7_7 
ROOT
HETATM    1  C2  UNL     1     -34.439   5.783   3.294  1.00 20.00     0.055 A 
HETATM    2  C3  UNL     1     -33.265   6.561   2.799  1.00 20.00     0.122 A 
HETATM    3  C4  UNL     1     -33.122   5.111   3.078  1.00 20.00     0.184 A 
HETATM    4  F8  UNL     1     -33.002   4.277   1.979  1.00 20.00    -0.248 F 
ENDROOT
BRANCH   2   5
HETATM    5  C1  UNL     1     -32.613   7.531   3.735  1.00 20.00     0.265 C 
HETATM    6  O6  UNL     1     -32.889   7.628   4.924  1.00 20.00    -0.265 OA
BRANCH   5   7
HETATM    7  O7  UNL     1     -31.686   8.268   3.058  1.00 20.00    -0.326 OA
HETATM    8  C5  UNL     1     -32.082   8.709   1.756  1.00 20.00     0.213 C 
ENDBRANCH   5   7
ENDBRANCH   2   5
TORSDOF 2
ENDMDL
MODEL 8
REMARK VINA RESULT:      -4.3      1.553      2.038
REMARK  2 active torsions:
REMARK  status: ('A' for Active; 'I' for Inactive)
REMARK    1  A    between atoms: C1_1  and  C3_3 
REMARK    2  A    between atoms: C1_1  and  O7_7 
ROOT
HETATM    1  C2  UNL     1     -33.952   6.820   5.427  1.00 20.00     0.055 A 
HETATM    2  C3  UNL     1     -33.955   7.388   4.047  1.00 20.00     0.122 A 
HETATM    3  C4  UNL     1     -34.261   5.950   4.252  1.00 20.00     0.184 A 
HETATM    4  F8  UNL     1     -35.578   5.565   4.069  1.00 20.00    -0.248 F 
ENDROOT
BRANCH   2   5
HETATM    5  C1  UNL     1     -32.640   7.752   3.429  1.00 20.00     0.265 C 
HETATM    6  O6  UNL     1     -31.635   8.031   4.070  1.00 20.00    -0.265 OA
BRANCH   5   7
HETATM    7  O7  UNL     1     -32.749   7.720   2.070  1.00 20.00    -0.326 OA
HETATM    8  C5  UNL     1     -32.144   8.817   1.378  1.00 20.00     0.213 C 
ENDBRANCH   5   7
ENDBRANCH   2   5
TORSDOF 2
ENDMDL
MODEL 9
REMARK VINA RESULT:      -4.2      1.870      2.463
REMARK  2 active torsions:
REMARK  status: ('A' for Active; 'I' for Inactive)
REMARK    1  A    between atoms: C1_1  and  C3_3 
REMARK    2  A    between atoms: C1_1  and  O7_7 
ROOT
HETATM    1  C2  UNL     1     -33.690   7.363   5.938  1.00 20.00     0.055 A 
HETATM    2  C3  UNL     1     -34.188   6.998   4.578  1.00 20.00     0.122 A 
HETATM    3  C4  UNL     1     -34.071   5.952   5.626  1.00 20.00     0.184 A 
HETATM    4  F8  UNL     1     -35.256   5.476   6.160  1.00 20.00    -0.248 F 
ENDROOT
BRANCH   2   5
HETATM    5  C1  UNL     1     -33.206   6.980   3.447  1.00 20.00     0.265 C 
HETATM    6  O6  UNL     1     -32.194   7.667   3.407  1.00 20.00    -0.265 OA
BRANCH   5   7
HETATM    7  O7  UNL     1     -33.621   6.095   2.495  1.00 20.00    -0.326 OA
HETATM    8  C5  UNL     1     -33.001   4.806   2.543  1.00 20.00     0.213 C 
ENDBRANCH   5   7
ENDBRANCH   2   5
TORSDOF 2
ENDMDL
