MODEL 1
REMARK VINA RESULT:      -3.9      0.000      0.000
REMARK  1 active torsions:
REMARK  status: ('A' for Active; 'I' for Inactive)
REMARK    1  A    between atoms: C1_1  and  C2_2 
ROOT
HETATM    1  C2  UNL     1     -35.477  15.014  -5.076  1.00 20.00     0.064 A 
HETATM    2  C3  UNL     1     -34.597  16.131  -5.619  1.00 20.00    -0.030 A 
HETATM    3  C4  UNL     1     -34.218  15.405  -4.316  1.00 20.00    -0.030 A 
HETATM    4  C5  UNL     1     -35.144  17.540  -5.549  1.00 20.00     0.016 C 
HETATM    5  C6  UNL     1     -33.768  15.907  -6.865  1.00 20.00     0.016 C 
HETATM    6  C7  UNL     1     -33.022  14.478  -4.299  1.00 20.00     0.016 C 
HETATM    7  C8  UNL     1     -34.400  16.115  -2.991  1.00 20.00     0.016 C 
ENDROOT
BRANCH   1   8
HETATM    8  C1  UNL     1     -35.578  13.721  -5.767  1.00 20.00     0.237 C 
HETATM    9  O9  UNL     1     -35.912  12.681  -5.208  1.00 20.00    -0.306 OA
ENDBRANCH   1   8
TORSDOF 1
ENDMDL
MODEL 2
REMARK VINA RESULT:      -3.9      1.212      2.513
REMARK  1 active torsions:
REMARK  status: ('A' for Active; 'I' for Inactive)
REMARK    1  A    between atoms: C1_1  and  C2_2 
ROOT
HETATM    1  C2  UNL     1     -35.044  14.618  -4.381  1.00 20.00     0.064 A 
HETATM    2  C3  UNL     1     -35.383  15.968  -3.765  1.00 20.00    -0.030 A 
HETATM    3  C4  UNL     1     -34.657  15.891  -5.119  1.00 20.00    -0.030 A 
HETATM    4  C5  UNL     1     -34.610  16.381  -2.532  1.00 20.00     0.016 C 
HETATM    5  C6  UNL     1     -36.820  16.440  -3.716  1.00 20.00     0.016 C 
HETATM    6  C7  UNL     1     -35.389  16.289  -6.382  1.00 20.00     0.016 C 
HETATM    7  C8  UNL     1     -33.183  16.231  -5.191  1.00 20.00     0.016 C 
ENDROOT
BRANCH   1   8
HETATM    8  C1  UNL     1     -36.095  13.730  -4.895  1.00 20.00     0.237 C 
HETATM    9  O9  UNL     1     -35.874  12.608  -5.341  1.00 20.00    -0.306 OA
ENDBRANCH   1   8
TORSDOF 1
ENDMDL
MODEL 3
REMARK VINA RESULT:      -3.9      1.151      2.137
REMARK  1 active torsions:
REMARK  status: ('A' for Active; 'I' for Inactive)
REMARK    1  A    between atoms: C1_1  and  C2_2 
ROOT
HETATM    1  C2  UNL     1     -35.427  14.260  -4.479  1.00 20.00     0.064 A 
HETATM    2  C3  UNL     1     -35.110  15.732  -4.258  1.00 20.00    -0.030 A 
HETATM    3  C4  UNL     1     -34.135  14.834  -5.040  1.00 20.00    -0.030 A 
HETATM    4  C5  UNL     1     -34.755  16.161  -2.852  1.00 20.00     0.016 C 
HETATM    5  C6  UNL     1     -35.896  16.796  -4.994  1.00 20.00     0.016 C 
HETATM    6  C7  UNL     1     -33.976  15.028  -6.533  1.00 20.00     0.016 C 
HETATM    7  C8  UNL     1     -32.841  14.399  -4.387  1.00 20.00     0.016 C 
ENDROOT
BRANCH   1   8
HETATM    8  C1  UNL     1     -36.523  13.841  -5.364  1.00 20.00     0.237 C 
HETATM    9  O9  UNL     1     -37.687  13.728  -4.993  1.00 20.00    -0.306 OA
ENDBRANCH   1   8
TORSDOF 1
ENDMDL
MODEL 4
REMARK VINA RESULT:      -3.7      0.755      1.990
REMARK  1 active torsions:
REMARK  status: ('A' for Active; 'I' for Inactive)
REMARK    1  A    between atoms: C1_1  and  C2_2 
ROOT
HETATM    1  C2  UNL     1     -35.538  15.011  -5.451  1.00 20.00     0.064 A 
HETATM    2  C3  UNL     1     -34.083  15.425  -5.292  1.00 20.00    -0.030 A 
HETATM    3  C4  UNL     1     -35.199  16.218  -4.590  1.00 20.00    -0.030 A 
HETATM    4  C5  UNL     1     -33.396  16.024  -6.499  1.00 20.00     0.016 C 
HETATM    5  C6  UNL     1     -33.138  14.579  -4.466  1.00 20.00     0.016 C 
HETATM    6  C7  UNL     1     -35.337  16.140  -3.085  1.00 20.00     0.016 C 
HETATM    7  C8  UNL     1     -35.588  17.581  -5.122  1.00 20.00     0.016 C 
ENDROOT
BRANCH   1   8
HETATM    8  C1  UNL     1     -36.045  13.768  -4.854  1.00 20.00     0.237 C 
HETATM    9  O9  UNL     1     -35.870  12.659  -5.350  1.00 20.00    -0.306 OA
ENDBRANCH   1   8
TORSDOF 1
ENDMDL
MODEL 5
REMARK VINA RESULT:      -3.6      0.970      2.908
REMARK  1 active torsions:
REMARK  status: ('A' for Active; 'I' for Inactive)
REMARK    1  A    between atoms: C1_1  and  C2_2 
ROOT
HETATM    1  C2  UNL     1     -35.538  14.563  -5.159  1.00 20.00     0.064 A 
HETATM    2  C3  UNL     1     -34.388  15.189  -4.383  1.00 20.00    -0.030 A 
HETATM    3  C4  UNL     1     -34.823  15.775  -5.738  1.00 20.00    -0.030 A 
HETATM    4  C5  UNL     1     -33.100  14.402  -4.296  1.00 20.00     0.016 C 
HETATM    5  C6  UNL     1     -34.664  15.965  -3.113  1.00 20.00     0.016 C 
HETATM    6  C7  UNL     1     -35.519  17.118  -5.782  1.00 20.00     0.016 C 
HETATM    7  C8  UNL     1     -33.953  15.551  -6.957  1.00 20.00     0.016 C 
ENDROOT
BRANCH   1   8
HETATM    8  C1  UNL     1     -36.922  14.655  -4.676  1.00 20.00     0.237 C 
HETATM    9  O9  UNL     1     -37.792  13.837  -4.959  1.00 20.00    -0.306 OA
ENDBRANCH   1   8
TORSDOF 1
ENDMDL
MODEL 6
REMARK VINA RESULT:      -3.6     10.878     12.185
REMARK  1 active torsions:
REMARK  status: ('A' for Active; 'I' for Inactive)
REMARK    1  A    between atoms: C1_1  and  C2_2 
ROOT
HETATM    1  C2  UNL     1     -33.869   7.424   3.843  1.00 20.00     0.064 A 
HETATM    2  C3  UNL     1     -33.505   6.396   2.782  1.00 20.00    -0.030 A 
HETATM    3  C4  UNL     1     -32.769   7.746   2.843  1.00 20.00    -0.030 A 
HETATM    4  C5  UNL     1     -34.511   6.150   1.679  1.00 20.00     0.016 C 
HETATM    5  C6  UNL     1     -32.773   5.130   3.172  1.00 20.00     0.016 C 
HETATM    6  C7  UNL     1     -31.324   7.789   3.292  1.00 20.00     0.016 C 
HETATM    7  C8  UNL     1     -33.066   8.801   1.799  1.00 20.00     0.016 C 
ENDROOT
BRANCH   1   8
HETATM    8  C1  UNL     1     -33.566   7.195   5.262  1.00 20.00     0.237 C 
HETATM    9  O9  UNL     1     -34.291   6.549   6.012  1.00 20.00    -0.306 OA
ENDBRANCH   1   8
TORSDOF 1
ENDMDL
MODEL 7
REMARK VINA RESULT:      -3.5     11.826     13.211
REMARK  1 active torsions:
REMARK  status: ('A' for Active; 'I' for Inactive)
REMARK    1  A    between atoms: C1_1  and  C2_2 
ROOT
HETATM    1  C2  UNL     1     -42.847   6.514  -0.720  1.00 20.00     0.064 A 
HETATM    2  C3  UNL     1     -42.928   5.598   0.492  1.00 20.00    -0.030 A 
HETATM    3  C4  UNL     1     -41.561   6.023  -0.073  1.00 20.00    -0.030 A 
HETATM    4  C5  UNL     1     -43.417   4.185   0.263  1.00 20.00     0.016 C 
HETATM    5  C6  UNL     1     -43.384   6.144   1.828  1.00 20.00     0.016 C 
HETATM    6  C7  UNL     1     -40.693   6.980   0.714  1.00 20.00     0.016 C 
HETATM    7  C8  UNL     1     -40.734   5.019  -0.848  1.00 20.00     0.016 C 
ENDROOT
BRANCH   1   8
HETATM    8  C1  UNL     1     -43.251   7.925  -0.636  1.00 20.00     0.237 C 
HETATM    9  O9  UNL     1     -42.764   8.809  -1.334  1.00 20.00    -0.306 OA
ENDBRANCH   1   8
TORSDOF 1
ENDMDL
MODEL 8
REMARK VINA RESULT:      -3.5      1.855      3.127
REMARK  1 active torsions:
REMARK  status: ('A' for Active; 'I' for Inactive)
REMARK    1  A    between atoms: C1_1  and  C2_2 
ROOT
HETATM    1  C2  UNL     1     -33.647  15.974  -3.439  1.00 20.00     0.064 A 
HETATM    2  C3  UNL     1     -34.981  16.539  -2.975  1.00 20.00    -0.030 A 
HETATM    3  C4  UNL     1     -33.997  17.418  -3.766  1.00 20.00    -0.030 A 
HETATM    4  C5  UNL     1     -35.156  16.775  -1.490  1.00 20.00     0.016 C 
HETATM    5  C6  UNL     1     -36.268  16.085  -3.630  1.00 20.00     0.016 C 
HETATM    6  C7  UNL     1     -34.329  17.816  -5.188  1.00 20.00     0.016 C 
HETATM    7  C8  UNL     1     -33.223  18.501  -3.044  1.00 20.00     0.016 C 
ENDROOT
BRANCH   1   8
HETATM    8  C1  UNL     1     -33.579  14.950  -4.491  1.00 20.00     0.237 C 
HETATM    9  O9  UNL     1     -33.537  13.746  -4.260  1.00 20.00    -0.306 OA
ENDBRANCH   1   8
TORSDOF 1
ENDMDL
MODEL 9
REMARK VINA RESULT:      -3.5      2.607      4.038
REMARK  1 active torsions:
REMARK  status: ('A' for Active; 'I' for Inactive)
REMARK    1  A    between atoms: C1_1  and  C2_2 
ROOT
HETATM    1  C2  UNL     1     -33.771  16.551  -2.714  1.00 20.00     0.064 A 
HETATM    2  C3  UNL     1     -34.850  17.429  -2.097  1.00 20.00    -0.030 A 
HETATM    3  C4  UNL     1     -33.434  17.984  -2.330  1.00 20.00    -0.030 A 
HETATM    4  C5  UNL     1     -35.293  17.097  -0.689  1.00 20.00     0.016 C 
HETATM    5  C6  UNL     1     -35.997  17.932  -2.947  1.00 20.00     0.016 C 
HETATM    6  C7  UNL     1     -33.208  19.025  -3.405  1.00 20.00     0.016 C 
HETATM    7  C8  UNL     1     -32.513  18.187  -1.146  1.00 20.00     0.016 C 
ENDROOT
BRANCH   1   8
HETATM    8  C1  UNL     1     -33.839  16.136  -4.122  1.00 20.00     0.237 C 
HETATM    9  O9  UNL     1     -32.900  15.622  -4.721  1.00 20.00    -0.306 OA
ENDBRANCH   1   8
TORSDOF 1
ENDMDL
