MODEL 1
REMARK VINA RESULT:      -4.3      0.000      0.000
REMARK  2 active torsions:
REMARK  status: ('A' for Active; 'I' for Inactive)
REMARK    1  A    between atoms: C1_1  and  C4_4 
REMARK    2  A    between atoms: C4_4  and  C5_5 
ROOT
HETATM    1  C4  UNL     1     -33.013   6.113   3.127  1.00 20.00     0.137 C 
ENDROOT
BRANCH   1   2
HETATM    2  C1  UNL     1     -32.544   7.564   2.974  1.00 20.00     0.174 C 
HETATM    3  O6  UNL     1     -33.162   8.240   2.105  1.00 20.00    -0.648 OA
HETATM    4  O7  UNL     1     -31.581   7.898   3.721  1.00 20.00    -0.648 OA
ENDBRANCH   1   2
BRANCH   1   5
HETATM    5  C5  UNL     1     -34.173   5.910   4.115  1.00 20.00     0.039 C 
HETATM    6  C2  UNL     1     -33.989   6.731   5.394  1.00 20.00     0.032 C 
HETATM    7  C3  UNL     1     -35.531   6.220   3.479  1.00 20.00     0.032 C 
HETATM    8 CL8  UNL     1     -34.179   4.163   4.585  1.00 20.00    -0.119 Cl
ENDBRANCH   1   5
TORSDOF 2
ENDMDL
MODEL 2
REMARK VINA RESULT:      -4.2      1.175      1.617
REMARK  2 active torsions:
REMARK  status: ('A' for Active; 'I' for Inactive)
REMARK    1  A    between atoms: C1_1  and  C4_4 
REMARK    2  A    between atoms: C4_4  and  C5_5 
ROOT
HETATM    1  C4  UNL     1     -33.013   5.996   3.187  1.00 20.00     0.137 C 
ENDROOT
BRANCH   1   2
HETATM    2  C1  UNL     1     -32.596   7.458   2.994  1.00 20.00     0.174 C 
HETATM    3  O6  UNL     1     -33.079   8.024   1.974  1.00 20.00    -0.648 OA
HETATM    4  O7  UNL     1     -31.802   7.909   3.867  1.00 20.00    -0.648 OA
ENDBRANCH   1   2
BRANCH   1   5
HETATM    5  C5  UNL     1     -34.215   5.785   4.121  1.00 20.00     0.039 C 
HETATM    6  C2  UNL     1     -35.532   6.221   3.472  1.00 20.00     0.032 C 
HETATM    7  C3  UNL     1     -34.320   4.335   4.605  1.00 20.00     0.032 C 
HETATM    8 CL8  UNL     1     -33.954   6.825   5.577  1.00 20.00    -0.119 Cl
ENDBRANCH   1   5
TORSDOF 2
ENDMDL
MODEL 3
REMARK VINA RESULT:      -4.1      1.173      1.615
REMARK  2 active torsions:
REMARK  status: ('A' for Active; 'I' for Inactive)
REMARK    1  A    between atoms: C1_1  and  C4_4 
REMARK    2  A    between atoms: C4_4  and  C5_5 
ROOT
HETATM    1  C4  UNL     1     -33.077   6.042   3.163  1.00 20.00     0.137 C 
ENDROOT
BRANCH   1   2
HETATM    2  C1  UNL     1     -32.621   7.497   3.009  1.00 20.00     0.174 C 
HETATM    3  O6  UNL     1     -33.295   8.187   2.194  1.00 20.00    -0.648 OA
HETATM    4  O7  UNL     1     -31.613   7.819   3.699  1.00 20.00    -0.648 OA
ENDBRANCH   1   2
BRANCH   1   5
HETATM    5  C5  UNL     1     -34.192   5.820   4.198  1.00 20.00     0.039 C 
HETATM    6  C2  UNL     1     -34.283   4.357   4.641  1.00 20.00     0.032 C 
HETATM    7  C3  UNL     1     -34.034   6.732   5.418  1.00 20.00     0.032 C 
HETATM    8 CL8  UNL     1     -35.759   6.246   3.401  1.00 20.00    -0.119 Cl
ENDBRANCH   1   5
TORSDOF 2
ENDMDL
MODEL 4
REMARK VINA RESULT:      -3.7      2.639      3.365
REMARK  2 active torsions:
REMARK  status: ('A' for Active; 'I' for Inactive)
REMARK    1  A    between atoms: C1_1  and  C4_4 
REMARK    2  A    between atoms: C4_4  and  C5_5 
ROOT
HETATM    1  C4  UNL     1     -34.910   6.028   3.975  1.00 20.00     0.137 C 
ENDROOT
BRANCH   1   2
HETATM    2  C1  UNL     1     -34.439   5.847   5.422  1.00 20.00     0.174 C 
HETATM    3  O6  UNL     1     -34.444   4.656   5.844  1.00 20.00    -0.648 OA
HETATM    4  O7  UNL     1     -34.127   6.914   6.021  1.00 20.00    -0.648 OA
ENDBRANCH   1   2
BRANCH   1   5
HETATM    5  C5  UNL     1     -33.785   6.045   2.927  1.00 20.00     0.039 C 
HETATM    6  C2  UNL     1     -32.814   7.209   3.145  1.00 20.00     0.032 C 
HETATM    7  C3  UNL     1     -33.019   4.719   2.884  1.00 20.00     0.032 C 
HETATM    8 CL8  UNL     1     -34.560   6.277   1.309  1.00 20.00    -0.119 Cl
ENDBRANCH   1   5
TORSDOF 2
ENDMDL
MODEL 5
REMARK VINA RESULT:      -3.6     11.902     12.435
REMARK  2 active torsions:
REMARK  status: ('A' for Active; 'I' for Inactive)
REMARK    1  A    between atoms: C1_1  and  C4_4 
REMARK    2  A    between atoms: C4_4  and  C5_5 
ROOT
HETATM    1  C4  UNL     1     -35.548  14.914  -5.705  1.00 20.00     0.137 C 
ENDROOT
BRANCH   1   2
HETATM    2  C1  UNL     1     -36.396  13.739  -5.206  1.00 20.00     0.174 C 
HETATM    3  O6  UNL     1     -35.826  12.612  -5.242  1.00 20.00    -0.648 OA
HETATM    4  O7  UNL     1     -37.568  14.039  -4.843  1.00 20.00    -0.648 OA
ENDBRANCH   1   2
BRANCH   1   5
HETATM    5  C5  UNL     1     -34.525  15.449  -4.690  1.00 20.00     0.039 C 
HETATM    6  C2  UNL     1     -35.176  15.810  -3.352  1.00 20.00     0.032 C 
HETATM    7  C3  UNL     1     -33.370  14.468  -4.468  1.00 20.00     0.032 C 
HETATM    8 CL8  UNL     1     -33.824  16.966  -5.382  1.00 20.00    -0.119 Cl
ENDBRANCH   1   5
TORSDOF 2
ENDMDL
MODEL 6
REMARK VINA RESULT:      -3.6     11.697     12.274
REMARK  2 active torsions:
REMARK  status: ('A' for Active; 'I' for Inactive)
REMARK    1  A    between atoms: C1_1  and  C4_4 
REMARK    2  A    between atoms: C4_4  and  C5_5 
ROOT
HETATM    1  C4  UNL     1     -34.893  13.963  -4.192  1.00 20.00     0.137 C 
ENDROOT
BRANCH   1   2
HETATM    2  C1  UNL     1     -35.879  13.392  -5.216  1.00 20.00     0.174 C 
HETATM    3  O6  UNL     1     -37.099  13.562  -4.939  1.00 20.00    -0.648 OA
HETATM    4  O7  UNL     1     -35.350  12.800  -6.199  1.00 20.00    -0.648 OA
ENDBRANCH   1   2
BRANCH   1   5
HETATM    5  C5  UNL     1     -34.402  15.389  -4.493  1.00 20.00     0.039 C 
HETATM    6  C2  UNL     1     -34.309  16.244  -3.226  1.00 20.00     0.032 C 
HETATM    7  C3  UNL     1     -33.061  15.392  -5.232  1.00 20.00     0.032 C 
HETATM    8 CL8  UNL     1     -35.624  16.159  -5.581  1.00 20.00    -0.119 Cl
ENDBRANCH   1   5
TORSDOF 2
ENDMDL
MODEL 7
REMARK VINA RESULT:      -3.6      3.490      4.476
REMARK  2 active torsions:
REMARK  status: ('A' for Active; 'I' for Inactive)
REMARK    1  A    between atoms: C1_1  and  C4_4 
REMARK    2  A    between atoms: C4_4  and  C5_5 
ROOT
HETATM    1  C4  UNL     1     -33.264   8.475   1.962  1.00 20.00     0.137 C 
ENDROOT
BRANCH   1   2
HETATM    2  C1  UNL     1     -32.366   7.636   2.877  1.00 20.00     0.174 C 
HETATM    3  O6  UNL     1     -32.527   6.386   2.788  1.00 20.00    -0.648 OA
HETATM    4  O7  UNL     1     -31.592   8.298   3.623  1.00 20.00    -0.648 OA
ENDBRANCH   1   2
BRANCH   1   5
HETATM    5  C5  UNL     1     -32.518   9.279   0.884  1.00 20.00     0.039 C 
HETATM    6  C2  UNL     1     -31.106   8.740   0.639  1.00 20.00     0.032 C 
HETATM    7  C3  UNL     1     -33.298   9.336  -0.432  1.00 20.00     0.032 C 
HETATM    8 CL8  UNL     1     -32.357  10.974   1.494  1.00 20.00    -0.119 Cl
ENDBRANCH   1   5
TORSDOF 2
ENDMDL
MODEL 8
REMARK VINA RESULT:      -3.6     11.494     12.280
REMARK  2 active torsions:
REMARK  status: ('A' for Active; 'I' for Inactive)
REMARK    1  A    between atoms: C1_1  and  C4_4 
REMARK    2  A    between atoms: C4_4  and  C5_5 
ROOT
HETATM    1  C4  UNL     1     -34.899  14.026  -4.210  1.00 20.00     0.137 C 
ENDROOT
BRANCH   1   2
HETATM    2  C1  UNL     1     -35.888  13.401  -5.199  1.00 20.00     0.174 C 
HETATM    3  O6  UNL     1     -35.360  12.793  -6.173  1.00 20.00    -0.648 OA
HETATM    4  O7  UNL     1     -37.107  13.590  -4.932  1.00 20.00    -0.648 OA
ENDBRANCH   1   2
BRANCH   1   5
HETATM    5  C5  UNL     1     -34.429  15.444  -4.575  1.00 20.00     0.039 C 
HETATM    6  C2  UNL     1     -33.127  15.428  -5.381  1.00 20.00     0.032 C 
HETATM    7  C3  UNL     1     -35.506  16.231  -5.327  1.00 20.00     0.032 C 
HETATM    8 CL8  UNL     1     -34.101  16.318  -3.026  1.00 20.00    -0.119 Cl
ENDBRANCH   1   5
TORSDOF 2
ENDMDL
MODEL 9
REMARK VINA RESULT:      -3.6      2.701      3.358
REMARK  2 active torsions:
REMARK  status: ('A' for Active; 'I' for Inactive)
REMARK    1  A    between atoms: C1_1  and  C4_4 
REMARK    2  A    between atoms: C4_4  and  C5_5 
ROOT
HETATM    1  C4  UNL     1     -34.910   6.038   3.981  1.00 20.00     0.137 C 
ENDROOT
BRANCH   1   2
HETATM    2  C1  UNL     1     -34.444   5.850   5.429  1.00 20.00     0.174 C 
HETATM    3  O6  UNL     1     -34.442   4.655   5.841  1.00 20.00    -0.648 OA
HETATM    4  O7  UNL     1     -34.142   6.914   6.038  1.00 20.00    -0.648 OA
ENDBRANCH   1   2
BRANCH   1   5
HETATM    5  C5  UNL     1     -33.782   6.055   2.936  1.00 20.00     0.039 C 
HETATM    6  C2  UNL     1     -33.025   4.725   2.887  1.00 20.00     0.032 C 
HETATM    7  C3  UNL     1     -34.297   6.422   1.542  1.00 20.00     0.032 C 
HETATM    8 CL8  UNL     1     -32.606   7.335   3.435  1.00 20.00    -0.119 Cl
ENDBRANCH   1   5
TORSDOF 2
ENDMDL
