MODEL 1
REMARK VINA RESULT:      -4.4      0.000      0.000
REMARK  0 active torsions:
REMARK  status: ('A' for Active; 'I' for Inactive)
ROOT
HETATM    1  C1  UNL     1     -32.726   7.738   2.826  1.00 20.00     0.064 C 
HETATM    2  C2  UNL     1     -33.479   7.109   5.100  1.00 20.00     0.030 C 
HETATM    3  C3  UNL     1     -34.470   6.172   5.773  1.00 20.00     0.075 C 
HETATM    4  C4  UNL     1     -33.754   5.531   3.264  1.00 20.00     0.093 C 
HETATM    5  C5  UNL     1     -33.746   7.019   3.600  1.00 20.00     0.103 C 
HETATM    6  N6  UNL     1     -31.921   8.306   2.214  1.00 20.00    -0.197 NA
HETATM    7  S7  UNL     1     -34.571   4.732   4.676  1.00 20.00    -0.168 SA
ENDROOT
TORSDOF 0
ENDMDL
MODEL 2
REMARK VINA RESULT:      -3.4      2.857      3.685
REMARK  0 active torsions:
REMARK  status: ('A' for Active; 'I' for Inactive)
ROOT
HETATM    1  C1  UNL     1     -34.515   5.311   4.387  1.00 20.00     0.064 C 
HETATM    2  C2  UNL     1     -33.023   6.329   2.691  1.00 20.00     0.030 C 
HETATM    3  C3  UNL     1     -32.371   7.666   2.378  1.00 20.00     0.075 C 
HETATM    4  C4  UNL     1     -33.139   7.295   4.925  1.00 20.00     0.093 C 
HETATM    5  C5  UNL     1     -33.965   6.570   3.868  1.00 20.00     0.103 C 
HETATM    6  N6  UNL     1     -34.950   4.316   4.797  1.00 20.00    -0.197 NA
HETATM    7  S7  UNL     1     -32.071   8.431   3.994  1.00 20.00    -0.168 SA
ENDROOT
TORSDOF 0
ENDMDL
MODEL 3
REMARK VINA RESULT:      -3.4     11.912     12.655
REMARK  0 active torsions:
REMARK  status: ('A' for Active; 'I' for Inactive)
ROOT
HETATM    1  C1  UNL     1     -36.843  14.101  -5.209  1.00 20.00     0.064 C 
HETATM    2  C2  UNL     1     -34.610  14.212  -4.141  1.00 20.00     0.030 C 
HETATM    3  C3  UNL     1     -33.182  14.603  -4.485  1.00 20.00     0.075 C 
HETATM    4  C4  UNL     1     -35.100  15.642  -6.052  1.00 20.00     0.093 C 
HETATM    5  C5  UNL     1     -35.404  14.277  -5.443  1.00 20.00     0.103 C 
HETATM    6  N6  UNL     1     -37.980  13.963  -5.023  1.00 20.00    -0.197 NA
HETATM    7  S7  UNL     1     -33.342  15.934  -5.706  1.00 20.00    -0.168 SA
ENDROOT
TORSDOF 0
ENDMDL
MODEL 4
REMARK VINA RESULT:      -3.3     12.112     12.596
REMARK  0 active torsions:
REMARK  status: ('A' for Active; 'I' for Inactive)
ROOT
HETATM    1  C1  UNL     1     -35.240  13.796  -4.961  1.00 20.00     0.064 C 
HETATM    2  C2  UNL     1     -34.679  15.584  -3.341  1.00 20.00     0.030 C 
HETATM    3  C3  UNL     1     -33.778  16.804  -3.230  1.00 20.00     0.075 C 
HETATM    4  C4  UNL     1     -34.334  15.969  -5.722  1.00 20.00     0.093 C 
HETATM    5  C5  UNL     1     -34.309  14.887  -4.648  1.00 20.00     0.103 C 
HETATM    6  N6  UNL     1     -35.977  12.934  -5.209  1.00 20.00    -0.197 NA
HETATM    7  S7  UNL     1     -33.654  17.449  -4.920  1.00 20.00    -0.168 SA
ENDROOT
TORSDOF 0
ENDMDL
MODEL 5
REMARK VINA RESULT:      -3.1     12.088     12.272
REMARK  0 active torsions:
REMARK  status: ('A' for Active; 'I' for Inactive)
ROOT
HETATM    1  C1  UNL     1     -32.101  18.392  -0.371  1.00 20.00     0.064 C 
HETATM    2  C2  UNL     1     -34.491  17.923   0.085  1.00 20.00     0.030 C 
HETATM    3  C3  UNL     1     -35.779  17.643  -0.672  1.00 20.00     0.075 C 
HETATM    4  C4  UNL     1     -33.498  17.174  -2.010  1.00 20.00     0.093 C 
HETATM    5  C5  UNL     1     -33.440  18.282  -0.963  1.00 20.00     0.103 C 
HETATM    6  N6  UNL     1     -31.043  18.479   0.097  1.00 20.00    -0.197 NA
HETATM    7  S7  UNL     1     -35.260  16.767  -2.172  1.00 20.00    -0.168 SA
ENDROOT
TORSDOF 0
ENDMDL
MODEL 6
REMARK VINA RESULT:      -3.1     12.002     12.685
REMARK  0 active torsions:
REMARK  status: ('A' for Active; 'I' for Inactive)
ROOT
HETATM    1  C1  UNL     1     -34.265  14.569  -4.125  1.00 20.00     0.064 C 
HETATM    2  C2  UNL     1     -34.244  16.510  -2.585  1.00 20.00     0.030 C 
HETATM    3  C3  UNL     1     -33.608  17.886  -2.466  1.00 20.00     0.075 C 
HETATM    4  C4  UNL     1     -33.703  16.838  -4.938  1.00 20.00     0.093 C 
HETATM    5  C5  UNL     1     -33.599  15.836  -3.793  1.00 20.00     0.103 C 
HETATM    6  N6  UNL     1     -34.791  13.569  -4.388  1.00 20.00    -0.197 NA
HETATM    7  S7  UNL     1     -33.412  18.460  -4.175  1.00 20.00    -0.168 SA
ENDROOT
TORSDOF 0
ENDMDL
MODEL 7
REMARK VINA RESULT:      -3.0     12.099     12.428
REMARK  0 active torsions:
REMARK  status: ('A' for Active; 'I' for Inactive)
ROOT
HETATM    1  C1  UNL     1     -33.035  17.779  -1.659  1.00 20.00     0.064 C 
HETATM    2  C2  UNL     1     -33.632  16.107  -3.387  1.00 20.00     0.030 C 
HETATM    3  C3  UNL     1     -34.838  15.310  -3.857  1.00 20.00     0.075 C 
HETATM    4  C4  UNL     1     -35.369  17.530  -2.441  1.00 20.00     0.093 C 
HETATM    5  C5  UNL     1     -34.057  16.826  -2.109  1.00 20.00     0.103 C 
HETATM    6  N6  UNL     1     -32.227  18.532  -1.303  1.00 20.00    -0.197 NA
HETATM    7  S7  UNL     1     -36.265  16.378  -3.521  1.00 20.00    -0.168 SA
ENDROOT
TORSDOF 0
ENDMDL
MODEL 8
REMARK VINA RESULT:      -3.0      2.953      3.502
REMARK  0 active torsions:
REMARK  status: ('A' for Active; 'I' for Inactive)
ROOT
HETATM    1  C1  UNL     1     -34.353   6.034   3.809  1.00 20.00     0.064 C 
HETATM    2  C2  UNL     1     -32.572   7.692   4.272  1.00 20.00     0.030 C 
HETATM    3  C3  UNL     1     -31.427   8.391   3.555  1.00 20.00     0.075 C 
HETATM    4  C4  UNL     1     -33.363   7.384   1.988  1.00 20.00     0.093 C 
HETATM    5  C5  UNL     1     -33.120   6.649   3.302  1.00 20.00     0.103 C 
HETATM    6  N6  UNL     1     -35.328   5.548   4.209  1.00 20.00    -0.197 NA
HETATM    7  S7  UNL     1     -31.980   8.551   1.836  1.00 20.00    -0.168 SA
ENDROOT
TORSDOF 0
ENDMDL
MODEL 9
REMARK VINA RESULT:      -3.0     11.800     12.783
REMARK  0 active torsions:
REMARK  status: ('A' for Active; 'I' for Inactive)
ROOT
HETATM    1  C1  UNL     1     -34.973  13.531  -6.280  1.00 20.00     0.064 C 
HETATM    2  C2  UNL     1     -33.571  15.564  -6.084  1.00 20.00     0.030 C 
HETATM    3  C3  UNL     1     -33.405  16.771  -5.174  1.00 20.00     0.075 C 
HETATM    4  C4  UNL     1     -34.631  14.638  -4.095  1.00 20.00     0.093 C 
HETATM    5  C5  UNL     1     -34.813  14.821  -5.598  1.00 20.00     0.103 C 
HETATM    6  N6  UNL     1     -35.099  12.511  -6.819  1.00 20.00    -0.197 NA
HETATM    7  S7  UNL     1     -33.855  16.177  -3.521  1.00 20.00    -0.168 SA
ENDROOT
TORSDOF 0
ENDMDL
