MODEL 1
REMARK VINA RESULT:      -5.5      0.000      0.000
REMARK  2 active torsions:
REMARK  status: ('A' for Active; 'I' for Inactive)
REMARK    1  A    between atoms: C8_8  and  C9_9 
REMARK    2  A    between atoms: C8_8  and  N10_10 
ROOT
HETATM    1  C1  UNL     1     -33.664   6.543   5.187  1.00 20.00     0.039 C 
HETATM    2  C2  UNL     1     -33.329   5.333   3.013  1.00 20.00     0.039 C 
HETATM    3  C3  UNL     1     -33.146   7.815   4.508  1.00 20.00     0.273 C 
HETATM    4  C4  UNL     1     -32.823   6.646   2.409  1.00 20.00     0.273 C 
HETATM    5  C5  UNL     1     -34.301   5.547   4.193  1.00 20.00    -0.044 C 
HETATM    6  C6  UNL     1     -34.544   4.204   4.904  1.00 20.00     0.015 C 
HETATM    7  C7  UNL     1     -35.659   6.073   3.691  1.00 20.00     0.015 C 
HETATM    8  N10 UNL     1     -32.201   7.496   3.432  1.00 20.00     0.089 N 
ENDROOT
BRANCH   8   9
HETATM    9  C8  UNL     1     -31.675   8.721   2.830  1.00 20.00     0.287 C 
BRANCH   9  10
HETATM   10  C9  UNL     1     -32.035   8.851   1.360  1.00 20.00     0.144 C 
HETATM   11 CL11 UNL     1     -32.671  10.473   0.991  1.00 20.00    -0.129 Cl
ENDBRANCH   9  10
ENDBRANCH   8   9
TORSDOF 2
ENDMDL
MODEL 2
REMARK VINA RESULT:      -4.0      2.573      4.599
REMARK  2 active torsions:
REMARK  status: ('A' for Active; 'I' for Inactive)
REMARK    1  A    between atoms: C8_8  and  C9_9 
REMARK    2  A    between atoms: C8_8  and  N10_10 
ROOT
HETATM    1  C1  UNL     1     -33.225   7.421   1.862  1.00 20.00     0.039 C 
HETATM    2  C2  UNL     1     -31.309   8.431   3.131  1.00 20.00     0.039 C 
HETATM    3  C3  UNL     1     -33.974   7.279   3.191  1.00 20.00     0.273 C 
HETATM    4  C4  UNL     1     -32.123   8.255   4.417  1.00 20.00     0.273 C 
HETATM    5  C5  UNL     1     -32.192   8.568   1.872  1.00 20.00    -0.044 C 
HETATM    6  C6  UNL     1     -31.308   8.469   0.616  1.00 20.00     0.015 C 
HETATM    7  C7  UNL     1     -32.899   9.937   1.850  1.00 20.00     0.015 C 
HETATM    8  N10 UNL     1     -33.040   7.114   4.312  1.00 20.00     0.089 N 
ENDROOT
BRANCH   8   9
HETATM    9  C8  UNL     1     -33.771   6.927   5.565  1.00 20.00     0.287 C 
BRANCH   9  10
HETATM   10  C9  UNL     1     -34.821   5.833   5.470  1.00 20.00     0.144 C 
HETATM   11 CL11 UNL     1     -34.125   4.322   4.835  1.00 20.00    -0.129 Cl
ENDBRANCH   9  10
ENDBRANCH   8   9
TORSDOF 2
ENDMDL
MODEL 3
REMARK VINA RESULT:      -3.9     11.265     12.252
REMARK  2 active torsions:
REMARK  status: ('A' for Active; 'I' for Inactive)
REMARK    1  A    between atoms: C8_8  and  C9_9 
REMARK    2  A    between atoms: C8_8  and  N10_10 
ROOT
HETATM    1  C1  UNL     1     -34.977  14.183  -5.065  1.00 20.00     0.039 C 
HETATM    2  C2  UNL     1     -33.328  15.681  -6.222  1.00 20.00     0.039 C 
HETATM    3  C3  UNL     1     -34.987  15.171  -3.894  1.00 20.00     0.273 C 
HETATM    4  C4  UNL     1     -33.395  16.618  -5.012  1.00 20.00     0.273 C 
HETATM    5  C5  UNL     1     -34.613  14.847  -6.410  1.00 20.00    -0.044 C 
HETATM    6  C6  UNL     1     -34.363  13.755  -7.466  1.00 20.00     0.015 C 
HETATM    7  C7  UNL     1     -35.769  15.735  -6.908  1.00 20.00     0.015 C 
HETATM    8  N10 UNL     1     -33.705  15.876  -3.783  1.00 20.00     0.089 N 
ENDROOT
BRANCH   8   9
HETATM    9  C8  UNL     1     -33.713  16.776  -2.629  1.00 20.00     0.287 C 
BRANCH   9  10
HETATM   10  C9  UNL     1     -35.034  16.752  -1.880  1.00 20.00     0.144 C 
HETATM   11 CL11 UNL     1     -34.888  17.538  -0.289  1.00 20.00    -0.129 Cl
ENDBRANCH   9  10
ENDBRANCH   8   9
TORSDOF 2
ENDMDL
MODEL 4
REMARK VINA RESULT:      -3.9     11.388     12.169
REMARK  2 active torsions:
REMARK  status: ('A' for Active; 'I' for Inactive)
REMARK    1  A    between atoms: C8_8  and  C9_9 
REMARK    2  A    between atoms: C8_8  and  N10_10 
ROOT
HETATM    1  C1  UNL     1     -33.329  15.332  -3.850  1.00 20.00     0.039 C 
HETATM    2  C2  UNL     1     -35.571  16.175  -3.098  1.00 20.00     0.039 C 
HETATM    3  C3  UNL     1     -34.046  14.524  -4.937  1.00 20.00     0.273 C 
HETATM    4  C4  UNL     1     -36.211  15.339  -4.211  1.00 20.00     0.273 C 
HETATM    5  C5  UNL     1     -34.117  16.586  -3.414  1.00 20.00    -0.044 C 
HETATM    6  C6  UNL     1     -33.469  17.180  -2.150  1.00 20.00     0.015 C 
HETATM    7  C7  UNL     1     -34.083  17.661  -4.517  1.00 20.00     0.015 C 
HETATM    8  N10 UNL     1     -35.402  14.152  -4.515  1.00 20.00     0.089 N 
ENDROOT
BRANCH   8   9
HETATM    9  C8  UNL     1     -36.052  13.337  -5.540  1.00 20.00     0.287 C 
BRANCH   9  10
HETATM   10  C9  UNL     1     -35.436  13.528  -6.915  1.00 20.00     0.144 C 
HETATM   11 CL11 UNL     1     -36.419  14.623  -7.918  1.00 20.00    -0.129 Cl
ENDBRANCH   9  10
ENDBRANCH   8   9
TORSDOF 2
ENDMDL
MODEL 5
REMARK VINA RESULT:      -3.9     11.129     12.293
REMARK  2 active torsions:
REMARK  status: ('A' for Active; 'I' for Inactive)
REMARK    1  A    between atoms: C8_8  and  C9_9 
REMARK    2  A    between atoms: C8_8  and  N10_10 
ROOT
HETATM    1  C1  UNL     1     -35.225  17.075  -4.618  1.00 20.00     0.039 C 
HETATM    2  C2  UNL     1     -33.535  15.499  -3.638  1.00 20.00     0.039 C 
HETATM    3  C3  UNL     1     -35.989  15.858  -5.148  1.00 20.00     0.273 C 
HETATM    4  C4  UNL     1     -34.358  14.335  -4.200  1.00 20.00     0.273 C 
HETATM    5  C5  UNL     1     -34.383  16.759  -3.363  1.00 20.00    -0.044 C 
HETATM    6  C6  UNL     1     -33.451  17.946  -3.063  1.00 20.00     0.015 C 
HETATM    7  C7  UNL     1     -35.292  16.546  -2.138  1.00 20.00     0.015 C 
HETATM    8  N10 UNL     1     -35.082  14.735  -5.413  1.00 20.00     0.089 N 
ENDROOT
BRANCH   8   9
HETATM    9  C8  UNL     1     -35.820  13.600  -5.967  1.00 20.00     0.287 C 
BRANCH   9  10
HETATM   10  C9  UNL     1     -35.185  13.055  -7.236  1.00 20.00     0.144 C 
HETATM   11 CL11 UNL     1     -34.001  14.202  -7.910  1.00 20.00    -0.129 Cl
ENDBRANCH   9  10
ENDBRANCH   8   9
TORSDOF 2
ENDMDL
MODEL 6
REMARK VINA RESULT:      -3.8     11.303     12.129
REMARK  2 active torsions:
REMARK  status: ('A' for Active; 'I' for Inactive)
REMARK    1  A    between atoms: C8_8  and  C9_9 
REMARK    2  A    between atoms: C8_8  and  N10_10 
ROOT
HETATM    1  C1  UNL     1     -33.518  14.422  -5.013  1.00 20.00     0.039 C 
HETATM    2  C2  UNL     1     -35.157  15.825  -6.296  1.00 20.00     0.039 C 
HETATM    3  C3  UNL     1     -33.592  15.449  -3.879  1.00 20.00     0.273 C 
HETATM    4  C4  UNL     1     -35.176  16.804  -5.118  1.00 20.00     0.273 C 
HETATM    5  C5  UNL     1     -34.798  14.384  -5.876  1.00 20.00    -0.044 C 
HETATM    6  C6  UNL     1     -34.538  13.535  -7.134  1.00 20.00     0.015 C 
HETATM    7  C7  UNL     1     -35.959  13.738  -5.098  1.00 20.00     0.015 C 
HETATM    8  N10 UNL     1     -33.898  16.789  -4.395  1.00 20.00     0.089 N 
ENDROOT
BRANCH   8   9
HETATM    9  C8  UNL     1     -33.913  17.766  -3.307  1.00 20.00     0.287 C 
BRANCH   9  10
HETATM   10  C9  UNL     1     -33.734  17.123  -1.943  1.00 20.00     0.144 C 
HETATM   11 CL11 UNL     1     -35.297  16.918  -1.115  1.00 20.00    -0.129 Cl
ENDBRANCH   9  10
ENDBRANCH   8   9
TORSDOF 2
ENDMDL
MODEL 7
REMARK VINA RESULT:      -3.8      1.213      2.027
REMARK  2 active torsions:
REMARK  status: ('A' for Active; 'I' for Inactive)
REMARK    1  A    between atoms: C8_8  and  C9_9 
REMARK    2  A    between atoms: C8_8  and  N10_10 
ROOT
HETATM    1  C1  UNL     1     -34.524   6.308   2.480  1.00 20.00     0.039 C 
HETATM    2  C2  UNL     1     -33.282   6.946   4.566  1.00 20.00     0.039 C 
HETATM    3  C3  UNL     1     -33.471   7.073   1.671  1.00 20.00     0.273 C 
HETATM    4  C4  UNL     1     -32.271   7.689   3.686  1.00 20.00     0.273 C 
HETATM    5  C5  UNL     1     -33.984   5.786   3.829  1.00 20.00    -0.044 C 
HETATM    6  C6  UNL     1     -35.159   5.275   4.683  1.00 20.00     0.015 C 
HETATM    7  C7  UNL     1     -33.011   4.613   3.608  1.00 20.00     0.015 C 
HETATM    8  N10 UNL     1     -32.900   8.177   2.452  1.00 20.00     0.089 N 
ENDROOT
BRANCH   8   9
HETATM    9  C8  UNL     1     -31.937   8.929   1.648  1.00 20.00     0.287 C 
BRANCH   9  10
HETATM   10  C9  UNL     1     -32.575  10.092   0.910  1.00 20.00     0.144 C 
HETATM   11 CL11 UNL     1     -33.232   9.577  -0.663  1.00 20.00    -0.129 Cl
ENDBRANCH   9  10
ENDBRANCH   8   9
TORSDOF 2
ENDMDL
MODEL 8
REMARK VINA RESULT:      -3.7     11.418     12.357
REMARK  2 active torsions:
REMARK  status: ('A' for Active; 'I' for Inactive)
REMARK    1  A    between atoms: C8_8  and  C9_9 
REMARK    2  A    between atoms: C8_8  and  N10_10 
ROOT
HETATM    1  C1  UNL     1     -35.132  18.027  -3.573  1.00 20.00     0.039 C 
HETATM    2  C2  UNL     1     -33.744  15.966  -3.213  1.00 20.00     0.039 C 
HETATM    3  C3  UNL     1     -36.143  17.161  -4.331  1.00 20.00     0.273 C 
HETATM    4  C4  UNL     1     -34.803  15.170  -3.982  1.00 20.00     0.273 C 
HETATM    5  C5  UNL     1     -34.315  17.229  -2.534  1.00 20.00    -0.044 C 
HETATM    6  C6  UNL     1     -33.155  18.101  -2.020  1.00 20.00     0.015 C 
HETATM    7  C7  UNL     1     -35.195  16.848  -1.328  1.00 20.00     0.015 C 
HETATM    8  N10 UNL     1     -35.487  16.014  -4.971  1.00 20.00     0.089 N 
ENDROOT
BRANCH   8   9
HETATM    9  C8  UNL     1     -36.456  15.228  -5.733  1.00 20.00     0.287 C 
BRANCH   9  10
HETATM   10  C9  UNL     1     -36.235  13.732  -5.591  1.00 20.00     0.144 C 
HETATM   11 CL11 UNL     1     -35.268  13.091  -6.942  1.00 20.00    -0.129 Cl
ENDBRANCH   9  10
ENDBRANCH   8   9
TORSDOF 2
ENDMDL
MODEL 9
REMARK VINA RESULT:      -3.7     11.339     12.244
REMARK  2 active torsions:
REMARK  status: ('A' for Active; 'I' for Inactive)
REMARK    1  A    between atoms: C8_8  and  C9_9 
REMARK    2  A    between atoms: C8_8  and  N10_10 
ROOT
HETATM    1  C1  UNL     1     -35.866  15.232  -5.874  1.00 20.00     0.039 C 
HETATM    2  C2  UNL     1     -33.645  14.457  -4.998  1.00 20.00     0.039 C 
HETATM    3  C3  UNL     1     -35.948  16.199  -4.689  1.00 20.00     0.273 C 
HETATM    4  C4  UNL     1     -33.802  15.451  -3.842  1.00 20.00     0.273 C 
HETATM    5  C5  UNL     1     -34.414  14.881  -6.267  1.00 20.00    -0.044 C 
HETATM    6  C6  UNL     1     -34.425  13.714  -7.271  1.00 20.00     0.015 C 
HETATM    7  C7  UNL     1     -33.729  16.084  -6.942  1.00 20.00     0.015 C 
HETATM    8  N10 UNL     1     -35.218  15.678  -3.527  1.00 20.00     0.089 N 
ENDROOT
BRANCH   8   9
HETATM    9  C8  UNL     1     -35.351  16.587  -2.389  1.00 20.00     0.287 C 
BRANCH   9  10
HETATM   10  C9  UNL     1     -34.007  17.030  -1.836  1.00 20.00     0.144 C 
HETATM   11 CL11 UNL     1     -34.192  17.845  -0.263  1.00 20.00    -0.129 Cl
ENDBRANCH   9  10
ENDBRANCH   8   9
TORSDOF 2
ENDMDL
