MODEL 1
REMARK VINA RESULT:      -5.2      0.000      0.000
REMARK  1 active torsions:
REMARK  status: ('A' for Active; 'I' for Inactive)
REMARK    1  A    between atoms: C2_2  and  C8_8 
ROOT
HETATM    1  C1  UNL     1     -31.861   8.043   3.531  1.00 20.00     0.203 C 
HETATM    2  C2  UNL     1     -32.734   8.326   2.306  1.00 20.00     0.244 C 
HETATM    3  C3  UNL     1     -33.864   6.234   2.939  1.00 20.00     0.245 C 
HETATM    4  C4  UNL     1     -33.880   6.987   4.285  1.00 20.00     0.150 C 
HETATM    5  C5  UNL     1     -33.035   4.943   2.966  1.00 20.00     0.045 C 
HETATM    6  C6  UNL     1     -34.371   6.137   5.452  1.00 20.00     0.042 C 
HETATM    7  N9  UNL     1     -33.392   7.100   1.844  1.00 20.00     0.097 N 
HETATM    8  O10 UNL     1     -32.583   7.481   4.627  1.00 20.00    -0.382 OA
HETATM    9  H27 UNL     1     -34.190   7.347   1.236  1.00 20.00     0.317 HD
ENDROOT
BRANCH   2  10
HETATM   10  C8  UNL     1     -31.908   8.930   1.173  1.00 20.00     0.033 C 
HETATM   11  C7  UNL     1     -32.528  10.182   0.643  1.00 20.00     0.007 C 
ENDBRANCH   2  10
TORSDOF 1
ENDMDL
MODEL 2
REMARK VINA RESULT:      -4.1     10.638     11.725
REMARK  1 active torsions:
REMARK  status: ('A' for Active; 'I' for Inactive)
REMARK    1  A    between atoms: C2_2  and  C8_8 
ROOT
HETATM    1  C1  UNL     1     -33.360  14.668  -4.176  1.00 20.00     0.203 C 
HETATM    2  C2  UNL     1     -34.483  15.627  -3.774  1.00 20.00     0.244 C 
HETATM    3  C3  UNL     1     -34.980  15.658  -6.184  1.00 20.00     0.245 C 
HETATM    4  C4  UNL     1     -34.919  14.139  -5.924  1.00 20.00     0.150 C 
HETATM    5  C5  UNL     1     -33.892  16.164  -7.141  1.00 20.00     0.045 C 
HETATM    6  C6  UNL     1     -34.985  13.300  -7.195  1.00 20.00     0.042 C 
HETATM    7  N9  UNL     1     -34.922  16.422  -4.925  1.00 20.00     0.097 N 
HETATM    8  O10 UNL     1     -33.725  13.773  -5.227  1.00 20.00    -0.382 OA
HETATM    9  H27 UNL     1     -35.853  16.826  -4.727  1.00 20.00     0.317 HD
ENDROOT
BRANCH   2  10
HETATM   10  C8  UNL     1     -34.035  16.552  -2.645  1.00 20.00     0.033 C 
HETATM   11  C7  UNL     1     -35.125  16.776  -1.648  1.00 20.00     0.007 C 
ENDBRANCH   2  10
TORSDOF 1
ENDMDL
MODEL 3
REMARK VINA RESULT:      -4.0     10.917     11.576
REMARK  1 active torsions:
REMARK  status: ('A' for Active; 'I' for Inactive)
REMARK    1  A    between atoms: C2_2  and  C8_8 
ROOT
HETATM    1  C1  UNL     1     -33.854  16.546  -5.184  1.00 20.00     0.203 C 
HETATM    2  C2  UNL     1     -33.667  15.783  -3.870  1.00 20.00     0.244 C 
HETATM    3  C3  UNL     1     -35.147  14.118  -4.914  1.00 20.00     0.245 C 
HETATM    4  C4  UNL     1     -34.103  14.314  -6.032  1.00 20.00     0.150 C 
HETATM    5  C5  UNL     1     -36.563  14.556  -5.311  1.00 20.00     0.045 C 
HETATM    6  C6  UNL     1     -34.465  13.609  -7.335  1.00 20.00     0.042 C 
HETATM    7  N9  UNL     1     -34.746  14.810  -3.676  1.00 20.00     0.097 N 
HETATM    8  O10 UNL     1     -33.906  15.698  -6.332  1.00 20.00    -0.382 OA
HETATM    9  H27 UNL     1     -34.455  14.110  -2.973  1.00 20.00     0.317 HD
ENDROOT
BRANCH   2  10
HETATM   10  C8  UNL     1     -33.614  16.742  -2.683  1.00 20.00     0.033 C 
HETATM   11  C7  UNL     1     -34.892  16.734  -1.909  1.00 20.00     0.007 C 
ENDBRANCH   2  10
TORSDOF 1
ENDMDL
MODEL 4
REMARK VINA RESULT:      -3.9      1.516      4.238
REMARK  1 active torsions:
REMARK  status: ('A' for Active; 'I' for Inactive)
REMARK    1  A    between atoms: C2_2  and  C8_8 
ROOT
HETATM    1  C1  UNL     1     -33.468   5.946   2.911  1.00 20.00     0.203 C 
HETATM    2  C2  UNL     1     -34.060   6.673   4.121  1.00 20.00     0.244 C 
HETATM    3  C3  UNL     1     -32.382   8.394   3.593  1.00 20.00     0.245 C 
HETATM    4  C4  UNL     1     -33.041   8.202   2.211  1.00 20.00     0.150 C 
HETATM    5  C5  UNL     1     -30.901   7.996   3.629  1.00 20.00     0.045 C 
HETATM    6  C6  UNL     1     -32.326   8.945   1.087  1.00 20.00     0.042 C 
HETATM    7  N9  UNL     1     -33.115   7.665   4.644  1.00 20.00     0.097 N 
HETATM    8  O10 UNL     1     -33.101   6.821   1.844  1.00 20.00    -0.382 OA
HETATM    9  H27 UNL     1     -33.621   8.341   5.239  1.00 20.00     0.317 HD
ENDROOT
BRANCH   2  10
HETATM   10  C8  UNL     1     -34.437   5.686   5.223  1.00 20.00     0.033 C 
HETATM   11  C7  UNL     1     -34.483   4.281   4.715  1.00 20.00     0.007 C 
ENDBRANCH   2  10
TORSDOF 1
ENDMDL
MODEL 5
REMARK VINA RESULT:      -3.8     10.744     11.467
REMARK  1 active torsions:
REMARK  status: ('A' for Active; 'I' for Inactive)
REMARK    1  A    between atoms: C2_2  and  C8_8 
ROOT
HETATM    1  C1  UNL     1     -36.147  15.281  -4.249  1.00 20.00     0.203 C 
HETATM    2  C2  UNL     1     -35.220  14.173  -4.752  1.00 20.00     0.244 C 
HETATM    3  C3  UNL     1     -33.455  15.864  -4.471  1.00 20.00     0.245 C 
HETATM    4  C4  UNL     1     -34.148  15.941  -3.095  1.00 20.00     0.150 C 
HETATM    5  C5  UNL     1     -33.558  17.160  -5.286  1.00 20.00     0.045 C 
HETATM    6  C6  UNL     1     -33.645  17.087  -2.223  1.00 20.00     0.042 C 
HETATM    7  N9  UNL     1     -33.969  14.738  -5.270  1.00 20.00     0.097 N 
HETATM    8  O10 UNL     1     -35.564  16.091  -3.227  1.00 20.00    -0.382 OA
HETATM    9  H27 UNL     1     -33.251  13.996  -5.316  1.00 20.00     0.317 HD
ENDROOT
BRANCH   2  10
HETATM   10  C8  UNL     1     -35.900  13.340  -5.836  1.00 20.00     0.033 C 
HETATM   11  C7  UNL     1     -35.068  13.259  -7.075  1.00 20.00     0.007 C 
ENDBRANCH   2  10
TORSDOF 1
ENDMDL
MODEL 6
REMARK VINA RESULT:      -3.7     10.501     11.570
REMARK  1 active torsions:
REMARK  status: ('A' for Active; 'I' for Inactive)
REMARK    1  A    between atoms: C2_2  and  C8_8 
ROOT
HETATM    1  C1  UNL     1     -35.376  16.074  -5.995  1.00 20.00     0.203 C 
HETATM    2  C2  UNL     1     -36.057  14.719  -5.793  1.00 20.00     0.244 C 
HETATM    3  C3  UNL     1     -34.395  14.430  -4.002  1.00 20.00     0.245 C 
HETATM    4  C4  UNL     1     -34.965  15.818  -3.644  1.00 20.00     0.150 C 
HETATM    5  C5  UNL     1     -32.909  14.453  -4.382  1.00 20.00     0.045 C 
HETATM    6  C6  UNL     1     -34.203  16.519  -2.524  1.00 20.00     0.042 C 
HETATM    7  N9  UNL     1     -35.171  13.793  -5.081  1.00 20.00     0.097 N 
HETATM    8  O10 UNL     1     -34.967  16.693  -4.775  1.00 20.00    -0.382 OA
HETATM    9  H27 UNL     1     -35.729  13.017  -4.688  1.00 20.00     0.317 HD
ENDROOT
BRANCH   2  10
HETATM   10  C8  UNL     1     -36.475  14.111  -7.131  1.00 20.00     0.033 C 
HETATM   11  C7  UNL     1     -35.365  13.325  -7.751  1.00 20.00     0.007 C 
ENDBRANCH   2  10
TORSDOF 1
ENDMDL
MODEL 7
REMARK VINA RESULT:      -3.7     10.673     11.760
REMARK  1 active torsions:
REMARK  status: ('A' for Active; 'I' for Inactive)
REMARK    1  A    between atoms: C2_2  and  C8_8 
ROOT
HETATM    1  C1  UNL     1     -35.953  15.729  -3.864  1.00 20.00     0.203 C 
HETATM    2  C2  UNL     1     -35.069  16.735  -3.124  1.00 20.00     0.244 C 
HETATM    3  C3  UNL     1     -33.282  15.842  -4.562  1.00 20.00     0.245 C 
HETATM    4  C4  UNL     1     -34.366  16.156  -5.613  1.00 20.00     0.150 C 
HETATM    5  C5  UNL     1     -32.943  14.350  -4.453  1.00 20.00     0.045 C 
HETATM    6  C6  UNL     1     -34.024  15.649  -7.010  1.00 20.00     0.042 C 
HETATM    7  N9  UNL     1     -33.655  16.361  -3.234  1.00 20.00     0.097 N 
HETATM    8  O10 UNL     1     -35.630  15.596  -5.249  1.00 20.00    -0.382 OA
HETATM    9  H27 UNL     1     -33.065  17.179  -3.008  1.00 20.00     0.317 HD
ENDROOT
BRANCH   2  10
HETATM   10  C8  UNL     1     -35.466  16.836  -1.653  1.00 20.00     0.033 C 
HETATM   11  C7  UNL     1     -34.390  17.469  -0.832  1.00 20.00     0.007 C 
ENDBRANCH   2  10
TORSDOF 1
ENDMDL
MODEL 8
REMARK VINA RESULT:      -3.7      1.624      2.192
REMARK  1 active torsions:
REMARK  status: ('A' for Active; 'I' for Inactive)
REMARK    1  A    between atoms: C2_2  and  C8_8 
ROOT
HETATM    1  C1  UNL     1     -33.957   7.398   2.294  1.00 20.00     0.203 C 
HETATM    2  C2  UNL     1     -32.480   7.619   2.627  1.00 20.00     0.244 C 
HETATM    3  C3  UNL     1     -33.071   6.599   4.787  1.00 20.00     0.245 C 
HETATM    4  C4  UNL     1     -33.657   5.560   3.809  1.00 20.00     0.150 C 
HETATM    5  C5  UNL     1     -34.130   7.296   5.651  1.00 20.00     0.045 C 
HETATM    6  C6  UNL     1     -34.490   4.481   4.493  1.00 20.00     0.042 C 
HETATM    7  N9  UNL     1     -32.268   7.611   4.078  1.00 20.00     0.097 N 
HETATM    8  O10 UNL     1     -34.482   6.177   2.817  1.00 20.00    -0.382 OA
HETATM    9  H27 UNL     1     -31.266   7.454   4.278  1.00 20.00     0.317 HD
ENDROOT
BRANCH   2  10
HETATM   10  C8  UNL     1     -31.976   8.934   2.037  1.00 20.00     0.033 C 
HETATM   11  C7  UNL     1     -32.472   9.141   0.643  1.00 20.00     0.007 C 
ENDBRANCH   2  10
TORSDOF 1
ENDMDL
MODEL 9
REMARK VINA RESULT:      -3.7     10.883     11.439
REMARK  1 active torsions:
REMARK  status: ('A' for Active; 'I' for Inactive)
REMARK    1  A    between atoms: C2_2  and  C8_8 
ROOT
HETATM    1  C1  UNL     1     -33.473  16.064  -4.527  1.00 20.00     0.203 C 
HETATM    2  C2  UNL     1     -34.051  16.036  -3.110  1.00 20.00     0.244 C 
HETATM    3  C3  UNL     1     -36.125  15.344  -4.239  1.00 20.00     0.245 C 
HETATM    4  C4  UNL     1     -35.119  14.348  -4.852  1.00 20.00     0.150 C 
HETATM    5  C5  UNL     1     -36.745  16.302  -5.265  1.00 20.00     0.045 C 
HETATM    6  C6  UNL     1     -35.704  13.510  -5.984  1.00 20.00     0.042 C 
HETATM    7  N9  UNL     1     -35.515  16.121  -3.146  1.00 20.00     0.097 N 
HETATM    8  O10 UNL     1     -33.963  15.016  -5.363  1.00 20.00    -0.382 OA
HETATM    9  H27 UNL     1     -35.899  15.799  -2.242  1.00 20.00     0.317 HD
ENDROOT
BRANCH   2  10
HETATM   10  C8  UNL     1     -33.487  17.175  -2.265  1.00 20.00     0.033 C 
HETATM   11  C7  UNL     1     -34.304  17.410  -1.036  1.00 20.00     0.007 C 
ENDBRANCH   2  10
TORSDOF 1
ENDMDL
