MODEL 1
REMARK VINA RESULT:      -4.3      0.000      0.000
REMARK  1 active torsions:
REMARK  status: ('A' for Active; 'I' for Inactive)
REMARK    1  A    between atoms: C1_1  and  C2_2 
ROOT
HETATM    1  C1  UNL     1     -34.594   5.816   4.122  1.00 20.00     0.417 C 
HETATM    2  F3  UNL     1     -35.859   5.931   3.645  1.00 20.00    -0.208 F 
HETATM    3  F4  UNL     1     -34.116   4.624   3.694  1.00 20.00    -0.208 F 
ENDROOT
BRANCH   1   4
HETATM    4  C2  UNL     1     -34.619   5.845   5.624  1.00 20.00     0.417 C 
HETATM    5  F5  UNL     1     -34.146   4.674   6.113  1.00 20.00    -0.208 F 
HETATM    6  F6  UNL     1     -33.796   6.824   6.074  1.00 20.00    -0.208 F 
ENDBRANCH   1   4
TORSDOF 1
ENDMDL
MODEL 2
REMARK VINA RESULT:      -4.3      1.293      1.983
REMARK  1 active torsions:
REMARK  status: ('A' for Active; 'I' for Inactive)
REMARK    1  A    between atoms: C1_1  and  C2_2 
ROOT
HETATM    1  C1  UNL     1     -34.599   5.558   4.714  1.00 20.00     0.417 C 
HETATM    2  F3  UNL     1     -35.727   5.798   4.000  1.00 20.00    -0.208 F 
HETATM    3  F4  UNL     1     -34.989   5.137   5.940  1.00 20.00    -0.208 F 
ENDROOT
BRANCH   1   4
HETATM    4  C2  UNL     1     -33.805   6.828   4.841  1.00 20.00     0.417 C 
HETATM    5  F5  UNL     1     -34.133   7.676   3.838  1.00 20.00    -0.208 F 
HETATM    6  F6  UNL     1     -34.121   7.447   6.005  1.00 20.00    -0.208 F 
ENDBRANCH   1   4
TORSDOF 1
ENDMDL
MODEL 3
REMARK VINA RESULT:      -4.3      1.290      2.354
REMARK  1 active torsions:
REMARK  status: ('A' for Active; 'I' for Inactive)
REMARK    1  A    between atoms: C1_1  and  C2_2 
ROOT
HETATM    1  C1  UNL     1     -33.810   6.819   4.823  1.00 20.00     0.417 C 
HETATM    2  F3  UNL     1     -34.130   7.434   5.989  1.00 20.00    -0.208 F 
HETATM    3  F4  UNL     1     -34.137   7.670   3.824  1.00 20.00    -0.208 F 
ENDROOT
BRANCH   1   4
HETATM    4  C2  UNL     1     -34.604   5.549   4.691  1.00 20.00     0.417 C 
HETATM    5  F5  UNL     1     -34.987   5.118   5.917  1.00 20.00    -0.208 F 
HETATM    6  F6  UNL     1     -35.735   5.792   3.984  1.00 20.00    -0.208 F 
ENDBRANCH   1   4
TORSDOF 1
ENDMDL
MODEL 4
REMARK VINA RESULT:      -4.3      1.043      1.286
REMARK  1 active torsions:
REMARK  status: ('A' for Active; 'I' for Inactive)
REMARK    1  A    between atoms: C1_1  and  C2_2 
ROOT
HETATM    1  C1  UNL     1     -34.574   5.760   3.911  1.00 20.00     0.417 C 
HETATM    2  F3  UNL     1     -35.801   6.049   3.409  1.00 20.00    -0.208 F 
HETATM    3  F4  UNL     1     -33.814   5.329   2.878  1.00 20.00    -0.208 F 
ENDROOT
BRANCH   1   4
HETATM    4  C2  UNL     1     -34.698   4.671   4.941  1.00 20.00     0.417 C 
HETATM    5  F5  UNL     1     -33.959   3.600   4.566  1.00 20.00    -0.208 F 
HETATM    6  F6  UNL     1     -34.197   5.105   6.124  1.00 20.00    -0.208 F 
ENDBRANCH   1   4
TORSDOF 1
ENDMDL
MODEL 5
REMARK VINA RESULT:      -4.3      1.051      2.551
REMARK  1 active torsions:
REMARK  status: ('A' for Active; 'I' for Inactive)
REMARK    1  A    between atoms: C1_1  and  C2_2 
ROOT
HETATM    1  C1  UNL     1     -34.695   4.651   4.940  1.00 20.00     0.417 C 
HETATM    2  F3  UNL     1     -34.206   5.081   6.129  1.00 20.00    -0.208 F 
HETATM    3  F4  UNL     1     -33.947   3.588   4.564  1.00 20.00    -0.208 F 
ENDROOT
BRANCH   1   4
HETATM    4  C2  UNL     1     -34.570   5.748   3.919  1.00 20.00     0.417 C 
HETATM    5  F5  UNL     1     -33.817   5.321   2.878  1.00 20.00    -0.208 F 
HETATM    6  F6  UNL     1     -35.796   6.051   3.425  1.00 20.00    -0.208 F 
ENDBRANCH   1   4
TORSDOF 1
ENDMDL
MODEL 6
REMARK VINA RESULT:      -4.3      1.196      1.844
REMARK  1 active torsions:
REMARK  status: ('A' for Active; 'I' for Inactive)
REMARK    1  A    between atoms: C1_1  and  C2_2 
ROOT
HETATM    1  C1  UNL     1     -34.559   5.707   4.759  1.00 20.00     0.417 C 
HETATM    2  F3  UNL     1     -35.670   5.787   3.986  1.00 20.00    -0.208 F 
HETATM    3  F4  UNL     1     -34.940   5.187   5.949  1.00 20.00    -0.208 F 
ENDROOT
BRANCH   1   4
HETATM    4  C2  UNL     1     -33.990   7.084   4.964  1.00 20.00     0.417 C 
HETATM    5  F5  UNL     1     -33.633   7.244   6.261  1.00 20.00    -0.208 F 
HETATM    6  F6  UNL     1     -32.864   7.225   4.222  1.00 20.00    -0.208 F 
ENDBRANCH   1   4
TORSDOF 1
ENDMDL
MODEL 7
REMARK VINA RESULT:      -4.3      1.182      2.520
REMARK  1 active torsions:
REMARK  status: ('A' for Active; 'I' for Inactive)
REMARK    1  A    between atoms: C1_1  and  C2_2 
ROOT
HETATM    1  C1  UNL     1     -33.999   7.081   4.966  1.00 20.00     0.417 C 
HETATM    2  F3  UNL     1     -32.854   7.225   4.254  1.00 20.00    -0.208 F 
HETATM    3  F4  UNL     1     -33.677   7.235   6.271  1.00 20.00    -0.208 F 
ENDROOT
BRANCH   1   4
HETATM    4  C2  UNL     1     -34.562   5.705   4.739  1.00 20.00     0.417 C 
HETATM    5  F5  UNL     1     -34.933   5.161   5.922  1.00 20.00    -0.208 F 
HETATM    6  F6  UNL     1     -35.677   5.791   3.973  1.00 20.00    -0.208 F 
ENDBRANCH   1   4
TORSDOF 1
ENDMDL
MODEL 8
REMARK VINA RESULT:      -4.2      0.635      2.667
REMARK  1 active torsions:
REMARK  status: ('A' for Active; 'I' for Inactive)
REMARK    1  A    between atoms: C1_1  and  C2_2 
ROOT
HETATM    1  C1  UNL     1     -34.173   5.989   5.365  1.00 20.00     0.417 C 
HETATM    2  F3  UNL     1     -35.027   5.132   5.978  1.00 20.00    -0.208 F 
HETATM    3  F4  UNL     1     -34.317   7.191   5.970  1.00 20.00    -0.208 F 
ENDROOT
BRANCH   1   4
HETATM    4  C2  UNL     1     -34.536   6.105   3.911  1.00 20.00     0.417 C 
HETATM    5  F5  UNL     1     -33.890   5.150   3.200  1.00 20.00    -0.208 F 
HETATM    6  F6  UNL     1     -35.865   5.885   3.755  1.00 20.00    -0.208 F 
ENDBRANCH   1   4
TORSDOF 1
ENDMDL
MODEL 9
REMARK VINA RESULT:      -4.2      1.175      2.565
REMARK  1 active torsions:
REMARK  status: ('A' for Active; 'I' for Inactive)
REMARK    1  A    between atoms: C1_1  and  C2_2 
ROOT
HETATM    1  C1  UNL     1     -33.872   6.664   5.158  1.00 20.00     0.417 C 
HETATM    2  F3  UNL     1     -34.063   7.334   6.322  1.00 20.00    -0.208 F 
HETATM    3  F4  UNL     1     -34.082   7.547   4.154  1.00 20.00    -0.208 F 
ENDROOT
BRANCH   1   4
HETATM    4  C2  UNL     1     -34.861   5.537   5.060  1.00 20.00     0.417 C 
HETATM    5  F5  UNL     1     -35.656   5.717   3.978  1.00 20.00    -0.208 F 
HETATM    6  F6  UNL     1     -34.200   4.367   4.877  1.00 20.00    -0.208 F 
ENDBRANCH   1   4
TORSDOF 1
ENDMDL
