MODEL 1
REMARK VINA RESULT:      -5.6      0.000      0.000
REMARK  3 active torsions:
REMARK  status: ('A' for Active; 'I' for Inactive)
REMARK    1  A    between atoms: C3_3  and  C7_7 
REMARK    2  A    between atoms: C5_5  and  C6_6 
REMARK    3  A    between atoms: C6_6  and  C7_7 
ROOT
HETATM    1  C1  UNL     1     -32.278   9.047   1.256  1.00 20.00     0.012 C 
HETATM    2  C2  UNL     1     -32.368   8.297   2.189  1.00 20.00    -0.117 C 
HETATM    3  C5  UNL     1     -32.472   7.378   3.332  1.00 20.00     0.093 C 
ENDROOT
BRANCH   3   4
HETATM    4  C6  UNL     1     -33.724   6.496   3.255  1.00 20.00     0.023 C 
BRANCH   4   5
HETATM    5  C7  UNL     1     -34.467   6.342   4.593  1.00 20.00     0.044 C 
HETATM    6  C4  UNL     1     -33.783   7.163   5.685  1.00 20.00     0.017 C 
BRANCH   5   7
HETATM    7  C3  UNL     1     -34.533   4.902   5.073  1.00 20.00     0.235 C 
HETATM    8  O8  UNL     1     -34.482   3.915   4.347  1.00 20.00    -0.306 OA
ENDBRANCH   5   7
ENDBRANCH   4   5
ENDBRANCH   3   4
TORSDOF 3
ENDMDL
MODEL 2
REMARK VINA RESULT:      -5.1      0.942      1.328
REMARK  3 active torsions:
REMARK  status: ('A' for Active; 'I' for Inactive)
REMARK    1  A    between atoms: C3_3  and  C7_7 
REMARK    2  A    between atoms: C5_5  and  C6_6 
REMARK    3  A    between atoms: C6_6  and  C7_7 
ROOT
HETATM    1  C1  UNL     1     -32.549  10.310   1.159  1.00 20.00     0.012 C 
HETATM    2  C2  UNL     1     -32.483   9.180   1.561  1.00 20.00    -0.117 C 
HETATM    3  C5  UNL     1     -32.405   7.796   2.047  1.00 20.00     0.093 C 
ENDROOT
BRANCH   3   4
HETATM    4  C6  UNL     1     -32.413   7.716   3.579  1.00 20.00     0.023 C 
BRANCH   4   5
HETATM    5  C7  UNL     1     -33.752   7.251   4.176  1.00 20.00     0.044 C 
HETATM    6  C4  UNL     1     -33.695   7.274   5.703  1.00 20.00     0.017 C 
BRANCH   5   7
HETATM    7  C3  UNL     1     -34.135   5.844   3.751  1.00 20.00     0.235 C 
HETATM    8  O8  UNL     1     -34.985   5.150   4.297  1.00 20.00    -0.306 OA
ENDBRANCH   5   7
ENDBRANCH   4   5
ENDBRANCH   3   4
TORSDOF 3
ENDMDL
MODEL 3
REMARK VINA RESULT:      -5.1      1.594      1.961
REMARK  3 active torsions:
REMARK  status: ('A' for Active; 'I' for Inactive)
REMARK    1  A    between atoms: C3_3  and  C7_7 
REMARK    2  A    between atoms: C5_5  and  C6_6 
REMARK    3  A    between atoms: C6_6  and  C7_7 
ROOT
HETATM    1  C1  UNL     1     -32.143   9.411   0.674  1.00 20.00     0.012 C 
HETATM    2  C2  UNL     1     -32.160   8.740   1.670  1.00 20.00    -0.117 C 
HETATM    3  C5  UNL     1     -32.175   7.922   2.891  1.00 20.00     0.093 C 
ENDROOT
BRANCH   3   4
HETATM    4  C6  UNL     1     -33.027   6.657   2.731  1.00 20.00     0.023 C 
BRANCH   4   5
HETATM    5  C7  UNL     1     -33.725   6.203   4.025  1.00 20.00     0.044 C 
HETATM    6  C4  UNL     1     -35.195   5.884   3.757  1.00 20.00     0.017 C 
BRANCH   5   7
HETATM    7  C3  UNL     1     -33.675   7.249   5.125  1.00 20.00     0.235 C 
HETATM    8  O8  UNL     1     -34.068   7.082   6.274  1.00 20.00    -0.306 OA
ENDBRANCH   5   7
ENDBRANCH   4   5
ENDBRANCH   3   4
TORSDOF 3
ENDMDL
MODEL 4
REMARK VINA RESULT:      -5.0      2.607      4.561
REMARK  3 active torsions:
REMARK  status: ('A' for Active; 'I' for Inactive)
REMARK    1  A    between atoms: C3_3  and  C7_7 
REMARK    2  A    between atoms: C5_5  and  C6_6 
REMARK    3  A    between atoms: C6_6  and  C7_7 
ROOT
HETATM    1  C1  UNL     1     -34.748   4.981   5.567  1.00 20.00     0.012 C 
HETATM    2  C2  UNL     1     -34.308   5.969   5.045  1.00 20.00    -0.117 C 
HETATM    3  C5  UNL     1     -33.772   7.182   4.412  1.00 20.00     0.093 C 
ENDROOT
BRANCH   3   4
HETATM    4  C6  UNL     1     -33.404   6.954   2.941  1.00 20.00     0.023 C 
BRANCH   4   5
HETATM    5  C7  UNL     1     -32.155   7.725   2.479  1.00 20.00     0.044 C 
HETATM    6  C4  UNL     1     -31.419   8.323   3.677  1.00 20.00     0.017 C 
BRANCH   5   7
HETATM    7  C3  UNL     1     -32.479   8.861   1.524  1.00 20.00     0.235 C 
HETATM    8  O8  UNL     1     -31.796   9.187   0.559  1.00 20.00    -0.306 OA
ENDBRANCH   5   7
ENDBRANCH   4   5
ENDBRANCH   3   4
TORSDOF 3
ENDMDL
MODEL 5
REMARK VINA RESULT:      -4.9      1.960      3.763
REMARK  3 active torsions:
REMARK  status: ('A' for Active; 'I' for Inactive)
REMARK    1  A    between atoms: C3_3  and  C7_7 
REMARK    2  A    between atoms: C5_5  and  C6_6 
REMARK    3  A    between atoms: C6_6  and  C7_7 
ROOT
HETATM    1  C1  UNL     1     -33.616   7.602   6.347  1.00 20.00     0.012 C 
HETATM    2  C2  UNL     1     -34.078   6.669   5.750  1.00 20.00    -0.117 C 
HETATM    3  C5  UNL     1     -34.641   5.522   5.023  1.00 20.00     0.093 C 
ENDROOT
BRANCH   3   4
HETATM    4  C6  UNL     1     -35.092   5.898   3.606  1.00 20.00     0.023 C 
BRANCH   4   5
HETATM    5  C7  UNL     1     -33.949   5.961   2.579  1.00 20.00     0.044 C 
HETATM    6  C4  UNL     1     -32.966   4.811   2.798  1.00 20.00     0.017 C 
BRANCH   5   7
HETATM    7  C3  UNL     1     -33.161   7.258   2.647  1.00 20.00     0.235 C 
HETATM    8  O8  UNL     1     -32.025   7.369   3.095  1.00 20.00    -0.306 OA
ENDBRANCH   5   7
ENDBRANCH   4   5
ENDBRANCH   3   4
TORSDOF 3
ENDMDL
MODEL 6
REMARK VINA RESULT:      -4.9      1.208      3.751
REMARK  3 active torsions:
REMARK  status: ('A' for Active; 'I' for Inactive)
REMARK    1  A    between atoms: C3_3  and  C7_7 
REMARK    2  A    between atoms: C5_5  and  C6_6 
REMARK    3  A    between atoms: C6_6  and  C7_7 
ROOT
HETATM    1  C1  UNL     1     -34.799   4.766   5.717  1.00 20.00     0.012 C 
HETATM    2  C2  UNL     1     -34.320   5.867   5.692  1.00 20.00    -0.117 C 
HETATM    3  C5  UNL     1     -33.736   7.215   5.668  1.00 20.00     0.093 C 
ENDROOT
BRANCH   3   4
HETATM    4  C6  UNL     1     -33.682   7.800   4.252  1.00 20.00     0.023 C 
BRANCH   4   5
HETATM    5  C7  UNL     1     -32.632   7.143   3.340  1.00 20.00     0.044 C 
HETATM    6  C4  UNL     1     -32.021   8.175   2.393  1.00 20.00     0.017 C 
BRANCH   5   7
HETATM    7  C3  UNL     1     -33.203   6.021   2.490  1.00 20.00     0.235 C 
HETATM    8  O8  UNL     1     -32.970   4.827   2.651  1.00 20.00    -0.306 OA
ENDBRANCH   5   7
ENDBRANCH   4   5
ENDBRANCH   3   4
TORSDOF 3
ENDMDL
MODEL 7
REMARK VINA RESULT:      -4.8      2.348      4.420
REMARK  3 active torsions:
REMARK  status: ('A' for Active; 'I' for Inactive)
REMARK    1  A    between atoms: C3_3  and  C7_7 
REMARK    2  A    between atoms: C5_5  and  C6_6 
REMARK    3  A    between atoms: C6_6  and  C7_7 
ROOT
HETATM    1  C1  UNL     1     -34.675   4.749   5.618  1.00 20.00     0.012 C 
HETATM    2  C2  UNL     1     -34.333   5.900   5.597  1.00 20.00    -0.117 C 
HETATM    3  C5  UNL     1     -33.921   7.310   5.574  1.00 20.00     0.093 C 
ENDROOT
BRANCH   3   4
HETATM    4  C6  UNL     1     -32.742   7.555   4.624  1.00 20.00     0.023 C 
BRANCH   4   5
HETATM    5  C7  UNL     1     -33.109   7.478   3.133  1.00 20.00     0.044 C 
HETATM    6  C4  UNL     1     -33.015   6.039   2.630  1.00 20.00     0.017 C 
BRANCH   5   7
HETATM    7  C3  UNL     1     -32.209   8.332   2.256  1.00 20.00     0.235 C 
HETATM    8  O8  UNL     1     -32.599   9.085   1.369  1.00 20.00    -0.306 OA
ENDBRANCH   5   7
ENDBRANCH   4   5
ENDBRANCH   3   4
TORSDOF 3
ENDMDL
MODEL 8
REMARK VINA RESULT:      -4.7      1.765      2.260
REMARK  3 active torsions:
REMARK  status: ('A' for Active; 'I' for Inactive)
REMARK    1  A    between atoms: C3_3  and  C7_7 
REMARK    2  A    between atoms: C5_5  and  C6_6 
REMARK    3  A    between atoms: C6_6  and  C7_7 
ROOT
HETATM    1  C1  UNL     1     -32.186   8.335   2.357  1.00 20.00     0.012 C 
HETATM    2  C2  UNL     1     -32.813   7.311   2.400  1.00 20.00    -0.117 C 
HETATM    3  C5  UNL     1     -33.579   6.058   2.445  1.00 20.00     0.093 C 
ENDROOT
BRANCH   3   4
HETATM    4  C6  UNL     1     -34.602   6.044   3.587  1.00 20.00     0.023 C 
BRANCH   4   5
HETATM    5  C7  UNL     1     -33.989   5.806   4.978  1.00 20.00     0.044 C 
HETATM    6  C4  UNL     1     -34.778   4.739   5.736  1.00 20.00     0.017 C 
BRANCH   5   7
HETATM    7  C3  UNL     1     -33.964   7.058   5.837  1.00 20.00     0.235 C 
HETATM    8  O8  UNL     1     -33.029   7.850   5.900  1.00 20.00    -0.306 OA
ENDBRANCH   5   7
ENDBRANCH   4   5
ENDBRANCH   3   4
TORSDOF 3
ENDMDL
MODEL 9
REMARK VINA RESULT:      -4.6      2.894      4.930
REMARK  3 active torsions:
REMARK  status: ('A' for Active; 'I' for Inactive)
REMARK    1  A    between atoms: C3_3  and  C7_7 
REMARK    2  A    between atoms: C5_5  and  C6_6 
REMARK    3  A    between atoms: C6_6  and  C7_7 
ROOT
HETATM    1  C1  UNL     1     -33.670   7.181   4.990  1.00 20.00     0.012 C 
HETATM    2  C2  UNL     1     -33.363   7.330   3.839  1.00 20.00    -0.117 C 
HETATM    3  C5  UNL     1     -32.990   7.506   2.428  1.00 20.00     0.093 C 
ENDROOT
BRANCH   3   4
HETATM    4  C6  UNL     1     -31.829   8.493   2.253  1.00 20.00     0.023 C 
BRANCH   4   5
HETATM    5  C7  UNL     1     -32.019   9.489   1.097  1.00 20.00     0.044 C 
HETATM    6  C4  UNL     1     -32.876  10.673   1.543  1.00 20.00     0.017 C 
BRANCH   5   7
HETATM    7  C3  UNL     1     -32.690   8.868  -0.117  1.00 20.00     0.235 C 
HETATM    8  O8  UNL     1     -33.626   9.363  -0.735  1.00 20.00    -0.306 OA
ENDBRANCH   5   7
ENDBRANCH   4   5
ENDBRANCH   3   4
TORSDOF 3
ENDMDL
