MODEL 1
REMARK VINA RESULT:      -4.9      0.000      0.000
REMARK  3 active torsions:
REMARK  status: ('A' for Active; 'I' for Inactive)
REMARK    1  A    between atoms: C3_3  and  C4_4 
REMARK    2  A    between atoms: C4_4  and  C5_5 
REMARK    3  A    between atoms: C5_5  and  C6_6 
ROOT
HETATM    1  C4  UNL     1     -32.868   6.887   3.118  1.00 20.00     0.005 C 
ENDROOT
BRANCH   1   2
HETATM    2  C3  UNL     1     -33.994   7.115   4.114  1.00 20.00    -0.014 A 
HETATM    3  C1  UNL     1     -34.426   6.009   5.037  1.00 20.00     0.005 A 
HETATM    4  C2  UNL     1     -33.698   7.205   5.585  1.00 20.00     0.005 A 
ENDBRANCH   1   2
BRANCH   1   5
HETATM    5  C5  UNL     1     -32.004   8.137   2.954  1.00 20.00     0.015 C 
BRANCH   5   6
HETATM    6  C6  UNL     1     -31.923   8.559   1.494  1.00 20.00     0.114 C 
HETATM    7 CL7  UNL     1     -32.599  10.191   1.280  1.00 20.00    -0.130 Cl
ENDBRANCH   5   6
ENDBRANCH   1   5
TORSDOF 3
ENDMDL
MODEL 2
REMARK VINA RESULT:      -4.9      1.024      1.296
REMARK  3 active torsions:
REMARK  status: ('A' for Active; 'I' for Inactive)
REMARK    1  A    between atoms: C3_3  and  C4_4 
REMARK    2  A    between atoms: C4_4  and  C5_5 
REMARK    3  A    between atoms: C5_5  and  C6_6 
ROOT
HETATM    1  C4  UNL     1     -33.381   6.132   2.955  1.00 20.00     0.005 C 
ENDROOT
BRANCH   1   2
HETATM    2  C3  UNL     1     -34.584   5.698   3.778  1.00 20.00    -0.014 A 
HETATM    3  C1  UNL     1     -34.532   4.432   4.587  1.00 20.00     0.005 A 
HETATM    4  C2  UNL     1     -34.539   5.767   5.279  1.00 20.00     0.005 A 
ENDBRANCH   1   2
BRANCH   1   5
HETATM    5  C5  UNL     1     -32.924   7.541   3.331  1.00 20.00     0.015 C 
BRANCH   5   6
HETATM    6  C6  UNL     1     -31.917   8.077   2.324  1.00 20.00     0.114 C 
HETATM    7 CL7  UNL     1     -32.618   9.429   1.403  1.00 20.00    -0.130 Cl
ENDBRANCH   5   6
ENDBRANCH   1   5
TORSDOF 3
ENDMDL
MODEL 3
REMARK VINA RESULT:      -4.9      2.685      4.201
REMARK  3 active torsions:
REMARK  status: ('A' for Active; 'I' for Inactive)
REMARK    1  A    between atoms: C3_3  and  C4_4 
REMARK    2  A    between atoms: C4_4  and  C5_5 
REMARK    3  A    between atoms: C5_5  and  C6_6 
ROOT
HETATM    1  C4  UNL     1     -33.934   6.921   3.650  1.00 20.00     0.005 C 
ENDROOT
BRANCH   1   2
HETATM    2  C3  UNL     1     -32.562   7.093   3.016  1.00 20.00    -0.014 A 
HETATM    3  C1  UNL     1     -32.288   8.257   2.105  1.00 20.00     0.005 A 
HETATM    4  C2  UNL     1     -31.654   8.203   3.468  1.00 20.00     0.005 A 
ENDBRANCH   1   2
BRANCH   1   5
HETATM    5  C5  UNL     1     -33.855   6.959   5.176  1.00 20.00     0.015 C 
BRANCH   5   6
HETATM    6  C6  UNL     1     -34.469   5.707   5.787  1.00 20.00     0.114 C 
HETATM    7 CL7  UNL     1     -34.568   4.409   4.575  1.00 20.00    -0.130 Cl
ENDBRANCH   5   6
ENDBRANCH   1   5
TORSDOF 3
ENDMDL
MODEL 4
REMARK VINA RESULT:      -4.6      2.396      4.304
REMARK  3 active torsions:
REMARK  status: ('A' for Active; 'I' for Inactive)
REMARK    1  A    between atoms: C3_3  and  C4_4 
REMARK    2  A    between atoms: C4_4  and  C5_5 
REMARK    3  A    between atoms: C5_5  and  C6_6 
ROOT
HETATM    1  C4  UNL     1     -32.636   7.709   2.007  1.00 20.00     0.005 C 
ENDROOT
BRANCH   1   2
HETATM    2  C3  UNL     1     -32.019   8.955   1.392  1.00 20.00    -0.014 A 
HETATM    3  C1  UNL     1     -32.486   9.449   0.051  1.00 20.00     0.005 A 
HETATM    4  C2  UNL     1     -32.817  10.226   1.296  1.00 20.00     0.005 A 
ENDBRANCH   1   2
BRANCH   1   5
HETATM    5  C5  UNL     1     -32.458   7.686   3.525  1.00 20.00     0.015 C 
BRANCH   5   6
HETATM    6  C6  UNL     1     -33.671   7.069   4.209  1.00 20.00     0.114 C 
HETATM    7 CL7  UNL     1     -33.618   7.376   5.961  1.00 20.00    -0.130 Cl
ENDBRANCH   5   6
ENDBRANCH   1   5
TORSDOF 3
ENDMDL
MODEL 5
REMARK VINA RESULT:      -4.6      2.482      4.224
REMARK  3 active torsions:
REMARK  status: ('A' for Active; 'I' for Inactive)
REMARK    1  A    between atoms: C3_3  and  C4_4 
REMARK    2  A    between atoms: C4_4  and  C5_5 
REMARK    3  A    between atoms: C5_5  and  C6_6 
ROOT
HETATM    1  C4  UNL     1     -31.848   8.267   2.826  1.00 20.00     0.005 C 
ENDROOT
BRANCH   1   2
HETATM    2  C3  UNL     1     -32.593   8.734   1.585  1.00 20.00    -0.014 A 
HETATM    3  C1  UNL     1     -32.622  10.192   1.221  1.00 20.00     0.005 A 
HETATM    4  C2  UNL     1     -31.832   9.224   0.385  1.00 20.00     0.005 A 
ENDBRANCH   1   2
BRANCH   1   5
HETATM    5  C5  UNL     1     -32.733   7.397   3.717  1.00 20.00     0.015 C 
BRANCH   5   6
HETATM    6  C6  UNL     1     -33.491   6.364   2.895  1.00 20.00     0.114 C 
HETATM    7 CL7  UNL     1     -35.003   5.906   3.715  1.00 20.00    -0.130 Cl
ENDBRANCH   5   6
ENDBRANCH   1   5
TORSDOF 3
ENDMDL
MODEL 6
REMARK VINA RESULT:      -4.5      1.432      1.792
REMARK  3 active torsions:
REMARK  status: ('A' for Active; 'I' for Inactive)
REMARK    1  A    between atoms: C3_3  and  C4_4 
REMARK    2  A    between atoms: C4_4  and  C5_5 
REMARK    3  A    between atoms: C5_5  and  C6_6 
ROOT
HETATM    1  C4  UNL     1     -32.450   7.682   2.998  1.00 20.00     0.005 C 
ENDROOT
BRANCH   1   2
HETATM    2  C3  UNL     1     -33.482   6.646   2.583  1.00 20.00    -0.014 A 
HETATM    3  C1  UNL     1     -33.273   5.193   2.909  1.00 20.00     0.005 A 
HETATM    4  C2  UNL     1     -34.343   5.977   3.618  1.00 20.00     0.005 A 
ENDBRANCH   1   2
BRANCH   1   5
HETATM    5  C5  UNL     1     -31.794   8.338   1.784  1.00 20.00     0.015 C 
BRANCH   5   6
HETATM    6  C6  UNL     1     -32.582   9.558   1.328  1.00 20.00     0.114 C 
HETATM    7 CL7  UNL     1     -33.062   9.385  -0.377  1.00 20.00    -0.130 Cl
ENDBRANCH   5   6
ENDBRANCH   1   5
TORSDOF 3
ENDMDL
MODEL 7
REMARK VINA RESULT:      -4.3      1.771      1.984
REMARK  3 active torsions:
REMARK  status: ('A' for Active; 'I' for Inactive)
REMARK    1  A    between atoms: C3_3  and  C4_4 
REMARK    2  A    between atoms: C4_4  and  C5_5 
REMARK    3  A    between atoms: C5_5  and  C6_6 
ROOT
HETATM    1  C4  UNL     1     -33.283   5.732   2.951  1.00 20.00     0.005 C 
ENDROOT
BRANCH   1   2
HETATM    2  C3  UNL     1     -34.516   5.565   3.825  1.00 20.00    -0.014 A 
HETATM    3  C1  UNL     1     -34.570   4.476   4.860  1.00 20.00     0.005 A 
HETATM    4  C2  UNL     1     -34.461   5.914   5.286  1.00 20.00     0.005 A 
ENDBRANCH   1   2
BRANCH   1   5
HETATM    5  C5  UNL     1     -33.162   7.159   2.418  1.00 20.00     0.015 C 
BRANCH   5   6
HETATM    6  C6  UNL     1     -31.822   7.774   2.796  1.00 20.00     0.114 C 
HETATM    7 CL7  UNL     1     -31.885   8.434   4.447  1.00 20.00    -0.130 Cl
ENDBRANCH   5   6
ENDBRANCH   1   5
TORSDOF 3
ENDMDL
MODEL 8
REMARK VINA RESULT:      -3.9      2.419      2.615
REMARK  3 active torsions:
REMARK  status: ('A' for Active; 'I' for Inactive)
REMARK    1  A    between atoms: C3_3  and  C4_4 
REMARK    2  A    between atoms: C4_4  and  C5_5 
REMARK    3  A    between atoms: C5_5  and  C6_6 
ROOT
HETATM    1  C4  UNL     1     -32.670   7.349   4.010  1.00 20.00     0.005 C 
ENDROOT
BRANCH   1   2
HETATM    2  C3  UNL     1     -33.960   7.256   4.809  1.00 20.00    -0.014 A 
HETATM    3  C1  UNL     1     -34.235   6.053   5.668  1.00 20.00     0.005 A 
HETATM    4  C2  UNL     1     -33.934   7.380   6.307  1.00 20.00     0.005 A 
ENDBRANCH   1   2
BRANCH   1   5
HETATM    5  C5  UNL     1     -32.936   7.288   2.506  1.00 20.00     0.015 C 
BRANCH   5   6
HETATM    6  C6  UNL     1     -33.778   6.072   2.148  1.00 20.00     0.114 C 
HETATM    7 CL7  UNL     1     -32.933   4.574   2.604  1.00 20.00    -0.130 Cl
ENDBRANCH   5   6
ENDBRANCH   1   5
TORSDOF 3
ENDMDL
MODEL 9
REMARK VINA RESULT:      -3.7      2.684      3.395
REMARK  3 active torsions:
REMARK  status: ('A' for Active; 'I' for Inactive)
REMARK    1  A    between atoms: C3_3  and  C4_4 
REMARK    2  A    between atoms: C4_4  and  C5_5 
REMARK    3  A    between atoms: C5_5  and  C6_6 
ROOT
HETATM    1  C4  UNL     1     -34.842   5.602   4.919  1.00 20.00     0.005 C 
ENDROOT
BRANCH   1   2
HETATM    2  C3  UNL     1     -33.738   6.312   5.685  1.00 20.00    -0.014 A 
HETATM    3  C1  UNL     1     -33.143   7.586   5.153  1.00 20.00     0.005 A 
HETATM    4  C2  UNL     1     -34.015   7.618   6.377  1.00 20.00     0.005 A 
ENDBRANCH   1   2
BRANCH   1   5
HETATM    5  C5  UNL     1     -34.350   4.290   4.311  1.00 20.00     0.015 C 
BRANCH   5   6
HETATM    6  C6  UNL     1     -33.460   4.546   3.103  1.00 20.00     0.114 C 
HETATM    7 CL7  UNL     1     -34.002   5.997   2.228  1.00 20.00    -0.130 Cl
ENDBRANCH   5   6
ENDBRANCH   1   5
TORSDOF 3
ENDMDL
