MODEL 1
REMARK VINA RESULT:      -3.7      0.000      0.000
REMARK  2 active torsions:
REMARK  status: ('A' for Active; 'I' for Inactive)
REMARK    1  A    between atoms: C4_4  and  C5_5 
REMARK    2  A    between atoms: C5_5  and  N6_6 
ROOT
HETATM    1  C1  UNL     1     -32.647   7.688   2.899  1.00 20.00     0.158 C 
HETATM    2  N6  UNL     1     -33.054   7.042   3.788  1.00 20.00    -0.264 NA
HETATM    3  S7  UNL     1     -32.079   8.589   1.715  1.00 20.00    -0.055 SA
ENDROOT
BRANCH   2   4
HETATM    4  C5  UNL     1     -33.853   5.876   3.382  1.00 20.00     0.060 C 
HETATM    5  C2  UNL     1     -34.908   6.362   2.381  1.00 20.00     0.041 C 
HETATM    6  C3  UNL     1     -32.917   4.877   2.694  1.00 20.00     0.041 C 
BRANCH   4   7
HETATM    7  C4  UNL     1     -34.550   5.283   4.616  1.00 20.00     0.147 C 
HETATM    8 CL8  UNL     1     -34.396   6.299   6.073  1.00 20.00    -0.128 Cl
ENDBRANCH   4   7
ENDBRANCH   2   4
TORSDOF 2
ENDMDL
MODEL 2
REMARK VINA RESULT:      -3.4      1.108      1.639
REMARK  2 active torsions:
REMARK  status: ('A' for Active; 'I' for Inactive)
REMARK    1  A    between atoms: C4_4  and  C5_5 
REMARK    2  A    between atoms: C5_5  and  N6_6 
ROOT
HETATM    1  C1  UNL     1     -32.560   7.272   2.458  1.00 20.00     0.158 C 
HETATM    2  N6  UNL     1     -32.784   6.195   2.862  1.00 20.00    -0.264 NA
HETATM    3  S7  UNL     1     -32.223   8.722   1.892  1.00 20.00    -0.055 SA
ENDROOT
BRANCH   2   4
HETATM    4  C5  UNL     1     -33.985   6.096   3.706  1.00 20.00     0.060 C 
HETATM    5  C2  UNL     1     -33.825   7.094   4.859  1.00 20.00     0.041 C 
HETATM    6  C3  UNL     1     -35.196   6.489   2.854  1.00 20.00     0.041 C 
BRANCH   4   7
HETATM    7  C4  UNL     1     -34.094   4.671   4.270  1.00 20.00     0.147 C 
HETATM    8 CL8  UNL     1     -34.613   4.623   5.976  1.00 20.00    -0.128 Cl
ENDBRANCH   4   7
ENDBRANCH   2   4
TORSDOF 2
ENDMDL
MODEL 3
REMARK VINA RESULT:      -3.2      3.235      3.888
REMARK  2 active torsions:
REMARK  status: ('A' for Active; 'I' for Inactive)
REMARK    1  A    between atoms: C4_4  and  C5_5 
REMARK    2  A    between atoms: C5_5  and  N6_6 
ROOT
HETATM    1  C1  UNL     1     -34.142   6.814   4.574  1.00 20.00     0.158 C 
HETATM    2  N6  UNL     1     -33.939   7.735   3.879  1.00 20.00    -0.264 NA
HETATM    3  S7  UNL     1     -34.448   5.581   5.535  1.00 20.00    -0.055 SA
ENDROOT
BRANCH   2   4
HETATM    4  C5  UNL     1     -32.794   7.574   2.969  1.00 20.00     0.060 C 
HETATM    5  C2  UNL     1     -31.533   7.999   3.730  1.00 20.00     0.041 C 
HETATM    6  C3  UNL     1     -32.692   6.091   2.596  1.00 20.00     0.041 C 
BRANCH   4   7
HETATM    7  C4  UNL     1     -32.986   8.481   1.744  1.00 20.00     0.147 C 
HETATM    8 CL8  UNL     1     -31.478   8.782   0.842  1.00 20.00    -0.128 Cl
ENDBRANCH   4   7
ENDBRANCH   2   4
TORSDOF 2
ENDMDL
MODEL 4
REMARK VINA RESULT:      -3.2      1.557      2.236
REMARK  2 active torsions:
REMARK  status: ('A' for Active; 'I' for Inactive)
REMARK    1  A    between atoms: C4_4  and  C5_5 
REMARK    2  A    between atoms: C5_5  and  N6_6 
ROOT
HETATM    1  C1  UNL     1     -32.975   7.586   3.438  1.00 20.00     0.158 C 
HETATM    2  N6  UNL     1     -33.456   7.173   4.422  1.00 20.00    -0.264 NA
HETATM    3  S7  UNL     1     -32.306   8.177   2.119  1.00 20.00    -0.055 SA
ENDROOT
BRANCH   2   4
HETATM    4  C5  UNL     1     -34.288   5.973   4.240  1.00 20.00     0.060 C 
HETATM    5  C2  UNL     1     -34.644   5.438   5.632  1.00 20.00     0.041 C 
HETATM    6  C3  UNL     1     -35.568   6.392   3.510  1.00 20.00     0.041 C 
BRANCH   4   7
HETATM    7  C4  UNL     1     -33.487   4.911   3.470  1.00 20.00     0.147 C 
HETATM    8 CL8  UNL     1     -33.723   3.257   4.093  1.00 20.00    -0.128 Cl
ENDBRANCH   4   7
ENDBRANCH   2   4
TORSDOF 2
ENDMDL
MODEL 5
REMARK VINA RESULT:      -3.1      1.593      2.102
REMARK  2 active torsions:
REMARK  status: ('A' for Active; 'I' for Inactive)
REMARK    1  A    between atoms: C4_4  and  C5_5 
REMARK    2  A    between atoms: C5_5  and  N6_6 
ROOT
HETATM    1  C1  UNL     1     -32.891   8.688   1.670  1.00 20.00     0.158 C 
HETATM    2  N6  UNL     1     -33.574   8.245   2.512  1.00 20.00    -0.264 NA
HETATM    3  S7  UNL     1     -31.993   9.307   0.509  1.00 20.00    -0.055 SA
ENDROOT
BRANCH   2   4
HETATM    4  C5  UNL     1     -32.877   7.371   3.469  1.00 20.00     0.060 C 
HETATM    5  C2  UNL     1     -32.738   5.989   2.820  1.00 20.00     0.041 C 
HETATM    6  C3  UNL     1     -31.486   7.961   3.721  1.00 20.00     0.041 C 
BRANCH   4   7
HETATM    7  C4  UNL     1     -33.713   7.254   4.753  1.00 20.00     0.147 C 
HETATM    8 CL8  UNL     1     -34.743   5.799   4.798  1.00 20.00    -0.128 Cl
ENDBRANCH   4   7
ENDBRANCH   2   4
TORSDOF 2
ENDMDL
MODEL 6
REMARK VINA RESULT:      -3.1     11.522     12.121
REMARK  2 active torsions:
REMARK  status: ('A' for Active; 'I' for Inactive)
REMARK    1  A    between atoms: C4_4  and  C5_5 
REMARK    2  A    between atoms: C5_5  and  N6_6 
ROOT
HETATM    1  C1  UNL     1     -36.281  14.037  -4.950  1.00 20.00     0.158 C 
HETATM    2  N6  UNL     1     -35.179  13.752  -4.672  1.00 20.00    -0.264 NA
HETATM    3  S7  UNL     1     -37.790  14.391  -5.315  1.00 20.00    -0.055 SA
ENDROOT
BRANCH   2   4
HETATM    4  C5  UNL     1     -34.178  14.776  -5.012  1.00 20.00     0.060 C 
HETATM    5  C2  UNL     1     -32.851  14.359  -4.368  1.00 20.00     0.041 C 
HETATM    6  C3  UNL     1     -34.024  14.799  -6.536  1.00 20.00     0.041 C 
BRANCH   4   7
HETATM    7  C4  UNL     1     -34.623  16.131  -4.440  1.00 20.00     0.147 C 
HETATM    8 CL8  UNL     1     -34.452  16.243  -2.668  1.00 20.00    -0.128 Cl
ENDBRANCH   4   7
ENDBRANCH   2   4
TORSDOF 2
ENDMDL
MODEL 7
REMARK VINA RESULT:      -3.1     11.761     12.305
REMARK  2 active torsions:
REMARK  status: ('A' for Active; 'I' for Inactive)
REMARK    1  A    between atoms: C4_4  and  C5_5 
REMARK    2  A    between atoms: C5_5  and  N6_6 
ROOT
HETATM    1  C1  UNL     1     -36.042  13.936  -4.971  1.00 20.00     0.158 C 
HETATM    2  N6  UNL     1     -34.955  13.599  -4.693  1.00 20.00    -0.264 NA
HETATM    3  S7  UNL     1     -37.531  14.356  -5.348  1.00 20.00    -0.055 SA
ENDROOT
BRANCH   2   4
HETATM    4  C5  UNL     1     -33.985  14.700  -4.577  1.00 20.00     0.060 C 
HETATM    5  C2  UNL     1     -34.477  15.636  -3.467  1.00 20.00     0.041 C 
HETATM    6  C3  UNL     1     -32.633  14.099  -4.179  1.00 20.00     0.041 C 
BRANCH   4   7
HETATM    7  C4  UNL     1     -33.924  15.467  -5.907  1.00 20.00     0.147 C 
HETATM    8 CL8  UNL     1     -33.747  17.230  -5.701  1.00 20.00    -0.128 Cl
ENDBRANCH   4   7
ENDBRANCH   2   4
TORSDOF 2
ENDMDL
MODEL 8
REMARK VINA RESULT:      -3.0      1.227      1.716
REMARK  2 active torsions:
REMARK  status: ('A' for Active; 'I' for Inactive)
REMARK    1  A    between atoms: C4_4  and  C5_5 
REMARK    2  A    between atoms: C5_5  and  N6_6 
ROOT
HETATM    1  C1  UNL     1     -33.027   8.074   2.151  1.00 20.00     0.158 C 
HETATM    2  N6  UNL     1     -33.979   7.546   2.584  1.00 20.00    -0.264 NA
HETATM    3  S7  UNL     1     -31.754   8.812   1.540  1.00 20.00    -0.055 SA
ENDROOT
BRANCH   2   4
HETATM    4  C5  UNL     1     -33.704   6.552   3.633  1.00 20.00     0.060 C 
HETATM    5  C2  UNL     1     -32.753   5.504   3.042  1.00 20.00     0.041 C 
HETATM    6  C3  UNL     1     -33.015   7.271   4.797  1.00 20.00     0.041 C 
BRANCH   4   7
HETATM    7  C4  UNL     1     -35.020   5.875   4.049  1.00 20.00     0.147 C 
HETATM    8 CL8  UNL     1     -34.868   4.876   5.518  1.00 20.00    -0.128 Cl
ENDBRANCH   4   7
ENDBRANCH   2   4
TORSDOF 2
ENDMDL
MODEL 9
REMARK VINA RESULT:      -3.0     11.927     12.581
REMARK  2 active torsions:
REMARK  status: ('A' for Active; 'I' for Inactive)
REMARK    1  A    between atoms: C4_4  and  C5_5 
REMARK    2  A    between atoms: C5_5  and  N6_6 
ROOT
HETATM    1  C1  UNL     1     -33.779  15.986  -6.490  1.00 20.00     0.158 C 
HETATM    2  N6  UNL     1     -33.587  16.494  -5.452  1.00 20.00    -0.264 NA
HETATM    3  S7  UNL     1     -34.028  15.326  -7.918  1.00 20.00    -0.055 SA
ENDROOT
BRANCH   2   4
HETATM    4  C5  UNL     1     -33.966  15.675  -4.290  1.00 20.00     0.060 C 
HETATM    5  C2  UNL     1     -33.085  14.420  -4.300  1.00 20.00     0.041 C 
HETATM    6  C3  UNL     1     -33.682  16.490  -3.024  1.00 20.00     0.041 C 
BRANCH   4   7
HETATM    7  C4  UNL     1     -35.442  15.267  -4.414  1.00 20.00     0.147 C 
HETATM    8 CL8  UNL     1     -35.669  13.547  -4.826  1.00 20.00    -0.128 Cl
ENDBRANCH   4   7
ENDBRANCH   2   4
TORSDOF 2
ENDMDL
