MODEL 1
REMARK VINA RESULT:      -5.4      0.000      0.000
REMARK  5 active torsions:
REMARK  status: ('A' for Active; 'I' for Inactive)
REMARK    1  A    between atoms: C1_1  and  C3_3 
REMARK    2  A    between atoms: C3_3  and  C4_4 
REMARK    3  A    between atoms: C4_4  and  C5_5 
REMARK    4  A    between atoms: C5_5  and  C6_6 
REMARK    5  A    between atoms: C6_6  and  C7_7 
ROOT
HETATM    1  C4  UNL     1     -33.496   5.849   2.588  1.00 20.00     0.004 C 
ENDROOT
BRANCH   1   2
HETATM    2  C3  UNL     1     -32.430   6.908   2.874  1.00 20.00     0.028 C 
BRANCH   2   3
HETATM    3  C1  UNL     1     -32.808   8.235   2.284  1.00 20.00    -0.015 C 
HETATM    4  C2  UNL     1     -32.057   8.885   1.391  1.00 20.00     0.080 C 
HETATM    5 CL8  UNL     1     -32.504  10.395   0.718  1.00 20.00    -0.097 Cl
ENDBRANCH   2   3
ENDBRANCH   1   2
BRANCH   1   6
HETATM    6  C5  UNL     1     -34.713   6.027   3.500  1.00 20.00     0.001 C 
BRANCH   6   7
HETATM    7  C6  UNL     1     -34.801   4.899   4.532  1.00 20.00     0.015 C 
BRANCH   7   8
HETATM    8  C7  UNL     1     -34.506   5.361   5.956  1.00 20.00     0.114 C 
HETATM    9 CL9  UNL     1     -34.004   7.066   6.015  1.00 20.00    -0.130 Cl
ENDBRANCH   7   8
ENDBRANCH   6   7
ENDBRANCH   1   6
TORSDOF 5
ENDMDL
MODEL 2
REMARK VINA RESULT:      -5.3      1.695      1.945
REMARK  5 active torsions:
REMARK  status: ('A' for Active; 'I' for Inactive)
REMARK    1  A    between atoms: C1_1  and  C3_3 
REMARK    2  A    between atoms: C3_3  and  C4_4 
REMARK    3  A    between atoms: C4_4  and  C5_5 
REMARK    4  A    between atoms: C5_5  and  C6_6 
REMARK    5  A    between atoms: C6_6  and  C7_7 
ROOT
HETATM    1  C4  UNL     1     -33.123   7.359   3.734  1.00 20.00     0.004 C 
ENDROOT
BRANCH   1   2
HETATM    2  C3  UNL     1     -31.833   8.049   3.285  1.00 20.00     0.028 C 
BRANCH   2   3
HETATM    3  C1  UNL     1     -31.902   8.444   1.839  1.00 20.00    -0.015 C 
HETATM    4  C2  UNL     1     -32.785   9.321   1.356  1.00 20.00     0.080 C 
HETATM    5 CL8  UNL     1     -32.849   9.769  -0.296  1.00 20.00    -0.097 Cl
ENDBRANCH   2   3
ENDBRANCH   1   2
BRANCH   1   6
HETATM    6  C5  UNL     1     -33.271   7.395   5.257  1.00 20.00     0.001 C 
BRANCH   6   7
HETATM    7  C6  UNL     1     -34.300   6.368   5.739  1.00 20.00     0.015 C 
BRANCH   7   8
HETATM    8  C7  UNL     1     -34.940   5.578   4.602  1.00 20.00     0.114 C 
HETATM    9 CL9  UNL     1     -34.190   3.978   4.395  1.00 20.00    -0.130 Cl
ENDBRANCH   7   8
ENDBRANCH   6   7
ENDBRANCH   1   6
TORSDOF 5
ENDMDL
MODEL 3
REMARK VINA RESULT:      -4.7      1.329      5.330
REMARK  5 active torsions:
REMARK  status: ('A' for Active; 'I' for Inactive)
REMARK    1  A    between atoms: C1_1  and  C3_3 
REMARK    2  A    between atoms: C3_3  and  C4_4 
REMARK    3  A    between atoms: C4_4  and  C5_5 
REMARK    4  A    between atoms: C5_5  and  C6_6 
REMARK    5  A    between atoms: C6_6  and  C7_7 
ROOT
HETATM    1  C4  UNL     1     -33.019   7.817   3.030  1.00 20.00     0.004 C 
ENDROOT
BRANCH   1   2
HETATM    2  C3  UNL     1     -33.271   6.419   2.462  1.00 20.00     0.028 C 
BRANCH   2   3
HETATM    3  C1  UNL     1     -33.918   5.526   3.480  1.00 20.00    -0.015 C 
HETATM    4  C2  UNL     1     -34.128   5.888   4.748  1.00 20.00     0.080 C 
HETATM    5 CL8  UNL     1     -34.875   4.863   5.899  1.00 20.00    -0.097 Cl
ENDBRANCH   2   3
ENDBRANCH   1   2
BRANCH   1   6
HETATM    6  C5  UNL     1     -31.599   8.297   2.715  1.00 20.00     0.001 C 
BRANCH   6   7
HETATM    7  C6  UNL     1     -31.472   8.726   1.250  1.00 20.00     0.015 C 
BRANCH   7   8
HETATM    8  C7  UNL     1     -32.437   9.841   0.863  1.00 20.00     0.114 C 
HETATM    9 CL9  UNL     1     -33.328   9.466  -0.630  1.00 20.00    -0.130 Cl
ENDBRANCH   7   8
ENDBRANCH   6   7
ENDBRANCH   1   6
TORSDOF 5
ENDMDL
MODEL 4
REMARK VINA RESULT:      -3.8      1.137      5.116
REMARK  5 active torsions:
REMARK  status: ('A' for Active; 'I' for Inactive)
REMARK    1  A    between atoms: C1_1  and  C3_3 
REMARK    2  A    between atoms: C3_3  and  C4_4 
REMARK    3  A    between atoms: C4_4  and  C5_5 
REMARK    4  A    between atoms: C5_5  and  C6_6 
REMARK    5  A    between atoms: C6_6  and  C7_7 
ROOT
HETATM    1  C4  UNL     1     -32.781   6.864   1.841  1.00 20.00     0.004 C 
ENDROOT
BRANCH   1   2
HETATM    2  C3  UNL     1     -33.810   6.128   2.701  1.00 20.00     0.028 C 
BRANCH   2   3
HETATM    3  C1  UNL     1     -34.027   6.828   4.011  1.00 20.00    -0.015 C 
HETATM    4  C2  UNL     1     -34.135   6.188   5.178  1.00 20.00     0.080 C 
HETATM    5 CL8  UNL     1     -34.373   6.998   6.668  1.00 20.00    -0.097 Cl
ENDBRANCH   2   3
ENDBRANCH   1   2
BRANCH   1   6
HETATM    6  C5  UNL     1     -32.116   8.000   2.623  1.00 20.00     0.001 C 
BRANCH   6   7
HETATM    7  C6  UNL     1     -32.160   9.314   1.838  1.00 20.00     0.015 C 
BRANCH   7   8
HETATM    8  C7  UNL     1     -31.906   9.133   0.345  1.00 20.00     0.114 C 
HETATM    9 CL9  UNL     1     -33.346   9.509  -0.629  1.00 20.00    -0.130 Cl
ENDBRANCH   7   8
ENDBRANCH   6   7
ENDBRANCH   1   6
TORSDOF 5
ENDMDL
MODEL 5
REMARK VINA RESULT:      -3.7      1.872      5.378
REMARK  5 active torsions:
REMARK  status: ('A' for Active; 'I' for Inactive)
REMARK    1  A    between atoms: C1_1  and  C3_3 
REMARK    2  A    between atoms: C3_3  and  C4_4 
REMARK    3  A    between atoms: C4_4  and  C5_5 
REMARK    4  A    between atoms: C5_5  and  C6_6 
REMARK    5  A    between atoms: C6_6  and  C7_7 
ROOT
HETATM    1  C4  UNL     1     -32.314   8.306   2.054  1.00 20.00     0.004 C 
ENDROOT
BRANCH   1   2
HETATM    2  C3  UNL     1     -31.943   7.807   3.452  1.00 20.00     0.028 C 
BRANCH   2   3
HETATM    3  C1  UNL     1     -33.106   7.129   4.114  1.00 20.00    -0.015 C 
HETATM    4  C2  UNL     1     -33.991   6.375   3.457  1.00 20.00     0.080 C 
HETATM    5 CL8  UNL     1     -35.311   5.599   4.225  1.00 20.00    -0.097 Cl
ENDBRANCH   2   3
ENDBRANCH   1   2
BRANCH   1   6
HETATM    6  C5  UNL     1     -32.168   9.826   1.950  1.00 20.00     0.001 C 
BRANCH   6   7
HETATM    7  C6  UNL     1     -32.533  10.324   0.548  1.00 20.00     0.015 C 
BRANCH   7   8
HETATM    8  C7  UNL     1     -33.375   9.329  -0.243  1.00 20.00     0.114 C 
HETATM    9 CL9  UNL     1     -32.405   8.427  -1.430  1.00 20.00    -0.130 Cl
ENDBRANCH   7   8
ENDBRANCH   6   7
ENDBRANCH   1   6
TORSDOF 5
ENDMDL
MODEL 6
REMARK VINA RESULT:      -3.5     11.140     11.785
REMARK  5 active torsions:
REMARK  status: ('A' for Active; 'I' for Inactive)
REMARK    1  A    between atoms: C1_1  and  C3_3 
REMARK    2  A    between atoms: C3_3  and  C4_4 
REMARK    3  A    between atoms: C4_4  and  C5_5 
REMARK    4  A    between atoms: C5_5  and  C6_6 
REMARK    5  A    between atoms: C6_6  and  C7_7 
ROOT
HETATM    1  C4  UNL     1     -35.138  16.607  -2.132  1.00 20.00     0.004 C 
ENDROOT
BRANCH   1   2
HETATM    2  C3  UNL     1     -34.092  16.226  -3.180  1.00 20.00     0.028 C 
BRANCH   2   3
HETATM    3  C1  UNL     1     -34.455  14.943  -3.871  1.00 20.00    -0.015 C 
HETATM    4  C2  UNL     1     -35.610  14.755  -4.513  1.00 20.00     0.080 C 
HETATM    5 CL8  UNL     1     -36.010  13.289  -5.304  1.00 20.00    -0.097 Cl
ENDBRANCH   2   3
ENDBRANCH   1   2
BRANCH   1   6
HETATM    6  C5  UNL     1     -34.503  17.368  -0.965  1.00 20.00     0.001 C 
BRANCH   6   7
HETATM    7  C6  UNL     1     -33.109  17.884  -1.333  1.00 20.00     0.015 C 
BRANCH   7   8
HETATM    8  C7  UNL     1     -32.670  19.082  -0.498  1.00 20.00     0.114 C 
HETATM    9 CL9  UNL     1     -31.346  18.670   0.617  1.00 20.00    -0.130 Cl
ENDBRANCH   7   8
ENDBRANCH   6   7
ENDBRANCH   1   6
TORSDOF 5
ENDMDL
MODEL 7
REMARK VINA RESULT:      -3.5     11.068     11.795
REMARK  5 active torsions:
REMARK  status: ('A' for Active; 'I' for Inactive)
REMARK    1  A    between atoms: C1_1  and  C3_3 
REMARK    2  A    between atoms: C3_3  and  C4_4 
REMARK    3  A    between atoms: C4_4  and  C5_5 
REMARK    4  A    between atoms: C5_5  and  C6_6 
REMARK    5  A    between atoms: C6_6  and  C7_7 
ROOT
HETATM    1  C4  UNL     1     -33.645  15.928  -3.860  1.00 20.00     0.004 C 
ENDROOT
BRANCH   1   2
HETATM    2  C3  UNL     1     -34.726  16.219  -2.816  1.00 20.00     0.028 C 
BRANCH   2   3
HETATM    3  C1  UNL     1     -34.170  16.996  -1.659  1.00 20.00    -0.015 C 
HETATM    4  C2  UNL     1     -33.033  17.693  -1.719  1.00 20.00     0.080 C 
HETATM    5 CL8  UNL     1     -32.412  18.583  -0.393  1.00 20.00    -0.097 Cl
ENDBRANCH   2   3
ENDBRANCH   1   2
BRANCH   1   6
HETATM    6  C5  UNL     1     -33.688  14.465  -4.310  1.00 20.00     0.001 C 
BRANCH   6   7
HETATM    7  C6  UNL     1     -35.128  13.997  -4.536  1.00 20.00     0.015 C 
BRANCH   7   8
HETATM    8  C7  UNL     1     -35.589  14.143  -5.983  1.00 20.00     0.114 C 
HETATM    9 CL9  UNL     1     -34.387  13.516  -7.134  1.00 20.00    -0.130 Cl
ENDBRANCH   7   8
ENDBRANCH   6   7
ENDBRANCH   1   6
TORSDOF 5
ENDMDL
MODEL 8
REMARK VINA RESULT:      -3.5     11.275     11.899
REMARK  5 active torsions:
REMARK  status: ('A' for Active; 'I' for Inactive)
REMARK    1  A    between atoms: C1_1  and  C3_3 
REMARK    2  A    between atoms: C3_3  and  C4_4 
REMARK    3  A    between atoms: C4_4  and  C5_5 
REMARK    4  A    between atoms: C5_5  and  C6_6 
REMARK    5  A    between atoms: C6_6  and  C7_7 
ROOT
HETATM    1  C4  UNL     1     -33.333  17.354  -1.798  1.00 20.00     0.004 C 
ENDROOT
BRANCH   1   2
HETATM    2  C3  UNL     1     -32.914  18.685  -1.172  1.00 20.00     0.028 C 
BRANCH   2   3
HETATM    3  C1  UNL     1     -31.795  18.497  -0.190  1.00 20.00    -0.015 C 
HETATM    4  C2  UNL     1     -31.855  18.903   1.081  1.00 20.00     0.080 C 
HETATM    5 CL8  UNL     1     -30.574  18.676   2.195  1.00 20.00    -0.097 Cl
ENDBRANCH   2   3
ENDBRANCH   1   2
BRANCH   1   6
HETATM    6  C5  UNL     1     -34.783  17.008  -1.450  1.00 20.00     0.001 C 
BRANCH   6   7
HETATM    7  C6  UNL     1     -35.456  16.233  -2.586  1.00 20.00     0.015 C 
BRANCH   7   8
HETATM    8  C7  UNL     1     -34.497  15.861  -3.712  1.00 20.00     0.114 C 
HETATM    9 CL9  UNL     1     -34.527  14.118  -4.066  1.00 20.00    -0.130 Cl
ENDBRANCH   7   8
ENDBRANCH   6   7
ENDBRANCH   1   6
TORSDOF 5
ENDMDL
MODEL 9
REMARK VINA RESULT:      -3.5     10.888     11.759
REMARK  5 active torsions:
REMARK  status: ('A' for Active; 'I' for Inactive)
REMARK    1  A    between atoms: C1_1  and  C3_3 
REMARK    2  A    between atoms: C3_3  and  C4_4 
REMARK    3  A    between atoms: C4_4  and  C5_5 
REMARK    4  A    between atoms: C5_5  and  C6_6 
REMARK    5  A    between atoms: C6_6  and  C7_7 
ROOT
HETATM    1  C4  UNL     1     -35.008  15.667  -3.645  1.00 20.00     0.004 C 
ENDROOT
BRANCH   1   2
HETATM    2  C3  UNL     1     -33.833  16.470  -3.084  1.00 20.00     0.028 C 
BRANCH   2   3
HETATM    3  C1  UNL     1     -34.123  16.962  -1.696  1.00 20.00    -0.015 C 
HETATM    4  C2  UNL     1     -35.345  16.970  -1.159  1.00 20.00     0.080 C 
HETATM    5 CL8  UNL     1     -35.664  17.526   0.430  1.00 20.00    -0.097 Cl
ENDBRANCH   2   3
ENDBRANCH   1   2
BRANCH   1   6
HETATM    6  C5  UNL     1     -34.532  14.355  -4.277  1.00 20.00     0.001 C 
BRANCH   6   7
HETATM    7  C6  UNL     1     -35.700  13.586  -4.900  1.00 20.00     0.015 C 
BRANCH   7   8
HETATM    8  C7  UNL     1     -35.864  13.845  -6.394  1.00 20.00     0.114 C 
HETATM    9 CL9  UNL     1     -34.357  13.554  -7.292  1.00 20.00    -0.130 Cl
ENDBRANCH   7   8
ENDBRANCH   6   7
ENDBRANCH   1   6
TORSDOF 5
ENDMDL
