MODEL 1
REMARK VINA RESULT:      -5.9      0.000      0.000
REMARK  2 active torsions:
REMARK  status: ('A' for Active; 'I' for Inactive)
REMARK    1  A    between atoms: C1_1  and  C2_2 
REMARK    2  A    between atoms: C2_2  and  C3_3 
ROOT
HETATM    1  C2  UNL     1     -33.660   6.256   3.016  1.00 20.00     0.365 C 
HETATM    2  F5  UNL     1     -32.622   5.378   2.899  1.00 20.00    -0.193 F 
HETATM    3  F6  UNL     1     -34.345   6.180   1.841  1.00 20.00    -0.193 F 
ENDROOT
BRANCH   1   4
HETATM    4  C1  UNL     1     -33.074   7.653   3.148  1.00 20.00     0.345 C 
HETATM    5  F4  UNL     1     -32.022   7.584   4.015  1.00 20.00    -0.226 F 
HETATM    6 CL9  UNL     1     -32.480   8.310   1.611  1.00 20.00    -0.083 Cl
ENDBRANCH   1   4
BRANCH   1   7
HETATM    7  C3  UNL     1     -34.572   5.767   4.129  1.00 20.00     0.388 C 
HETATM    8  F7  UNL     1     -35.863   5.907   3.726  1.00 20.00    -0.181 F 
HETATM    9  F8  UNL     1     -34.435   6.544   5.232  1.00 20.00    -0.181 F 
HETATM   10 CL10 UNL     1     -34.285   4.073   4.560  1.00 20.00    -0.042 Cl
ENDBRANCH   1   7
TORSDOF 2
ENDMDL
MODEL 2
REMARK VINA RESULT:      -5.9      1.074      1.268
REMARK  2 active torsions:
REMARK  status: ('A' for Active; 'I' for Inactive)
REMARK    1  A    between atoms: C1_1  and  C2_2 
REMARK    2  A    between atoms: C2_2  and  C3_3 
ROOT
HETATM    1  C2  UNL     1     -33.660   6.160   3.005  1.00 20.00     0.365 C 
HETATM    2  F5  UNL     1     -32.614   5.294   2.865  1.00 20.00    -0.193 F 
HETATM    3  F6  UNL     1     -34.348   6.104   1.832  1.00 20.00    -0.193 F 
ENDROOT
BRANCH   1   4
HETATM    4  C1  UNL     1     -33.085   7.560   3.165  1.00 20.00     0.345 C 
HETATM    5  F4  UNL     1     -31.963   7.464   3.936  1.00 20.00    -0.226 F 
HETATM    6 CL9  UNL     1     -32.634   8.310   1.623  1.00 20.00    -0.083 Cl
ENDBRANCH   1   4
BRANCH   1   7
HETATM    7  C3  UNL     1     -34.562   5.640   4.111  1.00 20.00     0.388 C 
HETATM    8  F7  UNL     1     -34.414   4.290   4.194  1.00 20.00    -0.181 F 
HETATM    9  F8  UNL     1     -35.865   5.858   3.806  1.00 20.00    -0.181 F 
HETATM   10 CL10 UNL     1     -34.197   6.354   5.691  1.00 20.00    -0.042 Cl
ENDBRANCH   1   7
TORSDOF 2
ENDMDL
MODEL 3
REMARK VINA RESULT:      -5.9      1.105      2.050
REMARK  2 active torsions:
REMARK  status: ('A' for Active; 'I' for Inactive)
REMARK    1  A    between atoms: C1_1  and  C2_2 
REMARK    2  A    between atoms: C2_2  and  C3_3 
ROOT
HETATM    1  C2  UNL     1     -33.813   6.757   4.311  1.00 20.00     0.365 C 
HETATM    2  F5  UNL     1     -34.572   7.868   4.081  1.00 20.00    -0.193 F 
HETATM    3  F6  UNL     1     -33.049   7.048   5.399  1.00 20.00    -0.193 F 
ENDROOT
BRANCH   1   4
HETATM    4  C1  UNL     1     -32.899   6.563   3.111  1.00 20.00     0.345 C 
HETATM    5  F4  UNL     1     -33.681   6.258   2.036  1.00 20.00    -0.226 F 
HETATM    6 CL9  UNL     1     -31.953   8.010   2.713  1.00 20.00    -0.083 Cl
ENDBRANCH   1   4
BRANCH   1   7
HETATM    7  C3  UNL     1     -34.745   5.614   4.677  1.00 20.00     0.388 C 
HETATM    8  F7  UNL     1     -35.918   5.779   4.008  1.00 20.00    -0.181 F 
HETATM    9  F8  UNL     1     -35.055   5.655   5.996  1.00 20.00    -0.181 F 
HETATM   10 CL10 UNL     1     -34.075   4.024   4.275  1.00 20.00    -0.042 Cl
ENDBRANCH   1   7
TORSDOF 2
ENDMDL
MODEL 4
REMARK VINA RESULT:      -5.9      1.439      2.272
REMARK  2 active torsions:
REMARK  status: ('A' for Active; 'I' for Inactive)
REMARK    1  A    between atoms: C1_1  and  C2_2 
REMARK    2  A    between atoms: C2_2  and  C3_3 
ROOT
HETATM    1  C2  UNL     1     -33.685   6.969   4.125  1.00 20.00     0.365 C 
HETATM    2  F5  UNL     1     -34.552   7.999   3.905  1.00 20.00    -0.193 F 
HETATM    3  F6  UNL     1     -33.180   7.168   5.374  1.00 20.00    -0.193 F 
ENDROOT
BRANCH   1   4
HETATM    4  C1  UNL     1     -32.552   7.092   3.117  1.00 20.00     0.345 C 
HETATM    5  F4  UNL     1     -33.099   7.426   1.913  1.00 20.00    -0.226 F 
HETATM    6 CL9  UNL     1     -31.365   8.338   3.549  1.00 20.00    -0.083 Cl
ENDBRANCH   1   4
BRANCH   1   7
HETATM    7  C3  UNL     1     -34.480   5.673   4.135  1.00 20.00     0.388 C 
HETATM    8  F7  UNL     1     -33.879   4.789   3.294  1.00 20.00    -0.181 F 
HETATM    9  F8  UNL     1     -35.726   5.875   3.642  1.00 20.00    -0.181 F 
HETATM   10 CL10 UNL     1     -34.591   4.946   5.747  1.00 20.00    -0.042 Cl
ENDBRANCH   1   7
TORSDOF 2
ENDMDL
MODEL 5
REMARK VINA RESULT:      -5.5      1.381      3.412
REMARK  2 active torsions:
REMARK  status: ('A' for Active; 'I' for Inactive)
REMARK    1  A    between atoms: C1_1  and  C2_2 
REMARK    2  A    between atoms: C2_2  and  C3_3 
ROOT
HETATM    1  C2  UNL     1     -33.594   6.117   3.084  1.00 20.00     0.365 C 
HETATM    2  F5  UNL     1     -34.325   6.316   1.949  1.00 20.00    -0.193 F 
HETATM    3  F6  UNL     1     -32.693   5.143   2.779  1.00 20.00    -0.193 F 
ENDROOT
BRANCH   1   4
HETATM    4  C1  UNL     1     -34.535   5.592   4.157  1.00 20.00     0.345 C 
HETATM    5  F4  UNL     1     -35.813   5.766   3.712  1.00 20.00    -0.226 F 
HETATM    6 CL9  UNL     1     -34.302   3.869   4.507  1.00 20.00    -0.083 Cl
ENDBRANCH   1   4
BRANCH   1   7
HETATM    7  C3  UNL     1     -32.828   7.395   3.384  1.00 20.00     0.388 C 
HETATM    8  F7  UNL     1     -33.347   8.400   2.630  1.00 20.00    -0.181 F 
HETATM    9  F8  UNL     1     -31.531   7.273   3.008  1.00 20.00    -0.181 F 
HETATM   10 CL10 UNL     1     -32.907   7.860   5.092  1.00 20.00    -0.042 Cl
ENDBRANCH   1   7
TORSDOF 2
ENDMDL
MODEL 6
REMARK VINA RESULT:      -5.5      1.191      3.354
REMARK  2 active torsions:
REMARK  status: ('A' for Active; 'I' for Inactive)
REMARK    1  A    between atoms: C1_1  and  C2_2 
REMARK    2  A    between atoms: C2_2  and  C3_3 
ROOT
HETATM    1  C2  UNL     1     -34.330   6.591   3.955  1.00 20.00     0.365 C 
HETATM    2  F5  UNL     1     -34.465   7.948   3.995  1.00 20.00    -0.193 F 
HETATM    3  F6  UNL     1     -35.575   6.101   3.703  1.00 20.00    -0.193 F 
ENDROOT
BRANCH   1   4
HETATM    4  C1  UNL     1     -33.894   6.127   5.337  1.00 20.00     0.345 C 
HETATM    5  F4  UNL     1     -34.299   7.066   6.239  1.00 20.00    -0.226 F 
HETATM    6 CL9  UNL     1     -34.602   4.569   5.805  1.00 20.00    -0.083 Cl
ENDBRANCH   1   4
BRANCH   1   7
HETATM    7  C3  UNL     1     -33.434   6.238   2.779  1.00 20.00     0.388 C 
HETATM    8  F7  UNL     1     -34.212   6.057   1.679  1.00 20.00    -0.181 F 
HETATM    9  F8  UNL     1     -32.807   5.055   2.996  1.00 20.00    -0.181 F 
HETATM   10 CL10 UNL     1     -32.230   7.490   2.431  1.00 20.00    -0.042 Cl
ENDBRANCH   1   7
TORSDOF 2
ENDMDL
MODEL 7
REMARK VINA RESULT:      -5.5      1.641      3.327
REMARK  2 active torsions:
REMARK  status: ('A' for Active; 'I' for Inactive)
REMARK    1  A    between atoms: C1_1  and  C2_2 
REMARK    2  A    between atoms: C2_2  and  C3_3 
ROOT
HETATM    1  C2  UNL     1     -34.150   6.777   3.971  1.00 20.00     0.365 C 
HETATM    2  F5  UNL     1     -34.411   8.116   3.994  1.00 20.00    -0.193 F 
HETATM    3  F6  UNL     1     -35.310   6.180   3.581  1.00 20.00    -0.193 F 
ENDROOT
BRANCH   1   4
HETATM    4  C1  UNL     1     -33.833   6.340   5.393  1.00 20.00     0.345 C 
HETATM    5  F4  UNL     1     -34.256   7.327   6.236  1.00 20.00    -0.226 F 
HETATM    6 CL9  UNL     1     -34.642   4.832   5.858  1.00 20.00    -0.083 Cl
ENDBRANCH   1   4
BRANCH   1   7
HETATM    7  C3  UNL     1     -33.100   6.516   2.904  1.00 20.00     0.388 C 
HETATM    8  F7  UNL     1     -31.914   7.031   3.327  1.00 20.00    -0.181 F 
HETATM    9  F8  UNL     1     -33.409   7.173   1.760  1.00 20.00    -0.181 F 
HETATM   10 CL10 UNL     1     -32.884   4.792   2.557  1.00 20.00    -0.042 Cl
ENDBRANCH   1   7
TORSDOF 2
ENDMDL
MODEL 8
REMARK VINA RESULT:      -5.5      1.312      3.387
REMARK  2 active torsions:
REMARK  status: ('A' for Active; 'I' for Inactive)
REMARK    1  A    between atoms: C1_1  and  C2_2 
REMARK    2  A    between atoms: C2_2  and  C3_3 
ROOT
HETATM    1  C2  UNL     1     -33.750   5.865   3.146  1.00 20.00     0.365 C 
HETATM    2  F5  UNL     1     -34.395   5.860   1.943  1.00 20.00    -0.193 F 
HETATM    3  F6  UNL     1     -32.623   5.122   2.967  1.00 20.00    -0.193 F 
ENDROOT
BRANCH   1   4
HETATM    4  C1  UNL     1     -34.643   5.159   4.155  1.00 20.00     0.345 C 
HETATM    5  F4  UNL     1     -34.340   3.829   4.120  1.00 20.00    -0.226 F 
HETATM    6 CL9  UNL     1     -34.413   5.736   5.816  1.00 20.00    -0.083 Cl
ENDBRANCH   1   4
BRANCH   1   7
HETATM    7  C3  UNL     1     -33.333   7.294   3.455  1.00 20.00     0.388 C 
HETATM    8  F7  UNL     1     -32.490   7.279   4.521  1.00 20.00    -0.181 F 
HETATM    9  F8  UNL     1     -34.405   8.032   3.832  1.00 20.00    -0.181 F 
HETATM   10 CL10 UNL     1     -32.520   8.083   2.092  1.00 20.00    -0.042 Cl
ENDBRANCH   1   7
TORSDOF 2
ENDMDL
MODEL 9
REMARK VINA RESULT:      -5.4      2.026      2.525
REMARK  2 active torsions:
REMARK  status: ('A' for Active; 'I' for Inactive)
REMARK    1  A    between atoms: C1_1  and  C2_2 
REMARK    2  A    between atoms: C2_2  and  C3_3 
ROOT
HETATM    1  C2  UNL     1     -34.354   5.344   4.127  1.00 20.00     0.365 C 
HETATM    2  F5  UNL     1     -34.620   4.007   4.062  1.00 20.00    -0.193 F 
HETATM    3  F6  UNL     1     -35.433   5.964   3.575  1.00 20.00    -0.193 F 
ENDROOT
BRANCH   1   4
HETATM    4  C1  UNL     1     -33.137   5.618   3.258  1.00 20.00     0.345 C 
HETATM    5  F4  UNL     1     -33.083   4.651   2.297  1.00 20.00    -0.226 F 
HETATM    6 CL9  UNL     1     -33.197   7.196   2.450  1.00 20.00    -0.083 Cl
ENDBRANCH   1   4
BRANCH   1   7
HETATM    7  C3  UNL     1     -34.277   5.741   5.592  1.00 20.00     0.388 C 
HETATM    8  F7  UNL     1     -33.583   4.784   6.265  1.00 20.00    -0.181 F 
HETATM    9  F8  UNL     1     -35.514   5.768   6.145  1.00 20.00    -0.181 F 
HETATM   10 CL10 UNL     1     -33.484   7.306   5.840  1.00 20.00    -0.042 Cl
ENDBRANCH   1   7
TORSDOF 2
ENDMDL
