MODEL 1
REMARK VINA RESULT:      -6.2      0.000      0.000
REMARK  2 active torsions:
REMARK  status: ('A' for Active; 'I' for Inactive)
REMARK    1  A    between atoms: C1_1  and  C2_2 
REMARK    2  A    between atoms: C2_2  and  C3_3 
ROOT
HETATM    1  C2  UNL     1     -34.476   5.478   4.119  1.00 20.00     0.396 C 
HETATM    2  F6  UNL     1     -34.559   4.162   4.441  1.00 20.00    -0.190 F 
HETATM    3  F7  UNL     1     -35.729   5.882   3.792  1.00 20.00    -0.190 F 
ENDROOT
BRANCH   1   4
HETATM    4  C1  UNL     1     -34.008   6.251   5.328  1.00 20.00     0.434 C 
HETATM    5  F4  UNL     1     -34.743   5.882   6.407  1.00 20.00    -0.207 F 
HETATM    6  F5  UNL     1     -34.217   7.577   5.148  1.00 20.00    -0.207 F 
ENDBRANCH   1   4
BRANCH   1   7
HETATM    7  C3  UNL     1     -33.581   5.634   2.917  1.00 20.00     0.460 C 
HETATM    8  F8  UNL     1     -34.285   6.079   1.854  1.00 20.00    -0.165 F 
HETATM    9  F9  UNL     1     -33.014   4.458   2.573  1.00 20.00    -0.165 F 
HETATM   10  F10 UNL     1     -32.589   6.519   3.152  1.00 20.00    -0.165 F 
ENDBRANCH   1   7
TORSDOF 2
ENDMDL
MODEL 2
REMARK VINA RESULT:      -6.2      0.013      1.196
REMARK  2 active torsions:
REMARK  status: ('A' for Active; 'I' for Inactive)
REMARK    1  A    between atoms: C1_1  and  C2_2 
REMARK    2  A    between atoms: C2_2  and  C3_3 
ROOT
HETATM    1  C2  UNL     1     -34.477   5.482   4.122  1.00 20.00     0.396 C 
HETATM    2  F6  UNL     1     -34.558   4.165   4.437  1.00 20.00    -0.190 F 
HETATM    3  F7  UNL     1     -35.731   5.886   3.796  1.00 20.00    -0.190 F 
ENDROOT
BRANCH   1   4
HETATM    4  C1  UNL     1     -34.012   6.250   5.335  1.00 20.00     0.434 C 
HETATM    5  F4  UNL     1     -34.745   5.872   6.412  1.00 20.00    -0.207 F 
HETATM    6  F5  UNL     1     -34.227   7.576   5.163  1.00 20.00    -0.207 F 
ENDBRANCH   1   4
BRANCH   1   7
HETATM    7  C3  UNL     1     -33.582   5.646   2.921  1.00 20.00     0.460 C 
HETATM    8  F8  UNL     1     -33.011   4.469   2.588  1.00 20.00    -0.165 F 
HETATM    9  F9  UNL     1     -32.592   6.530   3.167  1.00 20.00    -0.165 F 
HETATM   10  F10 UNL     1     -34.273   6.086   1.848  1.00 20.00    -0.165 F 
ENDBRANCH   1   7
TORSDOF 2
ENDMDL
MODEL 3
REMARK VINA RESULT:      -6.1      0.812      1.233
REMARK  2 active torsions:
REMARK  status: ('A' for Active; 'I' for Inactive)
REMARK    1  A    between atoms: C1_1  and  C2_2 
REMARK    2  A    between atoms: C2_2  and  C3_3 
ROOT
HETATM    1  C2  UNL     1     -34.498   6.295   4.077  1.00 20.00     0.396 C 
HETATM    2  F6  UNL     1     -35.790   5.967   3.824  1.00 20.00    -0.190 F 
HETATM    3  F7  UNL     1     -34.418   7.649   4.019  1.00 20.00    -0.190 F 
ENDROOT
BRANCH   1   4
HETATM    4  C1  UNL     1     -34.139   5.839   5.470  1.00 20.00     0.434 C 
HETATM    5  F4  UNL     1     -34.960   4.822   5.834  1.00 20.00    -0.207 F 
HETATM    6  F5  UNL     1     -34.341   6.841   6.359  1.00 20.00    -0.207 F 
ENDBRANCH   1   4
BRANCH   1   7
HETATM    7  C3  UNL     1     -33.622   5.706   3.002  1.00 20.00     0.460 C 
HETATM    8  F8  UNL     1     -34.202   5.836   1.790  1.00 20.00    -0.165 F 
HETATM    9  F9  UNL     1     -33.403   4.392   3.216  1.00 20.00    -0.165 F 
HETATM   10  F10 UNL     1     -32.422   6.323   2.951  1.00 20.00    -0.165 F 
ENDBRANCH   1   7
TORSDOF 2
ENDMDL
MODEL 4
REMARK VINA RESULT:      -6.1      0.956      2.943
REMARK  2 active torsions:
REMARK  status: ('A' for Active; 'I' for Inactive)
REMARK    1  A    between atoms: C1_1  and  C2_2 
REMARK    2  A    between atoms: C2_2  and  C3_3 
ROOT
HETATM    1  C2  UNL     1     -33.663   5.734   3.043  1.00 20.00     0.396 C 
HETATM    2  F6  UNL     1     -34.415   5.903   1.926  1.00 20.00    -0.190 F 
HETATM    3  F7  UNL     1     -32.771   4.748   2.771  1.00 20.00    -0.190 F 
ENDROOT
BRANCH   1   4
HETATM    4  C1  UNL     1     -32.913   7.012   3.329  1.00 20.00     0.434 C 
HETATM    5  F4  UNL     1     -33.803   8.012   3.553  1.00 20.00    -0.207 F 
HETATM    6  F5  UNL     1     -32.179   7.378   2.251  1.00 20.00    -0.207 F 
ENDBRANCH   1   4
BRANCH   1   7
HETATM    7  C3  UNL     1     -34.555   5.289   4.173  1.00 20.00     0.460 C 
HETATM    8  F8  UNL     1     -34.577   3.942   4.261  1.00 20.00    -0.165 F 
HETATM    9  F9  UNL     1     -35.824   5.711   3.989  1.00 20.00    -0.165 F 
HETATM   10  F10 UNL     1     -34.126   5.771   5.359  1.00 20.00    -0.165 F 
ENDBRANCH   1   7
TORSDOF 2
ENDMDL
MODEL 5
REMARK VINA RESULT:      -5.8      1.125      2.522
REMARK  2 active torsions:
REMARK  status: ('A' for Active; 'I' for Inactive)
REMARK    1  A    between atoms: C1_1  and  C2_2 
REMARK    2  A    between atoms: C2_2  and  C3_3 
ROOT
HETATM    1  C2  UNL     1     -33.612   5.866   3.090  1.00 20.00     0.396 C 
HETATM    2  F6  UNL     1     -32.641   4.980   2.752  1.00 20.00    -0.190 F 
HETATM    3  F7  UNL     1     -34.390   6.034   1.991  1.00 20.00    -0.190 F 
ENDROOT
BRANCH   1   4
HETATM    4  C1  UNL     1     -34.448   5.278   4.201  1.00 20.00     0.434 C 
HETATM    5  F4  UNL     1     -34.441   3.925   4.098  1.00 20.00    -0.207 F 
HETATM    6  F5  UNL     1     -35.737   5.673   4.079  1.00 20.00    -0.207 F 
ENDBRANCH   1   4
BRANCH   1   7
HETATM    7  C3  UNL     1     -32.973   7.184   3.444  1.00 20.00     0.460 C 
HETATM    8  F8  UNL     1     -33.040   7.404   4.775  1.00 20.00    -0.165 F 
HETATM    9  F9  UNL     1     -33.594   8.210   2.825  1.00 20.00    -0.165 F 
HETATM   10  F10 UNL     1     -31.671   7.212   3.088  1.00 20.00    -0.165 F 
ENDBRANCH   1   7
TORSDOF 2
ENDMDL
MODEL 6
REMARK VINA RESULT:      -5.8      1.073      2.240
REMARK  2 active torsions:
REMARK  status: ('A' for Active; 'I' for Inactive)
REMARK    1  A    between atoms: C1_1  and  C2_2 
REMARK    2  A    between atoms: C2_2  and  C3_3 
ROOT
HETATM    1  C2  UNL     1     -34.210   5.777   3.743  1.00 20.00     0.396 C 
HETATM    2  F6  UNL     1     -33.705   5.218   2.614  1.00 20.00    -0.190 F 
HETATM    3  F7  UNL     1     -35.514   6.056   3.493  1.00 20.00    -0.190 F 
ENDROOT
BRANCH   1   4
HETATM    4  C1  UNL     1     -34.127   4.774   4.867  1.00 20.00     0.434 C 
HETATM    5  F4  UNL     1     -34.312   3.526   4.369  1.00 20.00    -0.207 F 
HETATM    6  F5  UNL     1     -35.120   4.989   5.762  1.00 20.00    -0.207 F 
ENDBRANCH   1   4
BRANCH   1   7
HETATM    7  C3  UNL     1     -33.478   7.064   4.023  1.00 20.00     0.460 C 
HETATM    8  F8  UNL     1     -34.170   8.120   3.542  1.00 20.00    -0.165 F 
HETATM    9  F9  UNL     1     -32.260   7.070   3.441  1.00 20.00    -0.165 F 
HETATM   10  F10 UNL     1     -33.306   7.255   5.348  1.00 20.00    -0.165 F 
ENDBRANCH   1   7
TORSDOF 2
ENDMDL
MODEL 7
REMARK VINA RESULT:      -5.7      0.995      3.017
REMARK  2 active torsions:
REMARK  status: ('A' for Active; 'I' for Inactive)
REMARK    1  A    between atoms: C1_1  and  C2_2 
REMARK    2  A    between atoms: C2_2  and  C3_3 
ROOT
HETATM    1  C2  UNL     1     -34.558   5.743   4.605  1.00 20.00     0.396 C 
HETATM    2  F6  UNL     1     -35.742   5.852   3.949  1.00 20.00    -0.190 F 
HETATM    3  F7  UNL     1     -34.845   5.332   5.866  1.00 20.00    -0.190 F 
ENDROOT
BRANCH   1   4
HETATM    4  C1  UNL     1     -33.713   4.695   3.923  1.00 20.00     0.434 C 
HETATM    5  F4  UNL     1     -33.609   4.994   2.604  1.00 20.00    -0.207 F 
HETATM    6  F5  UNL     1     -34.313   3.483   4.003  1.00 20.00    -0.207 F 
ENDBRANCH   1   4
BRANCH   1   7
HETATM    7  C3  UNL     1     -33.906   7.100   4.669  1.00 20.00     0.460 C 
HETATM    8  F8  UNL     1     -34.047   7.640   5.898  1.00 20.00    -0.165 F 
HETATM    9  F9  UNL     1     -34.459   7.951   3.779  1.00 20.00    -0.165 F 
HETATM   10  F10 UNL     1     -32.584   7.025   4.403  1.00 20.00    -0.165 F 
ENDBRANCH   1   7
TORSDOF 2
ENDMDL
MODEL 8
REMARK VINA RESULT:      -5.7      0.959      3.189
REMARK  2 active torsions:
REMARK  status: ('A' for Active; 'I' for Inactive)
REMARK    1  A    between atoms: C1_1  and  C2_2 
REMARK    2  A    between atoms: C2_2  and  C3_3 
ROOT
HETATM    1  C2  UNL     1     -33.732   6.751   4.193  1.00 20.00     0.396 C 
HETATM    2  F6  UNL     1     -32.904   7.190   5.174  1.00 20.00    -0.190 F 
HETATM    3  F7  UNL     1     -34.496   7.809   3.821  1.00 20.00    -0.190 F 
ENDROOT
BRANCH   1   4
HETATM    4  C1  UNL     1     -32.904   6.300   3.015  1.00 20.00     0.434 C 
HETATM    5  F4  UNL     1     -32.323   7.382   2.438  1.00 20.00    -0.207 F 
HETATM    6  F5  UNL     1     -33.696   5.733   2.074  1.00 20.00    -0.207 F 
ENDBRANCH   1   4
BRANCH   1   7
HETATM    7  C3  UNL     1     -34.627   5.674   4.752  1.00 20.00     0.460 C 
HETATM    8  F8  UNL     1     -35.830   5.688   4.139  1.00 20.00    -0.165 F 
HETATM    9  F9  UNL     1     -34.835   5.849   6.074  1.00 20.00    -0.165 F 
HETATM   10  F10 UNL     1     -34.091   4.447   4.576  1.00 20.00    -0.165 F 
ENDBRANCH   1   7
TORSDOF 2
ENDMDL
MODEL 9
REMARK VINA RESULT:      -5.7      0.959      3.223
REMARK  2 active torsions:
REMARK  status: ('A' for Active; 'I' for Inactive)
REMARK    1  A    between atoms: C1_1  and  C2_2 
REMARK    2  A    between atoms: C2_2  and  C3_3 
ROOT
HETATM    1  C2  UNL     1     -33.732   6.747   4.191  1.00 20.00     0.396 C 
HETATM    2  F6  UNL     1     -32.904   7.183   5.174  1.00 20.00    -0.190 F 
HETATM    3  F7  UNL     1     -34.486   7.811   3.814  1.00 20.00    -0.190 F 
ENDROOT
BRANCH   1   4
HETATM    4  C1  UNL     1     -32.902   6.290   3.016  1.00 20.00     0.434 C 
HETATM    5  F4  UNL     1     -32.306   7.366   2.444  1.00 20.00    -0.207 F 
HETATM    6  F5  UNL     1     -33.695   5.733   2.070  1.00 20.00    -0.207 F 
ENDBRANCH   1   4
BRANCH   1   7
HETATM    7  C3  UNL     1     -34.636   5.678   4.747  1.00 20.00     0.460 C 
HETATM    8  F8  UNL     1     -34.092   4.455   4.572  1.00 20.00    -0.165 F 
HETATM    9  F9  UNL     1     -35.838   5.687   4.134  1.00 20.00    -0.165 F 
HETATM   10  F10 UNL     1     -34.845   5.848   6.070  1.00 20.00    -0.165 F 
ENDBRANCH   1   7
TORSDOF 2
ENDMDL
