MODEL 1
REMARK VINA RESULT:      -6.9      0.000      0.000
REMARK  0 active torsions:
REMARK  status: ('A' for Active; 'I' for Inactive)
ROOT
HETATM    1  C1  UNL     1     -34.397   6.300   6.044  1.00 20.00    -0.030 A 
HETATM    2  C2  UNL     1     -34.651   5.020   5.753  1.00 20.00    -0.030 A 
HETATM    3  C3  UNL     1     -33.732   7.251   5.098  1.00 20.00     0.036 A 
HETATM    4  C4  UNL     1     -34.302   4.382   4.444  1.00 20.00     0.036 A 
HETATM    5  C5  UNL     1     -34.678   6.386   2.842  1.00 20.00     0.020 A 
HETATM    6  C6  UNL     1     -33.475   6.757   3.683  1.00 20.00    -0.032 A 
HETATM    7  C7  UNL     1     -33.767   5.290   3.349  1.00 20.00    -0.032 A 
HETATM    8  C8  UNL     1     -32.350   7.489   2.993  1.00 20.00     0.016 C 
HETATM    9  C9  UNL     1     -32.932   4.560   2.325  1.00 20.00     0.016 C 
ENDROOT
TORSDOF 0
ENDMDL
MODEL 2
REMARK VINA RESULT:      -6.4      0.783      2.056
REMARK  0 active torsions:
REMARK  status: ('A' for Active; 'I' for Inactive)
ROOT
HETATM    1  C1  UNL     1     -33.012   7.972   4.961  1.00 20.00    -0.030 A 
HETATM    2  C2  UNL     1     -33.673   7.410   5.978  1.00 20.00    -0.030 A 
HETATM    3  C3  UNL     1     -32.844   7.324   3.622  1.00 20.00     0.036 A 
HETATM    4  C4  UNL     1     -34.327   6.065   5.902  1.00 20.00     0.036 A 
HETATM    5  C5  UNL     1     -35.110   6.076   3.430  1.00 20.00     0.020 A 
HETATM    6  C6  UNL     1     -33.598   6.028   3.377  1.00 20.00    -0.032 A 
HETATM    7  C7  UNL     1     -34.356   5.383   4.543  1.00 20.00    -0.032 A 
HETATM    8  C8  UNL     1     -32.972   5.168   2.306  1.00 20.00     0.016 C 
HETATM    9  C9  UNL     1     -34.486   3.882   4.633  1.00 20.00     0.016 C 
ENDROOT
TORSDOF 0
ENDMDL
MODEL 3
REMARK VINA RESULT:      -6.2      0.780      2.384
REMARK  0 active torsions:
REMARK  status: ('A' for Active; 'I' for Inactive)
ROOT
HETATM    1  C1  UNL     1     -34.395   4.146   4.559  1.00 20.00    -0.030 A 
HETATM    2  C2  UNL     1     -33.787   4.174   3.368  1.00 20.00    -0.030 A 
HETATM    3  C3  UNL     1     -34.480   5.327   5.475  1.00 20.00     0.036 A 
HETATM    4  C4  UNL     1     -33.118   5.390   2.806  1.00 20.00     0.036 A 
HETATM    5  C5  UNL     1     -34.678   7.242   3.737  1.00 20.00     0.020 A 
HETATM    6  C6  UNL     1     -33.974   6.657   4.943  1.00 20.00    -0.032 A 
HETATM    7  C7  UNL     1     -33.278   6.691   3.578  1.00 20.00    -0.032 A 
HETATM    8  C8  UNL     1     -33.563   7.617   6.033  1.00 20.00     0.016 C 
HETATM    9  C9  UNL     1     -32.172   7.682   3.308  1.00 20.00     0.016 C 
ENDROOT
TORSDOF 0
ENDMDL
MODEL 4
REMARK VINA RESULT:      -5.9      0.867      3.328
REMARK  0 active torsions:
REMARK  status: ('A' for Active; 'I' for Inactive)
ROOT
HETATM    1  C1  UNL     1     -32.415   6.824   2.577  1.00 20.00    -0.030 A 
HETATM    2  C2  UNL     1     -32.628   7.776   3.491  1.00 20.00    -0.030 A 
HETATM    3  C3  UNL     1     -33.006   5.450   2.657  1.00 20.00     0.036 A 
HETATM    4  C4  UNL     1     -33.484   7.586   4.705  1.00 20.00     0.036 A 
HETATM    5  C5  UNL     1     -35.297   6.002   3.742  1.00 20.00     0.020 A 
HETATM    6  C6  UNL     1     -34.018   5.193   3.761  1.00 20.00    -0.032 A 
HETATM    7  C7  UNL     1     -34.263   6.284   4.809  1.00 20.00    -0.032 A 
HETATM    8  C8  UNL     1     -34.129   3.735   4.138  1.00 20.00     0.016 C 
HETATM    9  C9  UNL     1     -34.618   5.915   6.229  1.00 20.00     0.016 C 
ENDROOT
TORSDOF 0
ENDMDL
MODEL 5
REMARK VINA RESULT:      -5.3      0.994      2.491
REMARK  0 active torsions:
REMARK  status: ('A' for Active; 'I' for Inactive)
ROOT
HETATM    1  C1  UNL     1     -34.653   6.064   5.550  1.00 20.00    -0.030 A 
HETATM    2  C2  UNL     1     -33.723   6.985   5.819  1.00 20.00    -0.030 A 
HETATM    3  C3  UNL     1     -34.983   5.596   4.167  1.00 20.00     0.036 A 
HETATM    4  C4  UNL     1     -32.896   7.661   4.770  1.00 20.00     0.036 A 
HETATM    5  C5  UNL     1     -32.634   5.718   3.072  1.00 20.00     0.020 A 
HETATM    6  C6  UNL     1     -34.100   6.096   3.035  1.00 20.00    -0.032 A 
HETATM    7  C7  UNL     1     -33.032   7.152   3.343  1.00 20.00    -0.032 A 
HETATM    8  C8  UNL     1     -34.785   6.073   1.691  1.00 20.00     0.016 C 
HETATM    9  C9  UNL     1     -32.654   8.182   2.306  1.00 20.00     0.016 C 
ENDROOT
TORSDOF 0
ENDMDL
MODEL 6
REMARK VINA RESULT:      -4.3     12.241     13.200
REMARK  0 active torsions:
REMARK  status: ('A' for Active; 'I' for Inactive)
ROOT
HETATM    1  C1  UNL     1     -34.579  16.616  -2.384  1.00 20.00    -0.030 A 
HETATM    2  C2  UNL     1     -33.333  17.102  -2.421  1.00 20.00    -0.030 A 
HETATM    3  C3  UNL     1     -35.530  16.855  -1.253  1.00 20.00     0.036 A 
HETATM    4  C4  UNL     1     -32.738  17.944  -1.335  1.00 20.00     0.036 A 
HETATM    5  C5  UNL     1     -34.839  19.262  -0.576  1.00 20.00     0.020 A 
HETATM    6  C6  UNL     1     -35.090  17.825  -0.169  1.00 20.00    -0.032 A 
HETATM    7  C7  UNL     1     -33.663  18.383  -0.211  1.00 20.00    -0.032 A 
HETATM    8  C8  UNL     1     -35.780  17.593   1.153  1.00 20.00     0.016 C 
HETATM    9  C9  UNL     1     -32.931  18.706   1.069  1.00 20.00     0.016 C 
ENDROOT
TORSDOF 0
ENDMDL
MODEL 7
REMARK VINA RESULT:      -4.1     12.322     12.898
REMARK  0 active torsions:
REMARK  status: ('A' for Active; 'I' for Inactive)
ROOT
HETATM    1  C1  UNL     1     -35.089  18.191   1.644  1.00 20.00    -0.030 A 
HETATM    2  C2  UNL     1     -35.875  17.528   0.790  1.00 20.00    -0.030 A 
HETATM    3  C3  UNL     1     -33.712  18.670   1.303  1.00 20.00     0.036 A 
HETATM    4  C4  UNL     1     -35.476  17.184  -0.611  1.00 20.00     0.036 A 
HETATM    5  C5  UNL     1     -34.042  19.263  -1.201  1.00 20.00     0.020 A 
HETATM    6  C6  UNL     1     -33.261  18.517  -0.141  1.00 20.00    -0.032 A 
HETATM    7  C7  UNL     1     -34.163  17.757  -1.120  1.00 20.00    -0.032 A 
HETATM    8  C8  UNL     1     -31.760  18.472  -0.293  1.00 20.00     0.016 C 
HETATM    9  C9  UNL     1     -33.560  16.955  -2.248  1.00 20.00     0.016 C 
ENDROOT
TORSDOF 0
ENDMDL
MODEL 8
REMARK VINA RESULT:      -4.1     12.241     13.245
REMARK  0 active torsions:
REMARK  status: ('A' for Active; 'I' for Inactive)
ROOT
HETATM    1  C1  UNL     1     -31.926  18.454  -0.458  1.00 20.00    -0.030 A 
HETATM    2  C2  UNL     1     -32.251  18.819   0.787  1.00 20.00    -0.030 A 
HETATM    3  C3  UNL     1     -32.897  17.856  -1.428  1.00 20.00     0.036 A 
HETATM    4  C4  UNL     1     -33.625  18.674   1.363  1.00 20.00     0.036 A 
HETATM    5  C5  UNL     1     -35.057  19.124  -0.752  1.00 20.00     0.020 A 
HETATM    6  C6  UNL     1     -34.357  17.806  -1.007  1.00 20.00    -0.032 A 
HETATM    7  C7  UNL     1     -34.730  18.225   0.420  1.00 20.00    -0.032 A 
HETATM    8  C8  UNL     1     -35.145  16.733  -1.718  1.00 20.00     0.016 C 
HETATM    9  C9  UNL     1     -35.888  17.568   1.130  1.00 20.00     0.016 C 
ENDROOT
TORSDOF 0
ENDMDL
MODEL 9
REMARK VINA RESULT:      -3.9     11.975     13.679
REMARK  0 active torsions:
REMARK  status: ('A' for Active; 'I' for Inactive)
ROOT
HETATM    1  C1  UNL     1     -34.439  14.128  -4.103  1.00 20.00    -0.030 A 
HETATM    2  C2  UNL     1     -33.385  14.887  -4.422  1.00 20.00    -0.030 A 
HETATM    3  C3  UNL     1     -35.565  13.835  -5.045  1.00 20.00     0.036 A 
HETATM    4  C4  UNL     1     -33.203  15.536  -5.759  1.00 20.00     0.036 A 
HETATM    5  C5  UNL     1     -34.270  13.735  -7.290  1.00 20.00     0.020 A 
HETATM    6  C6  UNL     1     -35.412  14.310  -6.480  1.00 20.00    -0.032 A 
HETATM    7  C7  UNL     1     -34.204  15.179  -6.846  1.00 20.00    -0.032 A 
HETATM    8  C8  UNL     1     -36.732  14.500  -7.188  1.00 20.00     0.016 C 
HETATM    9  C9  UNL     1     -34.320  16.236  -7.918  1.00 20.00     0.016 C 
ENDROOT
TORSDOF 0
ENDMDL
