MODEL 1
REMARK VINA RESULT:      -5.5      0.000      0.000
REMARK  4 active torsions:
REMARK  status: ('A' for Active; 'I' for Inactive)
REMARK    1  A    between atoms: C2_2  and  C8_8 
REMARK    2  A    between atoms: C3_3  and  C9_9 
REMARK    3  A    between atoms: C8_8  and  C9_9 
REMARK    4  A    between atoms: C9_9  and  C10_10 
ROOT
HETATM    1  C9  UNL     1     -33.241   7.672   2.716  1.00 20.00     0.062 C 
ENDROOT
BRANCH   1   2
HETATM    2  C3  UNL     1     -32.518   7.812   4.060  1.00 20.00     0.127 C 
HETATM    3  C5  UNL     1     -33.339   7.567   5.300  1.00 20.00     0.091 C 
HETATM    4  O11 UNL     1     -31.332   8.131   4.141  1.00 20.00    -0.298 OA
ENDBRANCH   1   2
BRANCH   1   5
HETATM    5  C8  UNL     1     -32.319   8.074   1.545  1.00 20.00     0.045 C 
BRANCH   5   6
HETATM    6  C2  UNL     1     -32.723   9.367   0.865  1.00 20.00    -0.092 C 
HETATM    7  C1  UNL     1     -32.724  10.537   1.523  1.00 20.00     0.014 C 
HETATM    8  C4  UNL     1     -33.171   9.279  -0.566  1.00 20.00     0.042 C 
ENDBRANCH   5   6
ENDBRANCH   1   5
BRANCH   1   9
HETATM    9  C10 UNL     1     -33.837   6.244   2.599  1.00 20.00    -0.011 C 
HETATM   10  C6  UNL     1     -35.014   6.054   3.563  1.00 20.00     0.010 C 
HETATM   11  C7  UNL     1     -32.812   5.126   2.813  1.00 20.00     0.010 C 
ENDBRANCH   1   9
TORSDOF 4
ENDMDL
MODEL 2
REMARK VINA RESULT:      -5.3      1.882      3.007
REMARK  4 active torsions:
REMARK  status: ('A' for Active; 'I' for Inactive)
REMARK    1  A    between atoms: C2_2  and  C8_8 
REMARK    2  A    between atoms: C3_3  and  C9_9 
REMARK    3  A    between atoms: C8_8  and  C9_9 
REMARK    4  A    between atoms: C9_9  and  C10_10 
ROOT
HETATM    1  C9  UNL     1     -33.423   6.646   3.754  1.00 20.00     0.062 C 
ENDROOT
BRANCH   1   2
HETATM    2  C3  UNL     1     -33.800   5.620   2.680  1.00 20.00     0.127 C 
HETATM    3  C5  UNL     1     -32.882   4.434   2.523  1.00 20.00     0.091 C 
HETATM    4  O11 UNL     1     -34.788   5.753   1.957  1.00 20.00    -0.298 OA
ENDBRANCH   1   2
BRANCH   1   5
HETATM    5  C8  UNL     1     -33.381   8.073   3.167  1.00 20.00     0.045 C 
BRANCH   5   6
HETATM    6  C2  UNL     1     -32.042   8.446   2.562  1.00 20.00    -0.092 C 
HETATM    7  C1  UNL     1     -30.904   8.361   3.269  1.00 20.00     0.014 C 
HETATM    8  C4  UNL     1     -32.045   8.961   1.151  1.00 20.00     0.042 C 
ENDBRANCH   5   6
ENDBRANCH   1   5
BRANCH   1   9
HETATM    9  C10 UNL     1     -34.368   6.484   4.974  1.00 20.00    -0.011 C 
HETATM   10  C6  UNL     1     -33.877   7.308   6.169  1.00 20.00     0.010 C 
HETATM   11  C7  UNL     1     -34.581   5.030   5.404  1.00 20.00     0.010 C 
ENDBRANCH   1   9
TORSDOF 4
ENDMDL
MODEL 3
REMARK VINA RESULT:      -5.1      1.286      2.000
REMARK  4 active torsions:
REMARK  status: ('A' for Active; 'I' for Inactive)
REMARK    1  A    between atoms: C2_2  and  C8_8 
REMARK    2  A    between atoms: C3_3  and  C9_9 
REMARK    3  A    between atoms: C8_8  and  C9_9 
REMARK    4  A    between atoms: C9_9  and  C10_10 
ROOT
HETATM    1  C9  UNL     1     -33.533   7.264   3.536  1.00 20.00     0.062 C 
ENDROOT
BRANCH   1   2
HETATM    2  C3  UNL     1     -33.598   7.117   5.060  1.00 20.00     0.127 C 
HETATM    3  C5  UNL     1     -34.510   6.045   5.600  1.00 20.00     0.091 C 
HETATM    4  O11 UNL     1     -32.961   7.846   5.822  1.00 20.00    -0.298 OA
ENDBRANCH   1   2
BRANCH   1   5
HETATM    5  C8  UNL     1     -32.134   7.737   3.084  1.00 20.00     0.045 C 
BRANCH   5   6
HETATM    6  C2  UNL     1     -32.161   8.650   1.875  1.00 20.00    -0.092 C 
HETATM    7  C1  UNL     1     -31.385   8.420   0.803  1.00 20.00     0.014 C 
HETATM    8  C4  UNL     1     -33.056   9.854   1.943  1.00 20.00     0.042 C 
ENDBRANCH   5   6
ENDBRANCH   1   5
BRANCH   1   9
HETATM    9  C10 UNL     1     -34.006   5.943   2.873  1.00 20.00    -0.011 C 
HETATM   10  C6  UNL     1     -32.835   4.976   2.666  1.00 20.00     0.010 C 
HETATM   11  C7  UNL     1     -34.746   6.146   1.547  1.00 20.00     0.010 C 
ENDBRANCH   1   9
TORSDOF 4
ENDMDL
MODEL 4
REMARK VINA RESULT:      -5.1      9.833     11.203
REMARK  4 active torsions:
REMARK  status: ('A' for Active; 'I' for Inactive)
REMARK    1  A    between atoms: C2_2  and  C8_8 
REMARK    2  A    between atoms: C3_3  and  C9_9 
REMARK    3  A    between atoms: C8_8  and  C9_9 
REMARK    4  A    between atoms: C9_9  and  C10_10 
ROOT
HETATM    1  C9  UNL     1     -34.950  15.681  -3.915  1.00 20.00     0.062 C 
ENDROOT
BRANCH   1   2
HETATM    2  C3  UNL     1     -34.777  14.231  -4.379  1.00 20.00     0.127 C 
HETATM    3  C5  UNL     1     -35.953  13.598  -5.079  1.00 20.00     0.091 C 
HETATM    4  O11 UNL     1     -33.744  13.592  -4.178  1.00 20.00    -0.298 OA
ENDBRANCH   1   2
BRANCH   1   5
HETATM    5  C8  UNL     1     -33.715  16.161  -3.123  1.00 20.00     0.045 C 
BRANCH   5   6
HETATM    6  C2  UNL     1     -34.057  16.992  -1.903  1.00 20.00    -0.092 C 
HETATM    7  C1  UNL     1     -35.261  16.912  -1.313  1.00 20.00     0.014 C 
HETATM    8  C4  UNL     1     -33.010  17.946  -1.405  1.00 20.00     0.042 C 
ENDBRANCH   5   6
ENDBRANCH   1   5
BRANCH   1   9
HETATM    9  C10 UNL     1     -35.313  16.571  -5.134  1.00 20.00    -0.011 C 
HETATM   10  C6  UNL     1     -34.072  17.269  -5.700  1.00 20.00     0.010 C 
HETATM   11  C7  UNL     1     -36.400  17.610  -4.841  1.00 20.00     0.010 C 
ENDBRANCH   1   9
TORSDOF 4
ENDMDL
MODEL 5
REMARK VINA RESULT:      -5.1     10.032     11.282
REMARK  4 active torsions:
REMARK  status: ('A' for Active; 'I' for Inactive)
REMARK    1  A    between atoms: C2_2  and  C8_8 
REMARK    2  A    between atoms: C3_3  and  C9_9 
REMARK    3  A    between atoms: C8_8  and  C9_9 
REMARK    4  A    between atoms: C9_9  and  C10_10 
ROOT
HETATM    1  C9  UNL     1     -35.240  15.006  -5.099  1.00 20.00     0.062 C 
ENDROOT
BRANCH   1   2
HETATM    2  C3  UNL     1     -36.267  13.871  -5.171  1.00 20.00     0.127 C 
HETATM    3  C5  UNL     1     -37.720  14.271  -5.181  1.00 20.00     0.091 C 
HETATM    4  O11 UNL     1     -35.940  12.684  -5.198  1.00 20.00    -0.298 OA
ENDBRANCH   1   2
BRANCH   1   5
HETATM    5  C8  UNL     1     -34.494  14.994  -3.747  1.00 20.00     0.045 C 
BRANCH   5   6
HETATM    6  C2  UNL     1     -34.758  16.219  -2.894  1.00 20.00    -0.092 C 
HETATM    7  C1  UNL     1     -36.004  16.675  -2.685  1.00 20.00     0.014 C 
HETATM    8  C4  UNL     1     -33.563  16.933  -2.330  1.00 20.00     0.042 C 
ENDBRANCH   5   6
ENDBRANCH   1   5
BRANCH   1   9
HETATM    9  C10 UNL     1     -34.312  14.938  -6.341  1.00 20.00    -0.011 C 
HETATM   10  C6  UNL     1     -33.240  16.033  -6.293  1.00 20.00     0.010 C 
HETATM   11  C7  UNL     1     -35.058  15.007  -7.677  1.00 20.00     0.010 C 
ENDBRANCH   1   9
TORSDOF 4
ENDMDL
MODEL 6
REMARK VINA RESULT:      -5.0      9.757     11.016
REMARK  4 active torsions:
REMARK  status: ('A' for Active; 'I' for Inactive)
REMARK    1  A    between atoms: C2_2  and  C8_8 
REMARK    2  A    between atoms: C3_3  and  C9_9 
REMARK    3  A    between atoms: C8_8  and  C9_9 
REMARK    4  A    between atoms: C9_9  and  C10_10 
ROOT
HETATM    1  C9  UNL     1     -34.987  15.629  -3.627  1.00 20.00     0.062 C 
ENDROOT
BRANCH   1   2
HETATM    2  C3  UNL     1     -34.365  14.342  -4.178  1.00 20.00     0.127 C 
HETATM    3  C5  UNL     1     -32.867  14.331  -4.347  1.00 20.00     0.091 C 
HETATM    4  O11 UNL     1     -35.042  13.363  -4.495  1.00 20.00    -0.298 OA
ENDBRANCH   1   2
BRANCH   1   5
HETATM    5  C8  UNL     1     -33.896  16.636  -3.204  1.00 20.00     0.045 C 
BRANCH   5   6
HETATM    6  C2  UNL     1     -34.068  17.167  -1.795  1.00 20.00    -0.092 C 
HETATM    7  C1  UNL     1     -35.211  16.991  -1.112  1.00 20.00     0.014 C 
HETATM    8  C4  UNL     1     -32.923  17.941  -1.209  1.00 20.00     0.042 C 
ENDBRANCH   5   6
ENDBRANCH   1   5
BRANCH   1   9
HETATM    9  C10 UNL     1     -36.008  16.186  -4.654  1.00 20.00    -0.011 C 
HETATM   10  C6  UNL     1     -35.504  17.489  -5.285  1.00 20.00     0.010 C 
HETATM   11  C7  UNL     1     -37.411  16.403  -4.078  1.00 20.00     0.010 C 
ENDBRANCH   1   9
TORSDOF 4
ENDMDL
MODEL 7
REMARK VINA RESULT:      -5.0      9.972     10.676
REMARK  4 active torsions:
REMARK  status: ('A' for Active; 'I' for Inactive)
REMARK    1  A    between atoms: C2_2  and  C8_8 
REMARK    2  A    between atoms: C3_3  and  C9_9 
REMARK    3  A    between atoms: C8_8  and  C9_9 
REMARK    4  A    between atoms: C9_9  and  C10_10 
ROOT
HETATM    1  C9  UNL     1     -34.718  15.317  -3.897  1.00 20.00     0.062 C 
ENDROOT
BRANCH   1   2
HETATM    2  C3  UNL     1     -33.431  14.826  -4.569  1.00 20.00     0.127 C 
HETATM    3  C5  UNL     1     -32.952  15.605  -5.767  1.00 20.00     0.091 C 
HETATM    4  O11 UNL     1     -32.819  13.832  -4.177  1.00 20.00    -0.298 OA
ENDBRANCH   1   2
BRANCH   1   5
HETATM    5  C8  UNL     1     -34.618  16.815  -3.537  1.00 20.00     0.045 C 
BRANCH   5   6
HETATM    6  C2  UNL     1     -34.422  17.076  -2.057  1.00 20.00    -0.092 C 
HETATM    7  C1  UNL     1     -35.409  16.870  -1.170  1.00 20.00     0.014 C 
HETATM    8  C4  UNL     1     -33.091  17.620  -1.626  1.00 20.00     0.042 C 
ENDBRANCH   5   6
ENDBRANCH   1   5
BRANCH   1   9
HETATM    9  C10 UNL     1     -35.934  14.953  -4.789  1.00 20.00    -0.011 C 
HETATM   10  C6  UNL     1     -37.248  15.417  -4.149  1.00 20.00     0.010 C 
HETATM   11  C7  UNL     1     -36.027  13.464  -5.134  1.00 20.00     0.010 C 
ENDBRANCH   1   9
TORSDOF 4
ENDMDL
MODEL 8
REMARK VINA RESULT:      -4.9      1.339      3.801
REMARK  4 active torsions:
REMARK  status: ('A' for Active; 'I' for Inactive)
REMARK    1  A    between atoms: C2_2  and  C8_8 
REMARK    2  A    between atoms: C3_3  and  C9_9 
REMARK    3  A    between atoms: C8_8  and  C9_9 
REMARK    4  A    between atoms: C9_9  and  C10_10 
ROOT
HETATM    1  C9  UNL     1     -32.824   6.843   3.344  1.00 20.00     0.062 C 
ENDROOT
BRANCH   1   2
HETATM    2  C3  UNL     1     -31.992   8.012   2.805  1.00 20.00     0.127 C 
HETATM    3  C5  UNL     1     -32.425   8.602   1.487  1.00 20.00     0.091 C 
HETATM    4  O11 UNL     1     -31.003   8.446   3.396  1.00 20.00    -0.298 OA
ENDBRANCH   1   2
BRANCH   1   5
HETATM    5  C8  UNL     1     -34.037   7.352   4.153  1.00 20.00     0.045 C 
BRANCH   5   6
HETATM    6  C2  UNL     1     -34.145   6.745   5.537  1.00 20.00    -0.092 C 
HETATM    7  C1  UNL     1     -33.777   7.427   6.634  1.00 20.00     0.014 C 
HETATM    8  C4  UNL     1     -34.635   5.329   5.630  1.00 20.00     0.042 C 
ENDBRANCH   5   6
ENDBRANCH   1   5
BRANCH   1   9
HETATM    9  C10 UNL     1     -33.190   5.891   2.175  1.00 20.00    -0.011 C 
HETATM   10  C6  UNL     1     -34.676   6.001   1.814  1.00 20.00     0.010 C 
HETATM   11  C7  UNL     1     -32.830   4.425   2.433  1.00 20.00     0.010 C 
ENDBRANCH   1   9
TORSDOF 4
ENDMDL
MODEL 9
REMARK VINA RESULT:      -4.7      1.802      3.083
REMARK  4 active torsions:
REMARK  status: ('A' for Active; 'I' for Inactive)
REMARK    1  A    between atoms: C2_2  and  C8_8 
REMARK    2  A    between atoms: C3_3  and  C9_9 
REMARK    3  A    between atoms: C8_8  and  C9_9 
REMARK    4  A    between atoms: C9_9  and  C10_10 
ROOT
HETATM    1  C9  UNL     1     -33.175   6.058   3.515  1.00 20.00     0.062 C 
ENDROOT
BRANCH   1   2
HETATM    2  C3  UNL     1     -33.142   4.624   2.974  1.00 20.00     0.127 C 
HETATM    3  C5  UNL     1     -33.707   3.550   3.868  1.00 20.00     0.091 C 
HETATM    4  O11 UNL     1     -32.662   4.343   1.876  1.00 20.00    -0.298 OA
ENDBRANCH   1   2
BRANCH   1   5
HETATM    5  C8  UNL     1     -33.344   7.079   2.369  1.00 20.00     0.045 C 
BRANCH   5   6
HETATM    6  C2  UNL     1     -32.243   8.118   2.309  1.00 20.00    -0.092 C 
HETATM    7  C1  UNL     1     -32.036   8.862   1.211  1.00 20.00     0.014 C 
HETATM    8  C4  UNL     1     -31.357   8.249   3.515  1.00 20.00     0.042 C 
ENDBRANCH   5   6
ENDBRANCH   1   5
BRANCH   1   9
HETATM    9  C10 UNL     1     -34.251   6.163   4.628  1.00 20.00    -0.011 C 
HETATM   10  C6  UNL     1     -35.650   6.351   4.031  1.00 20.00     0.010 C 
HETATM   11  C7  UNL     1     -33.977   7.267   5.653  1.00 20.00     0.010 C 
ENDBRANCH   1   9
TORSDOF 4
ENDMDL
