MODEL 1
REMARK VINA RESULT:      -5.3      0.000      0.000
REMARK  6 active torsions:
REMARK  status: ('A' for Active; 'I' for Inactive)
REMARK    1  A    between atoms: C1_1  and  C10_10 
REMARK    2  A    between atoms: C7_7  and  C8_8 
REMARK    3  A    between atoms: C8_8  and  C12_12 
REMARK    4  A    between atoms: C9_9  and  C10_10 
REMARK    5  A    between atoms: C9_9  and  C12_12 
REMARK    6  A    between atoms: C10_10  and  C11_11 
ROOT
HETATM    1  C10 UNL     1     -34.206   6.786   3.594  1.00 20.00     0.058 C 
ENDROOT
BRANCH   1   2
HETATM    2  C1  UNL     1     -33.984   5.749   2.492  1.00 20.00     0.127 C 
HETATM    3  C2  UNL     1     -32.999   4.645   2.785  1.00 20.00     0.091 C 
HETATM    4  O13 UNL     1     -34.587   5.788   1.420  1.00 20.00    -0.298 OA
ENDBRANCH   1   2
BRANCH   1   5
HETATM    5  C9  UNL     1     -33.445   8.087   3.258  1.00 20.00     0.016 C 
BRANCH   5   6
HETATM    6  C12 UNL     1     -31.987   7.894   2.769  1.00 20.00    -0.018 C 
HETATM    7  C6  UNL     1     -31.034   8.412   3.855  1.00 20.00     0.010 C 
BRANCH   6   8
HETATM    8  C8  UNL     1     -31.736   8.595   1.416  1.00 20.00     0.004 C 
BRANCH   8   9
HETATM    9  C7  UNL     1     -32.764   9.657   1.011  1.00 20.00    -0.004 C 
HETATM   10  C3  UNL     1     -33.201   9.556  -0.442  1.00 20.00     0.005 C 
ENDBRANCH   8   9
ENDBRANCH   6   8
ENDBRANCH   5   6
ENDBRANCH   1   5
BRANCH   1  11
HETATM   11  C11 UNL     1     -33.844   6.237   5.001  1.00 20.00    -0.012 C 
HETATM   12  C4  UNL     1     -33.749   7.359   6.040  1.00 20.00     0.010 C 
HETATM   13  C5  UNL     1     -34.769   5.132   5.519  1.00 20.00     0.010 C 
ENDBRANCH   1  11
TORSDOF 6
ENDMDL
MODEL 2
REMARK VINA RESULT:      -5.1      1.559      2.616
REMARK  6 active torsions:
REMARK  status: ('A' for Active; 'I' for Inactive)
REMARK    1  A    between atoms: C1_1  and  C10_10 
REMARK    2  A    between atoms: C7_7  and  C8_8 
REMARK    3  A    between atoms: C8_8  and  C12_12 
REMARK    4  A    between atoms: C9_9  and  C10_10 
REMARK    5  A    between atoms: C9_9  and  C12_12 
REMARK    6  A    between atoms: C10_10  and  C11_11 
ROOT
HETATM    1  C10 UNL     1     -33.350   6.544   3.979  1.00 20.00     0.058 C 
ENDROOT
BRANCH   1   2
HETATM    2  C1  UNL     1     -33.993   6.539   5.367  1.00 20.00     0.127 C 
HETATM    3  C2  UNL     1     -34.687   5.268   5.790  1.00 20.00     0.091 C 
HETATM    4  O13 UNL     1     -33.938   7.509   6.122  1.00 20.00    -0.298 OA
ENDBRANCH   1   2
BRANCH   1   5
HETATM    5  C9  UNL     1     -33.485   7.943   3.340  1.00 20.00     0.016 C 
BRANCH   5   6
HETATM    6  C12 UNL     1     -32.291   8.386   2.455  1.00 20.00    -0.018 C 
HETATM    7  C6  UNL     1     -31.011   8.341   3.301  1.00 20.00     0.010 C 
BRANCH   6   8
HETATM    8  C8  UNL     1     -32.516   9.786   1.845  1.00 20.00     0.004 C 
BRANCH   8   9
HETATM    9  C7  UNL     1     -32.184   9.929   0.356  1.00 20.00    -0.004 C 
HETATM   10  C3  UNL     1     -33.245   9.342  -0.562  1.00 20.00     0.005 C 
ENDBRANCH   8   9
ENDBRANCH   6   8
ENDBRANCH   5   6
ENDBRANCH   1   5
BRANCH   1  11
HETATM   11  C11 UNL     1     -33.910   5.420   3.066  1.00 20.00    -0.012 C 
HETATM   12  C4  UNL     1     -34.735   5.990   1.907  1.00 20.00     0.010 C 
HETATM   13  C5  UNL     1     -32.859   4.448   2.522  1.00 20.00     0.010 C 
ENDBRANCH   1  11
TORSDOF 6
ENDMDL
MODEL 3
REMARK VINA RESULT:      -5.0     10.258     11.357
REMARK  6 active torsions:
REMARK  status: ('A' for Active; 'I' for Inactive)
REMARK    1  A    between atoms: C1_1  and  C10_10 
REMARK    2  A    between atoms: C7_7  and  C8_8 
REMARK    3  A    between atoms: C8_8  and  C12_12 
REMARK    4  A    between atoms: C9_9  and  C10_10 
REMARK    5  A    between atoms: C9_9  and  C12_12 
REMARK    6  A    between atoms: C10_10  and  C11_11 
ROOT
HETATM    1  C10 UNL     1     -34.735  14.551  -4.067  1.00 20.00     0.058 C 
ENDROOT
BRANCH   1   2
HETATM    2  C1  UNL     1     -35.954  13.927  -4.750  1.00 20.00     0.127 C 
HETATM    3  C2  UNL     1     -37.204  14.769  -4.812  1.00 20.00     0.091 C 
HETATM    4  O13 UNL     1     -35.926  12.802  -5.247  1.00 20.00    -0.298 OA
ENDBRANCH   1   2
BRANCH   1   5
HETATM    5  C9  UNL     1     -35.049  16.004  -3.649  1.00 20.00     0.016 C 
BRANCH   5   6
HETATM    6  C12 UNL     1     -34.403  16.465  -2.317  1.00 20.00    -0.018 C 
HETATM    7  C6  UNL     1     -35.515  16.926  -1.366  1.00 20.00     0.010 C 
BRANCH   6   8
HETATM    8  C8  UNL     1     -33.354  17.576  -2.542  1.00 20.00     0.004 C 
BRANCH   8   9
HETATM    9  C7  UNL     1     -33.284  18.659  -1.461  1.00 20.00    -0.004 C 
HETATM   10  C3  UNL     1     -32.153  18.451  -0.465  1.00 20.00     0.005 C 
ENDBRANCH   8   9
ENDBRANCH   6   8
ENDBRANCH   5   6
ENDBRANCH   1   5
BRANCH   1  11
HETATM   11  C11 UNL     1     -33.455  14.450  -4.940  1.00 20.00    -0.012 C 
HETATM   12  C4  UNL     1     -33.219  15.729  -5.750  1.00 20.00     0.010 C 
HETATM   13  C5  UNL     1     -32.181  14.082  -4.175  1.00 20.00     0.010 C 
ENDBRANCH   1  11
TORSDOF 6
ENDMDL
MODEL 4
REMARK VINA RESULT:      -4.9     10.294     11.594
REMARK  6 active torsions:
REMARK  status: ('A' for Active; 'I' for Inactive)
REMARK    1  A    between atoms: C1_1  and  C10_10 
REMARK    2  A    between atoms: C7_7  and  C8_8 
REMARK    3  A    between atoms: C8_8  and  C12_12 
REMARK    4  A    between atoms: C9_9  and  C10_10 
REMARK    5  A    between atoms: C9_9  and  C12_12 
REMARK    6  A    between atoms: C10_10  and  C11_11 
ROOT
HETATM    1  C10 UNL     1     -35.109  14.741  -4.361  1.00 20.00     0.058 C 
ENDROOT
BRANCH   1   2
HETATM    2  C1  UNL     1     -36.142  13.804  -4.992  1.00 20.00     0.127 C 
HETATM    3  C2  UNL     1     -37.510  14.380  -5.257  1.00 20.00     0.091 C 
HETATM    4  O13 UNL     1     -35.877  12.640  -5.292  1.00 20.00    -0.298 OA
ENDBRANCH   1   2
BRANCH   1   5
HETATM    5  C9  UNL     1     -35.662  16.182  -4.315  1.00 20.00     0.016 C 
BRANCH   5   6
HETATM    6  C12 UNL     1     -35.925  16.747  -2.896  1.00 20.00    -0.018 C 
HETATM    7  C6  UNL     1     -36.313  18.226  -3.020  1.00 20.00     0.010 C 
BRANCH   6   8
HETATM    8  C8  UNL     1     -34.704  16.559  -1.968  1.00 20.00     0.004 C 
BRANCH   8   9
HETATM    9  C7  UNL     1     -33.461  17.381  -2.322  1.00 20.00    -0.004 C 
HETATM   10  C3  UNL     1     -32.877  18.138  -1.139  1.00 20.00     0.005 C 
ENDBRANCH   8   9
ENDBRANCH   6   8
ENDBRANCH   5   6
ENDBRANCH   1   5
BRANCH   1  11
HETATM   11  C11 UNL     1     -33.729  14.659  -5.067  1.00 20.00    -0.012 C 
HETATM   12  C4  UNL     1     -33.360  15.983  -5.745  1.00 20.00     0.010 C 
HETATM   13  C5  UNL     1     -32.575  14.197  -4.175  1.00 20.00     0.010 C 
ENDBRANCH   1  11
TORSDOF 6
ENDMDL
MODEL 5
REMARK VINA RESULT:      -4.9      1.735      5.063
REMARK  6 active torsions:
REMARK  status: ('A' for Active; 'I' for Inactive)
REMARK    1  A    between atoms: C1_1  and  C10_10 
REMARK    2  A    between atoms: C7_7  and  C8_8 
REMARK    3  A    between atoms: C8_8  and  C12_12 
REMARK    4  A    between atoms: C9_9  and  C10_10 
REMARK    5  A    between atoms: C9_9  and  C12_12 
REMARK    6  A    between atoms: C10_10  and  C11_11 
ROOT
HETATM    1  C10 UNL     1     -32.781   8.402   2.364  1.00 20.00     0.058 C 
ENDROOT
BRANCH   1   2
HETATM    2  C1  UNL     1     -31.803   8.330   3.539  1.00 20.00     0.127 C 
HETATM    3  C2  UNL     1     -32.398   8.386   4.924  1.00 20.00     0.091 C 
HETATM    4  O13 UNL     1     -30.589   8.212   3.379  1.00 20.00    -0.298 OA
ENDBRANCH   1   2
BRANCH   1   5
HETATM    5  C9  UNL     1     -33.086   6.980   1.843  1.00 20.00     0.016 C 
BRANCH   5   6
HETATM    6  C12 UNL     1     -33.327   5.911   2.940  1.00 20.00    -0.018 C 
HETATM    7  C6  UNL     1     -32.917   4.540   2.386  1.00 20.00     0.010 C 
BRANCH   6   8
HETATM    8  C8  UNL     1     -34.792   5.908   3.428  1.00 20.00     0.004 C 
BRANCH   8   9
HETATM    9  C7  UNL     1     -35.086   5.044   4.659  1.00 20.00    -0.004 C 
HETATM   10  C3  UNL     1     -34.488   5.595   5.944  1.00 20.00     0.005 C 
ENDBRANCH   8   9
ENDBRANCH   6   8
ENDBRANCH   5   6
ENDBRANCH   1   5
BRANCH   1  11
HETATM   11  C11 UNL     1     -32.282   9.349   1.240  1.00 20.00    -0.012 C 
HETATM   12  C4  UNL     1     -32.859   8.961  -0.126  1.00 20.00     0.010 C 
HETATM   13  C5  UNL     1     -32.524  10.839   1.497  1.00 20.00     0.010 C 
ENDBRANCH   1  11
TORSDOF 6
ENDMDL
MODEL 6
REMARK VINA RESULT:      -4.5     10.548     11.902
REMARK  6 active torsions:
REMARK  status: ('A' for Active; 'I' for Inactive)
REMARK    1  A    between atoms: C1_1  and  C10_10 
REMARK    2  A    between atoms: C7_7  and  C8_8 
REMARK    3  A    between atoms: C8_8  and  C12_12 
REMARK    4  A    between atoms: C9_9  and  C10_10 
REMARK    5  A    between atoms: C9_9  and  C12_12 
REMARK    6  A    between atoms: C10_10  and  C11_11 
ROOT
HETATM    1  C10 UNL     1     -34.522  15.820  -4.031  1.00 20.00     0.058 C 
ENDROOT
BRANCH   1   2
HETATM    2  C1  UNL     1     -34.460  14.329  -4.374  1.00 20.00     0.127 C 
HETATM    3  C2  UNL     1     -35.717  13.706  -4.928  1.00 20.00     0.091 C 
HETATM    4  O13 UNL     1     -33.436  13.663  -4.229  1.00 20.00    -0.298 OA
ENDBRANCH   1   2
BRANCH   1   5
HETATM    5  C9  UNL     1     -35.433  16.042  -2.804  1.00 20.00     0.016 C 
BRANCH   5   6
HETATM    6  C12 UNL     1     -34.769  16.778  -1.612  1.00 20.00    -0.018 C 
HETATM    7  C6  UNL     1     -35.693  17.918  -1.163  1.00 20.00     0.010 C 
BRANCH   6   8
HETATM    8  C8  UNL     1     -33.361  17.300  -1.971  1.00 20.00     0.004 C 
BRANCH   8   9
HETATM    9  C7  UNL     1     -32.990  18.673  -1.401  1.00 20.00    -0.004 C 
HETATM   10  C3  UNL     1     -32.091  18.600  -0.177  1.00 20.00     0.005 C 
ENDBRANCH   8   9
ENDBRANCH   6   8
ENDBRANCH   5   6
ENDBRANCH   1   5
BRANCH   1  11
HETATM   11  C11 UNL     1     -34.947  16.686  -5.247  1.00 20.00    -0.012 C 
HETATM   12  C4  UNL     1     -36.284  17.393  -5.000  1.00 20.00     0.010 C 
HETATM   13  C5  UNL     1     -33.901  17.706  -5.708  1.00 20.00     0.010 C 
ENDBRANCH   1  11
TORSDOF 6
ENDMDL
MODEL 7
REMARK VINA RESULT:      -4.5     10.447     12.027
REMARK  6 active torsions:
REMARK  status: ('A' for Active; 'I' for Inactive)
REMARK    1  A    between atoms: C1_1  and  C10_10 
REMARK    2  A    between atoms: C7_7  and  C8_8 
REMARK    3  A    between atoms: C8_8  and  C12_12 
REMARK    4  A    between atoms: C9_9  and  C10_10 
REMARK    5  A    between atoms: C9_9  and  C12_12 
REMARK    6  A    between atoms: C10_10  and  C11_11 
ROOT
HETATM    1  C10 UNL     1     -34.466  16.005  -3.947  1.00 20.00     0.058 C 
ENDROOT
BRANCH   1   2
HETATM    2  C1  UNL     1     -34.040  14.555  -4.187  1.00 20.00     0.127 C 
HETATM    3  C2  UNL     1     -32.562  14.297  -4.336  1.00 20.00     0.091 C 
HETATM    4  O13 UNL     1     -34.850  13.631  -4.238  1.00 20.00    -0.298 OA
ENDBRANCH   1   2
BRANCH   1   5
HETATM    5  C9  UNL     1     -33.603  16.958  -4.802  1.00 20.00     0.016 C 
BRANCH   5   6
HETATM    6  C12 UNL     1     -34.253  17.433  -6.127  1.00 20.00    -0.018 C 
HETATM    7  C6  UNL     1     -35.778  17.356  -5.980  1.00 20.00     0.010 C 
BRANCH   6   8
HETATM    8  C8  UNL     1     -33.759  16.610  -7.336  1.00 20.00     0.004 C 
BRANCH   8   9
HETATM    9  C7  UNL     1     -34.727  15.544  -7.861  1.00 20.00    -0.004 C 
HETATM   10  C3  UNL     1     -34.122  14.150  -7.918  1.00 20.00     0.005 C 
ENDBRANCH   8   9
ENDBRANCH   6   8
ENDBRANCH   5   6
ENDBRANCH   1   5
BRANCH   1  11
HETATM   11  C11 UNL     1     -34.450  16.383  -2.441  1.00 20.00    -0.012 C 
HETATM   12  C4  UNL     1     -33.315  17.359  -2.114  1.00 20.00     0.010 C 
HETATM   13  C5  UNL     1     -35.774  16.931  -1.900  1.00 20.00     0.010 C 
ENDBRANCH   1  11
TORSDOF 6
ENDMDL
MODEL 8
REMARK VINA RESULT:      -4.3     10.678     11.906
REMARK  6 active torsions:
REMARK  status: ('A' for Active; 'I' for Inactive)
REMARK    1  A    between atoms: C1_1  and  C10_10 
REMARK    2  A    between atoms: C7_7  and  C8_8 
REMARK    3  A    between atoms: C8_8  and  C12_12 
REMARK    4  A    between atoms: C9_9  and  C10_10 
REMARK    5  A    between atoms: C9_9  and  C12_12 
REMARK    6  A    between atoms: C10_10  and  C11_11 
ROOT
HETATM    1  C10 UNL     1     -34.909  15.846  -3.612  1.00 20.00     0.058 C 
ENDROOT
BRANCH   1   2
HETATM    2  C1  UNL     1     -33.943  14.850  -4.257  1.00 20.00     0.127 C 
HETATM    3  C2  UNL     1     -32.944  15.411  -5.238  1.00 20.00     0.091 C 
HETATM    4  O13 UNL     1     -33.955  13.650  -3.985  1.00 20.00    -0.298 OA
ENDBRANCH   1   2
BRANCH   1   5
HETATM    5  C9  UNL     1     -35.404  16.861  -4.665  1.00 20.00     0.016 C 
BRANCH   5   6
HETATM    6  C12 UNL     1     -36.758  16.512  -5.336  1.00 20.00    -0.018 C 
HETATM    7  C6  UNL     1     -37.566  15.627  -4.379  1.00 20.00     0.010 C 
BRANCH   6   8
HETATM    8  C8  UNL     1     -36.560  15.829  -6.707  1.00 20.00     0.004 C 
BRANCH   8   9
HETATM    9  C7  UNL     1     -36.714  14.305  -6.724  1.00 20.00    -0.004 C 
HETATM   10  C3  UNL     1     -35.529  13.581  -7.345  1.00 20.00     0.005 C 
ENDBRANCH   8   9
ENDBRANCH   6   8
ENDBRANCH   5   6
ENDBRANCH   1   5
BRANCH   1  11
HETATM   11  C11 UNL     1     -34.294  16.540  -2.366  1.00 20.00    -0.012 C 
HETATM   12  C4  UNL     1     -33.479  17.779  -2.751  1.00 20.00     0.010 C 
HETATM   13  C5  UNL     1     -35.299  16.904  -1.270  1.00 20.00     0.010 C 
ENDBRANCH   1  11
TORSDOF 6
ENDMDL
MODEL 9
REMARK VINA RESULT:      -4.3     10.744     11.994
REMARK  6 active torsions:
REMARK  status: ('A' for Active; 'I' for Inactive)
REMARK    1  A    between atoms: C1_1  and  C10_10 
REMARK    2  A    between atoms: C7_7  and  C8_8 
REMARK    3  A    between atoms: C8_8  and  C12_12 
REMARK    4  A    between atoms: C9_9  and  C10_10 
REMARK    5  A    between atoms: C9_9  and  C12_12 
REMARK    6  A    between atoms: C10_10  and  C11_11 
ROOT
HETATM    1  C10 UNL     1     -33.798  16.089  -3.433  1.00 20.00     0.058 C 
ENDROOT
BRANCH   1   2
HETATM    2  C1  UNL     1     -33.502  16.605  -4.843  1.00 20.00     0.127 C 
HETATM    3  C2  UNL     1     -34.016  17.981  -5.185  1.00 20.00     0.091 C 
HETATM    4  O13 UNL     1     -32.860  15.949  -5.662  1.00 20.00    -0.298 OA
ENDBRANCH   1   2
BRANCH   1   5
HETATM    5  C9  UNL     1     -34.898  15.006  -3.486  1.00 20.00     0.016 C 
BRANCH   5   6
HETATM    6  C12 UNL     1     -35.836  15.075  -4.719  1.00 20.00    -0.018 C 
HETATM    7  C6  UNL     1     -37.227  15.523  -4.252  1.00 20.00     0.010 C 
BRANCH   6   8
HETATM    8  C8  UNL     1     -35.898  13.726  -5.468  1.00 20.00     0.004 C 
BRANCH   8   9
HETATM    9  C7  UNL     1     -35.841  13.806  -6.997  1.00 20.00    -0.004 C 
HETATM   10  C3  UNL     1     -34.437  13.651  -7.561  1.00 20.00     0.005 C 
ENDBRANCH   8   9
ENDBRANCH   6   8
ENDBRANCH   5   6
ENDBRANCH   1   5
BRANCH   1  11
HETATM   11  C11 UNL     1     -34.146  17.237  -2.446  1.00 20.00    -0.012 C 
HETATM   12  C4  UNL     1     -35.263  16.833  -1.479  1.00 20.00     0.010 C 
HETATM   13  C5  UNL     1     -32.956  17.791  -1.658  1.00 20.00     0.010 C 
ENDBRANCH   1  11
TORSDOF 6
ENDMDL
