MODEL 1
REMARK VINA RESULT:      -4.7      0.000      0.000
REMARK  6 active torsions:
REMARK  status: ('A' for Active; 'I' for Inactive)
REMARK    1  A    between atoms: C5_5  and  C6_6 
REMARK    2  A    between atoms: C5_5  and  C7_7 
REMARK    3  A    between atoms: C6_6  and  C9_9 
REMARK    4  A    between atoms: C7_7  and  O11_11 
REMARK    5  A    between atoms: C8_8  and  C9_9 
REMARK    6  A    between atoms: C9_9  and  C10_10 
ROOT
HETATM    1  C9  UNL     1     -32.916   6.667   3.923  1.00 20.00     0.007 C 
ENDROOT
BRANCH   1   2
HETATM    2  C6  UNL     1     -32.139   7.995   3.706  1.00 20.00     0.008 C 
BRANCH   2   3
HETATM    3  C5  UNL     1     -31.746   8.254   2.244  1.00 20.00     0.027 C 
BRANCH   3   4
HETATM    4  C7  UNL     1     -32.383   9.528   1.696  1.00 20.00     0.167 C 
BRANCH   4   5
HETATM    5  O11 UNL     1     -32.066   9.674   0.319  1.00 20.00    -0.396 OA
HETATM    6  C4  UNL     1     -33.180   9.372  -0.509  1.00 20.00     0.201 C 
ENDBRANCH   4   5
ENDBRANCH   3   4
ENDBRANCH   2   3
ENDBRANCH   1   2
BRANCH   1   7
HETATM    7  C8  UNL     1     -33.355   5.984   2.584  1.00 20.00    -0.017 C 
HETATM    8  C1  UNL     1     -32.990   4.495   2.536  1.00 20.00     0.010 C 
HETATM    9  C2  UNL     1     -34.825   6.161   2.199  1.00 20.00     0.010 C 
ENDBRANCH   1   7
BRANCH   1  10
HETATM   10  C10 UNL     1     -34.043   6.806   4.993  1.00 20.00     0.082 C 
HETATM   11  C3  UNL     1     -33.618   7.652   6.194  1.00 20.00     0.027 C 
HETATM   12 CL12 UNL     1     -34.642   5.233   5.601  1.00 20.00    -0.125 Cl
ENDBRANCH   1  10
TORSDOF 6
ENDMDL
MODEL 2
REMARK VINA RESULT:      -4.6      1.491      2.776
REMARK  6 active torsions:
REMARK  status: ('A' for Active; 'I' for Inactive)
REMARK    1  A    between atoms: C5_5  and  C6_6 
REMARK    2  A    between atoms: C5_5  and  C7_7 
REMARK    3  A    between atoms: C6_6  and  C9_9 
REMARK    4  A    between atoms: C7_7  and  O11_11 
REMARK    5  A    between atoms: C8_8  and  C9_9 
REMARK    6  A    between atoms: C9_9  and  C10_10 
ROOT
HETATM    1  C9  UNL     1     -33.768   6.949   3.638  1.00 20.00     0.007 C 
ENDROOT
BRANCH   1   2
HETATM    2  C6  UNL     1     -32.280   7.378   3.511  1.00 20.00     0.008 C 
BRANCH   2   3
HETATM    3  C5  UNL     1     -32.078   8.715   2.783  1.00 20.00     0.027 C 
BRANCH   3   4
HETATM    4  C7  UNL     1     -31.790   8.521   1.297  1.00 20.00     0.167 C 
BRANCH   4   5
HETATM    5  O11 UNL     1     -32.170   9.683   0.575  1.00 20.00    -0.396 OA
HETATM    6  C4  UNL     1     -33.128   9.385  -0.430  1.00 20.00     0.201 C 
ENDBRANCH   4   5
ENDBRANCH   3   4
ENDBRANCH   2   3
ENDBRANCH   1   2
BRANCH   1   7
HETATM    7  C8  UNL     1     -34.271   6.896   5.120  1.00 20.00    -0.017 C 
HETATM    8  C1  UNL     1     -34.585   5.469   5.585  1.00 20.00     0.010 C 
HETATM    9  C2  UNL     1     -33.371   7.581   6.151  1.00 20.00     0.010 C 
ENDBRANCH   1   7
BRANCH   1  10
HETATM   10  C10 UNL     1     -34.096   5.685   2.784  1.00 20.00     0.082 C 
HETATM   11  C3  UNL     1     -32.885   4.770   2.591  1.00 20.00     0.027 C 
HETATM   12 CL12 UNL     1     -34.766   6.073   1.171  1.00 20.00    -0.125 Cl
ENDBRANCH   1  10
TORSDOF 6
ENDMDL
MODEL 3
REMARK VINA RESULT:      -4.3     10.780     12.043
REMARK  6 active torsions:
REMARK  status: ('A' for Active; 'I' for Inactive)
REMARK    1  A    between atoms: C5_5  and  C6_6 
REMARK    2  A    between atoms: C5_5  and  C7_7 
REMARK    3  A    between atoms: C6_6  and  C9_9 
REMARK    4  A    between atoms: C7_7  and  O11_11 
REMARK    5  A    between atoms: C8_8  and  C9_9 
REMARK    6  A    between atoms: C9_9  and  C10_10 
ROOT
HETATM    1  C9  UNL     1     -33.947  16.377  -3.441  1.00 20.00     0.007 C 
ENDROOT
BRANCH   1   2
HETATM    2  C6  UNL     1     -35.108  15.348  -3.534  1.00 20.00     0.008 C 
BRANCH   2   3
HETATM    3  C5  UNL     1     -34.732  14.050  -4.265  1.00 20.00     0.027 C 
BRANCH   3   4
HETATM    4  C7  UNL     1     -35.864  13.547  -5.156  1.00 20.00     0.167 C 
BRANCH   4   5
HETATM    5  O11 UNL     1     -35.349  12.657  -6.136  1.00 20.00    -0.396 OA
HETATM    6  C4  UNL     1     -34.698  13.357  -7.187  1.00 20.00     0.201 C 
ENDBRANCH   4   5
ENDBRANCH   3   4
ENDBRANCH   2   3
ENDBRANCH   1   2
BRANCH   1   7
HETATM    7  C8  UNL     1     -33.729  16.932  -1.994  1.00 20.00    -0.017 C 
HETATM    8  C1  UNL     1     -32.949  18.252  -1.980  1.00 20.00     0.010 C 
HETATM    9  C2  UNL     1     -34.993  17.079  -1.142  1.00 20.00     0.010 C 
ENDBRANCH   1   7
BRANCH   1  10
HETATM   10  C10 UNL     1     -34.024  17.462  -4.559  1.00 20.00     0.082 C 
HETATM   11  C3  UNL     1     -35.420  18.072  -4.697  1.00 20.00     0.027 C 
HETATM   12 CL12 UNL     1     -33.517  16.860  -6.167  1.00 20.00    -0.125 Cl
ENDBRANCH   1  10
TORSDOF 6
ENDMDL
MODEL 4
REMARK VINA RESULT:      -4.1     10.874     11.675
REMARK  6 active torsions:
REMARK  status: ('A' for Active; 'I' for Inactive)
REMARK    1  A    between atoms: C5_5  and  C6_6 
REMARK    2  A    between atoms: C5_5  and  C7_7 
REMARK    3  A    between atoms: C6_6  and  C9_9 
REMARK    4  A    between atoms: C7_7  and  O11_11 
REMARK    5  A    between atoms: C8_8  and  C9_9 
REMARK    6  A    between atoms: C9_9  and  C10_10 
ROOT
HETATM    1  C9  UNL     1     -34.735  15.656  -3.412  1.00 20.00     0.007 C 
ENDROOT
BRANCH   1   2
HETATM    2  C6  UNL     1     -35.904  15.906  -4.405  1.00 20.00     0.008 C 
BRANCH   2   3
HETATM    3  C5  UNL     1     -36.839  14.700  -4.582  1.00 20.00     0.027 C 
BRANCH   3   4
HETATM    4  C7  UNL     1     -36.652  14.024  -5.936  1.00 20.00     0.167 C 
BRANCH   4   5
HETATM    5  O11 UNL     1     -35.486  13.214  -5.916  1.00 20.00    -0.396 OA
HETATM    6  C4  UNL     1     -34.788  13.271  -7.153  1.00 20.00     0.201 C 
ENDBRANCH   4   5
ENDBRANCH   3   4
ENDBRANCH   2   3
ENDBRANCH   1   2
BRANCH   1   7
HETATM    7  C8  UNL     1     -34.839  16.517  -2.109  1.00 20.00    -0.017 C 
HETATM    8  C1  UNL     1     -33.561  17.315  -1.826  1.00 20.00     0.010 C 
HETATM    9  C2  UNL     1     -36.050  17.449  -2.023  1.00 20.00     0.010 C 
ENDBRANCH   1   7
BRANCH   1  10
HETATM   10  C10 UNL     1     -33.343  15.688  -4.115  1.00 20.00     0.082 C 
HETATM   11  C3  UNL     1     -33.399  16.304  -5.514  1.00 20.00     0.027 C 
HETATM   12 CL12 UNL     1     -32.578  14.075  -4.246  1.00 20.00    -0.125 Cl
ENDBRANCH   1  10
TORSDOF 6
ENDMDL
MODEL 5
REMARK VINA RESULT:      -4.1     10.895     11.631
REMARK  6 active torsions:
REMARK  status: ('A' for Active; 'I' for Inactive)
REMARK    1  A    between atoms: C5_5  and  C6_6 
REMARK    2  A    between atoms: C5_5  and  C7_7 
REMARK    3  A    between atoms: C6_6  and  C9_9 
REMARK    4  A    between atoms: C7_7  and  O11_11 
REMARK    5  A    between atoms: C8_8  and  C9_9 
REMARK    6  A    between atoms: C9_9  and  C10_10 
ROOT
HETATM    1  C9  UNL     1     -34.253  17.046  -1.599  1.00 20.00     0.007 C 
ENDROOT
BRANCH   1   2
HETATM    2  C6  UNL     1     -34.720  16.218  -2.828  1.00 20.00     0.008 C 
BRANCH   2   3
HETATM    3  C5  UNL     1     -33.569  15.667  -3.682  1.00 20.00     0.027 C 
BRANCH   3   4
HETATM    4  C7  UNL     1     -34.073  14.820  -4.847  1.00 20.00     0.167 C 
BRANCH   4   5
HETATM    5  O11 UNL     1     -34.805  13.707  -4.354  1.00 20.00    -0.396 OA
HETATM    6  C4  UNL     1     -35.963  13.455  -5.138  1.00 20.00     0.201 C 
ENDBRANCH   4   5
ENDBRANCH   3   4
ENDBRANCH   2   3
ENDBRANCH   1   2
BRANCH   1   7
HETATM    7  C8  UNL     1     -35.406  17.872  -0.937  1.00 20.00    -0.017 C 
HETATM    8  C1  UNL     1     -36.682  17.887  -1.787  1.00 20.00     0.010 C 
HETATM    9  C2  UNL     1     -35.758  17.486   0.502  1.00 20.00     0.010 C 
ENDBRANCH   1   7
BRANCH   1  10
HETATM   10  C10 UNL     1     -32.947  17.850  -1.887  1.00 20.00     0.082 C 
HETATM   11  C3  UNL     1     -32.309  18.417  -0.618  1.00 20.00     0.027 C 
HETATM   12 CL12 UNL     1     -33.184  19.197  -3.042  1.00 20.00    -0.125 Cl
ENDBRANCH   1  10
TORSDOF 6
ENDMDL
MODEL 6
REMARK VINA RESULT:      -4.1     10.991     11.900
REMARK  6 active torsions:
REMARK  status: ('A' for Active; 'I' for Inactive)
REMARK    1  A    between atoms: C5_5  and  C6_6 
REMARK    2  A    between atoms: C5_5  and  C7_7 
REMARK    3  A    between atoms: C6_6  and  C9_9 
REMARK    4  A    between atoms: C7_7  and  O11_11 
REMARK    5  A    between atoms: C8_8  and  C9_9 
REMARK    6  A    between atoms: C9_9  and  C10_10 
ROOT
HETATM    1  C9  UNL     1     -34.522  16.115  -3.131  1.00 20.00     0.007 C 
ENDROOT
BRANCH   1   2
HETATM    2  C6  UNL     1     -35.749  16.738  -3.852  1.00 20.00     0.008 C 
BRANCH   2   3
HETATM    3  C5  UNL     1     -36.974  15.813  -3.908  1.00 20.00     0.027 C 
BRANCH   3   4
HETATM    4  C7  UNL     1     -36.727  14.588  -4.783  1.00 20.00     0.167 C 
BRANCH   4   5
HETATM    5  O11 UNL     1     -37.946  13.890  -4.993  1.00 20.00    -0.396 OA
HETATM    6  C4  UNL     1     -39.022  14.782  -5.250  1.00 20.00     0.201 C 
ENDBRANCH   4   5
ENDBRANCH   3   4
ENDBRANCH   2   3
ENDBRANCH   1   2
BRANCH   1   7
HETATM    7  C8  UNL     1     -34.166  16.834  -1.787  1.00 20.00    -0.017 C 
HETATM    8  C1  UNL     1     -33.268  18.060  -1.995  1.00 20.00     0.010 C 
HETATM    9  C2  UNL     1     -35.355  17.219  -0.904  1.00 20.00     0.010 C 
ENDBRANCH   1   7
BRANCH   1  10
HETATM   10  C10 UNL     1     -33.318  15.887  -4.097  1.00 20.00     0.082 C 
HETATM   11  C3  UNL     1     -33.534  16.522  -5.472  1.00 20.00     0.027 C 
HETATM   12 CL12 UNL     1     -32.919  14.159  -4.336  1.00 20.00    -0.125 Cl
ENDBRANCH   1  10
TORSDOF 6
ENDMDL
MODEL 7
REMARK VINA RESULT:      -4.0     10.431     11.835
REMARK  6 active torsions:
REMARK  status: ('A' for Active; 'I' for Inactive)
REMARK    1  A    between atoms: C5_5  and  C6_6 
REMARK    2  A    between atoms: C5_5  and  C7_7 
REMARK    3  A    between atoms: C6_6  and  C9_9 
REMARK    4  A    between atoms: C7_7  and  O11_11 
REMARK    5  A    between atoms: C8_8  and  C9_9 
REMARK    6  A    between atoms: C9_9  and  C10_10 
ROOT
HETATM    1  C9  UNL     1     -34.439  16.521  -3.404  1.00 20.00     0.007 C 
ENDROOT
BRANCH   1   2
HETATM    2  C6  UNL     1     -33.517  15.439  -4.031  1.00 20.00     0.008 C 
BRANCH   2   3
HETATM    3  C5  UNL     1     -34.148  14.040  -4.088  1.00 20.00     0.027 C 
BRANCH   3   4
HETATM    4  C7  UNL     1     -35.501  14.050  -4.793  1.00 20.00     0.167 C 
BRANCH   4   5
HETATM    5  O11 UNL     1     -35.639  12.884  -5.592  1.00 20.00    -0.396 OA
HETATM    6  C4  UNL     1     -35.266  13.127  -6.942  1.00 20.00     0.201 C 
ENDBRANCH   4   5
ENDBRANCH   3   4
ENDBRANCH   2   3
ENDBRANCH   1   2
BRANCH   1   7
HETATM    7  C8  UNL     1     -34.644  17.767  -4.328  1.00 20.00    -0.017 C 
HETATM    8  C1  UNL     1     -33.955  17.611  -5.689  1.00 20.00     0.010 C 
HETATM    9  C2  UNL     1     -36.095  18.206  -4.540  1.00 20.00     0.010 C 
ENDBRANCH   1   7
BRANCH   1  10
HETATM   10  C10 UNL     1     -34.051  16.849  -1.929  1.00 20.00     0.082 C 
HETATM   11  C3  UNL     1     -35.268  17.127  -1.045  1.00 20.00     0.027 C 
HETATM   12 CL12 UNL     1     -32.927  18.235  -1.783  1.00 20.00    -0.125 Cl
ENDBRANCH   1  10
TORSDOF 6
ENDMDL
MODEL 8
REMARK VINA RESULT:      -3.7     10.769     11.861
REMARK  6 active torsions:
REMARK  status: ('A' for Active; 'I' for Inactive)
REMARK    1  A    between atoms: C5_5  and  C6_6 
REMARK    2  A    between atoms: C5_5  and  C7_7 
REMARK    3  A    between atoms: C6_6  and  C9_9 
REMARK    4  A    between atoms: C7_7  and  O11_11 
REMARK    5  A    between atoms: C8_8  and  C9_9 
REMARK    6  A    between atoms: C9_9  and  C10_10 
ROOT
HETATM    1  C9  UNL     1     -34.979  16.878  -3.451  1.00 20.00     0.007 C 
ENDROOT
BRANCH   1   2
HETATM    2  C6  UNL     1     -36.529  16.766  -3.422  1.00 20.00     0.008 C 
BRANCH   2   3
HETATM    3  C5  UNL     1     -37.132  16.148  -4.692  1.00 20.00     0.027 C 
BRANCH   3   4
HETATM    4  C7  UNL     1     -38.292  15.208  -4.378  1.00 20.00     0.167 C 
BRANCH   4   5
HETATM    5  O11 UNL     1     -38.071  13.945  -4.989  1.00 20.00    -0.396 OA
HETATM    6  C4  UNL     1     -36.948  13.974  -5.858  1.00 20.00     0.201 C 
ENDBRANCH   4   5
ENDBRANCH   3   4
ENDBRANCH   2   3
ENDBRANCH   1   2
BRANCH   1   7
HETATM    7  C8  UNL     1     -34.316  15.980  -4.549  1.00 20.00    -0.017 C 
HETATM    8  C1  UNL     1     -33.430  16.782  -5.509  1.00 20.00     0.010 C 
HETATM    9  C2  UNL     1     -33.540  14.766  -4.033  1.00 20.00     0.010 C 
ENDBRANCH   1   7
BRANCH   1  10
HETATM   10  C10 UNL     1     -34.348  16.757  -2.029  1.00 20.00     0.082 C 
HETATM   11  C3  UNL     1     -35.346  17.063  -0.911  1.00 20.00     0.027 C 
HETATM   12 CL12 UNL     1     -32.913  17.801  -1.799  1.00 20.00    -0.125 Cl
ENDBRANCH   1  10
TORSDOF 6
ENDMDL
MODEL 9
REMARK VINA RESULT:      -3.6      2.758      4.728
REMARK  6 active torsions:
REMARK  status: ('A' for Active; 'I' for Inactive)
REMARK    1  A    between atoms: C5_5  and  C6_6 
REMARK    2  A    between atoms: C5_5  and  C7_7 
REMARK    3  A    between atoms: C6_6  and  C9_9 
REMARK    4  A    between atoms: C7_7  and  O11_11 
REMARK    5  A    between atoms: C8_8  and  C9_9 
REMARK    6  A    between atoms: C9_9  and  C10_10 
ROOT
HETATM    1  C9  UNL     1     -33.010   8.118   2.497  1.00 20.00     0.007 C 
ENDROOT
BRANCH   1   2
HETATM    2  C6  UNL     1     -33.014   6.579   2.280  1.00 20.00     0.008 C 
BRANCH   2   3
HETATM    3  C5  UNL     1     -34.157   5.851   3.003  1.00 20.00     0.027 C 
BRANCH   3   4
HETATM    4  C7  UNL     1     -33.743   4.460   3.474  1.00 20.00     0.167 C 
BRANCH   4   5
HETATM    5  O11 UNL     1     -34.605   4.026   4.516  1.00 20.00    -0.396 OA
HETATM    6  C4  UNL     1     -34.679   4.980   5.566  1.00 20.00     0.201 C 
ENDBRANCH   4   5
ENDBRANCH   3   4
ENDBRANCH   2   3
ENDBRANCH   1   2
BRANCH   1   7
HETATM    7  C8  UNL     1     -32.701   8.924   1.192  1.00 20.00    -0.017 C 
HETATM    8  C1  UNL     1     -32.804  10.440   1.397  1.00 20.00     0.010 C 
HETATM    9  C2  UNL     1     -31.374   8.593   0.505  1.00 20.00     0.010 C 
ENDBRANCH   1   7
BRANCH   1  10
HETATM   10  C10 UNL     1     -32.175   8.539   3.746  1.00 20.00     0.082 C 
HETATM   11  C3  UNL     1     -30.719   8.076   3.668  1.00 20.00     0.027 C 
HETATM   12 CL12 UNL     1     -32.865   7.954   5.290  1.00 20.00    -0.125 Cl
ENDBRANCH   1  10
TORSDOF 6
ENDMDL
