MODEL 1
REMARK VINA RESULT:      -5.6      0.000      0.000
REMARK  4 active torsions:
REMARK  status: ('A' for Active; 'I' for Inactive)
REMARK    1  A    between atoms: C2_2  and  C8_8 
REMARK    2  A    between atoms: C3_3  and  C9_9 
REMARK    3  A    between atoms: C8_8  and  C9_9 
REMARK    4  A    between atoms: C9_9  and  C10_10 
ROOT
HETATM    1  C1  UNL     1     -32.439   9.170   1.140  1.00 20.00    -0.111 C 
HETATM    2  C2  UNL     1     -32.351   8.513   2.141  1.00 20.00    -0.106 C 
HETATM    3  C4  UNL     1     -32.546   9.973  -0.078  1.00 20.00     0.112 C 
ENDROOT
BRANCH   2   4
HETATM    4  C8  UNL     1     -32.242   7.706   3.367  1.00 20.00     0.106 C 
BRANCH   4   5
HETATM    5  C9  UNL     1     -33.554   6.993   3.748  1.00 20.00     0.069 C 
BRANCH   5   6
HETATM    6  C3  UNL     1     -33.843   5.902   2.712  1.00 20.00     0.128 C 
HETATM    7  C5  UNL     1     -32.892   4.733   2.674  1.00 20.00     0.091 C 
HETATM    8  O11 UNL     1     -34.815   5.949   1.958  1.00 20.00    -0.298 OA
ENDBRANCH   5   6
BRANCH   5   9
HETATM    9  C10 UNL     1     -33.608   6.429   5.196  1.00 20.00    -0.011 C 
HETATM   10  C6  UNL     1     -34.801   5.478   5.368  1.00 20.00     0.010 C 
HETATM   11  C7  UNL     1     -33.709   7.536   6.251  1.00 20.00     0.010 C 
ENDBRANCH   5   9
ENDBRANCH   4   5
ENDBRANCH   2   4
TORSDOF 4
ENDMDL
MODEL 2
REMARK VINA RESULT:      -4.8      1.478      2.618
REMARK  4 active torsions:
REMARK  status: ('A' for Active; 'I' for Inactive)
REMARK    1  A    between atoms: C2_2  and  C8_8 
REMARK    2  A    between atoms: C3_3  and  C9_9 
REMARK    3  A    between atoms: C8_8  and  C9_9 
REMARK    4  A    between atoms: C9_9  and  C10_10 
ROOT
HETATM    1  C1  UNL     1     -32.473   9.004   1.353  1.00 20.00    -0.111 C 
HETATM    2  C2  UNL     1     -32.300   8.564   2.457  1.00 20.00    -0.106 C 
HETATM    3  C4  UNL     1     -32.681   9.540   0.009  1.00 20.00     0.112 C 
ENDROOT
BRANCH   2   4
HETATM    4  C8  UNL     1     -32.089   8.024   3.809  1.00 20.00     0.106 C 
BRANCH   4   5
HETATM    5  C9  UNL     1     -32.818   6.690   4.055  1.00 20.00     0.069 C 
BRANCH   5   6
HETATM    6  C3  UNL     1     -33.722   6.839   5.285  1.00 20.00     0.128 C 
HETATM    7  C5  UNL     1     -34.387   5.586   5.793  1.00 20.00     0.091 C 
HETATM    8  O11 UNL     1     -33.884   7.917   5.856  1.00 20.00    -0.298 OA
ENDBRANCH   5   6
BRANCH   5   9
HETATM    9  C10 UNL     1     -33.606   6.127   2.839  1.00 20.00    -0.011 C 
HETATM   10  C6  UNL     1     -35.117   6.141   3.112  1.00 20.00     0.010 C 
HETATM   11  C7  UNL     1     -33.187   4.697   2.482  1.00 20.00     0.010 C 
ENDBRANCH   5   9
ENDBRANCH   4   5
ENDBRANCH   2   4
TORSDOF 4
ENDMDL
MODEL 3
REMARK VINA RESULT:      -4.8      1.241      1.439
REMARK  4 active torsions:
REMARK  status: ('A' for Active; 'I' for Inactive)
REMARK    1  A    between atoms: C2_2  and  C8_8 
REMARK    2  A    between atoms: C3_3  and  C9_9 
REMARK    3  A    between atoms: C8_8  and  C9_9 
REMARK    4  A    between atoms: C9_9  and  C10_10 
ROOT
HETATM    1  C1  UNL     1     -32.532   9.069   1.218  1.00 20.00    -0.111 C 
HETATM    2  C2  UNL     1     -32.703   8.047   1.824  1.00 20.00    -0.106 C 
HETATM    3  C4  UNL     1     -32.325  10.315   0.480  1.00 20.00     0.112 C 
ENDROOT
BRANCH   2   4
HETATM    4  C8  UNL     1     -32.911   6.795   2.568  1.00 20.00     0.106 C 
BRANCH   4   5
HETATM    5  C9  UNL     1     -33.836   6.954   3.789  1.00 20.00     0.069 C 
BRANCH   5   6
HETATM    6  C3  UNL     1     -34.789   5.755   3.848  1.00 20.00     0.128 C 
HETATM    7  C5  UNL     1     -34.179   4.420   4.189  1.00 20.00     0.091 C 
HETATM    8  O11 UNL     1     -36.000   5.866   3.654  1.00 20.00    -0.298 OA
ENDBRANCH   5   6
BRANCH   5   9
HETATM    9  C10 UNL     1     -33.112   7.169   5.148  1.00 20.00    -0.011 C 
HETATM   10  C6  UNL     1     -34.124   7.234   6.302  1.00 20.00     0.010 C 
HETATM   11  C7  UNL     1     -32.269   8.449   5.165  1.00 20.00     0.010 C 
ENDBRANCH   5   9
ENDBRANCH   4   5
ENDBRANCH   2   4
TORSDOF 4
ENDMDL
MODEL 4
REMARK VINA RESULT:      -4.7     10.349     11.482
REMARK  4 active torsions:
REMARK  status: ('A' for Active; 'I' for Inactive)
REMARK    1  A    between atoms: C2_2  and  C8_8 
REMARK    2  A    between atoms: C3_3  and  C9_9 
REMARK    3  A    between atoms: C8_8  and  C9_9 
REMARK    4  A    between atoms: C9_9  and  C10_10 
ROOT
HETATM    1  C1  UNL     1     -35.323  16.901  -1.556  1.00 20.00    -0.111 C 
HETATM    2  C2  UNL     1     -35.435  16.513  -2.687  1.00 20.00    -0.106 C 
HETATM    3  C4  UNL     1     -35.187  17.370  -0.178  1.00 20.00     0.112 C 
ENDROOT
BRANCH   2   4
HETATM    4  C8  UNL     1     -35.570  16.040  -4.074  1.00 20.00     0.106 C 
BRANCH   4   5
HETATM    5  C9  UNL     1     -35.000  14.626  -4.297  1.00 20.00     0.069 C 
BRANCH   5   6
HETATM    6  C3  UNL     1     -36.072  13.761  -4.970  1.00 20.00     0.128 C 
HETATM    7  C5  UNL     1     -37.431  14.386  -5.152  1.00 20.00     0.091 C 
HETATM    8  O11 UNL     1     -35.841  12.620  -5.371  1.00 20.00    -0.298 OA
ENDBRANCH   5   6
BRANCH   5   9
HETATM    9  C10 UNL     1     -33.654  14.566  -5.072  1.00 20.00    -0.011 C 
HETATM   10  C6  UNL     1     -32.510  14.119  -4.149  1.00 20.00     0.010 C 
HETATM   11  C7  UNL     1     -33.279  15.915  -5.697  1.00 20.00     0.010 C 
ENDBRANCH   5   9
ENDBRANCH   4   5
ENDBRANCH   2   4
TORSDOF 4
ENDMDL
MODEL 5
REMARK VINA RESULT:      -4.4     11.073     11.938
REMARK  4 active torsions:
REMARK  status: ('A' for Active; 'I' for Inactive)
REMARK    1  A    between atoms: C2_2  and  C8_8 
REMARK    2  A    between atoms: C3_3  and  C9_9 
REMARK    3  A    between atoms: C8_8  and  C9_9 
REMARK    4  A    between atoms: C9_9  and  C10_10 
ROOT
HETATM    1  C1  UNL     1     -34.167  17.092  -1.958  1.00 20.00    -0.111 C 
HETATM    2  C2  UNL     1     -34.933  16.526  -2.690  1.00 20.00    -0.106 C 
HETATM    3  C4  UNL     1     -33.235  17.784  -1.068  1.00 20.00     0.112 C 
ENDROOT
BRANCH   2   4
HETATM    4  C8  UNL     1     -35.871  15.831  -3.585  1.00 20.00     0.106 C 
BRANCH   4   5
HETATM    5  C9  UNL     1     -35.180  14.864  -4.564  1.00 20.00     0.069 C 
BRANCH   5   6
HETATM    6  C3  UNL     1     -36.195  13.808  -5.016  1.00 20.00     0.128 C 
HETATM    7  C5  UNL     1     -37.623  14.263  -5.171  1.00 20.00     0.091 C 
HETATM    8  O11 UNL     1     -35.870  12.648  -5.269  1.00 20.00    -0.298 OA
ENDBRANCH   5   6
BRANCH   5   9
HETATM    9  C10 UNL     1     -34.482  15.535  -5.781  1.00 20.00    -0.011 C 
HETATM   10  C6  UNL     1     -32.980  15.721  -5.515  1.00 20.00     0.010 C 
HETATM   11  C7  UNL     1     -35.090  16.900  -6.123  1.00 20.00     0.010 C 
ENDBRANCH   5   9
ENDBRANCH   4   5
ENDBRANCH   2   4
TORSDOF 4
ENDMDL
MODEL 6
REMARK VINA RESULT:      -4.4      1.899      4.951
REMARK  4 active torsions:
REMARK  status: ('A' for Active; 'I' for Inactive)
REMARK    1  A    between atoms: C2_2  and  C8_8 
REMARK    2  A    between atoms: C3_3  and  C9_9 
REMARK    3  A    between atoms: C8_8  and  C9_9 
REMARK    4  A    between atoms: C9_9  and  C10_10 
ROOT
HETATM    1  C1  UNL     1     -34.123   5.326   3.755  1.00 20.00    -0.111 C 
HETATM    2  C2  UNL     1     -33.633   6.013   2.900  1.00 20.00    -0.106 C 
HETATM    3  C4  UNL     1     -34.717   4.491   4.798  1.00 20.00     0.112 C 
ENDROOT
BRANCH   2   4
HETATM    4  C8  UNL     1     -33.035   6.855   1.852  1.00 20.00     0.106 C 
BRANCH   4   5
HETATM    5  C9  UNL     1     -32.774   8.304   2.305  1.00 20.00     0.069 C 
BRANCH   5   6
HETATM    6  C3  UNL     1     -31.847   8.281   3.525  1.00 20.00     0.128 C 
HETATM    7  C5  UNL     1     -32.506   8.319   4.880  1.00 20.00     0.091 C 
HETATM    8  O11 UNL     1     -30.622   8.207   3.421  1.00 20.00    -0.298 OA
ENDBRANCH   5   6
BRANCH   5   9
HETATM    9  C10 UNL     1     -32.237   9.259   1.203  1.00 20.00    -0.011 C 
HETATM   10  C6  UNL     1     -32.607  10.717   1.515  1.00 20.00     0.010 C 
HETATM   11  C7  UNL     1     -32.773   8.906  -0.189  1.00 20.00     0.010 C 
ENDBRANCH   5   9
ENDBRANCH   4   5
ENDBRANCH   2   4
TORSDOF 4
ENDMDL
MODEL 7
REMARK VINA RESULT:      -4.3     10.842     12.076
REMARK  4 active torsions:
REMARK  status: ('A' for Active; 'I' for Inactive)
REMARK    1  A    between atoms: C2_2  and  C8_8 
REMARK    2  A    between atoms: C3_3  and  C9_9 
REMARK    3  A    between atoms: C8_8  and  C9_9 
REMARK    4  A    between atoms: C9_9  and  C10_10 
ROOT
HETATM    1  C1  UNL     1     -33.867  16.439  -2.865  1.00 20.00    -0.111 C 
HETATM    2  C2  UNL     1     -34.289  15.525  -3.521  1.00 20.00    -0.106 C 
HETATM    3  C4  UNL     1     -33.354  17.553  -2.069  1.00 20.00     0.112 C 
ENDROOT
BRANCH   2   4
HETATM    4  C8  UNL     1     -34.806  14.405  -4.322  1.00 20.00     0.106 C 
BRANCH   4   5
HETATM    5  C9  UNL     1     -35.215  14.812  -5.750  1.00 20.00     0.069 C 
BRANCH   5   6
HETATM    6  C3  UNL     1     -34.830  13.684  -6.715  1.00 20.00     0.128 C 
HETATM    7  C5  UNL     1     -34.009  14.072  -7.918  1.00 20.00     0.091 C 
HETATM    8  O11 UNL     1     -35.147  12.511  -6.518  1.00 20.00    -0.298 OA
ENDBRANCH   5   6
BRANCH   5   9
HETATM    9  C10 UNL     1     -36.704  15.223  -5.924  1.00 20.00    -0.011 C 
HETATM   10  C6  UNL     1     -36.870  16.745  -5.801  1.00 20.00     0.010 C 
HETATM   11  C7  UNL     1     -37.620  14.547  -4.897  1.00 20.00     0.010 C 
ENDBRANCH   5   9
ENDBRANCH   4   5
ENDBRANCH   2   4
TORSDOF 4
ENDMDL
MODEL 8
REMARK VINA RESULT:      -4.2     10.711     12.069
REMARK  4 active torsions:
REMARK  status: ('A' for Active; 'I' for Inactive)
REMARK    1  A    between atoms: C2_2  and  C8_8 
REMARK    2  A    between atoms: C3_3  and  C9_9 
REMARK    3  A    between atoms: C8_8  and  C9_9 
REMARK    4  A    between atoms: C9_9  and  C10_10 
ROOT
HETATM    1  C1  UNL     1     -33.230  17.711  -1.337  1.00 20.00    -0.111 C 
HETATM    2  C2  UNL     1     -33.937  17.029  -2.028  1.00 20.00    -0.106 C 
HETATM    3  C4  UNL     1     -32.369  18.539  -0.493  1.00 20.00     0.112 C 
ENDROOT
BRANCH   2   4
HETATM    4  C8  UNL     1     -34.802  16.195  -2.877  1.00 20.00     0.106 C 
BRANCH   4   5
HETATM    5  C9  UNL     1     -34.177  15.861  -4.245  1.00 20.00     0.069 C 
BRANCH   5   6
HETATM    6  C3  UNL     1     -34.173  14.339  -4.428  1.00 20.00     0.128 C 
HETATM    7  C5  UNL     1     -35.482  13.698  -4.812  1.00 20.00     0.091 C 
HETATM    8  O11 UNL     1     -33.152  13.662  -4.297  1.00 20.00    -0.298 OA
ENDBRANCH   5   6
BRANCH   5   9
HETATM    9  C10 UNL     1     -34.823  16.576  -5.465  1.00 20.00    -0.011 C 
HETATM   10  C6  UNL     1     -33.858  16.600  -6.659  1.00 20.00     0.010 C 
HETATM   11  C7  UNL     1     -35.241  18.016  -5.144  1.00 20.00     0.010 C 
ENDBRANCH   5   9
ENDBRANCH   4   5
ENDBRANCH   2   4
TORSDOF 4
ENDMDL
MODEL 9
REMARK VINA RESULT:      -4.2     10.913     12.206
REMARK  4 active torsions:
REMARK  status: ('A' for Active; 'I' for Inactive)
REMARK    1  A    between atoms: C2_2  and  C8_8 
REMARK    2  A    between atoms: C3_3  and  C9_9 
REMARK    3  A    between atoms: C8_8  and  C9_9 
REMARK    4  A    between atoms: C9_9  and  C10_10 
ROOT
HETATM    1  C1  UNL     1     -34.518  16.261  -2.630  1.00 20.00    -0.111 C 
HETATM    2  C2  UNL     1     -34.108  15.585  -3.533  1.00 20.00    -0.106 C 
HETATM    3  C4  UNL     1     -35.020  17.087  -1.532  1.00 20.00     0.112 C 
ENDROOT
BRANCH   2   4
HETATM    4  C8  UNL     1     -33.605  14.754  -4.639  1.00 20.00     0.106 C 
BRANCH   4   5
HETATM    5  C9  UNL     1     -34.615  14.593  -5.791  1.00 20.00     0.069 C 
BRANCH   5   6
HETATM    6  C3  UNL     1     -35.829  13.809  -5.279  1.00 20.00     0.128 C 
HETATM    7  C5  UNL     1     -37.034  14.617  -4.871  1.00 20.00     0.091 C 
HETATM    8  O11 UNL     1     -35.844  12.579  -5.223  1.00 20.00    -0.298 OA
ENDBRANCH   5   6
BRANCH   5   9
HETATM    9  C10 UNL     1     -35.046  15.914  -6.488  1.00 20.00    -0.011 C 
HETATM   10  C6  UNL     1     -35.636  15.632  -7.878  1.00 20.00     0.010 C 
HETATM   11  C7  UNL     1     -33.882  16.900  -6.642  1.00 20.00     0.010 C 
ENDBRANCH   5   9
ENDBRANCH   4   5
ENDBRANCH   2   4
TORSDOF 4
ENDMDL
