MODEL 1
REMARK VINA RESULT:      -5.5      0.000      0.000
REMARK  2 active torsions:
REMARK  status: ('A' for Active; 'I' for Inactive)
REMARK    1  A    between atoms: C3_3  and  C8_8 
REMARK    2  A    between atoms: C4_4  and  C7_7 
ROOT
HETATM    1  C1  UNL     1     -32.346   9.345   0.865  1.00 20.00     0.065 C 
HETATM    2  C8  UNL     1     -31.592   8.286   1.563  1.00 20.00     0.183 C 
HETATM    3  N9  UNL     1     -32.946  10.178   0.324  1.00 20.00    -0.197 NA
ENDROOT
BRANCH   2   4
HETATM    4  C3  UNL     1     -32.277   7.872   2.803  1.00 20.00     0.055 A 
HETATM    5  C2  UNL     1     -32.071   8.412   4.056  1.00 20.00     0.079 A 
HETATM    6  S11 UNL     1     -33.082   7.625   5.194  1.00 20.00    -0.084 SA
HETATM    7  C4  UNL     1     -33.698   6.640   3.932  1.00 20.00     0.079 A 
HETATM    8  N10 UNL     1     -33.209   6.855   2.731  1.00 20.00    -0.249 NA
BRANCH   7   9
HETATM    9  C7  UNL     1     -34.766   5.565   4.191  1.00 20.00     0.045 A 
HETATM   10  C5  UNL     1     -34.818   4.912   5.552  1.00 20.00     0.012 A 
HETATM   11  C6  UNL     1     -34.321   4.133   4.375  1.00 20.00     0.012 A 
ENDBRANCH   7   9
ENDBRANCH   2   4
TORSDOF 2
ENDMDL
MODEL 2
REMARK VINA RESULT:      -5.1      1.526      4.985
REMARK  2 active torsions:
REMARK  status: ('A' for Active; 'I' for Inactive)
REMARK    1  A    between atoms: C3_3  and  C8_8 
REMARK    2  A    between atoms: C4_4  and  C7_7 
ROOT
HETATM    1  C1  UNL     1     -34.467   4.759   4.162  1.00 20.00     0.065 C 
HETATM    2  C8  UNL     1     -34.900   6.098   3.720  1.00 20.00     0.183 C 
HETATM    3  N9  UNL     1     -34.115   3.708   4.509  1.00 20.00    -0.197 NA
ENDROOT
BRANCH   2   4
HETATM    4  C3  UNL     1     -33.742   6.984   3.488  1.00 20.00     0.055 A 
HETATM    5  C2  UNL     1     -32.824   7.376   4.440  1.00 20.00     0.079 A 
HETATM    6  S11 UNL     1     -31.654   8.402   3.722  1.00 20.00    -0.084 SA
HETATM    7  C4  UNL     1     -32.467   8.239   2.220  1.00 20.00     0.079 A 
HETATM    8  N10 UNL     1     -33.540   7.479   2.215  1.00 20.00    -0.249 NA
BRANCH   7   9
HETATM    9  C7  UNL     1     -31.968   8.944   0.948  1.00 20.00     0.045 A 
HETATM   10  C5  UNL     1     -32.348  10.389   0.725  1.00 20.00     0.012 A 
HETATM   11  C6  UNL     1     -32.974   9.320  -0.114  1.00 20.00     0.012 A 
ENDBRANCH   7   9
ENDBRANCH   2   4
TORSDOF 2
ENDMDL
MODEL 3
REMARK VINA RESULT:      -4.2      2.030      5.190
REMARK  2 active torsions:
REMARK  status: ('A' for Active; 'I' for Inactive)
REMARK    1  A    between atoms: C3_3  and  C8_8 
REMARK    2  A    between atoms: C4_4  and  C7_7 
ROOT
HETATM    1  C1  UNL     1     -34.341   5.950   5.869  1.00 20.00     0.065 C 
HETATM    2  C8  UNL     1     -33.718   7.208   5.412  1.00 20.00     0.183 C 
HETATM    3  N9  UNL     1     -34.830   4.957   6.218  1.00 20.00    -0.197 NA
ENDROOT
BRANCH   2   4
HETATM    4  C3  UNL     1     -33.387   7.148   3.974  1.00 20.00     0.055 A 
HETATM    5  C2  UNL     1     -33.568   6.056   3.151  1.00 20.00     0.079 A 
HETATM    6  S11 UNL     1     -33.046   6.440   1.564  1.00 20.00    -0.084 SA
HETATM    7  C4  UNL     1     -32.626   8.012   2.108  1.00 20.00     0.079 A 
HETATM    8  N10 UNL     1     -32.846   8.270   3.378  1.00 20.00    -0.249 NA
BRANCH   7   9
HETATM    9  C7  UNL     1     -32.025   9.063   1.160  1.00 20.00     0.045 A 
HETATM   10  C5  UNL     1     -32.625  10.449   1.145  1.00 20.00     0.012 A 
HETATM   11  C6  UNL     1     -32.849   9.533  -0.016  1.00 20.00     0.012 A 
ENDBRANCH   7   9
ENDBRANCH   2   4
TORSDOF 2
ENDMDL
MODEL 4
REMARK VINA RESULT:      -4.2     10.854     11.738
REMARK  2 active torsions:
REMARK  status: ('A' for Active; 'I' for Inactive)
REMARK    1  A    between atoms: C3_3  and  C8_8 
REMARK    2  A    between atoms: C4_4  and  C7_7 
ROOT
HETATM    1  C1  UNL     1     -35.157  13.664  -4.775  1.00 20.00     0.065 C 
HETATM    2  C8  UNL     1     -34.085  14.534  -4.254  1.00 20.00     0.183 C 
HETATM    3  N9  UNL     1     -36.008  12.987  -5.181  1.00 20.00    -0.197 NA
ENDROOT
BRANCH   2   4
HETATM    4  C3  UNL     1     -34.643  15.689  -3.523  1.00 20.00     0.055 A 
HETATM    5  C2  UNL     1     -35.978  16.029  -3.454  1.00 20.00     0.079 A 
HETATM    6  S11 UNL     1     -36.162  17.441  -2.499  1.00 20.00    -0.084 SA
HETATM    7  C4  UNL     1     -34.463  17.477  -2.266  1.00 20.00     0.079 A 
HETATM    8  N10 UNL     1     -33.773  16.519  -2.844  1.00 20.00    -0.249 NA
BRANCH   7   9
HETATM    9  C7  UNL     1     -33.783  18.571  -1.426  1.00 20.00     0.045 A 
HETATM   10  C5  UNL     1     -32.432  18.279  -0.816  1.00 20.00     0.012 A 
HETATM   11  C6  UNL     1     -33.640  18.356   0.063  1.00 20.00     0.012 A 
ENDBRANCH   7   9
ENDBRANCH   2   4
TORSDOF 2
ENDMDL
MODEL 5
REMARK VINA RESULT:      -4.1      1.402      1.595
REMARK  2 active torsions:
REMARK  status: ('A' for Active; 'I' for Inactive)
REMARK    1  A    between atoms: C3_3  and  C8_8 
REMARK    2  A    between atoms: C4_4  and  C7_7 
ROOT
HETATM    1  C1  UNL     1     -32.582   9.562   0.895  1.00 20.00     0.065 C 
HETATM    2  C8  UNL     1     -32.184   9.128   2.248  1.00 20.00     0.183 C 
HETATM    3  N9  UNL     1     -32.899   9.893  -0.171  1.00 20.00    -0.197 NA
ENDROOT
BRANCH   2   4
HETATM    4  C3  UNL     1     -32.675   7.766   2.538  1.00 20.00     0.055 A 
HETATM    5  C2  UNL     1     -32.284   6.614   1.888  1.00 20.00     0.079 A 
HETATM    6  S11 UNL     1     -33.111   5.269   2.556  1.00 20.00    -0.084 SA
HETATM    7  C4  UNL     1     -33.912   6.330   3.641  1.00 20.00     0.079 A 
HETATM    8  N10 UNL     1     -33.608   7.605   3.543  1.00 20.00    -0.249 NA
BRANCH   7   9
HETATM    9  C7  UNL     1     -34.928   5.816   4.674  1.00 20.00     0.045 A 
HETATM   10  C5  UNL     1     -34.642   6.035   6.141  1.00 20.00     0.012 A 
HETATM   11  C6  UNL     1     -34.536   4.659   5.563  1.00 20.00     0.012 A 
ENDBRANCH   7   9
ENDBRANCH   2   4
TORSDOF 2
ENDMDL
MODEL 6
REMARK VINA RESULT:      -4.1     11.332     12.002
REMARK  2 active torsions:
REMARK  status: ('A' for Active; 'I' for Inactive)
REMARK    1  A    between atoms: C3_3  and  C8_8 
REMARK    2  A    between atoms: C4_4  and  C7_7 
ROOT
HETATM    1  C1  UNL     1     -37.009  14.013  -5.267  1.00 20.00     0.065 C 
HETATM    2  C8  UNL     1     -35.581  13.992  -5.638  1.00 20.00     0.183 C 
HETATM    3  N9  UNL     1     -38.130  14.039  -4.969  1.00 20.00    -0.197 NA
ENDROOT
BRANCH   2   4
HETATM    4  C3  UNL     1     -34.866  15.156  -5.078  1.00 20.00     0.055 A 
HETATM    5  C2  UNL     1     -34.144  16.082  -5.802  1.00 20.00     0.079 A 
HETATM    6  S11 UNL     1     -33.490  17.258  -4.739  1.00 20.00    -0.084 SA
HETATM    7  C4  UNL     1     -34.217  16.437  -3.420  1.00 20.00     0.079 A 
HETATM    8  N10 UNL     1     -34.908  15.357  -3.712  1.00 20.00    -0.249 NA
BRANCH   7   9
HETATM    9  C7  UNL     1     -34.068  16.936  -1.974  1.00 20.00     0.045 A 
HETATM   10  C5  UNL     1     -35.293  16.969  -1.091  1.00 20.00     0.012 A 
HETATM   11  C6  UNL     1     -34.708  18.251  -1.593  1.00 20.00     0.012 A 
ENDBRANCH   7   9
ENDBRANCH   2   4
TORSDOF 2
ENDMDL
MODEL 7
REMARK VINA RESULT:      -4.0     11.462     12.226
REMARK  2 active torsions:
REMARK  status: ('A' for Active; 'I' for Inactive)
REMARK    1  A    between atoms: C3_3  and  C8_8 
REMARK    2  A    between atoms: C4_4  and  C7_7 
ROOT
HETATM    1  C1  UNL     1     -35.170  13.655  -5.721  1.00 20.00     0.065 C 
HETATM    2  C8  UNL     1     -34.176  14.592  -6.280  1.00 20.00     0.183 C 
HETATM    3  N9  UNL     1     -35.953  12.925  -5.272  1.00 20.00    -0.197 NA
ENDROOT
BRANCH   2   4
HETATM    4  C3  UNL     1     -34.033  15.790  -5.430  1.00 20.00     0.055 A 
HETATM    5  C2  UNL     1     -33.888  17.085  -5.881  1.00 20.00     0.079 A 
HETATM    6  S11 UNL     1     -33.759  18.148  -4.542  1.00 20.00    -0.084 SA
HETATM    7  C4  UNL     1     -33.904  16.802  -3.488  1.00 20.00     0.079 A 
HETATM    8  N10 UNL     1     -34.042  15.625  -4.058  1.00 20.00    -0.249 NA
BRANCH   7   9
HETATM    9  C7  UNL     1     -33.875  16.963  -1.960  1.00 20.00     0.045 A 
HETATM   10  C5  UNL     1     -34.271  18.294  -1.366  1.00 20.00     0.012 A 
HETATM   11  C6  UNL     1     -32.836  17.873  -1.347  1.00 20.00     0.012 A 
ENDBRANCH   7   9
ENDBRANCH   2   4
TORSDOF 2
ENDMDL
MODEL 8
REMARK VINA RESULT:      -4.0     11.153     11.723
REMARK  2 active torsions:
REMARK  status: ('A' for Active; 'I' for Inactive)
REMARK    1  A    between atoms: C3_3  and  C8_8 
REMARK    2  A    between atoms: C4_4  and  C7_7 
ROOT
HETATM    1  C1  UNL     1     -33.027  17.894  -1.302  1.00 20.00     0.065 C 
HETATM    2  C8  UNL     1     -34.265  17.141  -1.584  1.00 20.00     0.183 C 
HETATM    3  N9  UNL     1     -32.050  18.483  -1.088  1.00 20.00    -0.197 NA
ENDROOT
BRANCH   2   4
HETATM    4  C3  UNL     1     -34.224  16.533  -2.929  1.00 20.00     0.055 A 
HETATM    5  C2  UNL     1     -33.479  16.989  -3.996  1.00 20.00     0.079 A 
HETATM    6  S11 UNL     1     -33.740  15.974  -5.354  1.00 20.00    -0.084 SA
HETATM    7  C4  UNL     1     -34.815  15.027  -4.410  1.00 20.00     0.079 A 
HETATM    8  N10 UNL     1     -34.991  15.409  -3.164  1.00 20.00    -0.249 NA
BRANCH   7   9
HETATM    9  C7  UNL     1     -35.532  13.797  -4.989  1.00 20.00     0.045 A 
HETATM   10  C5  UNL     1     -35.494  13.574  -6.483  1.00 20.00     0.012 A 
HETATM   11  C6  UNL     1     -36.768  14.010  -5.831  1.00 20.00     0.012 A 
ENDBRANCH   7   9
ENDBRANCH   2   4
TORSDOF 2
ENDMDL
MODEL 9
REMARK VINA RESULT:      -3.9     11.172     11.721
REMARK  2 active torsions:
REMARK  status: ('A' for Active; 'I' for Inactive)
REMARK    1  A    between atoms: C3_3  and  C8_8 
REMARK    2  A    between atoms: C4_4  and  C7_7 
ROOT
HETATM    1  C1  UNL     1     -34.645  17.234  -1.134  1.00 20.00     0.065 C 
HETATM    2  C8  UNL     1     -33.474  17.274  -2.031  1.00 20.00     0.183 C 
HETATM    3  N9  UNL     1     -35.572  17.197  -0.437  1.00 20.00    -0.197 NA
ENDROOT
BRANCH   2   4
HETATM    4  C3  UNL     1     -33.774  16.638  -3.329  1.00 20.00     0.055 A 
HETATM    5  C2  UNL     1     -33.362  17.094  -4.564  1.00 20.00     0.079 A 
HETATM    6  S11 UNL     1     -33.941  16.041  -5.787  1.00 20.00    -0.084 SA
HETATM    7  C4  UNL     1     -34.685  15.081  -4.576  1.00 20.00     0.079 A 
HETATM    8  N10 UNL     1     -34.533  15.484  -3.334  1.00 20.00    -0.249 NA
BRANCH   7   9
HETATM    9  C7  UNL     1     -35.485  13.815  -4.925  1.00 20.00     0.045 A 
HETATM   10  C5  UNL     1     -35.897  13.594  -6.361  1.00 20.00     0.012 A 
HETATM   11  C6  UNL     1     -36.929  13.964  -5.343  1.00 20.00     0.012 A 
ENDBRANCH   7   9
ENDBRANCH   2   4
TORSDOF 2
ENDMDL
