MODEL 1
REMARK VINA RESULT:      -5.6      0.000      0.000
REMARK  3 active torsions:
REMARK  status: ('A' for Active; 'I' for Inactive)
REMARK    1  A    between atoms: C3_3  and  C4_4 
REMARK    2  A    between atoms: C4_4  and  C5_5 
REMARK    3  A    between atoms: C4_4  and  O6_6 
ROOT
HETATM    1  C1  UNL     1     -32.135   8.803   1.393  1.00 20.00     0.012 C 
HETATM    2  C2  UNL     1     -32.413   8.075   2.305  1.00 20.00    -0.115 C 
HETATM    3  C3  UNL     1     -32.753   7.184   3.427  1.00 20.00     0.133 C 
ENDROOT
BRANCH   3   4
HETATM    4  C4  UNL     1     -33.719   6.081   2.991  1.00 20.00     0.236 C 
BRANCH   4   5
HETATM    5  C5  UNL     1     -34.708   5.739   4.090  1.00 20.00     0.413 C 
HETATM    6  F7  UNL     1     -34.608   4.439   4.446  1.00 20.00    -0.168 F 
HETATM    7  F8  UNL     1     -34.502   6.487   5.195  1.00 20.00    -0.168 F 
HETATM    8  F9  UNL     1     -35.977   5.950   3.677  1.00 20.00    -0.168 F 
ENDBRANCH   4   5
BRANCH   4   9
HETATM    9  O6  UNL     1     -32.968   4.908   2.680  1.00 20.00    -0.386 OA
HETATM   10  H14 UNL     1     -32.040   5.181   2.636  1.00 20.00     0.210 HD
ENDBRANCH   4   9
ENDBRANCH   3   4
TORSDOF 3
ENDMDL
MODEL 2
REMARK VINA RESULT:      -5.5      1.420      1.956
REMARK  3 active torsions:
REMARK  status: ('A' for Active; 'I' for Inactive)
REMARK    1  A    between atoms: C3_3  and  C4_4 
REMARK    2  A    between atoms: C4_4  and  C5_5 
REMARK    3  A    between atoms: C4_4  and  O6_6 
ROOT
HETATM    1  C1  UNL     1     -31.761   8.473   2.354  1.00 20.00     0.012 C 
HETATM    2  C2  UNL     1     -32.549   7.593   2.560  1.00 20.00    -0.115 C 
HETATM    3  C3  UNL     1     -33.518   6.513   2.810  1.00 20.00     0.133 C 
ENDROOT
BRANCH   3   4
HETATM    4  C4  UNL     1     -33.572   6.144   4.294  1.00 20.00     0.236 C 
BRANCH   4   5
HETATM    5  C5  UNL     1     -34.759   5.250   4.603  1.00 20.00     0.413 C 
HETATM    6  F7  UNL     1     -35.875   5.692   3.982  1.00 20.00    -0.168 F 
HETATM    7  F8  UNL     1     -34.542   3.978   4.207  1.00 20.00    -0.168 F 
HETATM    8  F9  UNL     1     -35.014   5.233   5.929  1.00 20.00    -0.168 F 
ENDBRANCH   4   5
BRANCH   4   9
HETATM    9  O6  UNL     1     -33.698   7.341   5.060  1.00 20.00    -0.386 OA
HETATM   10  H14 UNL     1     -33.192   7.199   5.874  1.00 20.00     0.210 HD
ENDBRANCH   4   9
ENDBRANCH   3   4
TORSDOF 3
ENDMDL
MODEL 3
REMARK VINA RESULT:      -5.5      1.425      1.842
REMARK  3 active torsions:
REMARK  status: ('A' for Active; 'I' for Inactive)
REMARK    1  A    between atoms: C3_3  and  C4_4 
REMARK    2  A    between atoms: C4_4  and  C5_5 
REMARK    3  A    between atoms: C4_4  and  O6_6 
ROOT
HETATM    1  C1  UNL     1     -31.735   8.472   2.352  1.00 20.00     0.012 C 
HETATM    2  C2  UNL     1     -32.532   7.600   2.558  1.00 20.00    -0.115 C 
HETATM    3  C3  UNL     1     -33.512   6.529   2.809  1.00 20.00     0.133 C 
ENDROOT
BRANCH   3   4
HETATM    4  C4  UNL     1     -33.574   6.165   4.294  1.00 20.00     0.236 C 
BRANCH   4   5
HETATM    5  C5  UNL     1     -34.755   5.262   4.598  1.00 20.00     0.413 C 
HETATM    6  F7  UNL     1     -35.006   5.222   5.925  1.00 20.00    -0.168 F 
HETATM    7  F8  UNL     1     -35.877   5.685   3.977  1.00 20.00    -0.168 F 
HETATM    8  F9  UNL     1     -34.509   3.998   4.193  1.00 20.00    -0.168 F 
ENDBRANCH   4   5
BRANCH   4   9
HETATM    9  O6  UNL     1     -33.716   7.364   5.055  1.00 20.00    -0.386 OA
HETATM   10  H14 UNL     1     -32.855   7.531   5.466  1.00 20.00     0.210 HD
ENDBRANCH   4   9
ENDBRANCH   3   4
TORSDOF 3
ENDMDL
MODEL 4
REMARK VINA RESULT:      -5.4      2.515      3.209
REMARK  3 active torsions:
REMARK  status: ('A' for Active; 'I' for Inactive)
REMARK    1  A    between atoms: C3_3  and  C4_4 
REMARK    2  A    between atoms: C4_4  and  C5_5 
REMARK    3  A    between atoms: C4_4  and  O6_6 
ROOT
HETATM    1  C1  UNL     1     -33.505   7.723   6.129  1.00 20.00     0.012 C 
HETATM    2  C2  UNL     1     -34.066   6.812   5.587  1.00 20.00    -0.115 C 
HETATM    3  C3  UNL     1     -34.758   5.694   4.922  1.00 20.00     0.133 C 
ENDROOT
BRANCH   3   4
HETATM    4  C4  UNL     1     -33.768   4.769   4.211  1.00 20.00     0.236 C 
BRANCH   4   5
HETATM    5  C5  UNL     1     -33.384   5.308   2.846  1.00 20.00     0.413 C 
HETATM    6  F7  UNL     1     -34.448   5.863   2.225  1.00 20.00    -0.168 F 
HETATM    7  F8  UNL     1     -32.420   6.249   2.935  1.00 20.00    -0.168 F 
HETATM    8  F9  UNL     1     -32.923   4.318   2.051  1.00 20.00    -0.168 F 
ENDBRANCH   4   5
BRANCH   4   9
HETATM    9  O6  UNL     1     -34.379   3.492   4.035  1.00 20.00    -0.386 OA
HETATM   10  H14 UNL     1     -33.957   3.090   3.261  1.00 20.00     0.210 HD
ENDBRANCH   4   9
ENDBRANCH   3   4
TORSDOF 3
ENDMDL
MODEL 5
REMARK VINA RESULT:      -5.2      2.640      3.983
REMARK  3 active torsions:
REMARK  status: ('A' for Active; 'I' for Inactive)
REMARK    1  A    between atoms: C3_3  and  C4_4 
REMARK    2  A    between atoms: C4_4  and  C5_5 
REMARK    3  A    between atoms: C4_4  and  O6_6 
ROOT
HETATM    1  C1  UNL     1     -34.608   4.570   5.712  1.00 20.00     0.012 C 
HETATM    2  C2  UNL     1     -34.632   5.309   4.767  1.00 20.00    -0.115 C 
HETATM    3  C3  UNL     1     -34.665   6.213   3.605  1.00 20.00     0.133 C 
ENDROOT
BRANCH   3   4
HETATM    4  C4  UNL     1     -33.737   7.413   3.806  1.00 20.00     0.236 C 
BRANCH   4   5
HETATM    5  C5  UNL     1     -32.537   7.352   2.880  1.00 20.00     0.413 C 
HETATM    6  F7  UNL     1     -32.786   7.995   1.718  1.00 20.00    -0.168 F 
HETATM    7  F8  UNL     1     -31.446   7.919   3.440  1.00 20.00    -0.168 F 
HETATM    8  F9  UNL     1     -32.229   6.072   2.577  1.00 20.00    -0.168 F 
ENDBRANCH   4   5
BRANCH   4   9
HETATM    9  O6  UNL     1     -33.267   7.409   5.154  1.00 20.00    -0.386 OA
HETATM   10  H14 UNL     1     -33.845   6.807   5.644  1.00 20.00     0.210 HD
ENDBRANCH   4   9
ENDBRANCH   3   4
TORSDOF 3
ENDMDL
MODEL 6
REMARK VINA RESULT:      -5.1      1.717      1.958
REMARK  3 active torsions:
REMARK  status: ('A' for Active; 'I' for Inactive)
REMARK    1  A    between atoms: C3_3  and  C4_4 
REMARK    2  A    between atoms: C4_4  and  C5_5 
REMARK    3  A    between atoms: C4_4  and  O6_6 
ROOT
HETATM    1  C1  UNL     1     -32.082   8.158   2.487  1.00 20.00     0.012 C 
HETATM    2  C2  UNL     1     -32.711   7.194   2.826  1.00 20.00    -0.115 C 
HETATM    3  C3  UNL     1     -33.481   6.009   3.239  1.00 20.00     0.133 C 
ENDROOT
BRANCH   3   4
HETATM    4  C4  UNL     1     -34.588   6.380   4.229  1.00 20.00     0.236 C 
BRANCH   4   5
HETATM    5  C5  UNL     1     -34.145   6.169   5.665  1.00 20.00     0.413 C 
HETATM    6  F7  UNL     1     -33.770   4.888   5.874  1.00 20.00    -0.168 F 
HETATM    7  F8  UNL     1     -33.101   6.963   5.986  1.00 20.00    -0.168 F 
HETATM    8  F9  UNL     1     -35.152   6.442   6.523  1.00 20.00    -0.168 F 
ENDBRANCH   4   5
BRANCH   4   9
HETATM    9  O6  UNL     1     -35.722   5.550   3.981  1.00 20.00    -0.386 OA
HETATM   10  H14 UNL     1     -36.112   5.861   3.151  1.00 20.00     0.210 HD
ENDBRANCH   4   9
ENDBRANCH   3   4
TORSDOF 3
ENDMDL
MODEL 7
REMARK VINA RESULT:      -5.0      3.424      4.460
REMARK  3 active torsions:
REMARK  status: ('A' for Active; 'I' for Inactive)
REMARK    1  A    between atoms: C3_3  and  C4_4 
REMARK    2  A    between atoms: C4_4  and  C5_5 
REMARK    3  A    between atoms: C4_4  and  O6_6 
ROOT
HETATM    1  C1  UNL     1     -34.921   5.808   4.058  1.00 20.00     0.012 C 
HETATM    2  C2  UNL     1     -34.008   6.181   3.374  1.00 20.00    -0.115 C 
HETATM    3  C3  UNL     1     -32.888   6.637   2.534  1.00 20.00     0.133 C 
ENDROOT
BRANCH   3   4
HETATM    4  C4  UNL     1     -32.598   8.124   2.748  1.00 20.00     0.236 C 
BRANCH   4   5
HETATM    5  C5  UNL     1     -32.282   8.825   1.440  1.00 20.00     0.413 C 
HETATM    6  F7  UNL     1     -31.098   8.408   0.940  1.00 20.00    -0.168 F 
HETATM    7  F8  UNL     1     -33.230   8.589   0.508  1.00 20.00    -0.168 F 
HETATM    8  F9  UNL     1     -32.199  10.161   1.618  1.00 20.00    -0.168 F 
ENDBRANCH   4   5
BRANCH   4   9
HETATM    9  O6  UNL     1     -31.470   8.253   3.612  1.00 20.00    -0.386 OA
HETATM   10  H14 UNL     1     -31.432   9.184   3.877  1.00 20.00     0.210 HD
ENDBRANCH   4   9
ENDBRANCH   3   4
TORSDOF 3
ENDMDL
MODEL 8
REMARK VINA RESULT:      -5.0      2.815      4.047
REMARK  3 active torsions:
REMARK  status: ('A' for Active; 'I' for Inactive)
REMARK    1  A    between atoms: C3_3  and  C4_4 
REMARK    2  A    between atoms: C4_4  and  C5_5 
REMARK    3  A    between atoms: C4_4  and  O6_6 
ROOT
HETATM    1  C1  UNL     1     -34.740   5.072   5.584  1.00 20.00     0.012 C 
HETATM    2  C2  UNL     1     -34.238   6.048   5.099  1.00 20.00    -0.115 C 
HETATM    3  C3  UNL     1     -33.622   7.247   4.506  1.00 20.00     0.133 C 
ENDROOT
BRANCH   3   4
HETATM    4  C4  UNL     1     -32.818   6.899   3.251  1.00 20.00     0.236 C 
BRANCH   4   5
HETATM    5  C5  UNL     1     -32.223   8.138   2.609  1.00 20.00     0.413 C 
HETATM    6  F7  UNL     1     -33.192   8.999   2.226  1.00 20.00    -0.168 F 
HETATM    7  F8  UNL     1     -31.400   8.792   3.456  1.00 20.00    -0.168 F 
HETATM    8  F9  UNL     1     -31.511   7.813   1.508  1.00 20.00    -0.168 F 
ENDBRANCH   4   5
BRANCH   4   9
HETATM    9  O6  UNL     1     -33.688   6.275   2.307  1.00 20.00    -0.386 OA
HETATM   10  H14 UNL     1     -34.579   6.320   2.685  1.00 20.00     0.210 HD
ENDBRANCH   4   9
ENDBRANCH   3   4
TORSDOF 3
ENDMDL
MODEL 9
REMARK VINA RESULT:      -4.7      2.194      2.910
REMARK  3 active torsions:
REMARK  status: ('A' for Active; 'I' for Inactive)
REMARK    1  A    between atoms: C3_3  and  C4_4 
REMARK    2  A    between atoms: C4_4  and  C5_5 
REMARK    3  A    between atoms: C4_4  and  O6_6 
ROOT
HETATM    1  C1  UNL     1     -32.886   4.388   2.445  1.00 20.00     0.012 C 
HETATM    2  C2  UNL     1     -33.266   5.459   2.831  1.00 20.00    -0.115 C 
HETATM    3  C3  UNL     1     -33.731   6.774   3.303  1.00 20.00     0.133 C 
ENDROOT
BRANCH   3   4
HETATM    4  C4  UNL     1     -34.770   6.632   4.418  1.00 20.00     0.236 C 
BRANCH   4   5
HETATM    5  C5  UNL     1     -34.113   6.404   5.767  1.00 20.00     0.413 C 
HETATM    6  F7  UNL     1     -34.877   6.895   6.768  1.00 20.00    -0.168 F 
HETATM    7  F8  UNL     1     -33.912   5.091   6.007  1.00 20.00    -0.168 F 
HETATM    8  F9  UNL     1     -32.916   7.025   5.829  1.00 20.00    -0.168 F 
ENDBRANCH   4   5
BRANCH   4   9
HETATM    9  O6  UNL     1     -35.604   5.511   4.128  1.00 20.00    -0.386 OA
HETATM   10  H14 UNL     1     -36.273   5.479   4.827  1.00 20.00     0.210 HD
ENDBRANCH   4   9
ENDBRANCH   3   4
TORSDOF 3
ENDMDL
