MODEL 1
REMARK VINA RESULT:      -4.8      0.000      0.000
REMARK  2 active torsions:
REMARK  status: ('A' for Active; 'I' for Inactive)
REMARK    1  A    between atoms: C5_5  and  C6_6 
REMARK    2  A    between atoms: C5_5  and  C7_7 
ROOT
HETATM    1  C1  UNL     1     -32.651   8.437   1.671  1.00 20.00     0.079 C 
HETATM    2  C6  UNL     1     -32.836   7.883   3.017  1.00 20.00     0.189 C 
HETATM    3  N8  UNL     1     -32.509   8.872   0.604  1.00 20.00    -0.196 NA
HETATM    4 CL9  UNL     1     -31.278   8.142   3.875  1.00 20.00    -0.109 Cl
ENDROOT
BRANCH   2   5
HETATM    5  C5  UNL     1     -33.161   6.381   3.016  1.00 20.00     0.043 C 
BRANCH   5   6
HETATM    6  C7  UNL     1     -34.203   5.871   4.056  1.00 20.00    -0.049 C 
HETATM    7  C2  UNL     1     -34.100   4.357   4.298  1.00 20.00     0.014 C 
HETATM    8  C3  UNL     1     -34.047   6.606   5.398  1.00 20.00     0.014 C 
HETATM    9  C4  UNL     1     -35.611   6.173   3.499  1.00 20.00     0.014 C 
ENDBRANCH   5   6
ENDBRANCH   2   5
TORSDOF 2
ENDMDL
MODEL 2
REMARK VINA RESULT:      -4.5      2.199      4.498
REMARK  2 active torsions:
REMARK  status: ('A' for Active; 'I' for Inactive)
REMARK    1  A    between atoms: C5_5  and  C6_6 
REMARK    2  A    between atoms: C5_5  and  C7_7 
ROOT
HETATM    1  C1  UNL     1     -33.261   6.237   3.047  1.00 20.00     0.079 C 
HETATM    2  C6  UNL     1     -32.473   7.390   2.596  1.00 20.00     0.189 C 
HETATM    3  N8  UNL     1     -33.886   5.325   3.399  1.00 20.00    -0.196 NA
HETATM    4 CL9  UNL     1     -31.807   8.145   4.085  1.00 20.00    -0.109 Cl
ENDROOT
BRANCH   2   5
HETATM    5  C5  UNL     1     -33.307   8.434   1.837  1.00 20.00     0.043 C 
BRANCH   5   6
HETATM    6  C7  UNL     1     -32.562   9.342   0.814  1.00 20.00    -0.049 C 
HETATM    7  C2  UNL     1     -33.249   9.367  -0.560  1.00 20.00     0.014 C 
HETATM    8  C3  UNL     1     -32.439  10.782   1.340  1.00 20.00     0.014 C 
HETATM    9  C4  UNL     1     -31.139   8.772   0.628  1.00 20.00     0.014 C 
ENDBRANCH   5   6
ENDBRANCH   2   5
TORSDOF 2
ENDMDL
MODEL 3
REMARK VINA RESULT:      -4.4      2.162      4.512
REMARK  2 active torsions:
REMARK  status: ('A' for Active; 'I' for Inactive)
REMARK    1  A    between atoms: C5_5  and  C6_6 
REMARK    2  A    between atoms: C5_5  and  C7_7 
ROOT
HETATM    1  C1  UNL     1     -33.388   6.313   3.175  1.00 20.00     0.079 C 
HETATM    2  C6  UNL     1     -32.539   7.369   2.611  1.00 20.00     0.189 C 
HETATM    3  N8  UNL     1     -34.062   5.476   3.615  1.00 20.00    -0.196 NA
HETATM    4 CL9  UNL     1     -31.759   8.174   4.016  1.00 20.00    -0.109 Cl
ENDROOT
BRANCH   2   5
HETATM    5  C5  UNL     1     -33.328   8.417   1.810  1.00 20.00     0.043 C 
BRANCH   5   6
HETATM    6  C7  UNL     1     -32.532   9.293   0.797  1.00 20.00    -0.049 C 
HETATM    7  C2  UNL     1     -31.100   8.783   0.577  1.00 20.00     0.014 C 
HETATM    8  C3  UNL     1     -33.254   9.363  -0.559  1.00 20.00     0.014 C 
HETATM    9  C4  UNL     1     -32.448  10.722   1.375  1.00 20.00     0.014 C 
ENDBRANCH   5   6
ENDBRANCH   2   5
TORSDOF 2
ENDMDL
MODEL 4
REMARK VINA RESULT:      -4.0     11.246     11.935
REMARK  2 active torsions:
REMARK  status: ('A' for Active; 'I' for Inactive)
REMARK    1  A    between atoms: C5_5  and  C6_6 
REMARK    2  A    between atoms: C5_5  and  C7_7 
ROOT
HETATM    1  C1  UNL     1     -35.422  13.966  -5.039  1.00 20.00     0.079 C 
HETATM    2  C6  UNL     1     -34.879  15.308  -4.799  1.00 20.00     0.189 C 
HETATM    3  N8  UNL     1     -35.855  12.905  -5.225  1.00 20.00    -0.196 NA
HETATM    4 CL9  UNL     1     -33.486  15.484  -5.922  1.00 20.00    -0.109 Cl
ENDROOT
BRANCH   2   5
HETATM    5  C5  UNL     1     -34.386  15.513  -3.357  1.00 20.00     0.043 C 
BRANCH   5   6
HETATM    6  C7  UNL     1     -34.549  16.934  -2.739  1.00 20.00    -0.049 C 
HETATM    7  C2  UNL     1     -33.212  17.525  -2.265  1.00 20.00     0.014 C 
HETATM    8  C3  UNL     1     -35.198  17.901  -3.743  1.00 20.00     0.014 C 
HETATM    9  C4  UNL     1     -35.480  16.810  -1.514  1.00 20.00     0.014 C 
ENDBRANCH   5   6
ENDBRANCH   2   5
TORSDOF 2
ENDMDL
MODEL 5
REMARK VINA RESULT:      -3.9      2.625      4.442
REMARK  2 active torsions:
REMARK  status: ('A' for Active; 'I' for Inactive)
REMARK    1  A    between atoms: C5_5  and  C6_6 
REMARK    2  A    between atoms: C5_5  and  C7_7 
ROOT
HETATM    1  C1  UNL     1     -33.524   7.282   4.519  1.00 20.00     0.079 C 
HETATM    2  C6  UNL     1     -33.315   7.291   3.067  1.00 20.00     0.189 C 
HETATM    3  N8  UNL     1     -33.689   7.280   5.668  1.00 20.00    -0.196 NA
HETATM    4 CL9  UNL     1     -32.913   5.598   2.617  1.00 20.00    -0.109 Cl
ENDROOT
BRANCH   2   5
HETATM    5  C5  UNL     1     -32.166   8.211   2.625  1.00 20.00     0.043 C 
BRANCH   5   6
HETATM    6  C7  UNL     1     -32.327   8.958   1.267  1.00 20.00    -0.049 C 
HETATM    7  C2  UNL     1     -33.494   8.412   0.430  1.00 20.00     0.014 C 
HETATM    8  C3  UNL     1     -32.528  10.466   1.487  1.00 20.00     0.014 C 
HETATM    9  C4  UNL     1     -31.024   8.756   0.463  1.00 20.00     0.014 C 
ENDBRANCH   5   6
ENDBRANCH   2   5
TORSDOF 2
ENDMDL
MODEL 6
REMARK VINA RESULT:      -3.9     11.262     11.912
REMARK  2 active torsions:
REMARK  status: ('A' for Active; 'I' for Inactive)
REMARK    1  A    between atoms: C5_5  and  C6_6 
REMARK    2  A    between atoms: C5_5  and  C7_7 
ROOT
HETATM    1  C1  UNL     1     -35.442  13.951  -5.059  1.00 20.00     0.079 C 
HETATM    2  C6  UNL     1     -34.910  15.300  -4.830  1.00 20.00     0.189 C 
HETATM    3  N8  UNL     1     -35.866  12.885  -5.235  1.00 20.00    -0.196 NA
HETATM    4 CL9  UNL     1     -33.549  15.494  -5.988  1.00 20.00    -0.109 Cl
ENDROOT
BRANCH   2   5
HETATM    5  C5  UNL     1     -34.383  15.509  -3.401  1.00 20.00     0.043 C 
BRANCH   5   6
HETATM    6  C7  UNL     1     -34.615  16.905  -2.749  1.00 20.00    -0.049 C 
HETATM    7  C2  UNL     1     -35.441  16.821  -1.457  1.00 20.00     0.014 C 
HETATM    8  C3  UNL     1     -33.277  17.601  -2.445  1.00 20.00     0.014 C 
HETATM    9  C4  UNL     1     -35.393  17.773  -3.761  1.00 20.00     0.014 C 
ENDBRANCH   5   6
ENDBRANCH   2   5
TORSDOF 2
ENDMDL
MODEL 7
REMARK VINA RESULT:      -3.9     11.234     11.944
REMARK  2 active torsions:
REMARK  status: ('A' for Active; 'I' for Inactive)
REMARK    1  A    between atoms: C5_5  and  C6_6 
REMARK    2  A    between atoms: C5_5  and  C7_7 
ROOT
HETATM    1  C1  UNL     1     -35.447  13.944  -5.071  1.00 20.00     0.079 C 
HETATM    2  C6  UNL     1     -34.926  15.289  -4.799  1.00 20.00     0.189 C 
HETATM    3  N8  UNL     1     -35.863  12.881  -5.282  1.00 20.00    -0.196 NA
HETATM    4 CL9  UNL     1     -33.469  15.471  -5.835  1.00 20.00    -0.109 Cl
ENDROOT
BRANCH   2   5
HETATM    5  C5  UNL     1     -34.524  15.497  -3.330  1.00 20.00     0.043 C 
BRANCH   5   6
HETATM    6  C7  UNL     1     -34.697  16.926  -2.734  1.00 20.00    -0.049 C 
HETATM    7  C2  UNL     1     -35.421  17.880  -3.696  1.00 20.00     0.014 C 
HETATM    8  C3  UNL     1     -35.462  16.879  -1.401  1.00 20.00     0.014 C 
HETATM    9  C4  UNL     1     -33.288  17.496  -2.464  1.00 20.00     0.014 C 
ENDBRANCH   5   6
ENDBRANCH   2   5
TORSDOF 2
ENDMDL
MODEL 8
REMARK VINA RESULT:      -3.9      2.623      4.465
REMARK  2 active torsions:
REMARK  status: ('A' for Active; 'I' for Inactive)
REMARK    1  A    between atoms: C5_5  and  C6_6 
REMARK    2  A    between atoms: C5_5  and  C7_7 
ROOT
HETATM    1  C1  UNL     1     -33.559   7.269   4.544  1.00 20.00     0.079 C 
HETATM    2  C6  UNL     1     -33.305   7.253   3.099  1.00 20.00     0.189 C 
HETATM    3  N8  UNL     1     -33.760   7.287   5.687  1.00 20.00    -0.196 NA
HETATM    4 CL9  UNL     1     -32.899   5.551   2.689  1.00 20.00    -0.109 Cl
ENDROOT
BRANCH   2   5
HETATM    5  C5  UNL     1     -32.138   8.160   2.679  1.00 20.00     0.043 C 
BRANCH   5   6
HETATM    6  C7  UNL     1     -32.277   8.932   1.333  1.00 20.00    -0.049 C 
HETATM    7  C2  UNL     1     -32.520  10.435   1.539  1.00 20.00     0.014 C 
HETATM    8  C3  UNL     1     -31.028   8.741   0.455  1.00 20.00     0.014 C 
HETATM    9  C4  UNL     1     -33.491   8.348   0.580  1.00 20.00     0.014 C 
ENDBRANCH   5   6
ENDBRANCH   2   5
TORSDOF 2
ENDMDL
MODEL 9
REMARK VINA RESULT:      -3.8     11.206     12.027
REMARK  2 active torsions:
REMARK  status: ('A' for Active; 'I' for Inactive)
REMARK    1  A    between atoms: C5_5  and  C6_6 
REMARK    2  A    between atoms: C5_5  and  C7_7 
ROOT
HETATM    1  C1  UNL     1     -37.316  14.255  -5.297  1.00 20.00     0.079 C 
HETATM    2  C6  UNL     1     -35.896  14.494  -5.585  1.00 20.00     0.189 C 
HETATM    3  N8  UNL     1     -38.438  14.071  -5.066  1.00 20.00    -0.196 NA
HETATM    4 CL9  UNL     1     -35.389  13.170  -6.689  1.00 20.00    -0.109 Cl
ENDROOT
BRANCH   2   5
HETATM    5  C5  UNL     1     -35.010  14.463  -4.329  1.00 20.00     0.043 C 
BRANCH   5   6
HETATM    6  C7  UNL     1     -33.693  15.294  -4.360  1.00 20.00    -0.049 C 
HETATM    7  C2  UNL     1     -33.528  16.087  -5.666  1.00 20.00     0.014 C 
HETATM    8  C3  UNL     1     -33.625  16.266  -3.170  1.00 20.00     0.014 C 
HETATM    9  C4  UNL     1     -32.511  14.307  -4.246  1.00 20.00     0.014 C 
ENDBRANCH   5   6
ENDBRANCH   2   5
TORSDOF 2
ENDMDL
