MODEL 1
REMARK VINA RESULT:      -4.7      0.000      0.000
REMARK  1 active torsions:
REMARK  status: ('A' for Active; 'I' for Inactive)
REMARK    1  A    between atoms: C8_8  and  N10_10 
ROOT
HETATM    1  C1  UNL     1     -34.610   5.489   5.138  1.00 20.00     0.065 C 
HETATM    2  C4  UNL     1     -33.632   5.091   2.881  1.00 20.00     0.051 C 
HETATM    3  C5  UNL     1     -32.521   5.988   2.349  1.00 20.00     0.274 C 
HETATM    4  C6  UNL     1     -33.800   7.357   3.720  1.00 20.00     0.292 C 
HETATM    5  C7  UNL     1     -34.492   5.996   3.766  1.00 20.00     0.122 C 
HETATM    6  N9  UNL     1     -34.703   5.089   6.223  1.00 20.00    -0.197 NA
HETATM    7  N10 UNL     1     -33.104   7.329   2.430  1.00 20.00     0.094 N 
ENDROOT
BRANCH   7   8
HETATM    8  C8  UNL     1     -32.102   8.406   2.287  1.00 20.00     0.223 A 
HETATM    9  C2  UNL     1     -31.572   8.776   0.929  1.00 20.00     0.038 A 
HETATM   10  C3  UNL     1     -32.480   9.720   1.661  1.00 20.00     0.038 A 
ENDBRANCH   7   8
TORSDOF 1
ENDMDL
MODEL 2
REMARK VINA RESULT:      -4.3     11.171     11.856
REMARK  1 active torsions:
REMARK  status: ('A' for Active; 'I' for Inactive)
REMARK    1  A    between atoms: C8_8  and  N10_10 
ROOT
HETATM    1  C1  UNL     1     -35.689  13.890  -5.141  1.00 20.00     0.065 C 
HETATM    2  C4  UNL     1     -34.271  15.851  -5.737  1.00 20.00     0.051 C 
HETATM    3  C5  UNL     1     -33.322  16.460  -4.713  1.00 20.00     0.274 C 
HETATM    4  C6  UNL     1     -35.097  15.627  -3.471  1.00 20.00     0.292 C 
HETATM    5  C7  UNL     1     -35.456  15.322  -4.924  1.00 20.00     0.122 C 
HETATM    6  N9  UNL     1     -35.873  12.757  -5.313  1.00 20.00    -0.197 NA
HETATM    7  N10 UNL     1     -34.202  16.781  -3.587  1.00 20.00     0.094 N 
ENDROOT
BRANCH   7   8
HETATM    8  C8  UNL     1     -33.465  17.074  -2.340  1.00 20.00     0.223 A 
HETATM    9  C2  UNL     1     -33.445  18.468  -1.777  1.00 20.00     0.038 A 
HETATM   10  C3  UNL     1     -34.209  17.386  -1.071  1.00 20.00     0.038 A 
ENDBRANCH   7   8
TORSDOF 1
ENDMDL
MODEL 3
REMARK VINA RESULT:      -4.2      1.393      4.534
REMARK  1 active torsions:
REMARK  status: ('A' for Active; 'I' for Inactive)
REMARK    1  A    between atoms: C8_8  and  N10_10 
ROOT
HETATM    1  C1  UNL     1     -32.432   9.235   1.731  1.00 20.00     0.065 C 
HETATM    2  C4  UNL     1     -32.637   6.755   1.593  1.00 20.00     0.051 C 
HETATM    3  C5  UNL     1     -33.713   6.022   2.385  1.00 20.00     0.274 C 
HETATM    4  C6  UNL     1     -33.176   7.878   3.671  1.00 20.00     0.292 C 
HETATM    5  C7  UNL     1     -32.262   7.967   2.450  1.00 20.00     0.122 C 
HETATM    6  N9  UNL     1     -32.566  10.237   1.163  1.00 20.00    -0.197 NA
HETATM    7  N10 UNL     1     -33.462   6.444   3.764  1.00 20.00     0.094 N 
ENDROOT
BRANCH   7   8
HETATM    8  C8  UNL     1     -34.581   6.134   4.679  1.00 20.00     0.223 A 
HETATM    9  C2  UNL     1     -34.511   4.938   5.588  1.00 20.00     0.038 A 
HETATM   10  C3  UNL     1     -34.428   6.322   6.163  1.00 20.00     0.038 A 
ENDBRANCH   7   8
TORSDOF 1
ENDMDL
MODEL 4
REMARK VINA RESULT:      -4.2     11.072     11.741
REMARK  1 active torsions:
REMARK  status: ('A' for Active; 'I' for Inactive)
REMARK    1  A    between atoms: C8_8  and  N10_10 
ROOT
HETATM    1  C1  UNL     1     -35.303  13.284  -6.187  1.00 20.00     0.065 C 
HETATM    2  C4  UNL     1     -37.217  14.391  -5.038  1.00 20.00     0.051 C 
HETATM    3  C5  UNL     1     -37.038  15.747  -4.368  1.00 20.00     0.274 C 
HETATM    4  C6  UNL     1     -34.974  14.702  -4.178  1.00 20.00     0.292 C 
HETATM    5  C7  UNL     1     -35.864  13.688  -4.893  1.00 20.00     0.122 C 
HETATM    6  N9  UNL     1     -34.858  12.964  -7.210  1.00 20.00    -0.197 NA
HETATM    7  N10 UNL     1     -35.936  15.517  -3.431  1.00 20.00     0.094 N 
ENDROOT
BRANCH   7   8
HETATM    8  C8  UNL     1     -35.352  16.768  -2.903  1.00 20.00     0.223 A 
HETATM    9  C2  UNL     1     -35.156  16.950  -1.423  1.00 20.00     0.038 A 
HETATM   10  C3  UNL     1     -33.966  16.776  -2.321  1.00 20.00     0.038 A 
ENDBRANCH   7   8
TORSDOF 1
ENDMDL
MODEL 5
REMARK VINA RESULT:      -4.1      1.474      2.175
REMARK  1 active torsions:
REMARK  status: ('A' for Active; 'I' for Inactive)
REMARK    1  A    between atoms: C8_8  and  N10_10 
ROOT
HETATM    1  C1  UNL     1     -34.216   6.232   3.538  1.00 20.00     0.065 C 
HETATM    2  C4  UNL     1     -32.151   7.552   3.988  1.00 20.00     0.051 C 
HETATM    3  C5  UNL     1     -31.811   8.771   3.140  1.00 20.00     0.274 C 
HETATM    4  C6  UNL     1     -32.953   7.340   1.713  1.00 20.00     0.292 C 
HETATM    5  C7  UNL     1     -32.883   6.595   3.044  1.00 20.00     0.122 C 
HETATM    6  N9  UNL     1     -35.270   5.945   3.928  1.00 20.00    -0.197 NA
HETATM    7  N10 UNL     1     -31.796   8.238   1.776  1.00 20.00     0.094 N 
ENDROOT
BRANCH   7   8
HETATM    8  C8  UNL     1     -31.822   9.293   0.740  1.00 20.00     0.223 A 
HETATM    9  C2  UNL     1     -32.997   9.417  -0.190  1.00 20.00     0.038 A 
HETATM   10  C3  UNL     1     -32.762  10.459   0.864  1.00 20.00     0.038 A 
ENDBRANCH   7   8
TORSDOF 1
ENDMDL
MODEL 6
REMARK VINA RESULT:      -3.9     11.138     11.716
REMARK  1 active torsions:
REMARK  status: ('A' for Active; 'I' for Inactive)
REMARK    1  A    between atoms: C8_8  and  N10_10 
ROOT
HETATM    1  C1  UNL     1     -36.410  18.075  -0.329  1.00 20.00     0.065 C 
HETATM    2  C4  UNL     1     -33.945  17.927  -0.668  1.00 20.00     0.051 C 
HETATM    3  C5  UNL     1     -33.368  17.665  -2.053  1.00 20.00     0.274 C 
HETATM    4  C6  UNL     1     -35.415  16.572  -2.034  1.00 20.00     0.292 C 
HETATM    5  C7  UNL     1     -35.284  17.186  -0.642  1.00 20.00     0.122 C 
HETATM    6  N9  UNL     1     -37.299  18.777  -0.082  1.00 20.00    -0.197 NA
HETATM    7  N10 UNL     1     -34.021  16.419  -2.460  1.00 20.00     0.094 N 
ENDROOT
BRANCH   7   8
HETATM    8  C8  UNL     1     -33.881  16.136  -3.904  1.00 20.00     0.223 A 
HETATM    9  C2  UNL     1     -33.119  14.926  -4.371  1.00 20.00     0.038 A 
HETATM   10  C3  UNL     1     -34.611  14.978  -4.527  1.00 20.00     0.038 A 
ENDBRANCH   7   8
TORSDOF 1
ENDMDL
MODEL 7
REMARK VINA RESULT:      -3.9     11.313     12.037
REMARK  1 active torsions:
REMARK  status: ('A' for Active; 'I' for Inactive)
REMARK    1  A    between atoms: C8_8  and  N10_10 
ROOT
HETATM    1  C1  UNL     1     -32.037  18.469  -0.409  1.00 20.00     0.065 C 
HETATM    2  C4  UNL     1     -34.520  18.273  -0.312  1.00 20.00     0.051 C 
HETATM    3  C5  UNL     1     -35.226  17.067  -0.918  1.00 20.00     0.274 C 
HETATM    4  C6  UNL     1     -33.332  17.378  -2.223  1.00 20.00     0.292 C 
HETATM    5  C7  UNL     1     -33.282  18.497  -1.185  1.00 20.00     0.122 C 
HETATM    6  N9  UNL     1     -31.052  18.446   0.204  1.00 20.00    -0.197 NA
HETATM    7  N10 UNL     1     -34.762  17.069  -2.307  1.00 20.00     0.094 N 
ENDROOT
BRANCH   7   8
HETATM    8  C8  UNL     1     -35.042  15.801  -3.014  1.00 20.00     0.223 A 
HETATM    9  C2  UNL     1     -35.444  15.811  -4.464  1.00 20.00     0.038 A 
HETATM   10  C3  UNL     1     -34.095  15.289  -4.064  1.00 20.00     0.038 A 
ENDBRANCH   7   8
TORSDOF 1
ENDMDL
MODEL 8
REMARK VINA RESULT:      -3.8      1.695      4.743
REMARK  1 active torsions:
REMARK  status: ('A' for Active; 'I' for Inactive)
REMARK    1  A    between atoms: C8_8  and  N10_10 
ROOT
HETATM    1  C1  UNL     1     -32.681   9.117   0.377  1.00 20.00     0.065 C 
HETATM    2  C4  UNL     1     -31.530   8.865   2.574  1.00 20.00     0.051 C 
HETATM    3  C5  UNL     1     -31.719   7.604   3.406  1.00 20.00     0.274 C 
HETATM    4  C6  UNL     1     -33.717   7.874   2.257  1.00 20.00     0.292 C 
HETATM    5  C7  UNL     1     -32.856   9.061   1.833  1.00 20.00     0.122 C 
HETATM    6  N9  UNL     1     -32.543   9.160  -0.774  1.00 20.00    -0.197 NA
HETATM    7  N10 UNL     1     -33.171   7.523   3.572  1.00 20.00     0.094 N 
ENDROOT
BRANCH   7   8
HETATM    8  C8  UNL     1     -33.628   6.204   4.058  1.00 20.00     0.223 A 
HETATM    9  C2  UNL     1     -34.392   6.092   5.348  1.00 20.00     0.038 A 
HETATM   10  C3  UNL     1     -35.089   5.849   4.041  1.00 20.00     0.038 A 
ENDBRANCH   7   8
TORSDOF 1
ENDMDL
MODEL 9
REMARK VINA RESULT:      -3.8     11.219     12.050
REMARK  1 active torsions:
REMARK  status: ('A' for Active; 'I' for Inactive)
REMARK    1  A    between atoms: C8_8  and  N10_10 
ROOT
HETATM    1  C1  UNL     1     -34.827  16.638  -1.973  1.00 20.00     0.065 C 
HETATM    2  C4  UNL     1     -33.592  17.259  -4.047  1.00 20.00     0.051 C 
HETATM    3  C5  UNL     1     -34.113  16.837  -5.414  1.00 20.00     0.274 C 
HETATM    4  C6  UNL     1     -34.793  15.157  -3.964  1.00 20.00     0.292 C 
HETATM    5  C7  UNL     1     -34.017  16.141  -3.091  1.00 20.00     0.122 C 
HETATM    6  N9  UNL     1     -35.469  17.030  -1.090  1.00 20.00    -0.197 NA
HETATM    7  N10 UNL     1     -34.227  15.381  -5.297  1.00 20.00     0.094 N 
ENDROOT
BRANCH   7   8
HETATM    8  C8  UNL     1     -35.030  14.773  -6.379  1.00 20.00     0.223 A 
HETATM    9  C2  UNL     1     -34.483  13.619  -7.175  1.00 20.00     0.038 A 
HETATM   10  C3  UNL     1     -35.615  13.398  -6.213  1.00 20.00     0.038 A 
ENDBRANCH   7   8
TORSDOF 1
ENDMDL
