MODEL 1
REMARK VINA RESULT:      -5.1      0.000      0.000
REMARK  1 active torsions:
REMARK  status: ('A' for Active; 'I' for Inactive)
REMARK    1  A    between atoms: C8_8  and  N10_10 
ROOT
HETATM    1  C1  UNL     1     -34.247   5.021   4.022  1.00 20.00     0.065 C 
HETATM    2  C4  UNL     1     -33.552   7.359   4.529  1.00 20.00     0.051 C 
HETATM    3  C5  UNL     1     -32.247   7.918   3.974  1.00 20.00     0.274 C 
HETATM    4  C6  UNL     1     -32.969   6.387   2.390  1.00 20.00     0.292 C 
HETATM    5  C7  UNL     1     -34.045   6.367   3.475  1.00 20.00     0.122 C 
HETATM    6  N9  UNL     1     -34.406   3.957   4.455  1.00 20.00    -0.197 NA
HETATM    7  N10 UNL     1     -32.292   7.686   2.524  1.00 20.00     0.094 N 
ENDROOT
BRANCH   7   8
HETATM    8  C8  UNL     1     -32.999   8.773   1.797  1.00 20.00     0.223 A 
HETATM    9  C2  UNL     1     -32.257  10.010   1.368  1.00 20.00     0.038 A 
HETATM   10  C3  UNL     1     -32.724   9.022   0.340  1.00 20.00     0.038 A 
ENDBRANCH   7   8
TORSDOF 1
ENDMDL
MODEL 2
REMARK VINA RESULT:      -4.7     10.387     11.177
REMARK  1 active torsions:
REMARK  status: ('A' for Active; 'I' for Inactive)
REMARK    1  A    between atoms: C8_8  and  N10_10 
ROOT
HETATM    1  C1  UNL     1     -35.319  13.630  -4.757  1.00 20.00     0.065 C 
HETATM    2  C4  UNL     1     -33.256  15.027  -4.759  1.00 20.00     0.051 C 
HETATM    3  C5  UNL     1     -33.349  16.547  -4.774  1.00 20.00     0.274 C 
HETATM    4  C6  UNL     1     -35.237  15.840  -3.629  1.00 20.00     0.292 C 
HETATM    5  C7  UNL     1     -34.486  14.556  -3.982  1.00 20.00     0.122 C 
HETATM    6  N9  UNL     1     -35.977  12.898  -5.371  1.00 20.00    -0.197 NA
HETATM    7  N10 UNL     1     -34.229  16.910  -3.654  1.00 20.00     0.094 N 
ENDROOT
BRANCH   7   8
HETATM    8  C8  UNL     1     -33.492  17.026  -2.368  1.00 20.00     0.223 A 
HETATM    9  C2  UNL     1     -33.305  18.370  -1.717  1.00 20.00     0.038 A 
HETATM   10  C3  UNL     1     -34.222  17.358  -1.096  1.00 20.00     0.038 A 
ENDBRANCH   7   8
TORSDOF 1
ENDMDL
MODEL 3
REMARK VINA RESULT:      -4.5      1.621      4.428
REMARK  1 active torsions:
REMARK  status: ('A' for Active; 'I' for Inactive)
REMARK    1  A    between atoms: C8_8  and  N10_10 
ROOT
HETATM    1  C1  UNL     1     -32.283   8.562   1.527  1.00 20.00     0.065 C 
HETATM    2  C4  UNL     1     -31.742   8.028   3.900  1.00 20.00     0.051 C 
HETATM    3  C5  UNL     1     -32.830   8.048   4.966  1.00 20.00     0.274 C 
HETATM    4  C6  UNL     1     -33.912   7.424   3.013  1.00 20.00     0.292 C 
HETATM    5  C7  UNL     1     -32.447   7.592   2.614  1.00 20.00     0.122 C 
HETATM    6  N9  UNL     1     -32.153   9.331   0.667  1.00 20.00    -0.197 NA
HETATM    7  N10 UNL     1     -33.905   7.181   4.464  1.00 20.00     0.094 N 
ENDROOT
BRANCH   7   8
HETATM    8  C8  UNL     1     -33.684   5.750   4.799  1.00 20.00     0.223 A 
HETATM    9  C2  UNL     1     -34.614   5.036   5.742  1.00 20.00     0.038 A 
HETATM   10  C3  UNL     1     -34.616   4.691   4.282  1.00 20.00     0.038 A 
ENDBRANCH   7   8
TORSDOF 1
ENDMDL
MODEL 4
REMARK VINA RESULT:      -4.0      1.526      4.510
REMARK  1 active torsions:
REMARK  status: ('A' for Active; 'I' for Inactive)
REMARK    1  A    between atoms: C8_8  and  N10_10 
ROOT
HETATM    1  C1  UNL     1     -32.111   8.671   1.181  1.00 20.00     0.065 C 
HETATM    2  C4  UNL     1     -33.691   6.799   1.639  1.00 20.00     0.051 C 
HETATM    3  C5  UNL     1     -33.326   5.703   2.633  1.00 20.00     0.274 C 
HETATM    4  C6  UNL     1     -32.260   7.606   3.418  1.00 20.00     0.292 C 
HETATM    5  C7  UNL     1     -33.010   8.063   2.168  1.00 20.00     0.122 C 
HETATM    6  N9  UNL     1     -31.400   9.151   0.400  1.00 20.00    -0.197 NA
HETATM    7  N10 UNL     1     -32.951   6.391   3.876  1.00 20.00     0.094 N 
ENDROOT
BRANCH   7   8
HETATM    8  C8  UNL     1     -34.128   6.696   4.733  1.00 20.00     0.223 A 
HETATM    9  C2  UNL     1     -34.474   5.804   5.894  1.00 20.00     0.038 A 
HETATM   10  C3  UNL     1     -33.940   7.184   6.142  1.00 20.00     0.038 A 
ENDBRANCH   7   8
TORSDOF 1
ENDMDL
MODEL 5
REMARK VINA RESULT:      -4.0     10.787     11.584
REMARK  1 active torsions:
REMARK  status: ('A' for Active; 'I' for Inactive)
REMARK    1  A    between atoms: C8_8  and  N10_10 
ROOT
HETATM    1  C1  UNL     1     -32.924  18.148  -1.390  1.00 20.00     0.065 C 
HETATM    2  C4  UNL     1     -35.089  16.918  -1.476  1.00 20.00     0.051 C 
HETATM    3  C5  UNL     1     -35.908  16.879  -2.760  1.00 20.00     0.274 C 
HETATM    4  C6  UNL     1     -33.702  17.016  -3.457  1.00 20.00     0.292 C 
HETATM    5  C7  UNL     1     -33.630  16.982  -1.931  1.00 20.00     0.122 C 
HETATM    6  N9  UNL     1     -32.366  19.071  -0.962  1.00 20.00    -0.197 NA
HETATM    7  N10 UNL     1     -34.994  16.408  -3.809  1.00 20.00     0.094 N 
ENDROOT
BRANCH   7   8
HETATM    8  C8  UNL     1     -34.924  14.924  -3.878  1.00 20.00     0.223 A 
HETATM    9  C2  UNL     1     -35.099  14.214  -5.192  1.00 20.00     0.038 A 
HETATM   10  C3  UNL     1     -33.753  14.244  -4.530  1.00 20.00     0.038 A 
ENDBRANCH   7   8
TORSDOF 1
ENDMDL
MODEL 6
REMARK VINA RESULT:      -3.9     11.052     11.551
REMARK  1 active torsions:
REMARK  status: ('A' for Active; 'I' for Inactive)
REMARK    1  A    between atoms: C8_8  and  N10_10 
ROOT
HETATM    1  C1  UNL     1     -36.975  14.500  -4.684  1.00 20.00     0.065 C 
HETATM    2  C4  UNL     1     -34.526  14.857  -4.970  1.00 20.00     0.051 C 
HETATM    3  C5  UNL     1     -33.958  16.264  -5.105  1.00 20.00     0.274 C 
HETATM    4  C6  UNL     1     -35.829  16.497  -3.756  1.00 20.00     0.292 C 
HETATM    5  C7  UNL     1     -35.746  15.001  -4.059  1.00 20.00     0.122 C 
HETATM    6  N9  UNL     1     -37.947  14.104  -5.179  1.00 20.00    -0.197 NA
HETATM    7  N10 UNL     1     -34.468  17.019  -3.952  1.00 20.00     0.094 N 
ENDROOT
BRANCH   7   8
HETATM    8  C8  UNL     1     -33.617  16.854  -2.744  1.00 20.00     0.223 A 
HETATM    9  C2  UNL     1     -33.136  18.059  -1.982  1.00 20.00     0.038 A 
HETATM   10  C3  UNL     1     -34.166  17.151  -1.376  1.00 20.00     0.038 A 
ENDBRANCH   7   8
TORSDOF 1
ENDMDL
MODEL 7
REMARK VINA RESULT:      -3.9     10.586     11.580
REMARK  1 active torsions:
REMARK  status: ('A' for Active; 'I' for Inactive)
REMARK    1  A    between atoms: C8_8  and  N10_10 
ROOT
HETATM    1  C1  UNL     1     -34.524  16.643  -2.408  1.00 20.00     0.065 C 
HETATM    2  C4  UNL     1     -33.609  16.813  -4.719  1.00 20.00     0.051 C 
HETATM    3  C5  UNL     1     -32.906  15.625  -5.364  1.00 20.00     0.274 C 
HETATM    4  C6  UNL     1     -34.482  14.693  -3.943  1.00 20.00     0.292 C 
HETATM    5  C7  UNL     1     -34.668  16.203  -3.800  1.00 20.00     0.122 C 
HETATM    6  N9  UNL     1     -34.408  16.991  -1.307  1.00 20.00    -0.197 NA
HETATM    7  N10 UNL     1     -33.835  14.493  -5.249  1.00 20.00     0.094 N 
ENDROOT
BRANCH   7   8
HETATM    8  C8  UNL     1     -34.815  14.446  -6.367  1.00 20.00     0.223 A 
HETATM    9  C2  UNL     1     -34.937  13.213  -7.220  1.00 20.00     0.038 A 
HETATM   10  C3  UNL     1     -36.040  13.581  -6.273  1.00 20.00     0.038 A 
ENDBRANCH   7   8
TORSDOF 1
ENDMDL
MODEL 8
REMARK VINA RESULT:      -3.8     10.603     11.570
REMARK  1 active torsions:
REMARK  status: ('A' for Active; 'I' for Inactive)
REMARK    1  A    between atoms: C8_8  and  N10_10 
ROOT
HETATM    1  C1  UNL     1     -34.524  14.163  -6.302  1.00 20.00     0.065 C 
HETATM    2  C4  UNL     1     -36.094  15.899  -5.451  1.00 20.00     0.051 C 
HETATM    3  C5  UNL     1     -36.677  15.796  -4.047  1.00 20.00     0.274 C 
HETATM    4  C6  UNL     1     -34.586  14.805  -3.906  1.00 20.00     0.292 C 
HETATM    5  C7  UNL     1     -34.704  15.270  -5.357  1.00 20.00     0.122 C 
HETATM    6  N9  UNL     1     -34.382  13.287  -7.050  1.00 20.00    -0.197 NA
HETATM    7  N10 UNL     1     -35.529  15.637  -3.143  1.00 20.00     0.094 N 
ENDROOT
BRANCH   7   8
HETATM    8  C8  UNL     1     -34.939  16.941  -2.740  1.00 20.00     0.223 A 
HETATM    9  C2  UNL     1     -34.673  17.240  -1.290  1.00 20.00     0.038 A 
HETATM   10  C3  UNL     1     -33.526  17.015  -2.231  1.00 20.00     0.038 A 
ENDBRANCH   7   8
TORSDOF 1
ENDMDL
MODEL 9
REMARK VINA RESULT:      -3.8     11.093     11.998
REMARK  1 active torsions:
REMARK  status: ('A' for Active; 'I' for Inactive)
REMARK    1  A    between atoms: C8_8  and  N10_10 
ROOT
HETATM    1  C1  UNL     1     -33.187  18.230  -2.784  1.00 20.00     0.065 C 
HETATM    2  C4  UNL     1     -34.970  16.591  -2.198  1.00 20.00     0.051 C 
HETATM    3  C5  UNL     1     -36.132  16.336  -3.150  1.00 20.00     0.274 C 
HETATM    4  C6  UNL     1     -34.340  16.879  -4.517  1.00 20.00     0.292 C 
HETATM    5  C7  UNL     1     -33.779  16.925  -3.097  1.00 20.00     0.122 C 
HETATM    6  N9  UNL     1     -32.721  19.263  -2.535  1.00 20.00    -0.197 NA
HETATM    7  N10 UNL     1     -35.526  16.012  -4.449  1.00 20.00     0.094 N 
ENDROOT
BRANCH   7   8
HETATM    8  C8  UNL     1     -35.184  14.570  -4.573  1.00 20.00     0.223 A 
HETATM    9  C2  UNL     1     -36.060  13.646  -5.374  1.00 20.00     0.038 A 
HETATM   10  C3  UNL     1     -34.695  14.010  -5.879  1.00 20.00     0.038 A 
ENDBRANCH   7   8
TORSDOF 1
ENDMDL
