MODEL 1
REMARK VINA RESULT:      -4.4      0.000      0.000
REMARK  1 active torsions:
REMARK  status: ('A' for Active; 'I' for Inactive)
REMARK    1  A    between atoms: C2_2  and  C7_7 
ROOT
HETATM    1  C1  UNL     1     -33.454   4.912   3.350  1.00 20.00     0.310 C 
HETATM    2  C2  UNL     1     -32.638   7.032   3.302  1.00 20.00     0.356 C 
HETATM    3  C3  UNL     1     -34.330   5.786   4.244  1.00 20.00     0.083 C 
HETATM    4  C4  UNL     1     -34.519   5.176   5.629  1.00 20.00     0.047 C 
HETATM    5  C5  UNL     1     -35.690   6.105   3.614  1.00 20.00     0.047 C 
HETATM    6  N8  UNL     1     -32.858   5.875   2.424  1.00 20.00     0.115 N 
HETATM    7  O9  UNL     1     -33.595   7.016   4.374  1.00 20.00    -0.345 OA
HETATM    8  H24 UNL     1     -31.975   5.526   2.056  1.00 20.00     0.319 HD
ENDROOT
BRANCH   2   9
HETATM    9  C7  UNL     1     -32.754   8.347   2.548  1.00 20.00     0.059 C 
HETATM   10  C6  UNL     1     -31.727   8.464   1.465  1.00 20.00     0.009 C 
ENDBRANCH   2   9
TORSDOF 1
ENDMDL
MODEL 2
REMARK VINA RESULT:      -4.4      1.479      2.119
REMARK  1 active torsions:
REMARK  status: ('A' for Active; 'I' for Inactive)
REMARK    1  A    between atoms: C2_2  and  C7_7 
ROOT
HETATM    1  C1  UNL     1     -33.009   7.109   4.457  1.00 20.00     0.310 C 
HETATM    2  C2  UNL     1     -32.724   8.297   2.541  1.00 20.00     0.356 C 
HETATM    3  C3  UNL     1     -33.696   6.360   3.318  1.00 20.00     0.083 C 
HETATM    4  C4  UNL     1     -35.135   5.991   3.665  1.00 20.00     0.047 C 
HETATM    5  C5  UNL     1     -32.921   5.116   2.871  1.00 20.00     0.047 C 
HETATM    6  N8  UNL     1     -32.005   7.917   3.764  1.00 20.00     0.115 N 
HETATM    7  O9  UNL     1     -33.708   7.298   2.227  1.00 20.00    -0.345 OA
HETATM    8  H24 UNL     1     -31.762   8.741   4.312  1.00 20.00     0.319 HD
ENDROOT
BRANCH   2   9
HETATM    9  C7  UNL     1     -31.783   8.461   1.357  1.00 20.00     0.059 C 
HETATM   10  C6  UNL     1     -32.272   9.497   0.393  1.00 20.00     0.009 C 
ENDBRANCH   2   9
TORSDOF 1
ENDMDL
MODEL 3
REMARK VINA RESULT:      -4.3      1.134      3.752
REMARK  1 active torsions:
REMARK  status: ('A' for Active; 'I' for Inactive)
REMARK    1  A    between atoms: C2_2  and  C7_7 
ROOT
HETATM    1  C1  UNL     1     -32.694   6.413   2.143  1.00 20.00     0.310 C 
HETATM    2  C2  UNL     1     -34.222   6.545   3.820  1.00 20.00     0.356 C 
HETATM    3  C3  UNL     1     -32.642   7.820   2.734  1.00 20.00     0.083 C 
HETATM    4  C4  UNL     1     -32.740   8.895   1.657  1.00 20.00     0.047 C 
HETATM    5  C5  UNL     1     -31.403   8.052   3.605  1.00 20.00     0.047 C 
HETATM    6  N8  UNL     1     -33.248   5.614   3.237  1.00 20.00     0.115 N 
HETATM    7  O9  UNL     1     -33.805   7.899   3.577  1.00 20.00    -0.345 OA
HETATM    8  H24 UNL     1     -33.712   4.781   2.879  1.00 20.00     0.319 HD
ENDROOT
BRANCH   2   9
HETATM    9  C7  UNL     1     -34.386   6.333   5.316  1.00 20.00     0.059 C 
HETATM   10  C6  UNL     1     -34.566   4.888   5.661  1.00 20.00     0.009 C 
ENDBRANCH   2   9
TORSDOF 1
ENDMDL
MODEL 4
REMARK VINA RESULT:      -4.1      1.546      4.087
REMARK  1 active torsions:
REMARK  status: ('A' for Active; 'I' for Inactive)
REMARK    1  A    between atoms: C2_2  and  C7_7 
ROOT
HETATM    1  C1  UNL     1     -31.434   8.427   3.202  1.00 20.00     0.310 C 
HETATM    2  C2  UNL     1     -33.007   6.788   3.166  1.00 20.00     0.356 C 
HETATM    3  C3  UNL     1     -32.220   8.541   1.898  1.00 20.00     0.083 C 
HETATM    4  C4  UNL     1     -31.300   8.610   0.683  1.00 20.00     0.047 C 
HETATM    5  C5  UNL     1     -33.196   9.723   1.893  1.00 20.00     0.047 C 
HETATM    6  N8  UNL     1     -32.365   7.731   4.091  1.00 20.00     0.115 N 
HETATM    7  O9  UNL     1     -32.986   7.325   1.833  1.00 20.00    -0.345 OA
HETATM    8  H24 UNL     1     -31.863   7.234   4.825  1.00 20.00     0.319 HD
ENDROOT
BRANCH   2   9
HETATM    9  C7  UNL     1     -34.445   6.492   3.562  1.00 20.00     0.059 C 
HETATM   10  C6  UNL     1     -34.536   5.882   4.926  1.00 20.00     0.009 C 
ENDBRANCH   2   9
TORSDOF 1
ENDMDL
MODEL 5
REMARK VINA RESULT:      -3.9      1.920      4.416
REMARK  1 active torsions:
REMARK  status: ('A' for Active; 'I' for Inactive)
REMARK    1  A    between atoms: C2_2  and  C7_7 
ROOT
HETATM    1  C1  UNL     1     -31.261   8.737   1.217  1.00 20.00     0.310 C 
HETATM    2  C2  UNL     1     -32.679   7.514   2.503  1.00 20.00     0.356 C 
HETATM    3  C3  UNL     1     -32.689   9.204   0.940  1.00 20.00     0.083 C 
HETATM    4  C4  UNL     1     -32.999   9.232  -0.553  1.00 20.00     0.047 C 
HETATM    5  C5  UNL     1     -33.003  10.563   1.574  1.00 20.00     0.047 C 
HETATM    6  N8  UNL     1     -31.358   8.151   2.555  1.00 20.00     0.115 N 
HETATM    7  O9  UNL     1     -33.519   8.211   1.569  1.00 20.00    -0.345 OA
HETATM    8  H24 UNL     1     -30.626   7.458   2.700  1.00 20.00     0.319 HD
ENDROOT
BRANCH   2   9
HETATM    9  C7  UNL     1     -33.355   7.496   3.865  1.00 20.00     0.059 C 
HETATM   10  C6  UNL     1     -34.315   6.355   4.000  1.00 20.00     0.009 C 
ENDBRANCH   2   9
TORSDOF 1
ENDMDL
MODEL 6
REMARK VINA RESULT:      -3.8     11.715     12.539
REMARK  1 active torsions:
REMARK  status: ('A' for Active; 'I' for Inactive)
REMARK    1  A    between atoms: C2_2  and  C7_7 
ROOT
HETATM    1  C1  UNL     1     -32.856  15.188  -4.954  1.00 20.00     0.310 C 
HETATM    2  C2  UNL     1     -34.818  14.355  -5.741  1.00 20.00     0.356 C 
HETATM    3  C3  UNL     1     -33.976  16.155  -4.578  1.00 20.00     0.083 C 
HETATM    4  C4  UNL     1     -33.650  17.589  -4.984  1.00 20.00     0.047 C 
HETATM    5  C5  UNL     1     -34.342  16.093  -3.092  1.00 20.00     0.047 C 
HETATM    6  N8  UNL     1     -33.560  13.916  -5.125  1.00 20.00     0.115 N 
HETATM    7  O9  UNL     1     -35.110  15.703  -5.340  1.00 20.00    -0.345 OA
HETATM    8  H24 UNL     1     -33.045  13.298  -5.751  1.00 20.00     0.319 HD
ENDROOT
BRANCH   2   9
HETATM    9  C7  UNL     1     -35.983  13.456  -5.357  1.00 20.00     0.059 C 
HETATM   10  C6  UNL     1     -37.241  14.234  -5.132  1.00 20.00     0.009 C 
ENDBRANCH   2   9
TORSDOF 1
ENDMDL
MODEL 7
REMARK VINA RESULT:      -3.7     11.593     12.379
REMARK  1 active torsions:
REMARK  status: ('A' for Active; 'I' for Inactive)
REMARK    1  A    between atoms: C2_2  and  C7_7 
ROOT
HETATM    1  C1  UNL     1     -35.921  13.247  -5.424  1.00 20.00     0.310 C 
HETATM    2  C2  UNL     1     -34.953  14.988  -4.333  1.00 20.00     0.356 C 
HETATM    3  C3  UNL     1     -35.576  14.326  -6.447  1.00 20.00     0.083 C 
HETATM    4  C4  UNL     1     -36.769  14.674  -7.333  1.00 20.00     0.047 C 
HETATM    5  C5  UNL     1     -34.363  13.962  -7.310  1.00 20.00     0.047 C 
HETATM    6  N8  UNL     1     -34.992  13.521  -4.327  1.00 20.00     0.115 N 
HETATM    7  O9  UNL     1     -35.235  15.477  -5.654  1.00 20.00    -0.345 OA
HETATM    8  H24 UNL     1     -35.360  13.171  -3.444  1.00 20.00     0.319 HD
ENDROOT
BRANCH   2   9
HETATM    9  C7  UNL     1     -33.603  15.523  -3.879  1.00 20.00     0.059 C 
HETATM   10  C6  UNL     1     -33.742  16.563  -2.812  1.00 20.00     0.009 C 
ENDBRANCH   2   9
TORSDOF 1
ENDMDL
MODEL 8
REMARK VINA RESULT:      -3.7     11.734     12.691
REMARK  1 active torsions:
REMARK  status: ('A' for Active; 'I' for Inactive)
REMARK    1  A    between atoms: C2_2  and  C7_7 
ROOT
HETATM    1  C1  UNL     1     -33.216  15.145  -4.190  1.00 20.00     0.310 C 
HETATM    2  C2  UNL     1     -33.633  16.138  -6.191  1.00 20.00     0.356 C 
HETATM    3  C3  UNL     1     -34.719  15.388  -4.305  1.00 20.00     0.083 C 
HETATM    4  C4  UNL     1     -35.276  16.102  -3.077  1.00 20.00     0.047 C 
HETATM    5  C5  UNL     1     -35.510  14.104  -4.576  1.00 20.00     0.047 C 
HETATM    6  N8  UNL     1     -32.779  15.108  -5.586  1.00 20.00     0.115 N 
HETATM    7  O9  UNL     1     -34.857  16.252  -5.447  1.00 20.00    -0.345 OA
HETATM    8  H24 UNL     1     -31.795  15.360  -5.665  1.00 20.00     0.319 HD
ENDROOT
BRANCH   2   9
HETATM    9  C7  UNL     1     -33.957  15.826  -7.643  1.00 20.00     0.059 C 
HETATM   10  C6  UNL     1     -33.945  14.355  -7.917  1.00 20.00     0.009 C 
ENDBRANCH   2   9
TORSDOF 1
ENDMDL
MODEL 9
REMARK VINA RESULT:      -3.7     11.636     12.154
REMARK  1 active torsions:
REMARK  status: ('A' for Active; 'I' for Inactive)
REMARK    1  A    between atoms: C2_2  and  C7_7 
ROOT
HETATM    1  C1  UNL     1     -34.014  14.978  -5.908  1.00 20.00     0.310 C 
HETATM    2  C2  UNL     1     -33.644  15.566  -3.745  1.00 20.00     0.356 C 
HETATM    3  C3  UNL     1     -35.319  14.812  -5.133  1.00 20.00     0.083 C 
HETATM    4  C4  UNL     1     -35.941  13.437  -5.353  1.00 20.00     0.047 C 
HETATM    5  C5  UNL     1     -36.340  15.912  -5.443  1.00 20.00     0.047 C 
HETATM    6  N8  UNL     1     -33.278  15.960  -5.112  1.00 20.00     0.115 N 
HETATM    7  O9  UNL     1     -34.934  14.932  -3.752  1.00 20.00    -0.345 OA
HETATM    8  H24 UNL     1     -32.274  15.867  -5.259  1.00 20.00     0.319 HD
ENDROOT
BRANCH   2   9
HETATM    9  C7  UNL     1     -33.678  16.757  -2.800  1.00 20.00     0.059 C 
HETATM   10  C6  UNL     1     -34.872  16.723  -1.898  1.00 20.00     0.009 C 
ENDBRANCH   2   9
TORSDOF 1
ENDMDL
