MODEL 1
REMARK VINA RESULT:      -4.9      0.000      0.000
REMARK  1 active torsions:
REMARK  status: ('A' for Active; 'I' for Inactive)
REMARK    1  A    between atoms: C3_3  and  C7_7 
ROOT
HETATM    1  C1  UNL     1     -32.137   8.214   4.272  1.00 20.00     0.304 C 
HETATM    2  C2  UNL     1     -32.201   7.547   2.911  1.00 20.00     0.148 C 
HETATM    3  C3  UNL     1     -34.087   7.050   4.099  1.00 20.00     0.360 C 
HETATM    4  C4  UNL     1     -31.793   8.458   1.770  1.00 20.00     0.041 C 
HETATM    5  N8  UNL     1     -33.017   7.350   5.049  1.00 20.00     0.115 N 
HETATM    6  O9  UNL     1     -33.575   7.158   2.761  1.00 20.00    -0.350 OA
HETATM    7  H24 UNL     1     -32.514   6.490   5.271  1.00 20.00     0.319 HD
ENDROOT
BRANCH   3   8
HETATM    8  C7  UNL     1     -34.627   5.647   4.318  1.00 20.00     0.036 C 
HETATM    9  C5  UNL     1     -33.847   4.629   3.484  1.00 20.00     0.014 C 
HETATM   10  C6  UNL     1     -34.576   5.271   5.799  1.00 20.00     0.014 C 
ENDBRANCH   3   8
TORSDOF 1
ENDMDL
MODEL 2
REMARK VINA RESULT:      -4.8      1.835      4.236
REMARK  1 active torsions:
REMARK  status: ('A' for Active; 'I' for Inactive)
REMARK    1  A    between atoms: C3_3  and  C7_7 
ROOT
HETATM    1  C1  UNL     1     -32.030   7.765   3.759  1.00 20.00     0.304 C 
HETATM    2  C2  UNL     1     -33.331   7.457   3.041  1.00 20.00     0.148 C 
HETATM    3  C3  UNL     1     -31.863   8.430   1.587  1.00 20.00     0.360 C 
HETATM    4  C4  UNL     1     -33.875   6.075   3.340  1.00 20.00     0.041 C 
HETATM    5  N8  UNL     1     -31.509   8.854   2.941  1.00 20.00     0.115 N 
HETATM    6  O9  UNL     1     -33.011   7.568   1.646  1.00 20.00    -0.350 OA
HETATM    7  H24 UNL     1     -32.022   9.706   3.170  1.00 20.00     0.319 HD
ENDROOT
BRANCH   3   8
HETATM    8  C7  UNL     1     -32.180   9.630   0.711  1.00 20.00     0.036 C 
HETATM    9  C5  UNL     1     -33.115   9.235  -0.434  1.00 20.00     0.014 C 
HETATM   10  C6  UNL     1     -32.798  10.758   1.537  1.00 20.00     0.014 C 
ENDBRANCH   3   8
TORSDOF 1
ENDMDL
MODEL 3
REMARK VINA RESULT:      -4.6      0.979      1.433
REMARK  1 active torsions:
REMARK  status: ('A' for Active; 'I' for Inactive)
REMARK    1  A    between atoms: C3_3  and  C7_7 
ROOT
HETATM    1  C1  UNL     1     -31.557   8.572   3.568  1.00 20.00     0.304 C 
HETATM    2  C2  UNL     1     -32.028   7.870   2.307  1.00 20.00     0.148 C 
HETATM    3  C3  UNL     1     -33.547   7.543   3.981  1.00 20.00     0.360 C 
HETATM    4  C4  UNL     1     -31.891   8.715   1.056  1.00 20.00     0.041 C 
HETATM    5  N8  UNL     1     -32.243   7.796   4.593  1.00 20.00     0.115 N 
HETATM    6  O9  UNL     1     -33.412   7.575   2.551  1.00 20.00    -0.350 OA
HETATM    7  H24 UNL     1     -31.751   6.910   4.713  1.00 20.00     0.319 HD
ENDROOT
BRANCH   3   8
HETATM    8  C7  UNL     1     -34.089   6.189   4.405  1.00 20.00     0.036 C 
HETATM    9  C5  UNL     1     -34.327   6.148   5.915  1.00 20.00     0.014 C 
HETATM   10  C6  UNL     1     -35.380   5.861   3.654  1.00 20.00     0.014 C 
ENDBRANCH   3   8
TORSDOF 1
ENDMDL
MODEL 4
REMARK VINA RESULT:      -4.5      1.372      3.815
REMARK  1 active torsions:
REMARK  status: ('A' for Active; 'I' for Inactive)
REMARK    1  A    between atoms: C3_3  and  C7_7 
ROOT
HETATM    1  C1  UNL     1     -34.083   5.048   3.669  1.00 20.00     0.304 C 
HETATM    2  C2  UNL     1     -33.730   5.985   4.810  1.00 20.00     0.148 C 
HETATM    3  C3  UNL     1     -33.417   7.053   2.816  1.00 20.00     0.360 C 
HETATM    4  C4  UNL     1     -34.742   5.975   5.938  1.00 20.00     0.041 C 
HETATM    5  N8  UNL     1     -33.288   5.614   2.586  1.00 20.00     0.115 N 
HETATM    6  O9  UNL     1     -33.679   7.288   4.208  1.00 20.00    -0.350 OA
HETATM    7  H24 UNL     1     -32.315   5.339   2.721  1.00 20.00     0.319 HD
ENDROOT
BRANCH   3   8
HETATM    8  C7  UNL     1     -32.145   7.780   2.413  1.00 20.00     0.036 C 
HETATM    9  C5  UNL     1     -32.452   8.899   1.416  1.00 20.00     0.014 C 
HETATM   10  C6  UNL     1     -31.430   8.343   3.642  1.00 20.00     0.014 C 
ENDBRANCH   3   8
TORSDOF 1
ENDMDL
MODEL 5
REMARK VINA RESULT:      -4.3      1.548      1.945
REMARK  1 active torsions:
REMARK  status: ('A' for Active; 'I' for Inactive)
REMARK    1  A    between atoms: C3_3  and  C7_7 
ROOT
HETATM    1  C1  UNL     1     -33.046   6.538   1.717  1.00 20.00     0.304 C 
HETATM    2  C2  UNL     1     -32.853   7.872   2.413  1.00 20.00     0.148 C 
HETATM    3  C3  UNL     1     -33.275   6.251   3.965  1.00 20.00     0.360 C 
HETATM    4  C4  UNL     1     -31.665   8.659   1.897  1.00 20.00     0.041 C 
HETATM    5  N8  UNL     1     -33.862   5.827   2.694  1.00 20.00     0.115 N 
HETATM    6  O9  UNL     1     -32.656   7.536   3.795  1.00 20.00    -0.350 OA
HETATM    7  H24 UNL     1     -34.819   6.177   2.634  1.00 20.00     0.319 HD
ENDROOT
BRANCH   3   8
HETATM    8  C7  UNL     1     -34.338   6.344   5.047  1.00 20.00     0.036 C 
HETATM    9  C5  UNL     1     -34.659   4.959   5.613  1.00 20.00     0.014 C 
HETATM   10  C6  UNL     1     -33.894   7.286   6.166  1.00 20.00     0.014 C 
ENDBRANCH   3   8
TORSDOF 1
ENDMDL
MODEL 6
REMARK VINA RESULT:      -4.1      1.828      4.377
REMARK  1 active torsions:
REMARK  status: ('A' for Active; 'I' for Inactive)
REMARK    1  A    between atoms: C3_3  and  C7_7 
ROOT
HETATM    1  C1  UNL     1     -32.051   7.656   3.784  1.00 20.00     0.304 C 
HETATM    2  C2  UNL     1     -33.424   7.215   3.309  1.00 20.00     0.148 C 
HETATM    3  C3  UNL     1     -32.401   8.436   1.672  1.00 20.00     0.360 C 
HETATM    4  C4  UNL     1     -33.730   5.761   3.608  1.00 20.00     0.041 C 
HETATM    5  N8  UNL     1     -31.837   8.840   2.960  1.00 20.00     0.115 N 
HETATM    6  O9  UNL     1     -33.404   7.431   1.889  1.00 20.00    -0.350 OA
HETATM    7  H24 UNL     1     -32.391   9.606   3.343  1.00 20.00     0.319 HD
ENDROOT
BRANCH   3   8
HETATM    8  C7  UNL     1     -33.026   9.624   0.960  1.00 20.00     0.036 C 
HETATM    9  C5  UNL     1     -32.282  10.916   1.303  1.00 20.00     0.014 C 
HETATM   10  C6  UNL     1     -33.042   9.404  -0.553  1.00 20.00     0.014 C 
ENDBRANCH   3   8
TORSDOF 1
ENDMDL
MODEL 7
REMARK VINA RESULT:      -4.0     11.276     11.960
REMARK  1 active torsions:
REMARK  status: ('A' for Active; 'I' for Inactive)
REMARK    1  A    between atoms: C3_3  and  C7_7 
ROOT
HETATM    1  C1  UNL     1     -32.944  14.904  -4.492  1.00 20.00     0.304 C 
HETATM    2  C2  UNL     1     -34.048  15.858  -4.072  1.00 20.00     0.148 C 
HETATM    3  C3  UNL     1     -34.935  13.797  -4.499  1.00 20.00     0.360 C 
HETATM    4  C4  UNL     1     -33.692  16.705  -2.868  1.00 20.00     0.041 C 
HETATM    5  N8  UNL     1     -33.698  13.928  -5.269  1.00 20.00     0.115 N 
HETATM    6  O9  UNL     1     -35.163  15.008  -3.762  1.00 20.00    -0.350 OA
HETATM    7  H24 UNL     1     -33.912  14.333  -6.180  1.00 20.00     0.319 HD
ENDROOT
BRANCH   3   8
HETATM    8  C7  UNL     1     -36.117  13.536  -5.418  1.00 20.00     0.036 C 
HETATM    9  C5  UNL     1     -37.314  14.403  -5.021  1.00 20.00     0.014 C 
HETATM   10  C6  UNL     1     -35.737  13.789  -6.877  1.00 20.00     0.014 C 
ENDBRANCH   3   8
TORSDOF 1
ENDMDL
MODEL 8
REMARK VINA RESULT:      -4.0      1.118      4.006
REMARK  1 active torsions:
REMARK  status: ('A' for Active; 'I' for Inactive)
REMARK    1  A    between atoms: C3_3  and  C7_7 
ROOT
HETATM    1  C1  UNL     1     -32.946   7.439   4.682  1.00 20.00     0.304 C 
HETATM    2  C2  UNL     1     -34.069   6.927   3.799  1.00 20.00     0.148 C 
HETATM    3  C3  UNL     1     -32.333   7.641   2.497  1.00 20.00     0.360 C 
HETATM    4  C4  UNL     1     -34.660   5.614   4.270  1.00 20.00     0.041 C 
HETATM    5  N8  UNL     1     -32.269   8.355   3.772  1.00 20.00     0.115 N 
HETATM    6  O9  UNL     1     -33.467   6.759   2.506  1.00 20.00    -0.350 OA
HETATM    7  H24 UNL     1     -32.820   9.211   3.705  1.00 20.00     0.319 HD
ENDROOT
BRANCH   3   8
HETATM    8  C7  UNL     1     -32.464   8.616   1.339  1.00 20.00     0.036 C 
HETATM    9  C5  UNL     1     -32.708  10.037   1.850  1.00 20.00     0.014 C 
HETATM   10  C6  UNL     1     -31.219   8.575   0.452  1.00 20.00     0.014 C 
ENDBRANCH   3   8
TORSDOF 1
ENDMDL
MODEL 9
REMARK VINA RESULT:      -3.9     11.520     12.135
REMARK  1 active torsions:
REMARK  status: ('A' for Active; 'I' for Inactive)
REMARK    1  A    between atoms: C3_3  and  C7_7 
ROOT
HETATM    1  C1  UNL     1     -33.779  14.943  -5.318  1.00 20.00     0.304 C 
HETATM    2  C2  UNL     1     -34.782  14.264  -4.404  1.00 20.00     0.148 C 
HETATM    3  C3  UNL     1     -34.395  16.392  -3.671  1.00 20.00     0.360 C 
HETATM    4  C4  UNL     1     -35.863  13.505  -5.148  1.00 20.00     0.041 C 
HETATM    5  N8  UNL     1     -33.220  15.949  -4.422  1.00 20.00     0.115 N 
HETATM    6  O9  UNL     1     -35.367  15.334  -3.647  1.00 20.00    -0.350 OA
HETATM    7  H24 UNL     1     -32.569  15.490  -3.785  1.00 20.00     0.319 HD
ENDROOT
BRANCH   3   8
HETATM    8  C7  UNL     1     -34.017  16.762  -2.247  1.00 20.00     0.036 C 
HETATM    9  C5  UNL     1     -33.186  18.045  -2.222  1.00 20.00     0.014 C 
HETATM   10  C6  UNL     1     -35.265  16.919  -1.378  1.00 20.00     0.014 C 
ENDBRANCH   3   8
TORSDOF 1
ENDMDL
