MODEL 1
REMARK VINA RESULT:      -5.1      0.000      0.000
REMARK  0 active torsions:
REMARK  status: ('A' for Active; 'I' for Inactive)
ROOT
HETATM    1  C1  UNL     1     -31.921   8.609   1.296  1.00 20.00     0.107 C 
HETATM    2  C2  UNL     1     -33.021   6.573   2.200  1.00 20.00     0.038 A 
HETATM    3  C3  UNL     1     -32.539   7.858   2.336  1.00 20.00     0.086 A 
HETATM    4  C4  UNL     1     -33.588   6.079   3.413  1.00 20.00    -0.043 A 
HETATM    5  C5  UNL     1     -33.505   7.016   4.425  1.00 20.00    -0.010 A 
HETATM    6  C6  UNL     1     -34.183   4.723   3.631  1.00 20.00     0.040 C 
HETATM    7  C7  UNL     1     -34.027   6.830   5.815  1.00 20.00     0.046 C 
HETATM    8  C8  UNL     1     -35.026   4.671   4.915  1.00 20.00     0.005 C 
HETATM    9  C9  UNL     1     -34.306   5.345   6.092  1.00 20.00     0.005 C 
HETATM   10  N10 UNL     1     -31.416   9.222   0.450  1.00 20.00    -0.191 NA
HETATM   11  S11 UNL     1     -32.768   8.466   3.919  1.00 20.00    -0.083 SA
ENDROOT
TORSDOF 0
ENDMDL
MODEL 2
REMARK VINA RESULT:      -4.7     11.485     12.121
REMARK  0 active torsions:
REMARK  status: ('A' for Active; 'I' for Inactive)
ROOT
HETATM    1  C1  UNL     1     -35.515  13.637  -5.381  1.00 20.00     0.107 C 
HETATM    2  C2  UNL     1     -34.374  15.127  -3.752  1.00 20.00     0.038 A 
HETATM    3  C3  UNL     1     -35.488  14.719  -4.456  1.00 20.00     0.086 A 
HETATM    4  C4  UNL     1     -34.652  16.236  -2.900  1.00 20.00    -0.043 A 
HETATM    5  C5  UNL     1     -35.973  16.629  -3.000  1.00 20.00    -0.010 A 
HETATM    6  C6  UNL     1     -33.677  16.945  -2.012  1.00 20.00     0.040 C 
HETATM    7  C7  UNL     1     -36.601  17.745  -2.223  1.00 20.00     0.046 C 
HETATM    8  C8  UNL     1     -34.388  17.824  -0.971  1.00 20.00     0.005 C 
HETATM    9  C9  UNL     1     -35.521  18.645  -1.604  1.00 20.00     0.005 C 
HETATM   10  N10 UNL     1     -35.538  12.756  -6.136  1.00 20.00    -0.191 NA
HETATM   11  S11 UNL     1     -36.863  15.672  -4.091  1.00 20.00    -0.083 SA
ENDROOT
TORSDOF 0
ENDMDL
MODEL 3
REMARK VINA RESULT:      -4.5     11.789     12.388
REMARK  0 active torsions:
REMARK  status: ('A' for Active; 'I' for Inactive)
ROOT
HETATM    1  C1  UNL     1     -34.395  18.888   3.168  1.00 20.00     0.107 C 
HETATM    2  C2  UNL     1     -33.342  18.556   0.941  1.00 20.00     0.038 A 
HETATM    3  C3  UNL     1     -34.401  18.437   1.817  1.00 20.00     0.086 A 
HETATM    4  C4  UNL     1     -33.643  18.015  -0.344  1.00 20.00    -0.043 A 
HETATM    5  C5  UNL     1     -34.924  17.498  -0.385  1.00 20.00    -0.010 A 
HETATM    6  C6  UNL     1     -32.724  17.957  -1.524  1.00 20.00     0.040 C 
HETATM    7  C7  UNL     1     -35.563  16.878  -1.588  1.00 20.00     0.046 C 
HETATM    8  C8  UNL     1     -33.486  17.666  -2.827  1.00 20.00     0.005 C 
HETATM    9  C9  UNL     1     -34.503  16.530  -2.644  1.00 20.00     0.005 C 
HETATM   10  N10 UNL     1     -34.390  19.254   4.269  1.00 20.00    -0.191 NA
HETATM   11  S11 UNL     1     -35.751  17.673   1.093  1.00 20.00    -0.083 SA
ENDROOT
TORSDOF 0
ENDMDL
MODEL 4
REMARK VINA RESULT:      -4.4     11.802     12.440
REMARK  0 active torsions:
REMARK  status: ('A' for Active; 'I' for Inactive)
ROOT
HETATM    1  C1  UNL     1     -34.954  18.960   3.330  1.00 20.00     0.107 C 
HETATM    2  C2  UNL     1     -35.472  17.914   1.136  1.00 20.00     0.038 A 
HETATM    3  C3  UNL     1     -34.630  18.590   1.993  1.00 20.00     0.086 A 
HETATM    4  C4  UNL     1     -34.872  17.682  -0.137  1.00 20.00    -0.043 A 
HETATM    5  C5  UNL     1     -33.594  18.203  -0.194  1.00 20.00    -0.010 A 
HETATM    6  C6  UNL     1     -35.505  16.996  -1.309  1.00 20.00     0.040 C 
HETATM    7  C7  UNL     1     -32.679  18.111  -1.375  1.00 20.00     0.046 C 
HETATM    8  C8  UNL     1     -34.462  16.589  -2.362  1.00 20.00     0.005 C 
HETATM    9  C9  UNL     1     -33.464  17.723  -2.637  1.00 20.00     0.005 C 
HETATM   10  N10 UNL     1     -35.217  19.263   4.418  1.00 20.00    -0.191 NA
HETATM   11  S11 UNL     1     -33.122  18.946   1.264  1.00 20.00    -0.083 SA
ENDROOT
TORSDOF 0
ENDMDL
MODEL 5
REMARK VINA RESULT:      -4.4     11.645     12.020
REMARK  0 active torsions:
REMARK  status: ('A' for Active; 'I' for Inactive)
ROOT
HETATM    1  C1  UNL     1     -33.569  16.844  -3.822  1.00 20.00     0.107 C 
HETATM    2  C2  UNL     1     -33.039  17.856  -1.615  1.00 20.00     0.038 A 
HETATM    3  C3  UNL     1     -33.891  17.206  -2.482  1.00 20.00     0.086 A 
HETATM    4  C4  UNL     1     -33.639  18.084  -0.341  1.00 20.00    -0.043 A 
HETATM    5  C5  UNL     1     -34.932  17.599  -0.300  1.00 20.00    -0.010 A 
HETATM    6  C6  UNL     1     -33.012  18.777   0.829  1.00 20.00     0.040 C 
HETATM    7  C7  UNL     1     -35.834  17.653   0.894  1.00 20.00     0.046 C 
HETATM    8  C8  UNL     1     -33.783  18.510   2.131  1.00 20.00     0.005 C 
HETATM    9  C9  UNL     1     -35.298  18.653   1.930  1.00 20.00     0.005 C 
HETATM   10  N10 UNL     1     -33.307  16.550  -4.913  1.00 20.00    -0.191 NA
HETATM   11  S11 UNL     1     -35.410  16.873  -1.764  1.00 20.00    -0.083 SA
ENDROOT
TORSDOF 0
ENDMDL
MODEL 6
REMARK VINA RESULT:      -4.4     11.579     12.549
REMARK  0 active torsions:
REMARK  status: ('A' for Active; 'I' for Inactive)
ROOT
HETATM    1  C1  UNL     1     -34.497  14.011  -5.997  1.00 20.00     0.107 C 
HETATM    2  C2  UNL     1     -34.761  15.118  -3.788  1.00 20.00     0.038 A 
HETATM    3  C3  UNL     1     -34.303  15.091  -5.088  1.00 20.00     0.086 A 
HETATM    4  C4  UNL     1     -34.416  16.331  -3.121  1.00 20.00    -0.043 A 
HETATM    5  C5  UNL     1     -33.699  17.174  -3.948  1.00 20.00    -0.010 A 
HETATM    6  C6  UNL     1     -34.735  16.690  -1.703  1.00 20.00     0.040 C 
HETATM    7  C7  UNL     1     -33.205  18.536  -3.570  1.00 20.00     0.046 C 
HETATM    8  C8  UNL     1     -34.554  18.194  -1.441  1.00 20.00     0.005 C 
HETATM    9  C9  UNL     1     -33.244  18.719  -2.045  1.00 20.00     0.005 C 
HETATM   10  N10 UNL     1     -34.653  13.132  -6.738  1.00 20.00    -0.191 NA
HETATM   11  S11 UNL     1     -33.457  16.521  -5.502  1.00 20.00    -0.083 SA
ENDROOT
TORSDOF 0
ENDMDL
MODEL 7
REMARK VINA RESULT:      -4.4     11.970     12.576
REMARK  0 active torsions:
REMARK  status: ('A' for Active; 'I' for Inactive)
ROOT
HETATM    1  C1  UNL     1     -33.199  19.025   5.025  1.00 20.00     0.107 C 
HETATM    2  C2  UNL     1     -34.270  18.464   2.854  1.00 20.00     0.038 A 
HETATM    3  C3  UNL     1     -33.181  18.839   3.613  1.00 20.00     0.086 A 
HETATM    4  C4  UNL     1     -33.948  18.356   1.468  1.00 20.00    -0.043 A 
HETATM    5  C5  UNL     1     -32.621  18.663   1.234  1.00 20.00    -0.010 A 
HETATM    6  C6  UNL     1     -34.888  17.992   0.361  1.00 20.00     0.040 C 
HETATM    7  C7  UNL     1     -31.952  18.624  -0.104  1.00 20.00     0.046 C 
HETATM    8  C8  UNL     1     -34.135  17.604  -0.921  1.00 20.00     0.005 C 
HETATM    9  C9  UNL     1     -32.998  18.589  -1.229  1.00 20.00     0.005 C 
HETATM   10  N10 UNL     1     -33.212  19.178   6.175  1.00 20.00    -0.191 NA
HETATM   11  S11 UNL     1     -31.777  19.061   2.659  1.00 20.00    -0.083 SA
ENDROOT
TORSDOF 0
ENDMDL
MODEL 8
REMARK VINA RESULT:      -4.4     11.762     12.224
REMARK  0 active torsions:
REMARK  status: ('A' for Active; 'I' for Inactive)
ROOT
HETATM    1  C1  UNL     1     -36.045  15.972  -3.359  1.00 20.00     0.107 C 
HETATM    2  C2  UNL     1     -35.626  17.031  -1.151  1.00 20.00     0.038 A 
HETATM    3  C3  UNL     1     -35.226  16.658  -2.417  1.00 20.00     0.086 A 
HETATM    4  C4  UNL     1     -34.590  17.705  -0.437  1.00 20.00    -0.043 A 
HETATM    5  C5  UNL     1     -33.440  17.806  -1.195  1.00 20.00    -0.010 A 
HETATM    6  C6  UNL     1     -34.669  18.229   0.964  1.00 20.00     0.040 C 
HETATM    7  C7  UNL     1     -32.175  18.476  -0.755  1.00 20.00     0.046 C 
HETATM    8  C8  UNL     1     -33.529  19.213   1.269  1.00 20.00     0.005 C 
HETATM    9  C9  UNL     1     -32.177  18.686   0.767  1.00 20.00     0.005 C 
HETATM   10  N10 UNL     1     -36.711  15.412  -4.127  1.00 20.00    -0.191 NA
HETATM   11  S11 UNL     1     -33.609  17.114  -2.742  1.00 20.00    -0.083 SA
ENDROOT
TORSDOF 0
ENDMDL
MODEL 9
REMARK VINA RESULT:      -4.3     11.542     12.574
REMARK  0 active torsions:
REMARK  status: ('A' for Active; 'I' for Inactive)
ROOT
HETATM    1  C1  UNL     1     -33.697  16.851  -2.449  1.00 20.00     0.107 C 
HETATM    2  C2  UNL     1     -34.813  15.050  -3.748  1.00 20.00     0.038 A 
HETATM    3  C3  UNL     1     -33.992  16.153  -3.656  1.00 20.00     0.086 A 
HETATM    4  C4  UNL     1     -34.917  14.566  -5.086  1.00 20.00    -0.043 A 
HETATM    5  C5  UNL     1     -34.170  15.334  -5.958  1.00 20.00    -0.010 A 
HETATM    6  C6  UNL     1     -35.736  13.402  -5.552  1.00 20.00     0.040 C 
HETATM    7  C7  UNL     1     -34.040  15.086  -7.429  1.00 20.00     0.046 C 
HETATM    8  C8  UNL     1     -35.320  12.938  -6.957  1.00 20.00     0.005 C 
HETATM    9  C9  UNL     1     -35.138  14.126  -7.913  1.00 20.00     0.005 C 
HETATM   10  N10 UNL     1     -33.458  17.420  -1.467  1.00 20.00    -0.191 NA
HETATM   11  S11 UNL     1     -33.350  16.606  -5.178  1.00 20.00    -0.083 SA
ENDROOT
TORSDOF 0
ENDMDL
