MODEL 1
REMARK VINA RESULT:      -5.9      0.000      0.000
REMARK  2 active torsions:
REMARK  status: ('A' for Active; 'I' for Inactive)
REMARK    1  A    between atoms: C1_1  and  C9_9 
REMARK    2  A    between atoms: C8_8  and  C9_9 
ROOT
HETATM    1  C2  UNL     1     -34.265   4.531   5.187  1.00 20.00     0.005 C 
HETATM    2  C3  UNL     1     -33.782   4.314   3.745  1.00 20.00     0.005 C 
HETATM    3  C4  UNL     1     -35.430   6.020   3.741  1.00 20.00     0.009 C 
HETATM    4  C5  UNL     1     -33.682   6.966   5.048  1.00 20.00     0.010 C 
HETATM    5  C6  UNL     1     -34.841   5.956   5.149  1.00 20.00    -0.014 C 
HETATM    6  C7  UNL     1     -34.104   5.659   3.067  1.00 20.00    -0.010 C 
HETATM    7  C8  UNL     1     -33.133   6.728   3.625  1.00 20.00    -0.004 C 
ENDROOT
BRANCH   7   8
HETATM    8  C9  UNL     1     -33.117   8.005   2.791  1.00 20.00     0.074 C 
BRANCH   8   9
HETATM    9  C1  UNL     1     -31.760   8.288   2.201  1.00 20.00     0.231 C 
HETATM   10  O10 UNL     1     -31.559   8.686   1.059  1.00 20.00    -0.307 OA
ENDBRANCH   8   9
ENDBRANCH   7   8
TORSDOF 2
ENDMDL
MODEL 2
REMARK VINA RESULT:      -4.5     11.553     12.306
REMARK  2 active torsions:
REMARK  status: ('A' for Active; 'I' for Inactive)
REMARK    1  A    between atoms: C1_1  and  C9_9 
REMARK    2  A    between atoms: C8_8  and  C9_9 
ROOT
HETATM    1  C2  UNL     1     -33.680  17.366  -1.506  1.00 20.00     0.005 C 
HETATM    2  C3  UNL     1     -35.135  16.979  -1.200  1.00 20.00     0.005 C 
HETATM    3  C4  UNL     1     -35.048  17.933  -3.369  1.00 20.00     0.009 C 
HETATM    4  C5  UNL     1     -33.718  15.974  -3.592  1.00 20.00     0.010 C 
HETATM    5  C6  UNL     1     -33.650  17.411  -3.042  1.00 20.00    -0.014 C 
HETATM    6  C7  UNL     1     -35.750  16.810  -2.602  1.00 20.00    -0.010 C 
HETATM    7  C8  UNL     1     -35.155  15.533  -3.241  1.00 20.00    -0.004 C 
ENDROOT
BRANCH   7   8
HETATM    8  C9  UNL     1     -35.932  15.069  -4.469  1.00 20.00     0.074 C 
BRANCH   8   9
HETATM    9  C1  UNL     1     -35.346  13.826  -5.085  1.00 20.00     0.231 C 
HETATM   10  O10 UNL     1     -35.924  12.750  -5.185  1.00 20.00    -0.307 OA
ENDBRANCH   8   9
ENDBRANCH   7   8
TORSDOF 2
ENDMDL
MODEL 3
REMARK VINA RESULT:      -4.4      1.234      2.385
REMARK  2 active torsions:
REMARK  status: ('A' for Active; 'I' for Inactive)
REMARK    1  A    between atoms: C1_1  and  C9_9 
REMARK    2  A    between atoms: C8_8  and  C9_9 
ROOT
HETATM    1  C2  UNL     1     -34.827   6.146   4.018  1.00 20.00     0.005 C 
HETATM    2  C3  UNL     1     -33.814   7.023   4.771  1.00 20.00     0.005 C 
HETATM    3  C4  UNL     1     -32.639   5.690   3.200  1.00 20.00     0.009 C 
HETATM    4  C5  UNL     1     -34.020   7.049   1.822  1.00 20.00     0.010 C 
HETATM    5  C6  UNL     1     -34.084   5.798   2.717  1.00 20.00    -0.014 C 
HETATM    6  C7  UNL     1     -32.630   7.102   3.789  1.00 20.00    -0.010 C 
HETATM    7  C8  UNL     1     -33.054   7.979   2.587  1.00 20.00    -0.004 C 
ENDROOT
BRANCH   7   8
HETATM    8  C9  UNL     1     -31.872   8.417   1.728  1.00 20.00     0.074 C 
BRANCH   8   9
HETATM    9  C1  UNL     1     -32.250   9.481   0.731  1.00 20.00     0.231 C 
HETATM   10  O10 UNL     1     -32.642  10.606   1.018  1.00 20.00    -0.307 OA
ENDBRANCH   8   9
ENDBRANCH   7   8
TORSDOF 2
ENDMDL
MODEL 4
REMARK VINA RESULT:      -4.3      2.310      4.003
REMARK  2 active torsions:
REMARK  status: ('A' for Active; 'I' for Inactive)
REMARK    1  A    between atoms: C1_1  and  C9_9 
REMARK    2  A    between atoms: C8_8  and  C9_9 
ROOT
HETATM    1  C2  UNL     1     -32.280   8.744   2.268  1.00 20.00     0.005 C 
HETATM    2  C3  UNL     1     -33.565   8.016   1.843  1.00 20.00     0.005 C 
HETATM    3  C4  UNL     1     -32.114   6.449   2.874  1.00 20.00     0.009 C 
HETATM    4  C5  UNL     1     -32.591   7.974   4.634  1.00 20.00     0.010 C 
HETATM    5  C6  UNL     1     -31.718   7.836   3.373  1.00 20.00    -0.014 C 
HETATM    6  C7  UNL     1     -33.601   6.800   2.788  1.00 20.00    -0.010 C 
HETATM    7  C8  UNL     1     -33.918   7.305   4.216  1.00 20.00    -0.004 C 
ENDROOT
BRANCH   7   8
HETATM    8  C9  UNL     1     -34.321   6.181   5.165  1.00 20.00     0.074 C 
BRANCH   8   9
HETATM    9  C1  UNL     1     -34.909   5.000   4.438  1.00 20.00     0.231 C 
HETATM   10  O10 UNL     1     -34.434   3.870   4.431  1.00 20.00    -0.307 OA
ENDBRANCH   8   9
ENDBRANCH   7   8
TORSDOF 2
ENDMDL
MODEL 5
REMARK VINA RESULT:      -4.3     11.583     12.409
REMARK  2 active torsions:
REMARK  status: ('A' for Active; 'I' for Inactive)
REMARK    1  A    between atoms: C1_1  and  C9_9 
REMARK    2  A    between atoms: C8_8  and  C9_9 
ROOT
HETATM    1  C2  UNL     1     -35.019  15.041  -3.667  1.00 20.00     0.005 C 
HETATM    2  C3  UNL     1     -33.590  15.395  -4.105  1.00 20.00     0.005 C 
HETATM    3  C4  UNL     1     -34.901  17.370  -4.140  1.00 20.00     0.009 C 
HETATM    4  C5  UNL     1     -34.917  16.758  -1.842  1.00 20.00     0.010 C 
HETATM    5  C6  UNL     1     -35.577  16.389  -3.184  1.00 20.00    -0.014 C 
HETATM    6  C7  UNL     1     -33.491  16.897  -3.780  1.00 20.00    -0.010 C 
HETATM    7  C8  UNL     1     -33.457  17.059  -2.241  1.00 20.00    -0.004 C 
ENDROOT
BRANCH   7   8
HETATM    8  C9  UNL     1     -33.014  18.451  -1.803  1.00 20.00     0.074 C 
BRANCH   8   9
HETATM    9  C1  UNL     1     -32.284  18.434  -0.486  1.00 20.00     0.231 C 
HETATM   10  O10 UNL     1     -31.069  18.339  -0.355  1.00 20.00    -0.307 OA
ENDBRANCH   8   9
ENDBRANCH   7   8
TORSDOF 2
ENDMDL
MODEL 6
REMARK VINA RESULT:      -4.1     11.419     12.485
REMARK  2 active torsions:
REMARK  status: ('A' for Active; 'I' for Inactive)
REMARK    1  A    between atoms: C1_1  and  C9_9 
REMARK    2  A    between atoms: C8_8  and  C9_9 
ROOT
HETATM    1  C2  UNL     1     -34.270  14.741  -6.227  1.00 20.00     0.005 C 
HETATM    2  C3  UNL     1     -35.086  14.181  -5.051  1.00 20.00     0.005 C 
HETATM    3  C4  UNL     1     -32.869  14.581  -4.310  1.00 20.00     0.009 C 
HETATM    4  C5  UNL     1     -33.647  16.757  -4.872  1.00 20.00     0.010 C 
HETATM    5  C6  UNL     1     -33.111  15.471  -5.527  1.00 20.00    -0.014 C 
HETATM    6  C7  UNL     1     -34.315  14.694  -3.821  1.00 20.00    -0.010 C 
HETATM    7  C8  UNL     1     -34.525  16.224  -3.720  1.00 20.00    -0.004 C 
ENDROOT
BRANCH   7   8
HETATM    8  C9  UNL     1     -34.108  16.790  -2.366  1.00 20.00     0.074 C 
BRANCH   8   9
HETATM    9  C1  UNL     1     -33.256  18.025  -2.498  1.00 20.00     0.231 C 
HETATM   10  O10 UNL     1     -32.404  18.381  -1.692  1.00 20.00    -0.307 OA
ENDBRANCH   8   9
ENDBRANCH   7   8
TORSDOF 2
ENDMDL
MODEL 7
REMARK VINA RESULT:      -4.1     11.323     12.583
REMARK  2 active torsions:
REMARK  status: ('A' for Active; 'I' for Inactive)
REMARK    1  A    between atoms: C1_1  and  C9_9 
REMARK    2  A    between atoms: C8_8  and  C9_9 
ROOT
HETATM    1  C2  UNL     1     -34.825  18.633  -3.097  1.00 20.00     0.005 C 
HETATM    2  C3  UNL     1     -33.481  17.928  -2.856  1.00 20.00     0.005 C 
HETATM    3  C4  UNL     1     -35.213  16.585  -1.949  1.00 20.00     0.009 C 
HETATM    4  C5  UNL     1     -35.712  16.605  -4.275  1.00 20.00     0.010 C 
HETATM    5  C6  UNL     1     -35.840  17.482  -3.015  1.00 20.00    -0.014 C 
HETATM    6  C7  UNL     1     -33.890  16.450  -2.705  1.00 20.00    -0.010 C 
HETATM    7  C8  UNL     1     -34.337  15.928  -4.091  1.00 20.00    -0.004 C 
ENDROOT
BRANCH   7   8
HETATM    8  C9  UNL     1     -34.430  14.406  -4.147  1.00 20.00     0.074 C 
BRANCH   8   9
HETATM    9  C1  UNL     1     -35.712  13.932  -4.782  1.00 20.00     0.231 C 
HETATM   10  O10 UNL     1     -35.900  12.808  -5.233  1.00 20.00    -0.307 OA
ENDBRANCH   8   9
ENDBRANCH   7   8
TORSDOF 2
ENDMDL
MODEL 8
REMARK VINA RESULT:      -4.1     11.531     12.764
REMARK  2 active torsions:
REMARK  status: ('A' for Active; 'I' for Inactive)
REMARK    1  A    between atoms: C1_1  and  C9_9 
REMARK    2  A    between atoms: C8_8  and  C9_9 
ROOT
HETATM    1  C2  UNL     1     -34.536  16.393  -3.612  1.00 20.00     0.005 C 
HETATM    2  C3  UNL     1     -33.451  16.817  -4.615  1.00 20.00     0.005 C 
HETATM    3  C4  UNL     1     -33.386  14.458  -4.383  1.00 20.00     0.009 C 
HETATM    4  C5  UNL     1     -35.542  14.845  -5.309  1.00 20.00     0.010 C 
HETATM    5  C6  UNL     1     -34.782  14.919  -3.971  1.00 20.00    -0.014 C 
HETATM    6  C7  UNL     1     -33.239  15.542  -5.452  1.00 20.00    -0.010 C 
HETATM    7  C8  UNL     1     -34.493  15.327  -6.334  1.00 20.00    -0.004 C 
ENDROOT
BRANCH   7   8
HETATM    8  C9  UNL     1     -34.265  14.311  -7.448  1.00 20.00     0.074 C 
BRANCH   8   9
HETATM    9  C1  UNL     1     -35.238  13.163  -7.387  1.00 20.00     0.231 C 
HETATM   10  O10 UNL     1     -34.985  12.048  -6.946  1.00 20.00    -0.307 OA
ENDBRANCH   8   9
ENDBRANCH   7   8
TORSDOF 2
ENDMDL
MODEL 9
REMARK VINA RESULT:      -3.8     11.313     13.060
REMARK  2 active torsions:
REMARK  status: ('A' for Active; 'I' for Inactive)
REMARK    1  A    between atoms: C1_1  and  C9_9 
REMARK    2  A    between atoms: C8_8  and  C9_9 
ROOT
HETATM    1  C2  UNL     1     -34.744  18.795  -3.440  1.00 20.00     0.005 C 
HETATM    2  C3  UNL     1     -35.686  18.194  -4.495  1.00 20.00     0.005 C 
HETATM    3  C4  UNL     1     -33.514  17.300  -4.823  1.00 20.00     0.009 C 
HETATM    4  C5  UNL     1     -34.101  16.499  -2.662  1.00 20.00     0.010 C 
HETATM    5  C6  UNL     1     -33.600  17.770  -3.373  1.00 20.00    -0.014 C 
HETATM    6  C7  UNL     1     -34.983  16.876  -4.873  1.00 20.00    -0.010 C 
HETATM    7  C8  UNL     1     -35.101  15.903  -3.675  1.00 20.00    -0.004 C 
ENDROOT
BRANCH   7   8
HETATM    8  C9  UNL     1     -34.758  14.464  -4.047  1.00 20.00     0.074 C 
BRANCH   8   9
HETATM    9  C1  UNL     1     -35.774  13.853  -4.976  1.00 20.00     0.231 C 
HETATM   10  O10 UNL     1     -35.839  12.663  -5.263  1.00 20.00    -0.307 OA
ENDBRANCH   8   9
ENDBRANCH   7   8
TORSDOF 2
ENDMDL
