MODEL 1
REMARK VINA RESULT:      -5.6      0.000      0.000
REMARK  1 active torsions:
REMARK  status: ('A' for Active; 'I' for Inactive)
REMARK    1  A    between atoms: C3_3  and  C5_5 
ROOT
HETATM    1  C1  UNL     1     -32.691   7.988   4.051  1.00 20.00     0.030 A 
HETATM    2  C2  UNL     1     -33.524   7.028   4.658  1.00 20.00    -0.044 A 
HETATM    3  C3  UNL     1     -32.517   7.702   2.706  1.00 20.00     0.043 A 
HETATM    4  C4  UNL     1     -33.943   6.071   3.775  1.00 20.00    -0.010 A 
HETATM    5  C6  UNL     1     -34.071   6.784   6.014  1.00 20.00     0.040 C 
HETATM    6  C7  UNL     1     -34.823   5.042   4.373  1.00 20.00     0.047 C 
HETATM    7  C8  UNL     1     -34.611   5.322   5.893  1.00 20.00     0.010 C 
HETATM    8  S10 UNL     1     -33.371   6.277   2.217  1.00 20.00    -0.091 SA
ENDROOT
BRANCH   3   9
HETATM    9  C5  UNL     1     -31.754   8.413   1.731  1.00 20.00     0.277 C 
HETATM   10  O9  UNL     1     -32.166   9.417   1.115  1.00 20.00    -0.301 OA
ENDBRANCH   3   9
TORSDOF 1
ENDMDL
MODEL 2
REMARK VINA RESULT:      -4.6     11.459     11.818
REMARK  1 active torsions:
REMARK  status: ('A' for Active; 'I' for Inactive)
REMARK    1  A    between atoms: C3_3  and  C5_5 
ROOT
HETATM    1  C1  UNL     1     -34.278  15.198  -3.792  1.00 20.00     0.030 A 
HETATM    2  C2  UNL     1     -34.557  16.219  -2.863  1.00 20.00    -0.044 A 
HETATM    3  C3  UNL     1     -35.428  14.833  -4.475  1.00 20.00     0.043 A 
HETATM    4  C4  UNL     1     -35.874  16.585  -2.872  1.00 20.00    -0.010 A 
HETATM    5  C6  UNL     1     -33.787  17.009  -1.871  1.00 20.00     0.040 C 
HETATM    6  C7  UNL     1     -36.210  17.657  -1.909  1.00 20.00     0.047 C 
HETATM    7  C8  UNL     1     -34.922  17.674  -1.028  1.00 20.00     0.010 C 
HETATM    8  S10 UNL     1     -36.813  15.742  -3.969  1.00 20.00    -0.091 SA
ENDROOT
BRANCH   3   9
HETATM    9  C5  UNL     1     -35.589  13.847  -5.493  1.00 20.00     0.277 C 
HETATM   10  O9  UNL     1     -35.881  12.653  -5.274  1.00 20.00    -0.301 OA
ENDBRANCH   3   9
TORSDOF 1
ENDMDL
MODEL 3
REMARK VINA RESULT:      -4.4     11.457     11.753
REMARK  1 active torsions:
REMARK  status: ('A' for Active; 'I' for Inactive)
REMARK    1  A    between atoms: C3_3  and  C5_5 
ROOT
HETATM    1  C1  UNL     1     -35.926  15.372  -3.401  1.00 20.00     0.030 A 
HETATM    2  C2  UNL     1     -35.250  16.281  -2.562  1.00 20.00    -0.044 A 
HETATM    3  C3  UNL     1     -35.064  14.861  -4.359  1.00 20.00     0.043 A 
HETATM    4  C4  UNL     1     -33.934  16.423  -2.904  1.00 20.00    -0.010 A 
HETATM    5  C6  UNL     1     -35.597  17.127  -1.394  1.00 20.00     0.040 C 
HETATM    6  C7  UNL     1     -33.187  17.370  -2.046  1.00 20.00     0.047 C 
HETATM    7  C8  UNL     1     -34.360  18.076  -1.297  1.00 20.00     0.010 C 
HETATM    8  S10 UNL     1     -33.460  15.497  -4.213  1.00 20.00    -0.091 SA
ENDROOT
BRANCH   3   9
HETATM    9  C5  UNL     1     -35.337  13.919  -5.396  1.00 20.00     0.277 C 
HETATM   10  O9  UNL     1     -35.928  12.833  -5.219  1.00 20.00    -0.301 OA
ENDBRANCH   3   9
TORSDOF 1
ENDMDL
MODEL 4
REMARK VINA RESULT:      -4.2     11.463     12.582
REMARK  1 active torsions:
REMARK  status: ('A' for Active; 'I' for Inactive)
REMARK    1  A    between atoms: C3_3  and  C5_5 
ROOT
HETATM    1  C1  UNL     1     -34.600  14.983  -3.754  1.00 20.00     0.030 A 
HETATM    2  C2  UNL     1     -34.043  16.248  -3.481  1.00 20.00    -0.044 A 
HETATM    3  C3  UNL     1     -34.875  14.853  -5.107  1.00 20.00     0.043 A 
HETATM    4  C4  UNL     1     -33.917  17.014  -4.607  1.00 20.00    -0.010 A 
HETATM    5  C6  UNL     1     -33.552  16.970  -2.282  1.00 20.00     0.040 C 
HETATM    6  C7  UNL     1     -33.335  18.353  -4.364  1.00 20.00     0.047 C 
HETATM    7  C8  UNL     1     -33.429  18.436  -2.808  1.00 20.00     0.010 C 
HETATM    8  S10 UNL     1     -34.448  16.269  -6.007  1.00 20.00    -0.091 SA
ENDROOT
BRANCH   3   9
HETATM    9  C5  UNL     1     -35.439  13.742  -5.802  1.00 20.00     0.277 C 
HETATM   10  O9  UNL     1     -35.908  12.730  -5.242  1.00 20.00    -0.301 OA
ENDBRANCH   3   9
TORSDOF 1
ENDMDL
MODEL 5
REMARK VINA RESULT:      -4.1     11.594     12.122
REMARK  1 active torsions:
REMARK  status: ('A' for Active; 'I' for Inactive)
REMARK    1  A    between atoms: C3_3  and  C5_5 
ROOT
HETATM    1  C1  UNL     1     -35.455  17.736   1.013  1.00 20.00     0.030 A 
HETATM    2  C2  UNL     1     -34.936  17.516  -0.279  1.00 20.00    -0.044 A 
HETATM    3  C3  UNL     1     -34.555  18.453   1.785  1.00 20.00     0.043 A 
HETATM    4  C4  UNL     1     -33.692  18.061  -0.437  1.00 20.00    -0.010 A 
HETATM    5  C6  UNL     1     -35.391  16.846  -1.520  1.00 20.00     0.040 C 
HETATM    6  C7  UNL     1     -33.109  17.854  -1.782  1.00 20.00     0.047 C 
HETATM    7  C8  UNL     1     -34.073  16.768  -2.355  1.00 20.00     0.010 C 
HETATM    8  S10 UNL     1     -33.105  18.841   0.921  1.00 20.00    -0.091 SA
ENDROOT
BRANCH   3   9
HETATM    9  C5  UNL     1     -34.683  18.884   3.139  1.00 20.00     0.277 C 
HETATM   10  O9  UNL     1     -33.908  18.548   4.058  1.00 20.00    -0.301 OA
ENDBRANCH   3   9
TORSDOF 1
ENDMDL
MODEL 6
REMARK VINA RESULT:      -4.1     11.779     12.177
REMARK  1 active torsions:
REMARK  status: ('A' for Active; 'I' for Inactive)
REMARK    1  A    between atoms: C3_3  and  C5_5 
ROOT
HETATM    1  C1  UNL     1     -32.197  18.132  -0.925  1.00 20.00     0.030 A 
HETATM    2  C2  UNL     1     -33.341  17.561  -1.519  1.00 20.00    -0.044 A 
HETATM    3  C3  UNL     1     -32.495  18.612   0.342  1.00 20.00     0.043 A 
HETATM    4  C4  UNL     1     -34.437  17.626  -0.703  1.00 20.00    -0.010 A 
HETATM    5  C6  UNL     1     -33.667  16.902  -2.806  1.00 20.00     0.040 C 
HETATM    6  C7  UNL     1     -35.661  17.036  -1.290  1.00 20.00     0.047 C 
HETATM    7  C8  UNL     1     -35.229  16.888  -2.783  1.00 20.00     0.010 C 
HETATM    8  S10 UNL     1     -34.152  18.355   0.774  1.00 20.00    -0.091 SA
ENDROOT
BRANCH   3   9
HETATM    9  C5  UNL     1     -31.633  19.258   1.278  1.00 20.00     0.277 C 
HETATM   10  O9  UNL     1     -30.425  18.981   1.426  1.00 20.00    -0.301 OA
ENDBRANCH   3   9
TORSDOF 1
ENDMDL
MODEL 7
REMARK VINA RESULT:      -4.1     11.526     12.401
REMARK  1 active torsions:
REMARK  status: ('A' for Active; 'I' for Inactive)
REMARK    1  A    between atoms: C3_3  and  C5_5 
ROOT
HETATM    1  C1  UNL     1     -33.737  15.602  -6.098  1.00 20.00     0.030 A 
HETATM    2  C2  UNL     1     -33.830  16.272  -4.862  1.00 20.00    -0.044 A 
HETATM    3  C3  UNL     1     -34.480  14.432  -6.074  1.00 20.00     0.043 A 
HETATM    4  C4  UNL     1     -34.620  15.604  -3.967  1.00 20.00    -0.010 A 
HETATM    5  C6  UNL     1     -33.292  17.524  -4.275  1.00 20.00     0.040 C 
HETATM    6  C7  UNL     1     -34.745  16.276  -2.654  1.00 20.00     0.047 C 
HETATM    7  C8  UNL     1     -33.601  17.333  -2.755  1.00 20.00     0.010 C 
HETATM    8  S10 UNL     1     -35.270  14.180  -4.554  1.00 20.00    -0.091 SA
ENDROOT
BRANCH   3   9
HETATM    9  C5  UNL     1     -34.657  13.465  -7.108  1.00 20.00     0.277 C 
HETATM   10  O9  UNL     1     -34.996  12.280  -6.910  1.00 20.00    -0.301 OA
ENDBRANCH   3   9
TORSDOF 1
ENDMDL
MODEL 8
REMARK VINA RESULT:      -4.0      2.466      4.224
REMARK  1 active torsions:
REMARK  status: ('A' for Active; 'I' for Inactive)
REMARK    1  A    between atoms: C3_3  and  C5_5 
ROOT
HETATM    1  C1  UNL     1     -33.157   7.256   4.999  1.00 20.00     0.030 A 
HETATM    2  C2  UNL     1     -32.582   7.813   3.840  1.00 20.00    -0.044 A 
HETATM    3  C3  UNL     1     -33.995   6.201   4.669  1.00 20.00     0.043 A 
HETATM    4  C4  UNL     1     -32.993   7.178   2.700  1.00 20.00    -0.010 A 
HETATM    5  C6  UNL     1     -31.639   8.915   3.532  1.00 20.00     0.040 C 
HETATM    6  C7  UNL     1     -32.411   7.734   1.457  1.00 20.00     0.047 C 
HETATM    7  C8  UNL     1     -31.812   9.074   1.987  1.00 20.00     0.010 C 
HETATM    8  S10 UNL     1     -34.059   5.918   2.962  1.00 20.00    -0.091 SA
ENDROOT
BRANCH   3   9
HETATM    9  C5  UNL     1     -34.768   5.369   5.533  1.00 20.00     0.277 C 
HETATM   10  O9  UNL     1     -34.843   4.128   5.428  1.00 20.00    -0.301 OA
ENDBRANCH   3   9
TORSDOF 1
ENDMDL
MODEL 9
REMARK VINA RESULT:      -3.9     11.574     11.954
REMARK  1 active torsions:
REMARK  status: ('A' for Active; 'I' for Inactive)
REMARK    1  A    between atoms: C3_3  and  C5_5 
ROOT
HETATM    1  C1  UNL     1     -35.631  16.695  -1.760  1.00 20.00     0.030 A 
HETATM    2  C2  UNL     1     -34.635  17.389  -1.045  1.00 20.00    -0.044 A 
HETATM    3  C3  UNL     1     -35.155  16.299  -3.000  1.00 20.00     0.043 A 
HETATM    4  C4  UNL     1     -33.467  17.491  -1.749  1.00 20.00    -0.010 A 
HETATM    5  C6  UNL     1     -34.521  18.039   0.283  1.00 20.00     0.040 C 
HETATM    6  C7  UNL     1     -32.392  18.213  -1.033  1.00 20.00     0.047 C 
HETATM    7  C8  UNL     1     -33.201  18.862   0.134  1.00 20.00     0.010 C 
HETATM    8  S10 UNL     1     -33.511  16.778  -3.261  1.00 20.00    -0.091 SA
ENDROOT
BRANCH   3   9
HETATM    9  C5  UNL     1     -35.831  15.578  -4.029  1.00 20.00     0.277 C 
HETATM   10  O9  UNL     1     -35.524  14.424  -4.395  1.00 20.00    -0.301 OA
ENDBRANCH   3   9
TORSDOF 1
ENDMDL
