MODEL 1
REMARK VINA RESULT:      -4.9      0.000      0.000
REMARK  2 active torsions:
REMARK  status: ('A' for Active; 'I' for Inactive)
REMARK    1  A    between atoms: C1_1  and  C3_3 
REMARK    2  A    between atoms: C3_3  and  C5_5 
ROOT
HETATM    1  C3  UNL     1     -33.207   6.329   3.304  1.00 20.00     0.168 C 
HETATM    2  O6  UNL     1     -32.918   5.269   2.754  1.00 20.00    -0.292 OA
ENDROOT
BRANCH   1   3
HETATM    3  C1  UNL     1     -32.514   7.602   2.947  1.00 20.00     0.063 C 
HETATM    4  C2  UNL     1     -32.913   8.306   1.887  1.00 20.00     0.088 C 
HETATM    5 CL7  UNL     1     -32.161   9.775   1.420  1.00 20.00    -0.097 Cl
ENDBRANCH   1   3
BRANCH   1   6
HETATM    6  C5  UNL     1     -34.248   6.429   4.407  1.00 20.00     0.152 C 
HETATM    7  C4  UNL     1     -34.656   5.046   4.884  1.00 20.00     0.035 C 
HETATM    8 CL8  UNL     1     -33.561   7.367   5.758  1.00 20.00    -0.117 Cl
ENDBRANCH   1   6
TORSDOF 2
ENDMDL
MODEL 2
REMARK VINA RESULT:      -4.7      1.717      1.833
REMARK  2 active torsions:
REMARK  status: ('A' for Active; 'I' for Inactive)
REMARK    1  A    between atoms: C1_1  and  C3_3 
REMARK    2  A    between atoms: C3_3  and  C5_5 
ROOT
HETATM    1  C3  UNL     1     -33.048   7.197   4.008  1.00 20.00     0.168 C 
HETATM    2  O6  UNL     1     -33.015   7.637   5.155  1.00 20.00    -0.292 OA
ENDROOT
BRANCH   1   3
HETATM    3  C1  UNL     1     -32.144   7.730   2.947  1.00 20.00     0.063 C 
HETATM    4  C2  UNL     1     -32.638   8.476   1.958  1.00 20.00     0.088 C 
HETATM    5 CL7  UNL     1     -31.657   9.118   0.707  1.00 20.00    -0.097 Cl
ENDBRANCH   1   3
BRANCH   1   6
HETATM    6  C5  UNL     1     -34.024   6.119   3.566  1.00 20.00     0.152 C 
HETATM    7  C4  UNL     1     -33.298   5.012   2.822  1.00 20.00     0.035 C 
HETATM    8 CL8  UNL     1     -34.837   5.459   5.009  1.00 20.00    -0.117 Cl
ENDBRANCH   1   6
TORSDOF 2
ENDMDL
MODEL 3
REMARK VINA RESULT:      -4.6      1.578      1.712
REMARK  2 active torsions:
REMARK  status: ('A' for Active; 'I' for Inactive)
REMARK    1  A    between atoms: C1_1  and  C3_3 
REMARK    2  A    between atoms: C3_3  and  C5_5 
ROOT
HETATM    1  C3  UNL     1     -32.535   7.784   3.387  1.00 20.00     0.168 C 
HETATM    2  O6  UNL     1     -31.546   8.111   4.040  1.00 20.00    -0.292 OA
ENDROOT
BRANCH   1   3
HETATM    3  C1  UNL     1     -32.595   7.997   1.911  1.00 20.00     0.063 C 
HETATM    4  C2  UNL     1     -32.673   9.232   1.415  1.00 20.00     0.088 C 
HETATM    5 CL7  UNL     1     -32.746   9.547  -0.269  1.00 20.00    -0.097 Cl
ENDBRANCH   1   3
BRANCH   1   6
HETATM    6  C5  UNL     1     -33.779   7.182   4.020  1.00 20.00     0.152 C 
HETATM    7  C4  UNL     1     -33.964   5.743   3.572  1.00 20.00     0.035 C 
HETATM    8 CL8  UNL     1     -33.610   7.258   5.793  1.00 20.00    -0.117 Cl
ENDBRANCH   1   6
TORSDOF 2
ENDMDL
MODEL 4
REMARK VINA RESULT:      -4.5      1.650      1.826
REMARK  2 active torsions:
REMARK  status: ('A' for Active; 'I' for Inactive)
REMARK    1  A    between atoms: C1_1  and  C3_3 
REMARK    2  A    between atoms: C3_3  and  C5_5 
ROOT
HETATM    1  C3  UNL     1     -34.074   6.274   3.698  1.00 20.00     0.168 C 
HETATM    2  O6  UNL     1     -35.219   6.072   3.298  1.00 20.00    -0.292 OA
ENDROOT
BRANCH   1   3
HETATM    3  C1  UNL     1     -32.987   6.684   2.762  1.00 20.00     0.063 C 
HETATM    4  C2  UNL     1     -32.811   7.972   2.463  1.00 20.00     0.088 C 
HETATM    5 CL7  UNL     1     -31.583   8.512   1.395  1.00 20.00    -0.097 Cl
ENDBRANCH   1   3
BRANCH   1   6
HETATM    6  C5  UNL     1     -33.663   6.086   5.149  1.00 20.00     0.152 C 
HETATM    7  C4  UNL     1     -33.793   7.392   5.915  1.00 20.00     0.035 C 
HETATM    8 CL8  UNL     1     -34.705   4.839   5.881  1.00 20.00    -0.117 Cl
ENDBRANCH   1   6
TORSDOF 2
ENDMDL
MODEL 5
REMARK VINA RESULT:      -4.4      1.936      4.446
REMARK  2 active torsions:
REMARK  status: ('A' for Active; 'I' for Inactive)
REMARK    1  A    between atoms: C1_1  and  C3_3 
REMARK    2  A    between atoms: C3_3  and  C5_5 
ROOT
HETATM    1  C3  UNL     1     -32.297   8.111   2.658  1.00 20.00     0.168 C 
HETATM    2  O6  UNL     1     -31.412   8.435   3.447  1.00 20.00    -0.292 OA
ENDROOT
BRANCH   1   3
HETATM    3  C1  UNL     1     -33.219   6.974   2.951  1.00 20.00     0.063 C 
HETATM    4  C2  UNL     1     -33.865   6.918   4.115  1.00 20.00     0.088 C 
HETATM    5 CL7  UNL     1     -34.936   5.641   4.516  1.00 20.00    -0.097 Cl
ENDBRANCH   1   3
BRANCH   1   6
HETATM    6  C5  UNL     1     -32.501   8.801   1.320  1.00 20.00     0.152 C 
HETATM    7  C4  UNL     1     -32.763  10.284   1.517  1.00 20.00     0.035 C 
HETATM    8 CL8  UNL     1     -31.041   8.562   0.326  1.00 20.00    -0.117 Cl
ENDBRANCH   1   6
TORSDOF 2
ENDMDL
MODEL 6
REMARK VINA RESULT:      -4.4      1.890      1.890
REMARK  2 active torsions:
REMARK  status: ('A' for Active; 'I' for Inactive)
REMARK    1  A    between atoms: C1_1  and  C3_3 
REMARK    2  A    between atoms: C3_3  and  C5_5 
ROOT
HETATM    1  C3  UNL     1     -33.366   6.883   4.160  1.00 20.00     0.168 C 
HETATM    2  O6  UNL     1     -33.026   7.570   5.120  1.00 20.00    -0.292 OA
ENDROOT
BRANCH   1   3
HETATM    3  C1  UNL     1     -32.925   7.216   2.773  1.00 20.00     0.063 C 
HETATM    4  C2  UNL     1     -32.115   8.254   2.559  1.00 20.00     0.088 C 
HETATM    5 CL7  UNL     1     -31.572   8.693   0.993  1.00 20.00    -0.097 Cl
ENDBRANCH   1   3
BRANCH   1   6
HETATM    6  C5  UNL     1     -34.282   5.678   4.291  1.00 20.00     0.152 C 
HETATM    7  C4  UNL     1     -34.518   5.342   5.754  1.00 20.00     0.035 C 
HETATM    8 CL8  UNL     1     -35.830   6.048   3.489  1.00 20.00    -0.117 Cl
ENDBRANCH   1   6
TORSDOF 2
ENDMDL
MODEL 7
REMARK VINA RESULT:      -3.7     10.895     12.108
REMARK  2 active torsions:
REMARK  status: ('A' for Active; 'I' for Inactive)
REMARK    1  A    between atoms: C1_1  and  C3_3 
REMARK    2  A    between atoms: C3_3  and  C5_5 
ROOT
HETATM    1  C3  UNL     1     -35.330  13.773  -5.301  1.00 20.00     0.168 C 
HETATM    2  O6  UNL     1     -35.916  12.699  -5.180  1.00 20.00    -0.292 OA
ENDROOT
BRANCH   1   3
HETATM    3  C1  UNL     1     -34.663  14.427  -4.137  1.00 20.00     0.063 C 
HETATM    4  C2  UNL     1     -35.025  15.653  -3.760  1.00 20.00     0.088 C 
HETATM    5 CL7  UNL     1     -34.299  16.463  -2.434  1.00 20.00    -0.097 Cl
ENDBRANCH   1   3
BRANCH   1   6
HETATM    6  C5  UNL     1     -35.270  14.536  -6.614  1.00 20.00     0.152 C 
HETATM    7  C4  UNL     1     -34.354  13.832  -7.601  1.00 20.00     0.035 C 
HETATM    8 CL8  UNL     1     -36.918  14.653  -7.282  1.00 20.00    -0.117 Cl
ENDBRANCH   1   6
TORSDOF 2
ENDMDL
MODEL 8
REMARK VINA RESULT:      -3.7      1.611      3.907
REMARK  2 active torsions:
REMARK  status: ('A' for Active; 'I' for Inactive)
REMARK    1  A    between atoms: C1_1  and  C3_3 
REMARK    2  A    between atoms: C3_3  and  C5_5 
ROOT
HETATM    1  C3  UNL     1     -33.258   6.924   2.638  1.00 20.00     0.168 C 
HETATM    2  O6  UNL     1     -33.892   6.373   1.741  1.00 20.00    -0.292 OA
ENDROOT
BRANCH   1   3
HETATM    3  C1  UNL     1     -33.620   6.733   4.074  1.00 20.00     0.063 C 
HETATM    4  C2  UNL     1     -34.333   5.671   4.449  1.00 20.00     0.088 C 
HETATM    5 CL7  UNL     1     -34.784   5.392   6.080  1.00 20.00    -0.097 Cl
ENDBRANCH   1   3
BRANCH   1   6
HETATM    6  C5  UNL     1     -32.095   7.864   2.368  1.00 20.00     0.152 C 
HETATM    7  C4  UNL     1     -32.547   9.047   1.528  1.00 20.00     0.035 C 
HETATM    8 CL8  UNL     1     -31.445   8.431   3.928  1.00 20.00    -0.117 Cl
ENDBRANCH   1   6
TORSDOF 2
ENDMDL
MODEL 9
REMARK VINA RESULT:      -3.5     11.077     12.051
REMARK  2 active torsions:
REMARK  status: ('A' for Active; 'I' for Inactive)
REMARK    1  A    between atoms: C1_1  and  C3_3 
REMARK    2  A    between atoms: C3_3  and  C5_5 
ROOT
HETATM    1  C3  UNL     1     -34.601  14.362  -4.887  1.00 20.00     0.168 C 
HETATM    2  O6  UNL     1     -35.162  13.305  -4.606  1.00 20.00    -0.292 OA
ENDROOT
BRANCH   1   3
HETATM    3  C1  UNL     1     -33.972  15.210  -3.832  1.00 20.00     0.063 C 
HETATM    4  C2  UNL     1     -34.731  15.961  -3.034  1.00 20.00     0.088 C 
HETATM    5 CL7  UNL     1     -34.074  16.958  -1.804  1.00 20.00    -0.097 Cl
ENDBRANCH   1   3
BRANCH   1   6
HETATM    6  C5  UNL     1     -34.535  14.910  -6.303  1.00 20.00     0.152 C 
HETATM    7  C4  UNL     1     -33.350  15.847  -6.460  1.00 20.00     0.035 C 
HETATM    8 CL8  UNL     1     -34.392  13.543  -7.437  1.00 20.00    -0.117 Cl
ENDBRANCH   1   6
TORSDOF 2
ENDMDL
