MODEL 1
REMARK VINA RESULT:      -4.7      0.000      0.000
REMARK  2 active torsions:
REMARK  status: ('A' for Active; 'I' for Inactive)
REMARK    1  A    between atoms: C4_4  and  C6_6 
REMARK    2  A    between atoms: C6_6  and  N7_7 
ROOT
HETATM    1  C1  UNL     1     -34.471   4.905   4.145  1.00 20.00     0.332 C 
HETATM    2  N7  UNL     1     -34.532   6.053   3.935  1.00 20.00    -0.242 NA
HETATM    3  O8  UNL     1     -34.423   3.748   4.349  1.00 20.00    -0.260 OA
ENDROOT
BRANCH   2   4
HETATM    4  C6  UNL     1     -33.402   6.821   4.495  1.00 20.00     0.112 C 
HETATM    5  C5  UNL     1     -33.806   7.292   5.897  1.00 20.00     0.035 C 
BRANCH   4   6
HETATM    6  C4  UNL     1     -33.047   7.947   3.586  1.00 20.00     0.010 A 
HETATM    7  C2  UNL     1     -31.611   8.202   3.220  1.00 20.00     0.007 A 
HETATM    8  C3  UNL     1     -32.566   7.669   2.189  1.00 20.00     0.007 A 
ENDBRANCH   4   6
ENDBRANCH   2   4
TORSDOF 2
ENDMDL
MODEL 2
REMARK VINA RESULT:      -4.7      2.264      3.620
REMARK  2 active torsions:
REMARK  status: ('A' for Active; 'I' for Inactive)
REMARK    1  A    between atoms: C4_4  and  C6_6 
REMARK    2  A    between atoms: C6_6  and  N7_7 
ROOT
HETATM    1  C1  UNL     1     -32.713   7.681   2.591  1.00 20.00     0.332 C 
HETATM    2  N7  UNL     1     -32.890   6.794   3.333  1.00 20.00    -0.242 NA
HETATM    3  O8  UNL     1     -32.524   8.565   1.840  1.00 20.00    -0.260 OA
ENDROOT
BRANCH   2   4
HETATM    4  C6  UNL     1     -34.037   6.998   4.242  1.00 20.00     0.112 C 
HETATM    5  C5  UNL     1     -33.484   7.447   5.599  1.00 20.00     0.035 C 
BRANCH   4   6
HETATM    6  C4  UNL     1     -34.847   5.751   4.330  1.00 20.00     0.010 A 
HETATM    7  C2  UNL     1     -34.190   4.408   4.167  1.00 20.00     0.007 A 
HETATM    8  C3  UNL     1     -34.700   4.836   5.515  1.00 20.00     0.007 A 
ENDBRANCH   4   6
ENDBRANCH   2   4
TORSDOF 2
ENDMDL
MODEL 3
REMARK VINA RESULT:      -4.6      2.462      3.901
REMARK  2 active torsions:
REMARK  status: ('A' for Active; 'I' for Inactive)
REMARK    1  A    between atoms: C4_4  and  C6_6 
REMARK    2  A    between atoms: C6_6  and  N7_7 
ROOT
HETATM    1  C1  UNL     1     -32.243   7.819   3.005  1.00 20.00     0.332 C 
HETATM    2  N7  UNL     1     -33.163   7.153   2.729  1.00 20.00    -0.242 NA
HETATM    3  O8  UNL     1     -31.322   8.500   3.273  1.00 20.00    -0.260 OA
ENDROOT
BRANCH   2   4
HETATM    4  C6  UNL     1     -33.254   5.908   3.520  1.00 20.00     0.112 C 
HETATM    5  C5  UNL     1     -33.272   4.731   2.538  1.00 20.00     0.035 C 
BRANCH   4   6
HETATM    6  C4  UNL     1     -34.457   5.947   4.399  1.00 20.00     0.010 A 
HETATM    7  C2  UNL     1     -34.593   4.976   5.540  1.00 20.00     0.007 A 
HETATM    8  C3  UNL     1     -34.342   6.432   5.817  1.00 20.00     0.007 A 
ENDBRANCH   4   6
ENDBRANCH   2   4
TORSDOF 2
ENDMDL
MODEL 4
REMARK VINA RESULT:      -4.3      1.434      2.071
REMARK  2 active torsions:
REMARK  status: ('A' for Active; 'I' for Inactive)
REMARK    1  A    between atoms: C4_4  and  C6_6 
REMARK    2  A    between atoms: C6_6  and  N7_7 
ROOT
HETATM    1  C1  UNL     1     -34.126   6.493   5.433  1.00 20.00     0.332 C 
HETATM    2  N7  UNL     1     -33.462   7.187   4.769  1.00 20.00    -0.242 NA
HETATM    3  O8  UNL     1     -34.790   5.801   6.114  1.00 20.00    -0.260 OA
ENDROOT
BRANCH   2   4
HETATM    4  C6  UNL     1     -33.556   6.896   3.323  1.00 20.00     0.112 C 
HETATM    5  C5  UNL     1     -33.818   5.394   3.165  1.00 20.00     0.035 C 
BRANCH   4   6
HETATM    6  C4  UNL     1     -32.316   7.343   2.629  1.00 20.00     0.010 A 
HETATM    7  C2  UNL     1     -32.277   8.676   1.933  1.00 20.00     0.007 A 
HETATM    8  C3  UNL     1     -31.494   8.466   3.198  1.00 20.00     0.007 A 
ENDBRANCH   4   6
ENDBRANCH   2   4
TORSDOF 2
ENDMDL
MODEL 5
REMARK VINA RESULT:      -4.2      1.370      2.750
REMARK  2 active torsions:
REMARK  status: ('A' for Active; 'I' for Inactive)
REMARK    1  A    between atoms: C4_4  and  C6_6 
REMARK    2  A    between atoms: C6_6  and  N7_7 
ROOT
HETATM    1  C1  UNL     1     -33.443   5.226   2.632  1.00 20.00     0.332 C 
HETATM    2  N7  UNL     1     -34.174   6.128   2.764  1.00 20.00    -0.242 NA
HETATM    3  O8  UNL     1     -32.718   4.311   2.491  1.00 20.00    -0.260 OA
ENDROOT
BRANCH   2   4
HETATM    4  C6  UNL     1     -33.621   7.228   3.582  1.00 20.00     0.112 C 
HETATM    5  C5  UNL     1     -32.376   7.763   2.865  1.00 20.00     0.035 C 
BRANCH   4   6
HETATM    6  C4  UNL     1     -33.331   6.745   4.961  1.00 20.00     0.010 A 
HETATM    7  C2  UNL     1     -33.856   7.497   6.153  1.00 20.00     0.007 A 
HETATM    8  C3  UNL     1     -34.429   6.153   5.801  1.00 20.00     0.007 A 
ENDBRANCH   4   6
ENDBRANCH   2   4
TORSDOF 2
ENDMDL
MODEL 6
REMARK VINA RESULT:      -4.1      3.269      4.211
REMARK  2 active torsions:
REMARK  status: ('A' for Active; 'I' for Inactive)
REMARK    1  A    between atoms: C4_4  and  C6_6 
REMARK    2  A    between atoms: C6_6  and  N7_7 
ROOT
HETATM    1  C1  UNL     1     -32.487   9.267   1.221  1.00 20.00     0.332 C 
HETATM    2  N7  UNL     1     -32.489   8.142   1.538  1.00 20.00    -0.242 NA
HETATM    3  O8  UNL     1     -32.484  10.395   0.888  1.00 20.00    -0.260 OA
ENDROOT
BRANCH   2   4
HETATM    4  C6  UNL     1     -32.651   7.934   2.992  1.00 20.00     0.112 C 
HETATM    5  C5  UNL     1     -31.336   8.332   3.671  1.00 20.00     0.035 C 
BRANCH   4   6
HETATM    6  C4  UNL     1     -33.041   6.522   3.267  1.00 20.00     0.010 A 
HETATM    7  C2  UNL     1     -34.336   6.217   3.968  1.00 20.00     0.007 A 
HETATM    8  C3  UNL     1     -34.175   5.889   2.510  1.00 20.00     0.007 A 
ENDBRANCH   4   6
ENDBRANCH   2   4
TORSDOF 2
ENDMDL
MODEL 7
REMARK VINA RESULT:      -3.8      2.164      2.922
REMARK  2 active torsions:
REMARK  status: ('A' for Active; 'I' for Inactive)
REMARK    1  A    between atoms: C4_4  and  C6_6 
REMARK    2  A    between atoms: C6_6  and  N7_7 
ROOT
HETATM    1  C1  UNL     1     -33.521   7.034   3.563  1.00 20.00     0.332 C 
HETATM    2  N7  UNL     1     -33.060   6.933   2.494  1.00 20.00    -0.242 NA
HETATM    3  O8  UNL     1     -33.993   7.122   4.636  1.00 20.00    -0.260 OA
ENDROOT
BRANCH   2   4
HETATM    4  C6  UNL     1     -32.165   8.050   2.124  1.00 20.00     0.112 C 
HETATM    5  C5  UNL     1     -31.405   8.477   3.385  1.00 20.00     0.035 C 
BRANCH   4   6
HETATM    6  C4  UNL     1     -32.955   9.159   1.520  1.00 20.00     0.010 A 
HETATM    7  C2  UNL     1     -32.256  10.353   0.931  1.00 20.00     0.007 A 
HETATM    8  C3  UNL     1     -32.949   9.369   0.031  1.00 20.00     0.007 A 
ENDBRANCH   4   6
ENDBRANCH   2   4
TORSDOF 2
ENDMDL
MODEL 8
REMARK VINA RESULT:      -3.7      1.955      3.160
REMARK  2 active torsions:
REMARK  status: ('A' for Active; 'I' for Inactive)
REMARK    1  A    between atoms: C4_4  and  C6_6 
REMARK    2  A    between atoms: C6_6  and  N7_7 
ROOT
HETATM    1  C1  UNL     1     -33.713   7.417   5.280  1.00 20.00     0.332 C 
HETATM    2  N7  UNL     1     -33.756   7.764   4.165  1.00 20.00    -0.242 NA
HETATM    3  O8  UNL     1     -33.681   7.078   6.406  1.00 20.00    -0.260 OA
ENDROOT
BRANCH   2   4
HETATM    4  C6  UNL     1     -32.862   7.002   3.269  1.00 20.00     0.112 C 
HETATM    5  C5  UNL     1     -32.334   7.968   2.203  1.00 20.00     0.035 C 
BRANCH   4   6
HETATM    6  C4  UNL     1     -33.590   5.839   2.688  1.00 20.00     0.010 A 
HETATM    7  C2  UNL     1     -32.905   4.507   2.553  1.00 20.00     0.007 A 
HETATM    8  C3  UNL     1     -34.002   4.689   3.564  1.00 20.00     0.007 A 
ENDBRANCH   4   6
ENDBRANCH   2   4
TORSDOF 2
ENDMDL
MODEL 9
REMARK VINA RESULT:      -3.7      1.238      2.277
REMARK  2 active torsions:
REMARK  status: ('A' for Active; 'I' for Inactive)
REMARK    1  A    between atoms: C4_4  and  C6_6 
REMARK    2  A    between atoms: C6_6  and  N7_7 
ROOT
HETATM    1  C1  UNL     1     -34.662   4.647   4.230  1.00 20.00     0.332 C 
HETATM    2  N7  UNL     1     -35.112   5.689   3.955  1.00 20.00    -0.242 NA
HETATM    3  O8  UNL     1     -34.222   3.592   4.509  1.00 20.00    -0.260 OA
ENDROOT
BRANCH   2   4
HETATM    4  C6  UNL     1     -34.093   6.727   3.692  1.00 20.00     0.112 C 
HETATM    5  C5  UNL     1     -33.306   6.304   2.447  1.00 20.00     0.035 C 
BRANCH   4   6
HETATM    6  C4  UNL     1     -33.228   6.909   4.891  1.00 20.00     0.010 A 
HETATM    7  C2  UNL     1     -32.879   8.292   5.371  1.00 20.00     0.007 A 
HETATM    8  C3  UNL     1     -33.813   7.430   6.174  1.00 20.00     0.007 A 
ENDBRANCH   4   6
ENDBRANCH   2   4
TORSDOF 2
ENDMDL
