MODEL 1
REMARK VINA RESULT:      -5.1      0.000      0.000
REMARK  1 active torsions:
REMARK  status: ('A' for Active; 'I' for Inactive)
REMARK    1  A    between atoms: C11_11  and  N13_13 
ROOT
HETATM    1  C1  UNL     1     -34.331   5.799   5.789  1.00 20.00     0.086 C 
HETATM    2  C11 UNL     1     -33.674   7.102   5.751  1.00 20.00     0.357 C 
HETATM    3  N12 UNL     1     -34.854   4.763   5.822  1.00 20.00    -0.196 NA
ENDROOT
BRANCH   2   4
HETATM    4  N13 UNL     1     -32.970   7.277   4.434  1.00 20.00    -0.059 N 
HETATM    5  C8  UNL     1     -33.946   7.335   3.285  1.00 20.00     0.236 C 
HETATM    6  C6  UNL     1     -33.182   7.404   1.967  1.00 20.00     0.037 C 
HETATM    7  C10 UNL     1     -32.167   8.570   1.912  1.00 20.00    -0.037 C 
HETATM    8  C4  UNL     1     -31.341   8.520   0.614  1.00 20.00     0.010 C 
HETATM    9  C5  UNL     1     -32.856   9.938   1.765  1.00 20.00     0.010 C 
HETATM   10  C7  UNL     1     -31.254   8.507   3.148  1.00 20.00     0.037 C 
HETATM   11  C2  UNL     1     -32.245   9.127  -0.455  1.00 20.00     0.001 C 
HETATM   12  C3  UNL     1     -33.209  10.053   0.284  1.00 20.00     0.001 C 
HETATM   13  C9  UNL     1     -32.036   8.461   4.454  1.00 20.00     0.236 C 
HETATM   14  H32 UNL     1     -32.392   6.435   4.300  1.00 20.00     0.281 HD
ENDBRANCH   2   4
TORSDOF 1
ENDMDL
MODEL 2
REMARK VINA RESULT:      -4.9     10.475     11.654
REMARK  1 active torsions:
REMARK  status: ('A' for Active; 'I' for Inactive)
REMARK    1  A    between atoms: C11_11  and  N13_13 
ROOT
HETATM    1  C1  UNL     1     -37.251  14.665  -5.531  1.00 20.00     0.086 C 
HETATM    2  C11 UNL     1     -36.235  15.432  -6.247  1.00 20.00     0.357 C 
HETATM    3  N12 UNL     1     -38.060  14.055  -4.965  1.00 20.00    -0.196 NA
ENDROOT
BRANCH   2   4
HETATM    4  N13 UNL     1     -35.285  16.056  -5.263  1.00 20.00    -0.059 N 
HETATM    5  C8  UNL     1     -35.888  17.269  -4.600  1.00 20.00     0.236 C 
HETATM    6  C6  UNL     1     -34.852  17.927  -3.695  1.00 20.00     0.037 C 
HETATM    7  C10 UNL     1     -34.244  16.955  -2.658  1.00 20.00    -0.037 C 
HETATM    8  C4  UNL     1     -33.123  17.637  -1.855  1.00 20.00     0.010 C 
HETATM    9  C5  UNL     1     -35.235  16.606  -1.534  1.00 20.00     0.010 C 
HETATM   10  C7  UNL     1     -33.721  15.703  -3.382  1.00 20.00     0.037 C 
HETATM   11  C2  UNL     1     -33.841  18.470  -0.798  1.00 20.00     0.001 C 
HETATM   12  C3  UNL     1     -35.194  17.796  -0.578  1.00 20.00     0.001 C 
HETATM   13  C9  UNL     1     -34.776  15.048  -4.262  1.00 20.00     0.236 C 
HETATM   14  H32 UNL     1     -34.473  16.379  -5.809  1.00 20.00     0.281 HD
ENDBRANCH   2   4
TORSDOF 1
ENDMDL
MODEL 3
REMARK VINA RESULT:      -4.8     10.391     11.722
REMARK  1 active torsions:
REMARK  status: ('A' for Active; 'I' for Inactive)
REMARK    1  A    between atoms: C11_11  and  N13_13 
ROOT
HETATM    1  C1  UNL     1     -35.719  14.008  -5.478  1.00 20.00     0.086 C 
HETATM    2  C11 UNL     1     -35.470  15.418  -5.765  1.00 20.00     0.357 C 
HETATM    3  N12 UNL     1     -35.917  12.886  -5.252  1.00 20.00    -0.196 NA
ENDROOT
BRANCH   2   4
HETATM    4  N13 UNL     1     -35.545  16.215  -4.493  1.00 20.00    -0.059 N 
HETATM    5  C8  UNL     1     -34.675  15.623  -3.413  1.00 20.00     0.236 C 
HETATM    6  C6  UNL     1     -34.867  16.401  -2.115  1.00 20.00     0.037 C 
HETATM    7  C10 UNL     1     -34.623  17.920  -2.274  1.00 20.00    -0.037 C 
HETATM    8  C4  UNL     1     -34.948  18.669  -0.970  1.00 20.00     0.010 C 
HETATM    9  C5  UNL     1     -33.130  18.257  -2.439  1.00 20.00     0.010 C 
HETATM   10  C7  UNL     1     -35.472  18.451  -3.440  1.00 20.00     0.037 C 
HETATM   11  C2  UNL     1     -33.724  18.466  -0.080  1.00 20.00     0.001 C 
HETATM   12  C3  UNL     1     -32.551  18.219  -1.027  1.00 20.00     0.001 C 
HETATM   13  C9  UNL     1     -35.249  17.675  -4.731  1.00 20.00     0.236 C 
HETATM   14  H32 UNL     1     -36.520  16.151  -4.167  1.00 20.00     0.281 HD
ENDBRANCH   2   4
TORSDOF 1
ENDMDL
MODEL 4
REMARK VINA RESULT:      -4.8     10.442     11.620
REMARK  1 active torsions:
REMARK  status: ('A' for Active; 'I' for Inactive)
REMARK    1  A    between atoms: C11_11  and  N13_13 
ROOT
HETATM    1  C1  UNL     1     -35.462  13.623  -6.636  1.00 20.00     0.086 C 
HETATM    2  C11 UNL     1     -35.927  14.996  -6.457  1.00 20.00     0.357 C 
HETATM    3  N12 UNL     1     -35.094  12.531  -6.779  1.00 20.00    -0.196 NA
ENDROOT
BRANCH   2   4
HETATM    4  N13 UNL     1     -35.059  15.698  -5.451  1.00 20.00    -0.059 N 
HETATM    5  C8  UNL     1     -35.721  16.943  -4.917  1.00 20.00     0.236 C 
HETATM    6  C6  UNL     1     -34.761  17.675  -3.985  1.00 20.00     0.037 C 
HETATM    7  C10 UNL     1     -34.223  16.783  -2.842  1.00 20.00    -0.037 C 
HETATM    8  C4  UNL     1     -33.170  17.533  -2.007  1.00 20.00     0.010 C 
HETATM    9  C5  UNL     1     -35.292  16.495  -1.773  1.00 20.00     0.010 C 
HETATM   10  C7  UNL     1     -33.635  15.493  -3.439  1.00 20.00     0.037 C 
HETATM   11  C2  UNL     1     -33.973  18.425  -1.064  1.00 20.00     0.001 C 
HETATM   12  C3  UNL     1     -35.332  17.747  -0.899  1.00 20.00     0.001 C 
HETATM   13  C9  UNL     1     -34.617  14.766  -4.349  1.00 20.00     0.236 C 
HETATM   14  H32 UNL     1     -34.212  15.996  -5.955  1.00 20.00     0.281 HD
ENDBRANCH   2   4
TORSDOF 1
ENDMDL
MODEL 5
REMARK VINA RESULT:      -4.7     10.537     11.872
REMARK  1 active torsions:
REMARK  status: ('A' for Active; 'I' for Inactive)
REMARK    1  A    between atoms: C11_11  and  N13_13 
ROOT
HETATM    1  C1  UNL     1     -34.818  13.609  -6.819  1.00 20.00     0.086 C 
HETATM    2  C11 UNL     1     -34.551  15.045  -6.819  1.00 20.00     0.357 C 
HETATM    3  N12 UNL     1     -35.029  12.468  -6.823  1.00 20.00    -0.196 NA
ENDROOT
BRANCH   2   4
HETATM    4  N13 UNL     1     -34.967  15.637  -5.501  1.00 20.00    -0.059 N 
HETATM    5  C8  UNL     1     -34.100  15.144  -4.371  1.00 20.00     0.236 C 
HETATM    6  C6  UNL     1     -34.626  15.686  -3.046  1.00 20.00     0.037 C 
HETATM    7  C10 UNL     1     -34.761  17.227  -3.029  1.00 20.00    -0.037 C 
HETATM    8  C4  UNL     1     -35.408  17.708  -1.719  1.00 20.00     0.010 C 
HETATM    9  C5  UNL     1     -33.394  17.931  -2.955  1.00 20.00     0.010 C 
HETATM   10  C7  UNL     1     -35.583  17.677  -4.248  1.00 20.00     0.037 C 
HETATM   11  C2  UNL     1     -34.279  17.698  -0.691  1.00 20.00     0.001 C 
HETATM   12  C3  UNL     1     -32.985  17.859  -1.486  1.00 20.00     0.001 C 
HETATM   13  C9  UNL     1     -35.028  17.144  -5.561  1.00 20.00     0.236 C 
HETATM   14  H32 UNL     1     -35.923  15.301  -5.321  1.00 20.00     0.281 HD
ENDBRANCH   2   4
TORSDOF 1
ENDMDL
MODEL 6
REMARK VINA RESULT:      -4.5     10.596     11.760
REMARK  1 active torsions:
REMARK  status: ('A' for Active; 'I' for Inactive)
REMARK    1  A    between atoms: C11_11  and  N13_13 
ROOT
HETATM    1  C1  UNL     1     -38.059  15.226  -4.838  1.00 20.00     0.086 C 
HETATM    2  C11 UNL     1     -37.898  16.672  -4.706  1.00 20.00     0.357 C 
HETATM    3  N12 UNL     1     -38.190  14.078  -4.944  1.00 20.00    -0.196 NA
ENDROOT
BRANCH   2   4
HETATM    4  N13 UNL     1     -36.549  16.979  -4.119  1.00 20.00    -0.059 N 
HETATM    5  C8  UNL     1     -36.580  18.229  -3.276  1.00 20.00     0.236 C 
HETATM    6  C6  UNL     1     -35.172  18.558  -2.792  1.00 20.00     0.037 C 
HETATM    7  C10 UNL     1     -34.495  17.385  -2.045  1.00 20.00    -0.037 C 
HETATM    8  C4  UNL     1     -33.039  17.727  -1.688  1.00 20.00     0.010 C 
HETATM    9  C5  UNL     1     -35.094  17.162  -0.645  1.00 20.00     0.010 C 
HETATM   10  C7  UNL     1     -34.566  16.120  -2.917  1.00 20.00     0.037 C 
HETATM   11  C2  UNL     1     -33.130  18.599  -0.438  1.00 20.00     0.001 C 
HETATM   12  C3  UNL     1     -34.445  18.222   0.242  1.00 20.00     0.001 C 
HETATM   13  C9  UNL     1     -35.984  15.797  -3.370  1.00 20.00     0.236 C 
HETATM   14  H32 UNL     1     -35.921  17.164  -4.914  1.00 20.00     0.281 HD
ENDBRANCH   2   4
TORSDOF 1
ENDMDL
MODEL 7
REMARK VINA RESULT:      -4.5     10.619     11.581
REMARK  1 active torsions:
REMARK  status: ('A' for Active; 'I' for Inactive)
REMARK    1  A    between atoms: C11_11  and  N13_13 
ROOT
HETATM    1  C1  UNL     1     -32.877  18.091  -1.478  1.00 20.00     0.086 C 
HETATM    2  C11 UNL     1     -34.153  17.833  -2.141  1.00 20.00     0.357 C 
HETATM    3  N12 UNL     1     -31.865  18.300  -0.950  1.00 20.00    -0.196 NA
ENDROOT
BRANCH   2   4
HETATM    4  N13 UNL     1     -33.975  16.762  -3.181  1.00 20.00    -0.059 N 
HETATM    5  C8  UNL     1     -35.166  15.838  -3.236  1.00 20.00     0.236 C 
HETATM    6  C6  UNL     1     -34.893  14.710  -4.227  1.00 20.00     0.037 C 
HETATM    7  C10 UNL     1     -34.499  15.217  -5.634  1.00 20.00    -0.037 C 
HETATM    8  C4  UNL     1     -34.119  14.044  -6.554  1.00 20.00     0.010 C 
HETATM    9  C5  UNL     1     -35.697  15.810  -6.397  1.00 20.00     0.010 C 
HETATM   10  C7  UNL     1     -33.338  16.216  -5.506  1.00 20.00     0.037 C 
HETATM   11  C2  UNL     1     -35.449  13.464  -7.028  1.00 20.00     0.001 C 
HETATM   12  C3  UNL     1     -36.461  14.605  -6.944  1.00 20.00     0.001 C 
HETATM   13  C9  UNL     1     -33.638  17.346  -4.530  1.00 20.00     0.236 C 
HETATM   14  H32 UNL     1     -33.166  16.199  -2.882  1.00 20.00     0.281 HD
ENDBRANCH   2   4
TORSDOF 1
ENDMDL
MODEL 8
REMARK VINA RESULT:      -4.4     10.688     11.643
REMARK  1 active torsions:
REMARK  status: ('A' for Active; 'I' for Inactive)
REMARK    1  A    between atoms: C11_11  and  N13_13 
ROOT
HETATM    1  C1  UNL     1     -32.191  18.707  -0.278  1.00 20.00     0.086 C 
HETATM    2  C11 UNL     1     -33.562  19.194  -0.403  1.00 20.00     0.357 C 
HETATM    3  N12 UNL     1     -31.100  18.322  -0.177  1.00 20.00    -0.196 NA
ENDROOT
BRANCH   2   4
HETATM    4  N13 UNL     1     -34.215  18.565  -1.602  1.00 20.00    -0.059 N 
HETATM    5  C8  UNL     1     -33.360  18.698  -2.836  1.00 20.00     0.236 C 
HETATM    6  C6  UNL     1     -34.110  18.143  -4.043  1.00 20.00     0.037 C 
HETATM    7  C10 UNL     1     -34.596  16.688  -3.841  1.00 20.00    -0.037 C 
HETATM    8  C4  UNL     1     -35.447  16.223  -5.035  1.00 20.00     0.010 C 
HETATM    9  C5  UNL     1     -33.439  15.674  -3.895  1.00 20.00     0.010 C 
HETATM   10  C7  UNL     1     -35.390  16.596  -2.528  1.00 20.00     0.037 C 
HETATM   11  C2  UNL     1     -34.440  15.840  -6.116  1.00 20.00     0.001 C 
HETATM   12  C3  UNL     1     -33.153  15.469  -5.381  1.00 20.00     0.001 C 
HETATM   13  C9  UNL     1     -34.616  17.135  -1.333  1.00 20.00     0.236 C 
HETATM   14  H32 UNL     1     -35.081  19.096  -1.773  1.00 20.00     0.281 HD
ENDBRANCH   2   4
TORSDOF 1
ENDMDL
MODEL 9
REMARK VINA RESULT:      -4.3     10.836     12.006
REMARK  1 active torsions:
REMARK  status: ('A' for Active; 'I' for Inactive)
REMARK    1  A    between atoms: C11_11  and  N13_13 
ROOT
HETATM    1  C1  UNL     1     -38.791  16.325  -4.596  1.00 20.00     0.086 C 
HETATM    2  C11 UNL     1     -37.697  16.597  -5.525  1.00 20.00     0.357 C 
HETATM    3  N12 UNL     1     -39.663  16.110  -3.861  1.00 20.00    -0.196 NA
ENDROOT
BRANCH   2   4
HETATM    4  N13 UNL     1     -36.427  16.832  -4.756  1.00 20.00    -0.059 N 
HETATM    5  C8  UNL     1     -36.513  18.073  -3.904  1.00 20.00     0.236 C 
HETATM    6  C6  UNL     1     -35.169  18.327  -3.230  1.00 20.00     0.037 C 
HETATM    7  C10 UNL     1     -34.656  17.115  -2.418  1.00 20.00    -0.037 C 
HETATM    8  C4  UNL     1     -33.247  17.382  -1.862  1.00 20.00     0.010 C 
HETATM    9  C5  UNL     1     -35.449  16.908  -1.115  1.00 20.00     0.010 C 
HETATM   10  C7  UNL     1     -34.668  15.864  -3.312  1.00 20.00     0.037 C 
HETATM   11  C2  UNL     1     -33.466  18.244  -0.621  1.00 20.00     0.001 C 
HETATM   12  C3  UNL     1     -34.877  17.925  -0.131  1.00 20.00     0.001 C 
HETATM   13  C9  UNL     1     -36.025  15.616  -3.958  1.00 20.00     0.236 C 
HETATM   14  H32 UNL     1     -35.689  16.993  -5.456  1.00 20.00     0.281 HD
ENDBRANCH   2   4
TORSDOF 1
ENDMDL
