MODEL 1
REMARK VINA RESULT:      -4.2      0.000      0.000
REMARK  2 active torsions:
REMARK  status: ('A' for Active; 'I' for Inactive)
REMARK    1  A    between atoms: C9_9  and  C10_10 
REMARK    2  A    between atoms: C10_10  and  N12_12 
ROOT
HETATM    1  C1  UNL     1     -33.475  17.497  -1.729  1.00 20.00     0.061 C 
HETATM    2  C9  UNL     1     -34.672  16.661  -1.916  1.00 20.00     0.159 C 
HETATM    3  N11 UNL     1     -32.532  18.156  -1.581  1.00 20.00    -0.197 NA
ENDROOT
BRANCH   2   4
HETATM    4  C10 UNL     1     -35.190  16.717  -3.358  1.00 20.00     0.233 C 
HETATM    5  C8  UNL     1     -36.582  17.339  -3.410  1.00 20.00     0.044 C 
BRANCH   4   6
HETATM    6  N12 UNL     1     -35.217  15.393  -3.956  1.00 20.00     0.102 N 
HETATM    7  C4  UNL     1     -36.540  15.037  -4.463  1.00 20.00     0.274 C 
HETATM    8  C2  UNL     1     -36.249  13.752  -5.208  1.00 20.00     0.033 C 
HETATM    9  C3  UNL     1     -34.924  14.038  -5.896  1.00 20.00     0.043 C 
HETATM   10  C5  UNL     1     -34.239  15.122  -5.030  1.00 20.00     0.153 C 
HETATM   11  C6  UNL     1     -33.871  16.330  -5.910  1.00 20.00     0.049 C 
HETATM   12  C7  UNL     1     -32.963  14.559  -4.388  1.00 20.00     0.049 C 
ENDBRANCH   4   6
ENDBRANCH   2   4
TORSDOF 2
ENDMDL
MODEL 2
REMARK VINA RESULT:      -4.1     11.331     12.165
REMARK  2 active torsions:
REMARK  status: ('A' for Active; 'I' for Inactive)
REMARK    1  A    between atoms: C9_9  and  C10_10 
REMARK    2  A    between atoms: C10_10  and  N12_12 
ROOT
HETATM    1  C1  UNL     1     -32.170   8.786   1.607  1.00 20.00     0.061 C 
HETATM    2  C9  UNL     1     -32.080   7.617   2.498  1.00 20.00     0.159 C 
HETATM    3  N11 UNL     1     -32.240   9.706   0.905  1.00 20.00    -0.197 NA
ENDROOT
BRANCH   2   4
HETATM    4  C10 UNL     1     -32.895   7.813   3.782  1.00 20.00     0.233 C 
HETATM    5  C8  UNL     1     -32.105   8.619   4.808  1.00 20.00     0.044 C 
BRANCH   4   6
HETATM    6  N12 UNL     1     -33.285   6.535   4.352  1.00 20.00     0.102 N 
HETATM    7  C4  UNL     1     -34.007   6.684   5.614  1.00 20.00     0.274 C 
HETATM    8  C2  UNL     1     -34.477   5.268   5.870  1.00 20.00     0.033 C 
HETATM    9  C3  UNL     1     -34.900   4.785   4.491  1.00 20.00     0.043 C 
HETATM   10  C5  UNL     1     -34.075   5.629   3.491  1.00 20.00     0.153 C 
HETATM   11  C6  UNL     1     -35.022   6.322   2.495  1.00 20.00     0.049 C 
HETATM   12  C7  UNL     1     -33.100   4.730   2.717  1.00 20.00     0.049 C 
ENDBRANCH   4   6
ENDBRANCH   2   4
TORSDOF 2
ENDMDL
MODEL 3
REMARK VINA RESULT:      -4.1      2.049      4.632
REMARK  2 active torsions:
REMARK  status: ('A' for Active; 'I' for Inactive)
REMARK    1  A    between atoms: C9_9  and  C10_10 
REMARK    2  A    between atoms: C10_10  and  N12_12 
ROOT
HETATM    1  C1  UNL     1     -34.667  13.371  -7.221  1.00 20.00     0.061 C 
HETATM    2  C9  UNL     1     -34.147  14.642  -7.753  1.00 20.00     0.159 C 
HETATM    3  N11 UNL     1     -35.076  12.370  -6.802  1.00 20.00    -0.197 NA
ENDROOT
BRANCH   2   4
HETATM    4  C10 UNL     1     -34.664  15.847  -6.959  1.00 20.00     0.233 C 
HETATM    5  C8  UNL     1     -33.883  17.108  -7.319  1.00 20.00     0.044 C 
BRANCH   4   6
HETATM    6  N12 UNL     1     -34.581  15.606  -5.529  1.00 20.00     0.102 N 
HETATM    7  C4  UNL     1     -33.406  16.231  -4.925  1.00 20.00     0.274 C 
HETATM    8  C2  UNL     1     -33.671  16.024  -3.449  1.00 20.00     0.033 C 
HETATM    9  C3  UNL     1     -35.163  16.292  -3.320  1.00 20.00     0.043 C 
HETATM   10  C5  UNL     1     -35.756  15.984  -4.715  1.00 20.00     0.153 C 
HETATM   11  C6  UNL     1     -36.546  17.204  -5.221  1.00 20.00     0.049 C 
HETATM   12  C7  UNL     1     -36.696  14.773  -4.636  1.00 20.00     0.049 C 
ENDBRANCH   4   6
ENDBRANCH   2   4
TORSDOF 2
ENDMDL
MODEL 4
REMARK VINA RESULT:      -4.0      1.823      3.935
REMARK  2 active torsions:
REMARK  status: ('A' for Active; 'I' for Inactive)
REMARK    1  A    between atoms: C9_9  and  C10_10 
REMARK    2  A    between atoms: C10_10  and  N12_12 
ROOT
HETATM    1  C1  UNL     1     -35.953  13.299  -5.922  1.00 20.00     0.061 C 
HETATM    2  C9  UNL     1     -37.008  14.079  -5.255  1.00 20.00     0.159 C 
HETATM    3  N11 UNL     1     -35.122  12.683  -6.448  1.00 20.00    -0.197 NA
ENDROOT
BRANCH   2   4
HETATM    4  C10 UNL     1     -36.427  15.209  -4.398  1.00 20.00     0.233 C 
HETATM    5  C8  UNL     1     -37.490  16.262  -4.097  1.00 20.00     0.044 C 
BRANCH   4   6
HETATM    6  N12 UNL     1     -35.289  15.831  -5.054  1.00 20.00     0.102 N 
HETATM    7  C4  UNL     1     -35.640  17.089  -5.708  1.00 20.00     0.274 C 
HETATM    8  C2  UNL     1     -34.280  17.620  -6.105  1.00 20.00     0.033 C 
HETATM    9  C3  UNL     1     -33.410  17.292  -4.901  1.00 20.00     0.043 C 
HETATM   10  C5  UNL     1     -34.090  16.078  -4.225  1.00 20.00     0.153 C 
HETATM   11  C6  UNL     1     -34.364  16.397  -2.744  1.00 20.00     0.049 C 
HETATM   12  C7  UNL     1     -33.181  14.843  -4.315  1.00 20.00     0.049 C 
ENDBRANCH   4   6
ENDBRANCH   2   4
TORSDOF 2
ENDMDL
MODEL 5
REMARK VINA RESULT:      -4.0      1.440      2.595
REMARK  2 active torsions:
REMARK  status: ('A' for Active; 'I' for Inactive)
REMARK    1  A    between atoms: C9_9  and  C10_10 
REMARK    2  A    between atoms: C10_10  and  N12_12 
ROOT
HETATM    1  C1  UNL     1     -35.349  17.250  -0.701  1.00 20.00     0.061 C 
HETATM    2  C9  UNL     1     -35.523  16.656  -2.037  1.00 20.00     0.159 C 
HETATM    3  N11 UNL     1     -35.212  17.718   0.351  1.00 20.00    -0.197 NA
ENDROOT
BRANCH   2   4
HETATM    4  C10 UNL     1     -34.184  16.478  -2.762  1.00 20.00     0.233 C 
HETATM    5  C8  UNL     1     -33.242  17.638  -2.455  1.00 20.00     0.044 C 
BRANCH   4   6
HETATM    6  N12 UNL     1     -34.379  16.367  -4.198  1.00 20.00     0.102 N 
HETATM    7  C4  UNL     1     -33.683  17.418  -4.938  1.00 20.00     0.274 C 
HETATM    8  C2  UNL     1     -33.858  16.955  -6.369  1.00 20.00     0.033 C 
HETATM    9  C3  UNL     1     -33.655  15.450  -6.278  1.00 20.00     0.043 C 
HETATM   10  C5  UNL     1     -34.031  15.074  -4.825  1.00 20.00     0.153 C 
HETATM   11  C6  UNL     1     -32.864  14.314  -4.170  1.00 20.00     0.049 C 
HETATM   12  C7  UNL     1     -35.282  14.183  -4.814  1.00 20.00     0.049 C 
ENDBRANCH   4   6
ENDBRANCH   2   4
TORSDOF 2
ENDMDL
MODEL 6
REMARK VINA RESULT:      -4.0      2.518      4.550
REMARK  2 active torsions:
REMARK  status: ('A' for Active; 'I' for Inactive)
REMARK    1  A    between atoms: C9_9  and  C10_10 
REMARK    2  A    between atoms: C10_10  and  N12_12 
ROOT
HETATM    1  C1  UNL     1     -37.616  14.392  -5.860  1.00 20.00     0.061 C 
HETATM    2  C9  UNL     1     -37.013  14.741  -7.158  1.00 20.00     0.159 C 
HETATM    3  N11 UNL     1     -38.091  14.118  -4.839  1.00 20.00    -0.197 NA
ENDROOT
BRANCH   2   4
HETATM    4  C10 UNL     1     -35.482  14.681  -7.111  1.00 20.00     0.233 C 
HETATM    5  C8  UNL     1     -34.991  13.242  -7.242  1.00 20.00     0.044 C 
BRANCH   4   6
HETATM    6  N12 UNL     1     -34.974  15.267  -5.882  1.00 20.00     0.102 N 
HETATM    7  C4  UNL     1     -33.921  14.458  -5.272  1.00 20.00     0.274 C 
HETATM    8  C2  UNL     1     -33.429  15.371  -4.170  1.00 20.00     0.033 C 
HETATM    9  C3  UNL     1     -33.424  16.743  -4.829  1.00 20.00     0.043 C 
HETATM   10  C5  UNL     1     -34.480  16.659  -5.956  1.00 20.00     0.153 C 
HETATM   11  C6  UNL     1     -33.840  17.063  -7.296  1.00 20.00     0.049 C 
HETATM   12  C7  UNL     1     -35.654  17.601  -5.654  1.00 20.00     0.049 C 
ENDBRANCH   4   6
ENDBRANCH   2   4
TORSDOF 2
ENDMDL
MODEL 7
REMARK VINA RESULT:      -3.9      1.672      4.620
REMARK  2 active torsions:
REMARK  status: ('A' for Active; 'I' for Inactive)
REMARK    1  A    between atoms: C9_9  and  C10_10 
REMARK    2  A    between atoms: C10_10  and  N12_12 
ROOT
HETATM    1  C1  UNL     1     -35.235  13.707  -4.733  1.00 20.00     0.061 C 
HETATM    2  C9  UNL     1     -34.345  14.685  -4.086  1.00 20.00     0.159 C 
HETATM    3  N11 UNL     1     -35.935  12.935  -5.242  1.00 20.00    -0.197 NA
ENDROOT
BRANCH   2   4
HETATM    4  C10 UNL     1     -34.570  16.104  -4.622  1.00 20.00     0.233 C 
HETATM    5  C8  UNL     1     -33.843  16.304  -5.949  1.00 20.00     0.044 C 
BRANCH   4   6
HETATM    6  N12 UNL     1     -34.128  17.101  -3.661  1.00 20.00     0.102 N 
HETATM    7  C4  UNL     1     -33.398  18.198  -4.292  1.00 20.00     0.274 C 
HETATM    8  C2  UNL     1     -33.253  19.173  -3.143  1.00 20.00     0.033 C 
HETATM    9  C3  UNL     1     -34.604  19.098  -2.448  1.00 20.00     0.043 C 
HETATM   10  C5  UNL     1     -35.162  17.695  -2.788  1.00 20.00     0.153 C 
HETATM   11  C6  UNL     1     -36.559  17.834  -3.418  1.00 20.00     0.049 C 
HETATM   12  C7  UNL     1     -35.265  16.842  -1.515  1.00 20.00     0.049 C 
ENDBRANCH   4   6
ENDBRANCH   2   4
TORSDOF 2
ENDMDL
MODEL 8
REMARK VINA RESULT:      -3.9      1.723      4.401
REMARK  2 active torsions:
REMARK  status: ('A' for Active; 'I' for Inactive)
REMARK    1  A    between atoms: C9_9  and  C10_10 
REMARK    2  A    between atoms: C10_10  and  N12_12 
ROOT
HETATM    1  C1  UNL     1     -35.526  13.781  -5.796  1.00 20.00     0.061 C 
HETATM    2  C9  UNL     1     -35.117  14.987  -6.535  1.00 20.00     0.159 C 
HETATM    3  N11 UNL     1     -35.848  12.830  -5.215  1.00 20.00    -0.197 NA
ENDROOT
BRANCH   2   4
HETATM    4  C10 UNL     1     -34.441  16.015  -5.621  1.00 20.00     0.233 C 
HETATM    5  C8  UNL     1     -33.008  15.599  -5.303  1.00 20.00     0.044 C 
BRANCH   4   6
HETATM    6  N12 UNL     1     -35.189  16.189  -4.387  1.00 20.00     0.102 N 
HETATM    7  C4  UNL     1     -34.336  16.124  -3.203  1.00 20.00     0.274 C 
HETATM    8  C2  UNL     1     -35.293  16.545  -2.109  1.00 20.00     0.033 C 
HETATM    9  C3  UNL     1     -36.082  17.676  -2.750  1.00 20.00     0.043 C 
HETATM   10  C5  UNL     1     -36.020  17.407  -4.272  1.00 20.00     0.153 C 
HETATM   11  C6  UNL     1     -35.474  18.651  -4.995  1.00 20.00     0.049 C 
HETATM   12  C7  UNL     1     -37.421  17.085  -4.811  1.00 20.00     0.049 C 
ENDBRANCH   4   6
ENDBRANCH   2   4
TORSDOF 2
ENDMDL
MODEL 9
REMARK VINA RESULT:      -3.8      1.544      3.034
REMARK  2 active torsions:
REMARK  status: ('A' for Active; 'I' for Inactive)
REMARK    1  A    between atoms: C9_9  and  C10_10 
REMARK    2  A    between atoms: C10_10  and  N12_12 
ROOT
HETATM    1  C1  UNL     1     -34.697  16.662  -2.111  1.00 20.00     0.061 C 
HETATM    2  C9  UNL     1     -33.688  16.440  -3.160  1.00 20.00     0.159 C 
HETATM    3  N11 UNL     1     -35.491  16.837  -1.284  1.00 20.00    -0.197 NA
ENDROOT
BRANCH   2   4
HETATM    4  C10 UNL     1     -34.053  15.256  -4.063  1.00 20.00     0.233 C 
HETATM    5  C8  UNL     1     -32.842  14.358  -4.295  1.00 20.00     0.044 C 
BRANCH   4   6
HETATM    6  N12 UNL     1     -34.580  15.714  -5.337  1.00 20.00     0.102 N 
HETATM    7  C4  UNL     1     -33.685  15.412  -6.452  1.00 20.00     0.274 C 
HETATM    8  C2  UNL     1     -34.543  15.779  -7.644  1.00 20.00     0.033 C 
HETATM    9  C3  UNL     1     -35.920  15.261  -7.258  1.00 20.00     0.043 C 
HETATM   10  C5  UNL     1     -35.932  15.247  -5.711  1.00 20.00     0.153 C 
HETATM   11  C6  UNL     1     -36.309  13.841  -5.210  1.00 20.00     0.049 C 
HETATM   12  C7  UNL     1     -36.955  16.262  -5.180  1.00 20.00     0.049 C 
ENDBRANCH   4   6
ENDBRANCH   2   4
TORSDOF 2
ENDMDL
