MODEL 1
REMARK VINA RESULT:      -5.1      0.000      0.000
REMARK  3 active torsions:
REMARK  status: ('A' for Active; 'I' for Inactive)
REMARK    1  A    between atoms: C6_6  and  N10_10 
REMARK    2  A    between atoms: C7_7  and  C8_8 
REMARK    3  A    between atoms: C8_8  and  N10_10 
ROOT
HETATM    1  C1  UNL     1     -32.562  10.063   1.233  1.00 20.00     0.013 C 
HETATM    2  C2  UNL     1     -32.562   8.898   1.524  1.00 20.00    -0.087 C 
HETATM    3  C6  UNL     1     -32.562   7.476   1.875  1.00 20.00     0.364 C 
ENDROOT
BRANCH   3   4
HETATM    4  N10 UNL     1     -32.451   7.300   3.328  1.00 20.00     0.100 N 
HETATM    5  C5  UNL     1     -31.542   8.310   3.884  1.00 20.00     0.311 C 
BRANCH   4   6
HETATM    6  C8  UNL     1     -33.751   7.367   3.959  1.00 20.00     0.232 C 
HETATM    7  C4  UNL     1     -33.599   7.254   5.473  1.00 20.00     0.044 C 
BRANCH   6   8
HETATM    8  C7  UNL     1     -34.680   6.273   3.421  1.00 20.00     0.159 C 
HETATM    9  C3  UNL     1     -34.468   4.987   4.107  1.00 20.00     0.061 C 
HETATM   10  N9  UNL     1     -34.302   3.974   4.645  1.00 20.00    -0.197 NA
ENDBRANCH   6   8
ENDBRANCH   4   6
ENDBRANCH   3   4
TORSDOF 3
ENDMDL
MODEL 2
REMARK VINA RESULT:      -4.7      1.349      4.372
REMARK  3 active torsions:
REMARK  status: ('A' for Active; 'I' for Inactive)
REMARK    1  A    between atoms: C6_6  and  N10_10 
REMARK    2  A    between atoms: C7_7  and  C8_8 
REMARK    3  A    between atoms: C8_8  and  N10_10 
ROOT
HETATM    1  C1  UNL     1     -34.121   3.984   4.493  1.00 20.00     0.013 C 
HETATM    2  C2  UNL     1     -34.395   5.057   4.027  1.00 20.00    -0.087 C 
HETATM    3  C6  UNL     1     -34.732   6.363   3.455  1.00 20.00     0.364 C 
ENDROOT
BRANCH   3   4
HETATM    4  N10 UNL     1     -33.808   7.395   3.941  1.00 20.00     0.100 N 
HETATM    5  C5  UNL     1     -33.641   7.270   5.395  1.00 20.00     0.311 C 
BRANCH   4   6
HETATM    6  C8  UNL     1     -32.533   7.311   3.263  1.00 20.00     0.232 C 
HETATM    7  C4  UNL     1     -31.535   8.264   3.914  1.00 20.00     0.044 C 
BRANCH   6   8
HETATM    8  C7  UNL     1     -32.686   7.618   1.768  1.00 20.00     0.159 C 
HETATM    9  C3  UNL     1     -32.608   9.063   1.495  1.00 20.00     0.061 C 
HETATM   10  N9  UNL     1     -32.548  10.201   1.277  1.00 20.00    -0.197 NA
ENDBRANCH   6   8
ENDBRANCH   4   6
ENDBRANCH   3   4
TORSDOF 3
ENDMDL
MODEL 3
REMARK VINA RESULT:      -4.6      1.662      4.472
REMARK  3 active torsions:
REMARK  status: ('A' for Active; 'I' for Inactive)
REMARK    1  A    between atoms: C6_6  and  N10_10 
REMARK    2  A    between atoms: C7_7  and  C8_8 
REMARK    3  A    between atoms: C8_8  and  N10_10 
ROOT
HETATM    1  C1  UNL     1     -34.723   4.570   4.629  1.00 20.00     0.013 C 
HETATM    2  C2  UNL     1     -34.169   5.201   3.771  1.00 20.00    -0.087 C 
HETATM    3  C6  UNL     1     -33.492   5.966   2.721  1.00 20.00     0.364 C 
ENDROOT
BRANCH   3   4
HETATM    4  N10 UNL     1     -33.414   7.386   3.083  1.00 20.00     0.100 N 
HETATM    5  C5  UNL     1     -33.360   7.526   4.544  1.00 20.00     0.311 C 
BRANCH   4   6
HETATM    6  C8  UNL     1     -32.273   8.020   2.458  1.00 20.00     0.232 C 
HETATM    7  C4  UNL     1     -31.154   8.198   3.480  1.00 20.00     0.044 C 
BRANCH   6   8
HETATM    8  C7  UNL     1     -32.665   9.366   1.838  1.00 20.00     0.159 C 
HETATM    9  C3  UNL     1     -32.947   9.244   0.397  1.00 20.00     0.061 C 
HETATM   10  N9  UNL     1     -33.170   9.151  -0.737  1.00 20.00    -0.197 NA
ENDBRANCH   6   8
ENDBRANCH   4   6
ENDBRANCH   3   4
TORSDOF 3
ENDMDL
MODEL 4
REMARK VINA RESULT:      -4.5      1.708      4.636
REMARK  3 active torsions:
REMARK  status: ('A' for Active; 'I' for Inactive)
REMARK    1  A    between atoms: C6_6  and  N10_10 
REMARK    2  A    between atoms: C7_7  and  C8_8 
REMARK    3  A    between atoms: C8_8  and  N10_10 
ROOT
HETATM    1  C1  UNL     1     -34.733   5.078   5.912  1.00 20.00     0.013 C 
HETATM    2  C2  UNL     1     -34.366   5.914   5.133  1.00 20.00    -0.087 C 
HETATM    3  C6  UNL     1     -33.921   6.938   4.184  1.00 20.00     0.364 C 
ENDROOT
BRANCH   3   4
HETATM    4  N10 UNL     1     -32.784   6.452   3.393  1.00 20.00     0.100 N 
HETATM    5  C5  UNL     1     -33.219   5.358   2.515  1.00 20.00     0.311 C 
BRANCH   4   6
HETATM    6  C8  UNL     1     -32.187   7.525   2.629  1.00 20.00     0.232 C 
HETATM    7  C4  UNL     1     -31.388   8.439   3.554  1.00 20.00     0.044 C 
BRANCH   6   8
HETATM    8  C7  UNL     1     -33.256   8.319   1.869  1.00 20.00     0.159 C 
HETATM    9  C3  UNL     1     -32.690   9.507   1.208  1.00 20.00     0.061 C 
HETATM   10  N9  UNL     1     -32.247  10.443   0.686  1.00 20.00    -0.197 NA
ENDBRANCH   6   8
ENDBRANCH   4   6
ENDBRANCH   3   4
TORSDOF 3
ENDMDL
MODEL 5
REMARK VINA RESULT:      -4.4      1.128      1.615
REMARK  3 active torsions:
REMARK  status: ('A' for Active; 'I' for Inactive)
REMARK    1  A    between atoms: C6_6  and  N10_10 
REMARK    2  A    between atoms: C7_7  and  C8_8 
REMARK    3  A    between atoms: C8_8  and  N10_10 
ROOT
HETATM    1  C1  UNL     1     -32.161  10.225   0.379  1.00 20.00     0.013 C 
HETATM    2  C2  UNL     1     -32.674   9.439   1.128  1.00 20.00    -0.087 C 
HETATM    3  C6  UNL     1     -33.303   8.482   2.041  1.00 20.00     0.364 C 
ENDROOT
BRANCH   3   4
HETATM    4  N10 UNL     1     -32.298   7.593   2.635  1.00 20.00     0.100 N 
HETATM    5  C5  UNL     1     -31.389   8.369   3.489  1.00 20.00     0.311 C 
BRANCH   4   6
HETATM    6  C8  UNL     1     -32.925   6.523   3.380  1.00 20.00     0.232 C 
HETATM    7  C4  UNL     1     -33.872   5.744   2.472  1.00 20.00     0.044 C 
BRANCH   6   8
HETATM    8  C7  UNL     1     -33.669   7.070   4.603  1.00 20.00     0.159 C 
HETATM    9  C3  UNL     1     -34.293   5.994   5.391  1.00 20.00     0.061 C 
HETATM   10  N9  UNL     1     -34.786   5.148   6.013  1.00 20.00    -0.197 NA
ENDBRANCH   6   8
ENDBRANCH   4   6
ENDBRANCH   3   4
TORSDOF 3
ENDMDL
MODEL 6
REMARK VINA RESULT:      -4.3     10.844     11.477
REMARK  3 active torsions:
REMARK  status: ('A' for Active; 'I' for Inactive)
REMARK    1  A    between atoms: C6_6  and  N10_10 
REMARK    2  A    between atoms: C7_7  and  C8_8 
REMARK    3  A    between atoms: C8_8  and  N10_10 
ROOT
HETATM    1  C1  UNL     1     -35.479  17.325  -0.250  1.00 20.00     0.013 C 
HETATM    2  C2  UNL     1     -34.651  17.248  -1.117  1.00 20.00    -0.087 C 
HETATM    3  C6  UNL     1     -33.638  17.156  -2.170  1.00 20.00     0.364 C 
ENDROOT
BRANCH   3   4
HETATM    4  N10 UNL     1     -34.264  16.881  -3.469  1.00 20.00     0.100 N 
HETATM    5  C5  UNL     1     -33.440  17.443  -4.548  1.00 20.00     0.311 C 
BRANCH   4   6
HETATM    6  C8  UNL     1     -34.469  15.462  -3.657  1.00 20.00     0.232 C 
HETATM    7  C4  UNL     1     -33.259  14.851  -4.358  1.00 20.00     0.044 C 
BRANCH   6   8
HETATM    8  C7  UNL     1     -35.752  15.193  -4.452  1.00 20.00     0.159 C 
HETATM    9  C3  UNL     1     -35.804  13.812  -4.960  1.00 20.00     0.061 C 
HETATM   10  N9  UNL     1     -35.846  12.725  -5.361  1.00 20.00    -0.197 NA
ENDBRANCH   6   8
ENDBRANCH   4   6
ENDBRANCH   3   4
TORSDOF 3
ENDMDL
MODEL 7
REMARK VINA RESULT:      -4.3     10.947     11.517
REMARK  3 active torsions:
REMARK  status: ('A' for Active; 'I' for Inactive)
REMARK    1  A    between atoms: C6_6  and  N10_10 
REMARK    2  A    between atoms: C7_7  and  C8_8 
REMARK    3  A    between atoms: C8_8  and  N10_10 
ROOT
HETATM    1  C1  UNL     1     -32.490  18.523  -0.564  1.00 20.00     0.013 C 
HETATM    2  C2  UNL     1     -32.938  18.082  -1.587  1.00 20.00    -0.087 C 
HETATM    3  C6  UNL     1     -33.482  17.548  -2.838  1.00 20.00     0.364 C 
ENDROOT
BRANCH   3   4
HETATM    4  N10 UNL     1     -34.344  16.389  -2.576  1.00 20.00     0.100 N 
HETATM    5  C5  UNL     1     -35.725  16.836  -2.354  1.00 20.00     0.311 C 
BRANCH   4   6
HETATM    6  C8  UNL     1     -34.275  15.435  -3.660  1.00 20.00     0.232 C 
HETATM    7  C4  UNL     1     -33.311  15.935  -4.732  1.00 20.00     0.044 C 
BRANCH   6   8
HETATM    8  C7  UNL     1     -35.665  15.178  -4.254  1.00 20.00     0.159 C 
HETATM    9  C3  UNL     1     -35.762  13.842  -4.866  1.00 20.00     0.061 C 
HETATM   10  N9  UNL     1     -35.840  12.791  -5.349  1.00 20.00    -0.197 NA
ENDBRANCH   6   8
ENDBRANCH   4   6
ENDBRANCH   3   4
TORSDOF 3
ENDMDL
MODEL 8
REMARK VINA RESULT:      -4.1     10.818     11.542
REMARK  3 active torsions:
REMARK  status: ('A' for Active; 'I' for Inactive)
REMARK    1  A    between atoms: C6_6  and  N10_10 
REMARK    2  A    between atoms: C7_7  and  C8_8 
REMARK    3  A    between atoms: C8_8  and  N10_10 
ROOT
HETATM    1  C1  UNL     1     -35.243  17.012  -1.034  1.00 20.00     0.013 C 
HETATM    2  C2  UNL     1     -34.545  16.877  -2.002  1.00 20.00    -0.087 C 
HETATM    3  C6  UNL     1     -33.690  16.714  -3.180  1.00 20.00     0.364 C 
ENDROOT
BRANCH   3   4
HETATM    4  N10 UNL     1     -34.441  16.108  -4.286  1.00 20.00     0.100 N 
HETATM    5  C5  UNL     1     -33.912  16.587  -5.569  1.00 20.00     0.311 C 
BRANCH   4   6
HETATM    6  C8  UNL     1     -34.397  14.664  -4.213  1.00 20.00     0.232 C 
HETATM    7  C4  UNL     1     -32.947  14.188  -4.211  1.00 20.00     0.044 C 
BRANCH   6   8
HETATM    8  C7  UNL     1     -35.176  14.032  -5.372  1.00 20.00     0.159 C 
HETATM    9  C3  UNL     1     -36.626  14.024  -5.118  1.00 20.00     0.061 C 
HETATM   10  N9  UNL     1     -37.769  14.016  -4.919  1.00 20.00    -0.197 NA
ENDBRANCH   6   8
ENDBRANCH   4   6
ENDBRANCH   3   4
TORSDOF 3
ENDMDL
MODEL 9
REMARK VINA RESULT:      -4.0     10.842     11.434
REMARK  3 active torsions:
REMARK  status: ('A' for Active; 'I' for Inactive)
REMARK    1  A    between atoms: C6_6  and  N10_10 
REMARK    2  A    between atoms: C7_7  and  C8_8 
REMARK    3  A    between atoms: C8_8  and  N10_10 
ROOT
HETATM    1  C1  UNL     1     -33.801  17.959  -0.659  1.00 20.00     0.013 C 
HETATM    2  C2  UNL     1     -33.752  17.341  -1.687  1.00 20.00    -0.087 C 
HETATM    3  C6  UNL     1     -33.688  16.590  -2.943  1.00 20.00     0.364 C 
ENDROOT
BRANCH   3   4
HETATM    4  N10 UNL     1     -34.832  15.677  -3.060  1.00 20.00     0.100 N 
HETATM    5  C5  UNL     1     -36.028  16.426  -3.465  1.00 20.00     0.311 C 
BRANCH   4   6
HETATM    6  C8  UNL     1     -34.549  14.607  -3.991  1.00 20.00     0.232 C 
HETATM    7  C4  UNL     1     -33.297  14.938  -4.797  1.00 20.00     0.044 C 
BRANCH   6   8
HETATM    8  C7  UNL     1     -35.744  14.357  -4.918  1.00 20.00     0.159 C 
HETATM    9  C3  UNL     1     -35.441  13.343  -5.942  1.00 20.00     0.061 C 
HETATM   10  N9  UNL     1     -35.204  12.545  -6.749  1.00 20.00    -0.197 NA
ENDBRANCH   6   8
ENDBRANCH   4   6
ENDBRANCH   3   4
TORSDOF 3
ENDMDL
