MODEL 1
REMARK VINA RESULT:      -5.0      0.000      0.000
REMARK  3 active torsions:
REMARK  status: ('A' for Active; 'I' for Inactive)
REMARK    1  A    between atoms: C4_4  and  C6_6 
REMARK    2  A    between atoms: C4_4  and  C7_7 
REMARK    3  A    between atoms: C5_5  and  C6_6 
ROOT
HETATM    1  C1  UNL     1     -33.544   7.302   4.789  1.00 20.00     0.065 C 
HETATM    2  C6  UNL     1     -33.420   7.235   3.319  1.00 20.00     0.107 C 
HETATM    3  N8  UNL     1     -33.645   7.356   5.944  1.00 20.00    -0.197 NA
ENDROOT
BRANCH   2   4
HETATM    4  C4  UNL     1     -32.265   8.121   2.810  1.00 20.00     0.024 C 
BRANCH   4   5
HETATM    5  C7  UNL     1     -32.484   8.753   1.416  1.00 20.00    -0.021 C 
HETATM    6  C2  UNL     1     -32.754  10.254   1.569  1.00 20.00     0.009 C 
HETATM    7  C3  UNL     1     -31.292   8.541   0.480  1.00 20.00     0.009 C 
ENDBRANCH   4   5
ENDBRANCH   2   4
BRANCH   2   8
HETATM    8  C5  UNL     1     -33.282   5.774   2.854  1.00 20.00     0.133 C 
HETATM    9 CL9  UNL     1     -34.141   4.607   3.893  1.00 20.00    -0.129 Cl
ENDBRANCH   2   8
TORSDOF 3
ENDMDL
MODEL 2
REMARK VINA RESULT:      -4.9      1.041      1.572
REMARK  3 active torsions:
REMARK  status: ('A' for Active; 'I' for Inactive)
REMARK    1  A    between atoms: C4_4  and  C6_6 
REMARK    2  A    between atoms: C4_4  and  C7_7 
REMARK    3  A    between atoms: C5_5  and  C6_6 
ROOT
HETATM    1  C1  UNL     1     -33.840   7.052   5.007  1.00 20.00     0.065 C 
HETATM    2  C6  UNL     1     -34.094   6.427   3.693  1.00 20.00     0.107 C 
HETATM    3  N8  UNL     1     -33.643   7.545   6.039  1.00 20.00    -0.197 NA
ENDROOT
BRANCH   2   4
HETATM    4  C4  UNL     1     -32.970   6.751   2.688  1.00 20.00     0.024 C 
BRANCH   4   5
HETATM    5  C7  UNL     1     -32.539   8.235   2.637  1.00 20.00    -0.021 C 
HETATM    6  C2  UNL     1     -31.210   8.410   3.379  1.00 20.00     0.009 C 
HETATM    7  C3  UNL     1     -32.397   8.757   1.206  1.00 20.00     0.009 C 
ENDBRANCH   4   5
ENDBRANCH   2   4
BRANCH   2   8
HETATM    8  C5  UNL     1     -34.318   4.913   3.849  1.00 20.00     0.133 C 
HETATM    9 CL9  UNL     1     -34.587   4.397   5.534  1.00 20.00    -0.129 Cl
ENDBRANCH   2   8
TORSDOF 3
ENDMDL
MODEL 3
REMARK VINA RESULT:      -4.7      2.467      4.259
REMARK  3 active torsions:
REMARK  status: ('A' for Active; 'I' for Inactive)
REMARK    1  A    between atoms: C4_4  and  C6_6 
REMARK    2  A    between atoms: C4_4  and  C7_7 
REMARK    3  A    between atoms: C5_5  and  C6_6 
ROOT
HETATM    1  C1  UNL     1     -32.501   8.206   2.142  1.00 20.00     0.065 C 
HETATM    2  C6  UNL     1     -33.118   7.448   3.249  1.00 20.00     0.107 C 
HETATM    3  N8  UNL     1     -32.019   8.803   1.271  1.00 20.00    -0.197 NA
ENDROOT
BRANCH   2   4
HETATM    4  C4  UNL     1     -33.011   5.927   3.019  1.00 20.00     0.024 C 
BRANCH   4   5
HETATM    5  C7  UNL     1     -34.300   5.124   3.308  1.00 20.00    -0.021 C 
HETATM    6  C2  UNL     1     -34.055   4.163   4.477  1.00 20.00     0.009 C 
HETATM    7  C3  UNL     1     -35.494   6.024   3.629  1.00 20.00     0.009 C 
ENDBRANCH   4   5
ENDBRANCH   2   4
BRANCH   2   8
HETATM    8  C5  UNL     1     -32.518   7.877   4.599  1.00 20.00     0.133 C 
HETATM    9 CL9  UNL     1     -33.538   7.463   6.002  1.00 20.00    -0.129 Cl
ENDBRANCH   2   8
TORSDOF 3
ENDMDL
MODEL 4
REMARK VINA RESULT:      -4.6      2.834      4.425
REMARK  3 active torsions:
REMARK  status: ('A' for Active; 'I' for Inactive)
REMARK    1  A    between atoms: C4_4  and  C6_6 
REMARK    2  A    between atoms: C4_4  and  C7_7 
REMARK    3  A    between atoms: C5_5  and  C6_6 
ROOT
HETATM    1  C1  UNL     1     -33.038   5.358   2.525  1.00 20.00     0.065 C 
HETATM    2  C6  UNL     1     -33.417   6.776   2.697  1.00 20.00     0.107 C 
HETATM    3  N8  UNL     1     -32.742   4.245   2.386  1.00 20.00    -0.197 NA
ENDROOT
BRANCH   2   4
HETATM    4  C4  UNL     1     -34.362   6.963   3.902  1.00 20.00     0.024 C 
BRANCH   4   5
HETATM    5  C7  UNL     1     -33.843   6.393   5.242  1.00 20.00    -0.021 C 
HETATM    6  C2  UNL     1     -33.797   7.509   6.291  1.00 20.00     0.009 C 
HETATM    7  C3  UNL     1     -34.701   5.239   5.761  1.00 20.00     0.009 C 
ENDBRANCH   4   5
ENDBRANCH   2   4
BRANCH   2   8
HETATM    8  C5  UNL     1     -32.163   7.662   2.796  1.00 20.00     0.133 C 
HETATM    9 CL9  UNL     1     -31.933   8.738   1.393  1.00 20.00    -0.129 Cl
ENDBRANCH   2   8
TORSDOF 3
ENDMDL
MODEL 5
REMARK VINA RESULT:      -4.6      1.948      2.491
REMARK  3 active torsions:
REMARK  status: ('A' for Active; 'I' for Inactive)
REMARK    1  A    between atoms: C4_4  and  C6_6 
REMARK    2  A    between atoms: C4_4  and  C7_7 
REMARK    3  A    between atoms: C5_5  and  C6_6 
ROOT
HETATM    1  C1  UNL     1     -32.919   6.083   2.813  1.00 20.00     0.065 C 
HETATM    2  C6  UNL     1     -32.390   7.462   2.785  1.00 20.00     0.107 C 
HETATM    3  N8  UNL     1     -33.331   4.998   2.833  1.00 20.00    -0.197 NA
ENDROOT
BRANCH   2   4
HETATM    4  C4  UNL     1     -33.245   8.374   1.881  1.00 20.00     0.024 C 
BRANCH   4   5
HETATM    5  C7  UNL     1     -32.445   9.327   0.963  1.00 20.00    -0.021 C 
HETATM    6  C2  UNL     1     -32.976   9.223  -0.471  1.00 20.00     0.009 C 
HETATM    7  C3  UNL     1     -32.510  10.783   1.427  1.00 20.00     0.009 C 
ENDBRANCH   4   5
ENDBRANCH   2   4
BRANCH   2   8
HETATM    8  C5  UNL     1     -32.255   8.018   4.213  1.00 20.00     0.133 C 
HETATM    9 CL9  UNL     1     -33.479   7.389   5.347  1.00 20.00    -0.129 Cl
ENDBRANCH   2   8
TORSDOF 3
ENDMDL
MODEL 6
REMARK VINA RESULT:      -4.5      2.358      4.064
REMARK  3 active torsions:
REMARK  status: ('A' for Active; 'I' for Inactive)
REMARK    1  A    between atoms: C4_4  and  C6_6 
REMARK    2  A    between atoms: C4_4  and  C7_7 
REMARK    3  A    between atoms: C5_5  and  C6_6 
ROOT
HETATM    1  C1  UNL     1     -32.585   8.047   2.417  1.00 20.00     0.065 C 
HETATM    2  C6  UNL     1     -33.556   7.624   3.447  1.00 20.00     0.107 C 
HETATM    3  N8  UNL     1     -31.825   8.382   1.606  1.00 20.00    -0.197 NA
ENDROOT
BRANCH   2   4
HETATM    4  C4  UNL     1     -34.222   6.283   3.077  1.00 20.00     0.024 C 
BRANCH   4   5
HETATM    5  C7  UNL     1     -33.432   5.019   3.487  1.00 20.00    -0.021 C 
HETATM    6  C2  UNL     1     -34.318   4.119   4.355  1.00 20.00     0.009 C 
HETATM    7  C3  UNL     1     -32.924   4.227   2.282  1.00 20.00     0.009 C 
ENDBRANCH   4   5
ENDBRANCH   2   4
BRANCH   2   8
HETATM    8  C5  UNL     1     -32.888   7.581   4.833  1.00 20.00     0.133 C 
HETATM    9 CL9  UNL     1     -34.024   7.240   6.165  1.00 20.00    -0.129 Cl
ENDBRANCH   2   8
TORSDOF 3
ENDMDL
MODEL 7
REMARK VINA RESULT:      -4.3      2.020      2.478
REMARK  3 active torsions:
REMARK  status: ('A' for Active; 'I' for Inactive)
REMARK    1  A    between atoms: C4_4  and  C6_6 
REMARK    2  A    between atoms: C4_4  and  C7_7 
REMARK    3  A    between atoms: C5_5  and  C6_6 
ROOT
HETATM    1  C1  UNL     1     -33.127   5.091   2.799  1.00 20.00     0.065 C 
HETATM    2  C6  UNL     1     -33.531   6.312   3.525  1.00 20.00     0.107 C 
HETATM    3  N8  UNL     1     -32.806   4.131   2.232  1.00 20.00    -0.197 NA
ENDROOT
BRANCH   2   4
HETATM    4  C4  UNL     1     -33.600   7.531   2.581  1.00 20.00     0.024 C 
BRANCH   4   5
HETATM    5  C7  UNL     1     -32.233   8.135   2.184  1.00 20.00    -0.021 C 
HETATM    6  C2  UNL     1     -32.453   9.455   1.437  1.00 20.00     0.009 C 
HETATM    7  C3  UNL     1     -31.324   8.376   3.390  1.00 20.00     0.009 C 
ENDBRANCH   4   5
ENDBRANCH   2   4
BRANCH   2   8
HETATM    8  C5  UNL     1     -34.854   6.082   4.277  1.00 20.00     0.133 C 
HETATM    9 CL9  UNL     1     -34.724   4.908   5.612  1.00 20.00    -0.129 Cl
ENDBRANCH   2   8
TORSDOF 3
ENDMDL
MODEL 8
REMARK VINA RESULT:      -4.3      2.164      4.023
REMARK  3 active torsions:
REMARK  status: ('A' for Active; 'I' for Inactive)
REMARK    1  A    between atoms: C4_4  and  C6_6 
REMARK    2  A    between atoms: C4_4  and  C7_7 
REMARK    3  A    between atoms: C5_5  and  C6_6 
ROOT
HETATM    1  C1  UNL     1     -32.593   7.586   2.451  1.00 20.00     0.065 C 
HETATM    2  C6  UNL     1     -33.036   6.437   3.267  1.00 20.00     0.107 C 
HETATM    3  N8  UNL     1     -32.242   8.489   1.812  1.00 20.00    -0.197 NA
ENDROOT
BRANCH   2   4
HETATM    4  C4  UNL     1     -34.453   6.662   3.833  1.00 20.00     0.024 C 
BRANCH   4   5
HETATM    5  C7  UNL     1     -34.552   6.676   5.376  1.00 20.00    -0.021 C 
HETATM    6  C2  UNL     1     -34.577   5.237   5.902  1.00 20.00     0.009 C 
HETATM    7  C3  UNL     1     -33.401   7.440   6.032  1.00 20.00     0.009 C 
ENDBRANCH   4   5
ENDBRANCH   2   4
BRANCH   2   8
HETATM    8  C5  UNL     1     -32.930   5.129   2.464  1.00 20.00     0.133 C 
HETATM    9 CL9  UNL     1     -33.626   3.716   3.299  1.00 20.00    -0.129 Cl
ENDBRANCH   2   8
TORSDOF 3
ENDMDL
MODEL 9
REMARK VINA RESULT:      -4.0     10.798     11.474
REMARK  3 active torsions:
REMARK  status: ('A' for Active; 'I' for Inactive)
REMARK    1  A    between atoms: C4_4  and  C6_6 
REMARK    2  A    between atoms: C4_4  and  C7_7 
REMARK    3  A    between atoms: C5_5  and  C6_6 
ROOT
HETATM    1  C1  UNL     1     -36.928  14.162  -5.228  1.00 20.00     0.065 C 
HETATM    2  C6  UNL     1     -35.499  14.311  -5.570  1.00 20.00     0.107 C 
HETATM    3  N8  UNL     1     -38.051  14.049  -4.961  1.00 20.00    -0.197 NA
ENDROOT
BRANCH   2   4
HETATM    4  C4  UNL     1     -34.599  14.087  -4.337  1.00 20.00     0.024 C 
BRANCH   4   5
HETATM    5  C7  UNL     1     -33.886  15.351  -3.804  1.00 20.00    -0.021 C 
HETATM    6  C2  UNL     1     -33.406  16.206  -4.982  1.00 20.00     0.009 C 
HETATM    7  C3  UNL     1     -34.783  16.192  -2.894  1.00 20.00     0.009 C 
ENDBRANCH   4   5
ENDBRANCH   2   4
BRANCH   2   8
HETATM    8  C5  UNL     1     -35.123  13.386  -6.741  1.00 20.00     0.133 C 
HETATM    9 CL9  UNL     1     -34.012  14.135  -7.918  1.00 20.00    -0.129 Cl
ENDBRANCH   2   8
TORSDOF 3
ENDMDL
