MODEL 1
REMARK VINA RESULT:      -4.8      0.000      0.000
REMARK  3 active torsions:
REMARK  status: ('A' for Active; 'I' for Inactive)
REMARK    1  A    between atoms: C3_3  and  C4_4 
REMARK    2  A    between atoms: C4_4  and  C6_6 
REMARK    3  A    between atoms: C5_5  and  C6_6 
ROOT
HETATM    1  C1  UNL     1     -33.139   5.927   2.995  1.00 20.00     0.065 C 
HETATM    2  C6  UNL     1     -33.203   7.316   3.494  1.00 20.00     0.106 C 
HETATM    3  N7  UNL     1     -33.089   4.837   2.602  1.00 20.00    -0.197 NA
ENDROOT
BRANCH   2   4
HETATM    4  C4  UNL     1     -31.940   8.110   3.113  1.00 20.00     0.020 C 
BRANCH   4   5
HETATM    5  C3  UNL     1     -31.875   8.432   1.614  1.00 20.00    -0.003 C 
HETATM    6  C2  UNL     1     -32.530   9.771   1.306  1.00 20.00     0.005 C 
ENDBRANCH   4   5
ENDBRANCH   2   4
BRANCH   2   7
HETATM    7  C5  UNL     1     -33.470   7.335   5.008  1.00 20.00     0.133 C 
HETATM    8 CL8  UNL     1     -34.461   5.965   5.575  1.00 20.00    -0.129 Cl
ENDBRANCH   2   7
TORSDOF 3
ENDMDL
MODEL 2
REMARK VINA RESULT:      -4.7      1.322      1.638
REMARK  3 active torsions:
REMARK  status: ('A' for Active; 'I' for Inactive)
REMARK    1  A    between atoms: C3_3  and  C4_4 
REMARK    2  A    between atoms: C4_4  and  C6_6 
REMARK    3  A    between atoms: C5_5  and  C6_6 
ROOT
HETATM    1  C1  UNL     1     -34.244   4.932   3.991  1.00 20.00     0.065 C 
HETATM    2  C6  UNL     1     -34.102   6.267   3.375  1.00 20.00     0.106 C 
HETATM    3  N7  UNL     1     -34.356   3.882   4.473  1.00 20.00    -0.197 NA
ENDROOT
BRANCH   2   4
HETATM    4  C4  UNL     1     -32.722   6.438   2.714  1.00 20.00     0.020 C 
BRANCH   4   5
HETATM    5  C3  UNL     1     -32.119   7.828   2.956  1.00 20.00    -0.003 C 
HETATM    6  C2  UNL     1     -32.031   8.627   1.664  1.00 20.00     0.005 C 
ENDBRANCH   4   5
ENDBRANCH   2   4
BRANCH   2   7
HETATM    7  C5  UNL     1     -34.398   7.372   4.403  1.00 20.00     0.133 C 
HETATM    8 CL8  UNL     1     -33.851   6.974   6.053  1.00 20.00    -0.129 Cl
ENDBRANCH   2   7
TORSDOF 3
ENDMDL
MODEL 3
REMARK VINA RESULT:      -4.7      2.779      4.175
REMARK  3 active torsions:
REMARK  status: ('A' for Active; 'I' for Inactive)
REMARK    1  A    between atoms: C3_3  and  C4_4 
REMARK    2  A    between atoms: C4_4  and  C6_6 
REMARK    3  A    between atoms: C5_5  and  C6_6 
ROOT
HETATM    1  C1  UNL     1     -33.463   7.483   4.993  1.00 20.00     0.065 C 
HETATM    2  C6  UNL     1     -33.351   7.430   3.522  1.00 20.00     0.106 C 
HETATM    3  N7  UNL     1     -33.553   7.525   6.149  1.00 20.00    -0.197 NA
ENDROOT
BRANCH   2   4
HETATM    4  C4  UNL     1     -33.727   6.039   2.978  1.00 20.00     0.020 C 
BRANCH   4   5
HETATM    5  C3  UNL     1     -34.820   5.355   3.810  1.00 20.00    -0.003 C 
HETATM    6  C2  UNL     1     -34.301   4.085   4.468  1.00 20.00     0.005 C 
ENDBRANCH   4   5
ENDBRANCH   2   4
BRANCH   2   7
HETATM    7  C5  UNL     1     -31.950   7.875   3.069  1.00 20.00     0.133 C 
HETATM    8 CL8  UNL     1     -31.941   8.697   1.486  1.00 20.00    -0.129 Cl
ENDBRANCH   2   7
TORSDOF 3
ENDMDL
MODEL 4
REMARK VINA RESULT:      -4.6      0.926      1.098
REMARK  3 active torsions:
REMARK  status: ('A' for Active; 'I' for Inactive)
REMARK    1  A    between atoms: C3_3  and  C4_4 
REMARK    2  A    between atoms: C4_4  and  C6_6 
REMARK    3  A    between atoms: C5_5  and  C6_6 
ROOT
HETATM    1  C1  UNL     1     -33.063   6.138   2.834  1.00 20.00     0.065 C 
HETATM    2  C6  UNL     1     -32.947   7.600   3.008  1.00 20.00     0.106 C 
HETATM    3  N7  UNL     1     -33.156   4.990   2.696  1.00 20.00    -0.197 NA
ENDROOT
BRANCH   2   4
HETATM    4  C4  UNL     1     -31.996   8.218   1.966  1.00 20.00     0.020 C 
BRANCH   4   5
HETATM    5  C3  UNL     1     -32.513   9.552   1.412  1.00 20.00    -0.003 C 
HETATM    6  C2  UNL     1     -32.872   9.438  -0.063  1.00 20.00     0.005 C 
ENDBRANCH   4   5
ENDBRANCH   2   4
BRANCH   2   7
HETATM    7  C5  UNL     1     -32.536   7.943   4.450  1.00 20.00     0.133 C 
HETATM    8 CL8  UNL     1     -33.660   7.310   5.681  1.00 20.00    -0.129 Cl
ENDBRANCH   2   7
TORSDOF 3
ENDMDL
MODEL 5
REMARK VINA RESULT:      -4.6      1.999      3.493
REMARK  3 active torsions:
REMARK  status: ('A' for Active; 'I' for Inactive)
REMARK    1  A    between atoms: C3_3  and  C4_4 
REMARK    2  A    between atoms: C4_4  and  C6_6 
REMARK    3  A    between atoms: C5_5  and  C6_6 
ROOT
HETATM    1  C1  UNL     1     -32.463   8.177   2.190  1.00 20.00     0.065 C 
HETATM    2  C6  UNL     1     -32.621   7.231   3.314  1.00 20.00     0.106 C 
HETATM    3  N7  UNL     1     -32.337   8.918   1.306  1.00 20.00    -0.197 NA
ENDROOT
BRANCH   2   4
HETATM    4  C4  UNL     1     -33.877   6.357   3.141  1.00 20.00     0.020 C 
BRANCH   4   5
HETATM    5  C3  UNL     1     -33.562   4.856   3.179  1.00 20.00    -0.003 C 
HETATM    6  C2  UNL     1     -34.277   4.169   4.334  1.00 20.00     0.005 C 
ENDBRANCH   4   5
ENDBRANCH   2   4
BRANCH   2   7
HETATM    7  C5  UNL     1     -32.610   7.980   4.657  1.00 20.00     0.133 C 
HETATM    8 CL8  UNL     1     -33.739   7.301   5.859  1.00 20.00    -0.129 Cl
ENDBRANCH   2   7
TORSDOF 3
ENDMDL
MODEL 6
REMARK VINA RESULT:      -4.5      1.764      2.159
REMARK  3 active torsions:
REMARK  status: ('A' for Active; 'I' for Inactive)
REMARK    1  A    between atoms: C3_3  and  C4_4 
REMARK    2  A    between atoms: C4_4  and  C6_6 
REMARK    3  A    between atoms: C5_5  and  C6_6 
ROOT
HETATM    1  C1  UNL     1     -33.440   7.088   4.843  1.00 20.00     0.065 C 
HETATM    2  C6  UNL     1     -33.022   6.704   3.479  1.00 20.00     0.106 C 
HETATM    3  N7  UNL     1     -33.767   7.390   5.914  1.00 20.00    -0.197 NA
ENDROOT
BRANCH   2   4
HETATM    4  C4  UNL     1     -33.200   7.868   2.487  1.00 20.00     0.020 C 
BRANCH   4   5
HETATM    5  C3  UNL     1     -31.863   8.411   1.967  1.00 20.00    -0.003 C 
HETATM    6  C2  UNL     1     -32.072   9.420   0.847  1.00 20.00     0.005 C 
ENDBRANCH   4   5
ENDBRANCH   2   4
BRANCH   2   7
HETATM    7  C5  UNL     1     -33.758   5.432   3.025  1.00 20.00     0.133 C 
HETATM    8 CL8  UNL     1     -34.382   4.450   4.377  1.00 20.00    -0.129 Cl
ENDBRANCH   2   7
TORSDOF 3
ENDMDL
MODEL 7
REMARK VINA RESULT:      -4.5      1.783      2.398
REMARK  3 active torsions:
REMARK  status: ('A' for Active; 'I' for Inactive)
REMARK    1  A    between atoms: C3_3  and  C4_4 
REMARK    2  A    between atoms: C4_4  and  C6_6 
REMARK    3  A    between atoms: C5_5  and  C6_6 
ROOT
HETATM    1  C1  UNL     1     -34.347   4.369   4.288  1.00 20.00     0.065 C 
HETATM    2  C6  UNL     1     -34.853   5.726   4.577  1.00 20.00     0.106 C 
HETATM    3  N7  UNL     1     -33.952   3.302   4.059  1.00 20.00    -0.197 NA
ENDROOT
BRANCH   2   4
HETATM    4  C4  UNL     1     -34.401   6.736   3.505  1.00 20.00     0.020 C 
BRANCH   4   5
HETATM    5  C3  UNL     1     -33.025   6.396   2.916  1.00 20.00    -0.003 C 
HETATM    6  C2  UNL     1     -32.241   7.655   2.577  1.00 20.00     0.005 C 
ENDBRANCH   4   5
ENDBRANCH   2   4
BRANCH   2   7
HETATM    7  C5  UNL     1     -34.452   6.162   5.996  1.00 20.00     0.133 C 
HETATM    8 CL8  UNL     1     -33.492   7.665   6.034  1.00 20.00    -0.129 Cl
ENDBRANCH   2   7
TORSDOF 3
ENDMDL
MODEL 8
REMARK VINA RESULT:      -4.4      2.208      3.875
REMARK  3 active torsions:
REMARK  status: ('A' for Active; 'I' for Inactive)
REMARK    1  A    between atoms: C3_3  and  C4_4 
REMARK    2  A    between atoms: C4_4  and  C6_6 
REMARK    3  A    between atoms: C5_5  and  C6_6 
ROOT
HETATM    1  C1  UNL     1     -32.609   7.904   2.695  1.00 20.00     0.065 C 
HETATM    2  C6  UNL     1     -33.689   7.276   3.483  1.00 20.00     0.106 C 
HETATM    3  N7  UNL     1     -31.761   8.399   2.077  1.00 20.00    -0.197 NA
ENDROOT
BRANCH   2   4
HETATM    4  C4  UNL     1     -33.257   7.038   4.942  1.00 20.00     0.020 C 
BRANCH   4   5
HETATM    5  C3  UNL     1     -34.412   6.556   5.829  1.00 20.00    -0.003 C 
HETATM    6  C2  UNL     1     -34.508   5.037   5.837  1.00 20.00     0.005 C 
ENDBRANCH   4   5
ENDBRANCH   2   4
BRANCH   2   7
HETATM    7  C5  UNL     1     -34.177   5.987   2.801  1.00 20.00     0.133 C 
HETATM    8 CL8  UNL     1     -32.893   4.770   2.575  1.00 20.00    -0.129 Cl
ENDBRANCH   2   7
TORSDOF 3
ENDMDL
MODEL 9
REMARK VINA RESULT:      -4.2      2.297      3.809
REMARK  3 active torsions:
REMARK  status: ('A' for Active; 'I' for Inactive)
REMARK    1  A    between atoms: C3_3  and  C4_4 
REMARK    2  A    between atoms: C4_4  and  C6_6 
REMARK    3  A    between atoms: C5_5  and  C6_6 
ROOT
HETATM    1  C1  UNL     1     -32.944   5.781   2.862  1.00 20.00     0.065 C 
HETATM    2  C6  UNL     1     -32.954   7.170   3.364  1.00 20.00     0.106 C 
HETATM    3  N7  UNL     1     -32.935   4.690   2.468  1.00 20.00    -0.197 NA
ENDROOT
BRANCH   2   4
HETATM    4  C4  UNL     1     -34.088   7.393   4.382  1.00 20.00     0.020 C 
BRANCH   4   5
HETATM    5  C3  UNL     1     -33.836   6.675   5.714  1.00 20.00    -0.003 C 
HETATM    6  C2  UNL     1     -34.620   5.373   5.799  1.00 20.00     0.005 C 
ENDBRANCH   4   5
ENDBRANCH   2   4
BRANCH   2   7
HETATM    7  C5  UNL     1     -33.013   8.168   2.195  1.00 20.00     0.133 C 
HETATM    8 CL8  UNL     1     -31.431   8.456   1.423  1.00 20.00    -0.129 Cl
ENDBRANCH   2   7
TORSDOF 3
ENDMDL
