MODEL 1
REMARK VINA RESULT:      -4.9      0.000      0.000
REMARK  3 active torsions:
REMARK  status: ('A' for Active; 'I' for Inactive)
REMARK    1  A    between atoms: C5_5  and  C7_7 
REMARK    2  A    between atoms: C6_6  and  C7_7 
REMARK    3  A    between atoms: C7_7  and  O8_8 
ROOT
HETATM    1  C1  UNL     1     -32.186   7.811   2.307  1.00 20.00     0.012 C 
HETATM    2  C2  UNL     1     -32.798   6.828   2.627  1.00 20.00    -0.115 C 
HETATM    3  C5  UNL     1     -33.546   5.619   3.010  1.00 20.00     0.130 C 
ENDROOT
BRANCH   3   4
HETATM    4  C7  UNL     1     -34.531   5.859   4.174  1.00 20.00     0.064 C 
HETATM    5  C4  UNL     1     -34.424   4.705   5.180  1.00 20.00     0.046 C 
BRANCH   4   6
HETATM    6  C6  UNL     1     -34.364   7.222   4.880  1.00 20.00     0.034 C 
HETATM    7  C3  UNL     1     -33.646   7.181   6.222  1.00 20.00     0.008 C 
ENDBRANCH   4   6
BRANCH   4   8
HETATM    8  O8  UNL     1     -35.870   5.832   3.653  1.00 20.00    -0.389 OA
HETATM    9  H20 UNL     1     -36.165   6.752   3.632  1.00 20.00     0.210 HD
ENDBRANCH   4   8
ENDBRANCH   3   4
TORSDOF 3
ENDMDL
MODEL 2
REMARK VINA RESULT:      -4.8      1.166      1.749
REMARK  3 active torsions:
REMARK  status: ('A' for Active; 'I' for Inactive)
REMARK    1  A    between atoms: C5_5  and  C7_7 
REMARK    2  A    between atoms: C6_6  and  C7_7 
REMARK    3  A    between atoms: C7_7  and  O8_8 
ROOT
HETATM    1  C1  UNL     1     -31.999   8.344   1.857  1.00 20.00     0.012 C 
HETATM    2  C2  UNL     1     -32.537   7.760   2.757  1.00 20.00    -0.115 C 
HETATM    3  C5  UNL     1     -33.191   7.047   3.868  1.00 20.00     0.130 C 
ENDROOT
BRANCH   3   4
HETATM    4  C7  UNL     1     -33.942   5.777   3.416  1.00 20.00     0.064 C 
HETATM    5  C4  UNL     1     -32.986   4.873   2.625  1.00 20.00     0.046 C 
BRANCH   4   6
HETATM    6  C6  UNL     1     -34.617   4.994   4.564  1.00 20.00     0.034 C 
HETATM    7  C3  UNL     1     -34.560   5.659   5.932  1.00 20.00     0.008 C 
ENDBRANCH   4   6
BRANCH   4   8
HETATM    8  O8  UNL     1     -34.991   6.162   2.513  1.00 20.00    -0.389 OA
HETATM    9  H20 UNL     1     -35.333   5.340   2.139  1.00 20.00     0.210 HD
ENDBRANCH   4   8
ENDBRANCH   3   4
TORSDOF 3
ENDMDL
MODEL 3
REMARK VINA RESULT:      -4.6      1.331      2.058
REMARK  3 active torsions:
REMARK  status: ('A' for Active; 'I' for Inactive)
REMARK    1  A    between atoms: C5_5  and  C7_7 
REMARK    2  A    between atoms: C6_6  and  C7_7 
REMARK    3  A    between atoms: C7_7  and  O8_8 
ROOT
HETATM    1  C1  UNL     1     -31.794   8.824   1.074  1.00 20.00     0.012 C 
HETATM    2  C2  UNL     1     -31.903   8.358   2.175  1.00 20.00    -0.115 C 
HETATM    3  C5  UNL     1     -32.028   7.785   3.526  1.00 20.00     0.130 C 
ENDROOT
BRANCH   3   4
HETATM    4  C7  UNL     1     -33.364   7.046   3.751  1.00 20.00     0.064 C 
HETATM    5  C4  UNL     1     -33.337   5.704   3.008  1.00 20.00     0.046 C 
BRANCH   4   6
HETATM    6  C6  UNL     1     -33.739   6.846   5.237  1.00 20.00     0.034 C 
HETATM    7  C3  UNL     1     -34.534   5.586   5.548  1.00 20.00     0.008 C 
ENDBRANCH   4   6
BRANCH   4   8
HETATM    8  O8  UNL     1     -34.421   7.823   3.166  1.00 20.00    -0.389 OA
HETATM    9  H20 UNL     1     -35.240   7.350   3.365  1.00 20.00     0.210 HD
ENDBRANCH   4   8
ENDBRANCH   3   4
TORSDOF 3
ENDMDL
MODEL 4
REMARK VINA RESULT:      -4.3      1.823      3.720
REMARK  3 active torsions:
REMARK  status: ('A' for Active; 'I' for Inactive)
REMARK    1  A    between atoms: C5_5  and  C7_7 
REMARK    2  A    between atoms: C6_6  and  C7_7 
REMARK    3  A    between atoms: C7_7  and  O8_8 
ROOT
HETATM    1  C1  UNL     1     -34.569   5.082   5.610  1.00 20.00     0.012 C 
HETATM    2  C2  UNL     1     -34.430   6.077   4.951  1.00 20.00    -0.115 C 
HETATM    3  C5  UNL     1     -34.269   7.298   4.143  1.00 20.00     0.130 C 
ENDROOT
BRANCH   3   4
HETATM    4  C7  UNL     1     -33.047   7.247   3.202  1.00 20.00     0.064 C 
HETATM    5  C4  UNL     1     -32.828   5.804   2.728  1.00 20.00     0.046 C 
BRANCH   4   6
HETATM    6  C6  UNL     1     -33.127   8.216   2.002  1.00 20.00     0.034 C 
HETATM    7  C3  UNL     1     -31.789   8.673   1.439  1.00 20.00     0.008 C 
ENDBRANCH   4   6
BRANCH   4   8
HETATM    8  O8  UNL     1     -31.878   7.620   3.949  1.00 20.00    -0.389 OA
HETATM    9  H20 UNL     1     -31.124   7.402   3.387  1.00 20.00     0.210 HD
ENDBRANCH   4   8
ENDBRANCH   3   4
TORSDOF 3
ENDMDL
MODEL 5
REMARK VINA RESULT:      -4.3      1.223      2.884
REMARK  3 active torsions:
REMARK  status: ('A' for Active; 'I' for Inactive)
REMARK    1  A    between atoms: C5_5  and  C7_7 
REMARK    2  A    between atoms: C6_6  and  C7_7 
REMARK    3  A    between atoms: C7_7  and  O8_8 
ROOT
HETATM    1  C1  UNL     1     -33.203   8.124   5.853  1.00 20.00     0.012 C 
HETATM    2  C2  UNL     1     -33.735   7.049   5.807  1.00 20.00    -0.115 C 
HETATM    3  C5  UNL     1     -34.385   5.727   5.760  1.00 20.00     0.130 C 
ENDROOT
BRANCH   3   4
HETATM    4  C7  UNL     1     -34.593   5.204   4.323  1.00 20.00     0.064 C 
HETATM    5  C4  UNL     1     -35.639   6.072   3.611  1.00 20.00     0.046 C 
BRANCH   4   6
HETATM    6  C6  UNL     1     -33.298   5.104   3.487  1.00 20.00     0.034 C 
HETATM    7  C3  UNL     1     -33.040   6.267   2.538  1.00 20.00     0.008 C 
ENDBRANCH   4   6
BRANCH   4   8
HETATM    8  O8  UNL     1     -35.135   3.876   4.394  1.00 20.00    -0.389 OA
HETATM    9  H20 UNL     1     -34.478   3.345   4.863  1.00 20.00     0.210 HD
ENDBRANCH   4   8
ENDBRANCH   3   4
TORSDOF 3
ENDMDL
MODEL 6
REMARK VINA RESULT:      -4.3      1.179      2.640
REMARK  3 active torsions:
REMARK  status: ('A' for Active; 'I' for Inactive)
REMARK    1  A    between atoms: C5_5  and  C7_7 
REMARK    2  A    between atoms: C6_6  and  C7_7 
REMARK    3  A    between atoms: C7_7  and  O8_8 
ROOT
HETATM    1  C1  UNL     1     -33.504   7.686   6.095  1.00 20.00     0.012 C 
HETATM    2  C2  UNL     1     -33.341   7.436   4.932  1.00 20.00    -0.115 C 
HETATM    3  C5  UNL     1     -33.140   7.139   3.504  1.00 20.00     0.130 C 
ENDROOT
BRANCH   3   4
HETATM    4  C7  UNL     1     -33.910   5.888   3.029  1.00 20.00     0.064 C 
HETATM    5  C4  UNL     1     -32.911   4.783   2.660  1.00 20.00     0.046 C 
BRANCH   4   6
HETATM    6  C6  UNL     1     -34.961   5.368   4.034  1.00 20.00     0.034 C 
HETATM    7  C3  UNL     1     -34.497   4.234   4.938  1.00 20.00     0.008 C 
ENDBRANCH   4   6
BRANCH   4   8
HETATM    8  O8  UNL     1     -34.624   6.219   1.828  1.00 20.00    -0.389 OA
HETATM    9  H20 UNL     1     -34.237   5.675   1.130  1.00 20.00     0.210 HD
ENDBRANCH   4   8
ENDBRANCH   3   4
TORSDOF 3
ENDMDL
MODEL 7
REMARK VINA RESULT:      -4.2      1.386      3.353
REMARK  3 active torsions:
REMARK  status: ('A' for Active; 'I' for Inactive)
REMARK    1  A    between atoms: C5_5  and  C7_7 
REMARK    2  A    between atoms: C6_6  and  C7_7 
REMARK    3  A    between atoms: C7_7  and  O8_8 
ROOT
HETATM    1  C1  UNL     1     -34.619   4.349   4.609  1.00 20.00     0.012 C 
HETATM    2  C2  UNL     1     -33.958   5.041   3.885  1.00 20.00    -0.115 C 
HETATM    3  C5  UNL     1     -33.143   5.884   2.992  1.00 20.00     0.130 C 
ENDROOT
BRANCH   3   4
HETATM    4  C7  UNL     1     -33.037   7.347   3.469  1.00 20.00     0.064 C 
HETATM    5  C4  UNL     1     -33.150   7.396   4.999  1.00 20.00     0.046 C 
BRANCH   4   6
HETATM    6  C6  UNL     1     -31.766   8.083   2.988  1.00 20.00     0.034 C 
HETATM    7  C3  UNL     1     -31.844   8.677   1.588  1.00 20.00     0.008 C 
ENDBRANCH   4   6
BRANCH   4   8
HETATM    8  O8  UNL     1     -34.155   8.082   2.947  1.00 20.00    -0.389 OA
HETATM    9  H20 UNL     1     -33.930   8.293   2.031  1.00 20.00     0.210 HD
ENDBRANCH   4   8
ENDBRANCH   3   4
TORSDOF 3
ENDMDL
MODEL 8
REMARK VINA RESULT:      -4.1      1.312      2.468
REMARK  3 active torsions:
REMARK  status: ('A' for Active; 'I' for Inactive)
REMARK    1  A    between atoms: C5_5  and  C7_7 
REMARK    2  A    between atoms: C6_6  and  C7_7 
REMARK    3  A    between atoms: C7_7  and  O8_8 
ROOT
HETATM    1  C1  UNL     1     -32.145   7.962   3.029  1.00 20.00     0.012 C 
HETATM    2  C2  UNL     1     -32.810   7.496   3.914  1.00 20.00    -0.115 C 
HETATM    3  C5  UNL     1     -33.619   6.928   5.006  1.00 20.00     0.130 C 
ENDROOT
BRANCH   3   4
HETATM    4  C7  UNL     1     -34.417   5.677   4.583  1.00 20.00     0.064 C 
HETATM    5  C4  UNL     1     -35.506   6.080   3.579  1.00 20.00     0.046 C 
BRANCH   4   6
HETATM    6  C6  UNL     1     -33.549   4.528   4.022  1.00 20.00     0.034 C 
HETATM    7  C3  UNL     1     -33.254   4.598   2.530  1.00 20.00     0.008 C 
ENDBRANCH   4   6
BRANCH   4   8
HETATM    8  O8  UNL     1     -35.090   5.151   5.737  1.00 20.00    -0.389 OA
HETATM    9  H20 UNL     1     -35.370   4.258   5.498  1.00 20.00     0.210 HD
ENDBRANCH   4   8
ENDBRANCH   3   4
TORSDOF 3
ENDMDL
MODEL 9
REMARK VINA RESULT:      -4.1      1.797      3.847
REMARK  3 active torsions:
REMARK  status: ('A' for Active; 'I' for Inactive)
REMARK    1  A    between atoms: C5_5  and  C7_7 
REMARK    2  A    between atoms: C6_6  and  C7_7 
REMARK    3  A    between atoms: C7_7  and  O8_8 
ROOT
HETATM    1  C1  UNL     1     -34.826   5.607   4.316  1.00 20.00     0.012 C 
HETATM    2  C2  UNL     1     -33.956   5.942   3.559  1.00 20.00    -0.115 C 
HETATM    3  C5  UNL     1     -32.886   6.344   2.631  1.00 20.00     0.130 C 
ENDROOT
BRANCH   3   4
HETATM    4  C7  UNL     1     -32.575   7.855   2.681  1.00 20.00     0.064 C 
HETATM    5  C4  UNL     1     -31.550   8.129   3.790  1.00 20.00     0.046 C 
BRANCH   4   6
HETATM    6  C6  UNL     1     -32.104   8.452   1.336  1.00 20.00     0.034 C 
HETATM    7  C3  UNL     1     -32.567   9.875   1.054  1.00 20.00     0.008 C 
ENDBRANCH   4   6
BRANCH   4   8
HETATM    8  O8  UNL     1     -33.774   8.558   3.041  1.00 20.00    -0.389 OA
HETATM    9  H20 UNL     1     -33.831   9.311   2.439  1.00 20.00     0.210 HD
ENDBRANCH   4   8
ENDBRANCH   3   4
TORSDOF 3
ENDMDL
