MODEL 1
REMARK VINA RESULT:      -3.7      0.000      0.000
REMARK  1 active torsions:
REMARK  status: ('A' for Active; 'I' for Inactive)
REMARK    1  A    between atoms: C1_1  and  C2_2 
ROOT
HETATM    1  C2  UNL     1     -34.543   5.790   3.933  1.00 20.00     0.294 C 
HETATM    2  F4  UNL     1     -35.855   6.025   3.668  1.00 20.00    -0.230 F 
HETATM    3 CL5  UNL     1     -34.366   4.152   4.589  1.00 20.00    -0.087 Cl
ENDROOT
BRANCH   1   4
HETATM    4  C1  UNL     1     -34.052   6.830   4.916  1.00 20.00     0.275 C 
HETATM    5  F3  UNL     1     -34.343   6.424   6.182  1.00 20.00    -0.251 F 
ENDBRANCH   1   4
TORSDOF 1
ENDMDL
MODEL 2
REMARK VINA RESULT:      -3.7      1.857      2.324
REMARK  1 active torsions:
REMARK  status: ('A' for Active; 'I' for Inactive)
REMARK    1  A    between atoms: C1_1  and  C2_2 
ROOT
HETATM    1  C2  UNL     1     -34.695   5.428   4.156  1.00 20.00     0.294 C 
HETATM    2  F4  UNL     1     -35.908   5.885   3.749  1.00 20.00    -0.230 F 
HETATM    3 CL5  UNL     1     -34.332   6.094   5.760  1.00 20.00    -0.087 Cl
ENDROOT
BRANCH   1   4
HETATM    4  C1  UNL     1     -33.653   5.844   3.142  1.00 20.00     0.275 C 
HETATM    5  F3  UNL     1     -33.099   4.734   2.585  1.00 20.00    -0.251 F 
ENDBRANCH   1   4
TORSDOF 1
ENDMDL
MODEL 3
REMARK VINA RESULT:      -3.7      1.165      1.165
REMARK  1 active torsions:
REMARK  status: ('A' for Active; 'I' for Inactive)
REMARK    1  A    between atoms: C1_1  and  C2_2 
ROOT
HETATM    1  C2  UNL     1     -34.574   6.112   4.007  1.00 20.00     0.294 C 
HETATM    2  F4  UNL     1     -35.840   5.941   3.543  1.00 20.00    -0.230 F 
HETATM    3 CL5  UNL     1     -33.447   5.222   2.964  1.00 20.00    -0.087 Cl
ENDROOT
BRANCH   1   4
HETATM    4  C1  UNL     1     -34.507   5.616   5.434  1.00 20.00     0.275 C 
HETATM    5  F3  UNL     1     -34.297   6.670   6.267  1.00 20.00    -0.251 F 
ENDBRANCH   1   4
TORSDOF 1
ENDMDL
MODEL 4
REMARK VINA RESULT:      -3.7      1.901      2.053
REMARK  1 active torsions:
REMARK  status: ('A' for Active; 'I' for Inactive)
REMARK    1  A    between atoms: C1_1  and  C2_2 
ROOT
HETATM    1  C2  UNL     1     -34.659   5.888   4.125  1.00 20.00     0.294 C 
HETATM    2  F4  UNL     1     -35.917   5.935   3.614  1.00 20.00    -0.230 F 
HETATM    3 CL5  UNL     1     -33.505   5.612   2.806  1.00 20.00    -0.087 Cl
ENDROOT
BRANCH   1   4
HETATM    4  C1  UNL     1     -34.592   4.779   5.152  1.00 20.00     0.275 C 
HETATM    5  F3  UNL     1     -34.127   3.646   4.560  1.00 20.00    -0.251 F 
ENDBRANCH   1   4
TORSDOF 1
ENDMDL
MODEL 5
REMARK VINA RESULT:      -3.6      1.840      1.840
REMARK  1 active torsions:
REMARK  status: ('A' for Active; 'I' for Inactive)
REMARK    1  A    between atoms: C1_1  and  C2_2 
ROOT
HETATM    1  C2  UNL     1     -34.741   5.120   4.347  1.00 20.00     0.294 C 
HETATM    2  F4  UNL     1     -34.382   3.812   4.262  1.00 20.00    -0.230 F 
HETATM    3 CL5  UNL     1     -33.789   6.061   3.183  1.00 20.00    -0.087 Cl
ENDROOT
BRANCH   1   4
HETATM    4  C1  UNL     1     -34.505   5.599   5.762  1.00 20.00     0.275 C 
HETATM    5  F3  UNL     1     -34.311   6.945   5.755  1.00 20.00    -0.251 F 
ENDBRANCH   1   4
TORSDOF 1
ENDMDL
MODEL 6
REMARK VINA RESULT:      -3.6      1.791      2.522
REMARK  1 active torsions:
REMARK  status: ('A' for Active; 'I' for Inactive)
REMARK    1  A    between atoms: C1_1  and  C2_2 
ROOT
HETATM    1  C2  UNL     1     -34.132   5.808   5.182  1.00 20.00     0.294 C 
HETATM    2  F4  UNL     1     -35.089   5.151   5.889  1.00 20.00    -0.230 F 
HETATM    3 CL5  UNL     1     -33.800   7.366   5.962  1.00 20.00    -0.087 Cl
ENDROOT
BRANCH   1   4
HETATM    4  C1  UNL     1     -34.620   6.000   3.763  1.00 20.00     0.275 C 
HETATM    5  F3  UNL     1     -35.977   5.904   3.739  1.00 20.00    -0.251 F 
ENDBRANCH   1   4
TORSDOF 1
ENDMDL
MODEL 7
REMARK VINA RESULT:      -3.6      2.188      2.323
REMARK  1 active torsions:
REMARK  status: ('A' for Active; 'I' for Inactive)
REMARK    1  A    between atoms: C1_1  and  C2_2 
ROOT
HETATM    1  C2  UNL     1     -34.124   6.630   4.301  1.00 20.00     0.294 C 
HETATM    2  F4  UNL     1     -33.037   6.504   3.494  1.00 20.00    -0.230 F 
HETATM    3 CL5  UNL     1     -33.620   7.336   5.848  1.00 20.00    -0.087 Cl
ENDROOT
BRANCH   1   4
HETATM    4  C1  UNL     1     -34.745   5.265   4.497  1.00 20.00     0.275 C 
HETATM    5  F3  UNL     1     -34.835   5.000   5.829  1.00 20.00    -0.251 F 
ENDBRANCH   1   4
TORSDOF 1
ENDMDL
MODEL 8
REMARK VINA RESULT:      -3.6      1.440      1.662
REMARK  1 active torsions:
REMARK  status: ('A' for Active; 'I' for Inactive)
REMARK    1  A    between atoms: C1_1  and  C2_2 
ROOT
HETATM    1  C2  UNL     1     -34.705   5.881   4.934  1.00 20.00     0.294 C 
HETATM    2  F4  UNL     1     -34.553   5.952   6.283  1.00 20.00    -0.230 F 
HETATM    3 CL5  UNL     1     -34.356   4.227   4.397  1.00 20.00    -0.087 Cl
ENDROOT
BRANCH   1   4
HETATM    4  C1  UNL     1     -33.768   6.876   4.286  1.00 20.00     0.275 C 
HETATM    5  F3  UNL     1     -33.057   7.519   5.251  1.00 20.00    -0.251 F 
ENDBRANCH   1   4
TORSDOF 1
ENDMDL
MODEL 9
REMARK VINA RESULT:      -3.6      1.517      2.501
REMARK  1 active torsions:
REMARK  status: ('A' for Active; 'I' for Inactive)
REMARK    1  A    between atoms: C1_1  and  C2_2 
ROOT
HETATM    1  C2  UNL     1     -34.123   6.874   5.263  1.00 20.00     0.294 C 
HETATM    2  F4  UNL     1     -33.210   7.285   6.182  1.00 20.00    -0.230 F 
HETATM    3 CL5  UNL     1     -34.594   5.201   5.619  1.00 20.00    -0.087 Cl
ENDROOT
BRANCH   1   4
HETATM    4  C1  UNL     1     -33.510   6.988   3.884  1.00 20.00     0.275 C 
HETATM    5  F3  UNL     1     -33.765   5.850   3.183  1.00 20.00    -0.251 F 
ENDBRANCH   1   4
TORSDOF 1
ENDMDL
