MODEL 1
REMARK VINA RESULT:      -4.3      0.000      0.000
REMARK  1 active torsions:
REMARK  status: ('A' for Active; 'I' for Inactive)
REMARK    1  A    between atoms: C2_2  and  C4_4 
ROOT
HETATM    1  C3  UNL     1     -35.423  15.640  -5.596  1.00 20.00     0.102 C 
HETATM    2  C4  UNL     1     -34.515  15.914  -4.363  1.00 20.00     0.035 C 
HETATM    3  C5  UNL     1     -34.447  14.521  -6.020  1.00 20.00     0.295 C 
HETATM    4  C6  UNL     1     -34.008  14.422  -4.524  1.00 20.00     0.254 C 
HETATM    5  C7  UNL     1     -33.497  17.032  -4.601  1.00 20.00     0.025 C 
HETATM    6  F8  UNL     1     -33.488  14.895  -6.898  1.00 20.00    -0.201 F 
HETATM    7  F9  UNL     1     -35.022  13.407  -6.526  1.00 20.00    -0.201 F 
HETATM    8  F10 UNL     1     -34.739  13.506  -3.830  1.00 20.00    -0.218 F 
HETATM    9 CL11 UNL     1     -32.277  14.087  -4.230  1.00 20.00    -0.075 Cl
ENDROOT
BRANCH   2  10
HETATM   10  C2  UNL     1     -35.287  16.150  -3.111  1.00 20.00    -0.023 C 
HETATM   11  C1  UNL     1     -34.759  16.652  -1.989  1.00 20.00     0.008 C 
ENDBRANCH   2  10
TORSDOF 1
ENDMDL
MODEL 2
REMARK VINA RESULT:      -4.2      1.884      2.444
REMARK  1 active torsions:
REMARK  status: ('A' for Active; 'I' for Inactive)
REMARK    1  A    between atoms: C2_2  and  C4_4 
ROOT
HETATM    1  C3  UNL     1     -34.480  14.230  -4.145  1.00 20.00     0.102 C 
HETATM    2  C4  UNL     1     -34.699  15.751  -3.900  1.00 20.00     0.035 C 
HETATM    3  C5  UNL     1     -34.740  14.472  -5.648  1.00 20.00     0.295 C 
HETATM    4  C6  UNL     1     -34.306  15.955  -5.420  1.00 20.00     0.254 C 
HETATM    5  C7  UNL     1     -36.134  16.096  -3.493  1.00 20.00     0.025 C 
HETATM    6  F8  UNL     1     -36.018  14.281  -6.051  1.00 20.00    -0.201 F 
HETATM    7  F9  UNL     1     -33.958  13.767  -6.495  1.00 20.00    -0.201 F 
HETATM    8  F10 UNL     1     -32.973  16.143  -5.632  1.00 20.00    -0.218 F 
HETATM    9 CL11 UNL     1     -35.193  17.190  -6.359  1.00 20.00    -0.075 Cl
ENDROOT
BRANCH   2  10
HETATM   10  C2  UNL     1     -33.716  16.335  -2.945  1.00 20.00    -0.023 C 
HETATM   11  C1  UNL     1     -34.056  17.028  -1.852  1.00 20.00     0.008 C 
ENDBRANCH   2  10
TORSDOF 1
ENDMDL
MODEL 3
REMARK VINA RESULT:      -4.1     10.947     12.075
REMARK  1 active torsions:
REMARK  status: ('A' for Active; 'I' for Inactive)
REMARK    1  A    between atoms: C2_2  and  C4_4 
ROOT
HETATM    1  C3  UNL     1     -32.170   5.968   2.940  1.00 20.00     0.102 C 
HETATM    2  C4  UNL     1     -33.205   7.056   3.348  1.00 20.00     0.035 C 
HETATM    3  C5  UNL     1     -33.305   4.922   2.996  1.00 20.00     0.295 C 
HETATM    4  C6  UNL     1     -34.312   6.091   2.756  1.00 20.00     0.254 C 
HETATM    5  C7  UNL     1     -33.237   7.323   4.855  1.00 20.00     0.025 C 
HETATM    6  F8  UNL     1     -33.426   4.265   4.173  1.00 20.00    -0.201 F 
HETATM    7  F9  UNL     1     -33.276   3.979   2.029  1.00 20.00    -0.201 F 
HETATM    8  F10 UNL     1     -34.573   6.286   1.433  1.00 20.00    -0.218 F 
HETATM    9 CL11 UNL     1     -35.874   5.977   3.616  1.00 20.00    -0.075 Cl
ENDROOT
BRANCH   2  10
HETATM   10  C2  UNL     1     -33.048   8.326   2.583  1.00 20.00    -0.023 C 
HETATM   11  C1  UNL     1     -32.014   8.592   1.778  1.00 20.00     0.008 C 
ENDBRANCH   2  10
TORSDOF 1
ENDMDL
MODEL 4
REMARK VINA RESULT:      -4.1      1.482      1.562
REMARK  1 active torsions:
REMARK  status: ('A' for Active; 'I' for Inactive)
REMARK    1  A    between atoms: C2_2  and  C4_4 
ROOT
HETATM    1  C3  UNL     1     -36.445  15.195  -4.161  1.00 20.00     0.102 C 
HETATM    2  C4  UNL     1     -35.220  16.138  -3.978  1.00 20.00     0.035 C 
HETATM    3  C5  UNL     1     -35.706  14.526  -5.341  1.00 20.00     0.295 C 
HETATM    4  C6  UNL     1     -34.368  15.015  -4.701  1.00 20.00     0.254 C 
HETATM    5  C7  UNL     1     -35.377  17.477  -4.703  1.00 20.00     0.025 C 
HETATM    6  F8  UNL     1     -35.999  15.027  -6.563  1.00 20.00    -0.201 F 
HETATM    7  F9  UNL     1     -35.846  13.185  -5.429  1.00 20.00    -0.201 F 
HETATM    8  F10 UNL     1     -33.831  14.091  -3.855  1.00 20.00    -0.218 F 
HETATM    9 CL11 UNL     1     -33.091  15.531  -5.839  1.00 20.00    -0.075 Cl
ENDROOT
BRANCH   2  10
HETATM   10  C2  UNL     1     -34.850  16.342  -2.550  1.00 20.00    -0.023 C 
HETATM   11  C1  UNL     1     -33.766  17.016  -2.147  1.00 20.00     0.008 C 
ENDBRANCH   2  10
TORSDOF 1
ENDMDL
MODEL 5
REMARK VINA RESULT:      -4.1     11.149     12.282
REMARK  1 active torsions:
REMARK  status: ('A' for Active; 'I' for Inactive)
REMARK    1  A    between atoms: C2_2  and  C4_4 
ROOT
HETATM    1  C3  UNL     1     -33.808   6.497   4.963  1.00 20.00     0.102 C 
HETATM    2  C4  UNL     1     -33.454   7.217   3.630  1.00 20.00     0.035 C 
HETATM    3  C5  UNL     1     -34.619   5.466   4.146  1.00 20.00     0.295 C 
HETATM    4  C6  UNL     1     -33.726   5.830   2.917  1.00 20.00     0.254 C 
HETATM    5  C7  UNL     1     -34.399   8.375   3.300  1.00 20.00     0.025 C 
HETATM    6  F8  UNL     1     -35.939   5.738   4.024  1.00 20.00    -0.201 F 
HETATM    7  F9  UNL     1     -34.525   4.186   4.567  1.00 20.00    -0.201 F 
HETATM    8  F10 UNL     1     -32.630   5.028   2.819  1.00 20.00    -0.218 F 
HETATM    9 CL11 UNL     1     -34.542   5.848   1.327  1.00 20.00    -0.075 Cl
ENDROOT
BRANCH   2  10
HETATM   10  C2  UNL     1     -32.030   7.654   3.564  1.00 20.00    -0.023 C 
HETATM   11  C1  UNL     1     -31.533   8.443   2.604  1.00 20.00     0.008 C 
ENDBRANCH   2  10
TORSDOF 1
ENDMDL
MODEL 6
REMARK VINA RESULT:      -4.1      1.827      3.617
REMARK  1 active torsions:
REMARK  status: ('A' for Active; 'I' for Inactive)
REMARK    1  A    between atoms: C2_2  and  C4_4 
ROOT
HETATM    1  C3  UNL     1     -35.195  16.340  -4.950  1.00 20.00     0.102 C 
HETATM    2  C4  UNL     1     -34.795  14.926  -5.461  1.00 20.00     0.035 C 
HETATM    3  C5  UNL     1     -34.038  16.257  -3.929  1.00 20.00     0.295 C 
HETATM    4  C6  UNL     1     -33.352  15.229  -4.884  1.00 20.00     0.254 C 
HETATM    5  C7  UNL     1     -35.593  13.799  -4.802  1.00 20.00     0.025 C 
HETATM    6  F8  UNL     1     -34.382  15.794  -2.705  1.00 20.00    -0.201 F 
HETATM    7  F9  UNL     1     -33.354  17.405  -3.731  1.00 20.00    -0.201 F 
HETATM    8  F10 UNL     1     -32.510  15.829  -5.771  1.00 20.00    -0.218 F 
HETATM    9 CL11 UNL     1     -32.464  13.892  -4.097  1.00 20.00    -0.075 Cl
ENDROOT
BRANCH   2  10
HETATM   10  C2  UNL     1     -34.832  14.811  -6.947  1.00 20.00    -0.023 C 
HETATM   11  C1  UNL     1     -34.371  13.756  -7.627  1.00 20.00     0.008 C 
ENDBRANCH   2  10
TORSDOF 1
ENDMDL
MODEL 7
REMARK VINA RESULT:      -4.1      1.840      2.209
REMARK  1 active torsions:
REMARK  status: ('A' for Active; 'I' for Inactive)
REMARK    1  A    between atoms: C2_2  and  C4_4 
ROOT
HETATM    1  C3  UNL     1     -33.265  15.957  -6.174  1.00 20.00     0.102 C 
HETATM    2  C4  UNL     1     -33.726  15.430  -4.784  1.00 20.00     0.035 C 
HETATM    3  C5  UNL     1     -34.312  15.030  -6.831  1.00 20.00     0.295 C 
HETATM    4  C6  UNL     1     -35.100  15.068  -5.482  1.00 20.00     0.254 C 
HETATM    5  C7  UNL     1     -32.873  14.269  -4.267  1.00 20.00     0.025 C 
HETATM    6  F8  UNL     1     -33.849  13.818  -7.215  1.00 20.00    -0.201 F 
HETATM    7  F9  UNL     1     -34.965  15.550  -7.893  1.00 20.00    -0.201 F 
HETATM    8  F10 UNL     1     -36.023  16.069  -5.450  1.00 20.00    -0.218 F 
HETATM    9 CL11 UNL     1     -35.913  13.551  -5.000  1.00 20.00    -0.075 Cl
ENDROOT
BRANCH   2  10
HETATM   10  C2  UNL     1     -33.841  16.507  -3.761  1.00 20.00    -0.023 C 
HETATM   11  C1  UNL     1     -34.522  16.382  -2.616  1.00 20.00     0.008 C 
ENDBRANCH   2  10
TORSDOF 1
ENDMDL
MODEL 8
REMARK VINA RESULT:      -4.1      1.960      2.793
REMARK  1 active torsions:
REMARK  status: ('A' for Active; 'I' for Inactive)
REMARK    1  A    between atoms: C2_2  and  C4_4 
ROOT
HETATM    1  C3  UNL     1     -34.155  15.062  -6.250  1.00 20.00     0.102 C 
HETATM    2  C4  UNL     1     -35.441  15.300  -5.408  1.00 20.00     0.035 C 
HETATM    3  C5  UNL     1     -33.319  15.506  -5.030  1.00 20.00     0.295 C 
HETATM    4  C6  UNL     1     -34.528  15.098  -4.130  1.00 20.00     0.254 C 
HETATM    5  C7  UNL     1     -36.054  16.686  -5.622  1.00 20.00     0.025 C 
HETATM    6  F8  UNL     1     -32.978  16.816  -5.011  1.00 20.00    -0.201 F 
HETATM    7  F9  UNL     1     -32.181  14.808  -4.818  1.00 20.00    -0.201 F 
HETATM    8  F10 UNL     1     -34.443  13.806  -3.704  1.00 20.00    -0.218 F 
HETATM    9 CL11 UNL     1     -34.836  16.131  -2.705  1.00 20.00    -0.075 Cl
ENDROOT
BRANCH   2  10
HETATM   10  C2  UNL     1     -36.463  14.230  -5.588  1.00 20.00    -0.023 C 
HETATM   11  C1  UNL     1     -37.734  14.333  -5.182  1.00 20.00     0.008 C 
ENDBRANCH   2  10
TORSDOF 1
ENDMDL
MODEL 9
REMARK VINA RESULT:      -4.1      2.199      3.626
REMARK  1 active torsions:
REMARK  status: ('A' for Active; 'I' for Inactive)
REMARK    1  A    between atoms: C2_2  and  C4_4 
ROOT
HETATM    1  C3  UNL     1     -35.528  13.669  -4.760  1.00 20.00     0.102 C 
HETATM    2  C4  UNL     1     -35.503  14.239  -6.208  1.00 20.00     0.035 C 
HETATM    3  C5  UNL     1     -34.354  14.609  -4.410  1.00 20.00     0.295 C 
HETATM    4  C6  UNL     1     -34.816  15.524  -5.588  1.00 20.00     0.254 C 
HETATM    5  C7  UNL     1     -34.671  13.394  -7.175  1.00 20.00     0.025 C 
HETATM    6  F8  UNL     1     -33.122  14.062  -4.529  1.00 20.00    -0.201 F 
HETATM    7  F9  UNL     1     -34.409  15.176  -3.185  1.00 20.00    -0.201 F 
HETATM    8  F10 UNL     1     -35.692  16.486  -5.184  1.00 20.00    -0.218 F 
HETATM    9 CL11 UNL     1     -33.519  16.318  -6.526  1.00 20.00    -0.075 Cl
ENDROOT
BRANCH   2  10
HETATM   10  C2  UNL     1     -36.865  14.496  -6.757  1.00 20.00    -0.023 C 
HETATM   11  C1  UNL     1     -37.098  15.121  -7.917  1.00 20.00     0.008 C 
ENDBRANCH   2  10
TORSDOF 1
ENDMDL
