MODEL 1
REMARK VINA RESULT:      -4.5      0.000      0.000
REMARK  0 active torsions:
REMARK  status: ('A' for Active; 'I' for Inactive)
ROOT
HETATM    1  C1  UNL     1     -33.490   6.382   3.333  1.00 20.00     0.219 C 
HETATM    2  C2  UNL     1     -33.958   6.171   4.570  1.00 20.00     0.153 C 
HETATM    3  F3  UNL     1     -33.647   5.419   2.395  1.00 20.00    -0.190 F 
HETATM    4 CL4  UNL     1     -32.686   7.834   2.852  1.00 20.00    -0.049 Cl
HETATM    5 CL5  UNL     1     -33.772   7.386   5.791  1.00 20.00    -0.067 Cl
HETATM    6 CL6  UNL     1     -34.762   4.717   5.048  1.00 20.00    -0.067 Cl
ENDROOT
TORSDOF 0
ENDMDL
MODEL 2
REMARK VINA RESULT:      -4.4      1.984      3.462
REMARK  0 active torsions:
REMARK  status: ('A' for Active; 'I' for Inactive)
ROOT
HETATM    1  C1  UNL     1     -33.993   6.550   4.860  1.00 20.00     0.219 C 
HETATM    2  C2  UNL     1     -33.420   6.525   3.650  1.00 20.00     0.153 C 
HETATM    3  F3  UNL     1     -34.046   7.719   5.541  1.00 20.00    -0.190 F 
HETATM    4 CL4  UNL     1     -34.681   5.159   5.620  1.00 20.00    -0.049 Cl
HETATM    5 CL5  UNL     1     -33.339   5.043   2.757  1.00 20.00    -0.067 Cl
HETATM    6 CL6  UNL     1     -32.733   7.919   2.893  1.00 20.00    -0.067 Cl
ENDROOT
TORSDOF 0
ENDMDL
MODEL 3
REMARK VINA RESULT:      -4.4      0.582      2.564
REMARK  0 active torsions:
REMARK  status: ('A' for Active; 'I' for Inactive)
ROOT
HETATM    1  C1  UNL     1     -33.913   5.680   3.618  1.00 20.00     0.219 C 
HETATM    2  C2  UNL     1     -33.444   6.871   4.014  1.00 20.00     0.153 C 
HETATM    3  F3  UNL     1     -33.701   5.279   2.343  1.00 20.00    -0.190 F 
HETATM    4 CL4  UNL     1     -34.785   4.606   4.652  1.00 20.00    -0.049 Cl
HETATM    5 CL5  UNL     1     -33.700   7.409   5.641  1.00 20.00    -0.067 Cl
HETATM    6 CL6  UNL     1     -32.570   7.943   2.977  1.00 20.00    -0.067 Cl
ENDROOT
TORSDOF 0
ENDMDL
MODEL 4
REMARK VINA RESULT:      -4.2      1.945      2.294
REMARK  0 active torsions:
REMARK  status: ('A' for Active; 'I' for Inactive)
ROOT
HETATM    1  C1  UNL     1     -33.552   6.956   4.083  1.00 20.00     0.219 C 
HETATM    2  C2  UNL     1     -33.805   5.647   3.954  1.00 20.00     0.153 C 
HETATM    3  F3  UNL     1     -34.055   7.622   5.148  1.00 20.00    -0.190 F 
HETATM    4 CL4  UNL     1     -32.606   7.861   2.956  1.00 20.00    -0.049 Cl
HETATM    5 CL5  UNL     1     -33.174   4.769   2.600  1.00 20.00    -0.067 Cl
HETATM    6 CL6  UNL     1     -34.751   4.744   5.084  1.00 20.00    -0.067 Cl
ENDROOT
TORSDOF 0
ENDMDL
MODEL 5
REMARK VINA RESULT:      -4.1      1.559      2.302
REMARK  0 active torsions:
REMARK  status: ('A' for Active; 'I' for Inactive)
ROOT
HETATM    1  C1  UNL     1     -33.578   6.548   3.678  1.00 20.00     0.219 C 
HETATM    2  C2  UNL     1     -33.988   6.323   4.933  1.00 20.00     0.153 C 
HETATM    3  F3  UNL     1     -33.092   7.767   3.350  1.00 20.00    -0.190 F 
HETATM    4 CL4  UNL     1     -33.632   5.355   2.429  1.00 20.00    -0.049 Cl
HETATM    5 CL5  UNL     1     -34.615   4.771   5.379  1.00 20.00    -0.067 Cl
HETATM    6 CL6  UNL     1     -33.933   7.519   6.180  1.00 20.00    -0.067 Cl
ENDROOT
TORSDOF 0
ENDMDL
MODEL 6
REMARK VINA RESULT:      -4.1      1.814      2.679
REMARK  0 active torsions:
REMARK  status: ('A' for Active; 'I' for Inactive)
ROOT
HETATM    1  C1  UNL     1     -34.112   6.590   4.751  1.00 20.00     0.219 C 
HETATM    2  C2  UNL     1     -33.484   6.690   3.572  1.00 20.00     0.153 C 
HETATM    3  F3  UNL     1     -35.158   5.740   4.871  1.00 20.00    -0.190 F 
HETATM    4 CL4  UNL     1     -33.661   7.495   6.152  1.00 20.00    -0.049 Cl
HETATM    5 CL5  UNL     1     -32.142   7.770   3.390  1.00 20.00    -0.067 Cl
HETATM    6 CL6  UNL     1     -33.938   5.783   2.172  1.00 20.00    -0.067 Cl
ENDROOT
TORSDOF 0
ENDMDL
MODEL 7
REMARK VINA RESULT:      -4.0      1.698      2.585
REMARK  0 active torsions:
REMARK  status: ('A' for Active; 'I' for Inactive)
ROOT
HETATM    1  C1  UNL     1     -33.538   6.940   4.453  1.00 20.00     0.219 C 
HETATM    2  C2  UNL     1     -33.862   5.729   3.983  1.00 20.00     0.153 C 
HETATM    3  F3  UNL     1     -32.909   7.818   3.638  1.00 20.00    -0.190 F 
HETATM    4 CL4  UNL     1     -33.878   7.459   6.066  1.00 20.00    -0.049 Cl
HETATM    5 CL5  UNL     1     -34.667   4.585   5.004  1.00 20.00    -0.067 Cl
HETATM    6 CL6  UNL     1     -33.520   5.212   2.369  1.00 20.00    -0.067 Cl
ENDROOT
TORSDOF 0
ENDMDL
MODEL 8
REMARK VINA RESULT:      -3.9      1.737      2.392
REMARK  0 active torsions:
REMARK  status: ('A' for Active; 'I' for Inactive)
ROOT
HETATM    1  C1  UNL     1     -33.936   5.565   4.018  1.00 20.00     0.219 C 
HETATM    2  C2  UNL     1     -33.495   6.741   4.481  1.00 20.00     0.153 C 
HETATM    3  F3  UNL     1     -34.803   4.844   4.766  1.00 20.00    -0.190 F 
HETATM    4 CL4  UNL     1     -33.459   4.899   2.497  1.00 20.00    -0.049 Cl
HETATM    5 CL5  UNL     1     -32.385   7.685   3.544  1.00 20.00    -0.067 Cl
HETATM    6 CL6  UNL     1     -33.975   7.405   6.004  1.00 20.00    -0.067 Cl
ENDROOT
TORSDOF 0
ENDMDL
MODEL 9
REMARK VINA RESULT:      -3.8      2.257      2.711
REMARK  0 active torsions:
REMARK  status: ('A' for Active; 'I' for Inactive)
ROOT
HETATM    1  C1  UNL     1     -32.214   7.911   3.442  1.00 20.00     0.219 C 
HETATM    2  C2  UNL     1     -33.216   7.117   3.840  1.00 20.00     0.153 C 
HETATM    3  F3  UNL     1     -31.516   8.607   4.369  1.00 20.00    -0.190 F 
HETATM    4 CL4  UNL     1     -31.749   8.106   1.789  1.00 20.00    -0.049 Cl
HETATM    5 CL5  UNL     1     -34.126   6.214   2.675  1.00 20.00    -0.067 Cl
HETATM    6 CL6  UNL     1     -33.678   6.925   5.495  1.00 20.00    -0.067 Cl
ENDROOT
TORSDOF 0
ENDMDL
