MODEL 1
REMARK VINA RESULT:      -5.1      0.000      0.000
REMARK  3 active torsions:
REMARK  status: ('A' for Active; 'I' for Inactive)
REMARK    1  A    between atoms: C2_2  and  C3_3 
REMARK    2  A    between atoms: C2_2  and  C4_4 
REMARK    3  A    between atoms: C3_3  and  N5_5 
ROOT
HETATM    1  C1  UNL     1     -32.108   8.561   1.963  1.00 20.00     0.332 C 
HETATM    2  N5  UNL     1     -32.017   7.939   2.955  1.00 20.00    -0.247 NA
HETATM    3  O6  UNL     1     -32.198   9.187   0.971  1.00 20.00    -0.260 OA
ENDROOT
BRANCH   2   4
HETATM    4  C3  UNL     1     -32.901   6.774   3.020  1.00 20.00     0.162 C 
BRANCH   4   5
HETATM    5  C2  UNL     1     -33.796   6.904   4.244  1.00 20.00     0.139 C 
BRANCH   5   6
HETATM    6  C4  UNL     1     -34.662   5.680   4.442  1.00 20.00     0.389 C 
HETATM    7  F7  UNL     1     -34.892   5.446   5.752  1.00 20.00    -0.171 F 
HETATM    8  F8  UNL     1     -35.861   5.844   3.839  1.00 20.00    -0.171 F 
HETATM    9  F9  UNL     1     -34.085   4.579   3.915  1.00 20.00    -0.171 F 
ENDBRANCH   5   6
ENDBRANCH   4   5
ENDBRANCH   2   4
TORSDOF 3
ENDMDL
MODEL 2
REMARK VINA RESULT:      -5.1      0.073      1.261
REMARK  3 active torsions:
REMARK  status: ('A' for Active; 'I' for Inactive)
REMARK    1  A    between atoms: C2_2  and  C3_3 
REMARK    2  A    between atoms: C2_2  and  C4_4 
REMARK    3  A    between atoms: C3_3  and  N5_5 
ROOT
HETATM    1  C1  UNL     1     -32.099   8.524   1.915  1.00 20.00     0.332 C 
HETATM    2  N5  UNL     1     -32.047   7.932   2.929  1.00 20.00    -0.247 NA
HETATM    3  O6  UNL     1     -32.149   9.120   0.902  1.00 20.00    -0.260 OA
ENDROOT
BRANCH   2   4
HETATM    4  C3  UNL     1     -32.923   6.761   2.988  1.00 20.00     0.162 C 
BRANCH   4   5
HETATM    5  C2  UNL     1     -33.812   6.873   4.219  1.00 20.00     0.139 C 
BRANCH   5   6
HETATM    6  C4  UNL     1     -34.706   5.664   4.382  1.00 20.00     0.389 C 
HETATM    7  F7  UNL     1     -35.894   5.843   3.767  1.00 20.00    -0.171 F 
HETATM    8  F8  UNL     1     -34.126   4.568   3.843  1.00 20.00    -0.171 F 
HETATM    9  F9  UNL     1     -34.944   5.402   5.685  1.00 20.00    -0.171 F 
ENDBRANCH   5   6
ENDBRANCH   4   5
ENDBRANCH   2   4
TORSDOF 3
ENDMDL
MODEL 3
REMARK VINA RESULT:      -5.1      0.027      1.261
REMARK  3 active torsions:
REMARK  status: ('A' for Active; 'I' for Inactive)
REMARK    1  A    between atoms: C2_2  and  C3_3 
REMARK    2  A    between atoms: C2_2  and  C4_4 
REMARK    3  A    between atoms: C3_3  and  N5_5 
ROOT
HETATM    1  C1  UNL     1     -32.115   8.553   1.945  1.00 20.00     0.332 C 
HETATM    2  N5  UNL     1     -32.022   7.930   2.936  1.00 20.00    -0.247 NA
HETATM    3  O6  UNL     1     -32.206   9.181   0.954  1.00 20.00    -0.260 OA
ENDROOT
BRANCH   2   4
HETATM    4  C3  UNL     1     -32.905   6.764   3.000  1.00 20.00     0.162 C 
BRANCH   4   5
HETATM    5  C2  UNL     1     -33.791   6.885   4.232  1.00 20.00     0.139 C 
BRANCH   5   6
HETATM    6  C4  UNL     1     -34.677   5.673   4.411  1.00 20.00     0.389 C 
HETATM    7  F7  UNL     1     -34.109   4.565   3.890  1.00 20.00    -0.171 F 
HETATM    8  F8  UNL     1     -34.903   5.440   5.723  1.00 20.00    -0.171 F 
HETATM    9  F9  UNL     1     -35.876   5.848   3.815  1.00 20.00    -0.171 F 
ENDBRANCH   5   6
ENDBRANCH   4   5
ENDBRANCH   2   4
TORSDOF 3
ENDMDL
MODEL 4
REMARK VINA RESULT:      -5.1      3.437      4.188
REMARK  3 active torsions:
REMARK  status: ('A' for Active; 'I' for Inactive)
REMARK    1  A    between atoms: C2_2  and  C3_3 
REMARK    2  A    between atoms: C2_2  and  C4_4 
REMARK    3  A    between atoms: C3_3  and  N5_5 
ROOT
HETATM    1  C1  UNL     1     -34.552   4.838   5.106  1.00 20.00     0.332 C 
HETATM    2  N5  UNL     1     -34.628   5.784   5.798  1.00 20.00    -0.247 NA
HETATM    3  O6  UNL     1     -34.477   3.888   4.416  1.00 20.00    -0.260 OA
ENDROOT
BRANCH   2   4
HETATM    4  C3  UNL     1     -33.770   6.898   5.393  1.00 20.00     0.162 C 
BRANCH   4   5
HETATM    5  C2  UNL     1     -34.047   7.228   3.933  1.00 20.00     0.139 C 
BRANCH   5   6
HETATM    6  C4  UNL     1     -32.778   7.264   3.112  1.00 20.00     0.389 C 
HETATM    7  F7  UNL     1     -31.752   7.791   3.812  1.00 20.00    -0.171 F 
HETATM    8  F8  UNL     1     -32.419   6.016   2.736  1.00 20.00    -0.171 F 
HETATM    9  F9  UNL     1     -32.940   7.998   1.990  1.00 20.00    -0.171 F 
ENDBRANCH   5   6
ENDBRANCH   4   5
ENDBRANCH   2   4
TORSDOF 3
ENDMDL
MODEL 5
REMARK VINA RESULT:      -4.8      3.842      4.587
REMARK  3 active torsions:
REMARK  status: ('A' for Active; 'I' for Inactive)
REMARK    1  A    between atoms: C2_2  and  C3_3 
REMARK    2  A    between atoms: C2_2  and  C4_4 
REMARK    3  A    between atoms: C3_3  and  N5_5 
ROOT
HETATM    1  C1  UNL     1     -34.563   5.043   4.187  1.00 20.00     0.332 C 
HETATM    2  N5  UNL     1     -34.755   6.160   3.878  1.00 20.00    -0.247 NA
HETATM    3  O6  UNL     1     -34.375   3.924   4.498  1.00 20.00    -0.260 OA
ENDROOT
BRANCH   2   4
HETATM    4  C3  UNL     1     -33.578   7.024   3.976  1.00 20.00     0.162 C 
BRANCH   4   5
HETATM    5  C2  UNL     1     -32.808   6.957   2.665  1.00 20.00     0.139 C 
BRANCH   5   6
HETATM    6  C4  UNL     1     -32.136   8.271   2.336  1.00 20.00     0.389 C 
HETATM    7  F7  UNL     1     -33.042   9.224   2.029  1.00 20.00    -0.171 F 
HETATM    8  F8  UNL     1     -31.417   8.714   3.391  1.00 20.00    -0.171 F 
HETATM    9  F9  UNL     1     -31.292   8.143   1.289  1.00 20.00    -0.171 F 
ENDBRANCH   5   6
ENDBRANCH   4   5
ENDBRANCH   2   4
TORSDOF 3
ENDMDL
MODEL 6
REMARK VINA RESULT:      -4.8      3.189      3.666
REMARK  3 active torsions:
REMARK  status: ('A' for Active; 'I' for Inactive)
REMARK    1  A    between atoms: C2_2  and  C3_3 
REMARK    2  A    between atoms: C2_2  and  C4_4 
REMARK    3  A    between atoms: C3_3  and  N5_5 
ROOT
HETATM    1  C1  UNL     1     -33.984   6.783   5.860  1.00 20.00     0.332 C 
HETATM    2  N5  UNL     1     -34.707   5.857   5.850  1.00 20.00    -0.247 NA
HETATM    3  O6  UNL     1     -33.262   7.711   5.874  1.00 20.00    -0.260 OA
ENDROOT
BRANCH   2   4
HETATM    4  C3  UNL     1     -35.097   5.411   4.512  1.00 20.00     0.162 C 
BRANCH   4   5
HETATM    5  C2  UNL     1     -33.977   4.559   3.931  1.00 20.00     0.139 C 
BRANCH   5   6
HETATM    6  C4  UNL     1     -33.348   5.204   2.716  1.00 20.00     0.389 C 
HETATM    7  F7  UNL     1     -32.805   4.282   1.893  1.00 20.00    -0.171 F 
HETATM    8  F8  UNL     1     -34.275   5.889   2.009  1.00 20.00    -0.171 F 
HETATM    9  F9  UNL     1     -32.378   6.074   3.069  1.00 20.00    -0.171 F 
ENDBRANCH   5   6
ENDBRANCH   4   5
ENDBRANCH   2   4
TORSDOF 3
ENDMDL
MODEL 7
REMARK VINA RESULT:      -4.7      4.080      5.022
REMARK  3 active torsions:
REMARK  status: ('A' for Active; 'I' for Inactive)
REMARK    1  A    between atoms: C2_2  and  C3_3 
REMARK    2  A    between atoms: C2_2  and  C4_4 
REMARK    3  A    between atoms: C3_3  and  N5_5 
ROOT
HETATM    1  C1  UNL     1     -33.228   7.265   3.807  1.00 20.00     0.332 C 
HETATM    2  N5  UNL     1     -32.664   7.267   2.776  1.00 20.00    -0.247 NA
HETATM    3  O6  UNL     1     -33.796   7.259   4.837  1.00 20.00    -0.260 OA
ENDROOT
BRANCH   2   4
HETATM    4  C3  UNL     1     -31.886   8.480   2.518  1.00 20.00     0.162 C 
BRANCH   4   5
HETATM    5  C2  UNL     1     -31.885   8.754   1.020  1.00 20.00     0.139 C 
BRANCH   5   6
HETATM    6  C4  UNL     1     -32.750   9.940   0.662  1.00 20.00     0.389 C 
HETATM    7  F7  UNL     1     -33.692  10.166   1.603  1.00 20.00    -0.171 F 
HETATM    8  F8  UNL     1     -32.001  11.060   0.556  1.00 20.00    -0.171 F 
HETATM    9  F9  UNL     1     -33.376   9.753  -0.520  1.00 20.00    -0.171 F 
ENDBRANCH   5   6
ENDBRANCH   4   5
ENDBRANCH   2   4
TORSDOF 3
ENDMDL
MODEL 8
REMARK VINA RESULT:      -4.7      3.874      4.627
REMARK  3 active torsions:
REMARK  status: ('A' for Active; 'I' for Inactive)
REMARK    1  A    between atoms: C2_2  and  C3_3 
REMARK    2  A    between atoms: C2_2  and  C4_4 
REMARK    3  A    between atoms: C3_3  and  N5_5 
ROOT
HETATM    1  C1  UNL     1     -33.718   7.203   4.881  1.00 20.00     0.332 C 
HETATM    2  N5  UNL     1     -33.917   7.181   3.724  1.00 20.00    -0.247 NA
HETATM    3  O6  UNL     1     -33.522   7.227   6.041  1.00 20.00    -0.260 OA
ENDROOT
BRANCH   2   4
HETATM    4  C3  UNL     1     -32.725   6.928   2.912  1.00 20.00     0.162 C 
BRANCH   4   5
HETATM    5  C2  UNL     1     -31.921   8.216   2.803  1.00 20.00     0.139 C 
BRANCH   5   6
HETATM    6  C4  UNL     1     -32.063   8.857   1.441  1.00 20.00     0.389 C 
HETATM    7  F7  UNL     1     -33.187   8.446   0.817  1.00 20.00    -0.171 F 
HETATM    8  F8  UNL     1     -32.126  10.203   1.554  1.00 20.00    -0.171 F 
HETATM    9  F9  UNL     1     -31.012   8.561   0.647  1.00 20.00    -0.171 F 
ENDBRANCH   5   6
ENDBRANCH   4   5
ENDBRANCH   2   4
TORSDOF 3
ENDMDL
MODEL 9
REMARK VINA RESULT:      -4.6      1.139      1.525
REMARK  3 active torsions:
REMARK  status: ('A' for Active; 'I' for Inactive)
REMARK    1  A    between atoms: C2_2  and  C3_3 
REMARK    2  A    between atoms: C2_2  and  C4_4 
REMARK    3  A    between atoms: C3_3  and  N5_5 
ROOT
HETATM    1  C1  UNL     1     -32.114   7.908   2.977  1.00 20.00     0.332 C 
HETATM    2  N5  UNL     1     -32.343   7.724   4.114  1.00 20.00    -0.247 NA
HETATM    3  O6  UNL     1     -31.880   8.094   1.839  1.00 20.00    -0.260 OA
ENDROOT
BRANCH   2   4
HETATM    4  C3  UNL     1     -33.768   7.639   4.436  1.00 20.00     0.162 C 
BRANCH   4   5
HETATM    5  C2  UNL     1     -34.041   6.303   5.112  1.00 20.00     0.139 C 
BRANCH   5   6
HETATM    6  C4  UNL     1     -34.699   5.318   4.171  1.00 20.00     0.389 C 
HETATM    7  F7  UNL     1     -35.932   5.732   3.808  1.00 20.00    -0.171 F 
HETATM    8  F8  UNL     1     -33.966   5.175   3.045  1.00 20.00    -0.171 F 
HETATM    9  F9  UNL     1     -34.818   4.099   4.741  1.00 20.00    -0.171 F 
ENDBRANCH   5   6
ENDBRANCH   4   5
ENDBRANCH   2   4
TORSDOF 3
ENDMDL
