MODEL 1
REMARK VINA RESULT:      -7.0      0.000      0.000
REMARK  0 active torsions:
REMARK  status: ('A' for Active; 'I' for Inactive)
ROOT
HETATM    1  C1  UNL     1     -34.337   6.022   5.533  1.00 20.00     0.059 C 
HETATM    2  C2  UNL     1     -33.517   7.055   5.286  1.00 20.00     0.059 C 
HETATM    3  C3  UNL     1     -34.810   5.414   4.253  1.00 20.00     0.332 C 
HETATM    4  C4  UNL     1     -33.350   7.250   3.814  1.00 20.00     0.332 C 
HETATM    5  C5  UNL     1     -33.724   5.874   3.302  1.00 20.00     0.379 C 
HETATM    6  F6  UNL     1     -34.917   4.070   4.267  1.00 20.00    -0.195 F 
HETATM    7  F7  UNL     1     -36.012   5.924   3.889  1.00 20.00    -0.195 F 
HETATM    8  F8  UNL     1     -34.213   8.184   3.349  1.00 20.00    -0.195 F 
HETATM    9  F9  UNL     1     -32.108   7.601   3.423  1.00 20.00    -0.195 F 
HETATM   10  F10 UNL     1     -34.106   5.870   2.016  1.00 20.00    -0.192 F 
HETATM   11  F11 UNL     1     -32.651   5.047   3.413  1.00 20.00    -0.192 F 
ENDROOT
TORSDOF 0
ENDMDL
MODEL 2
REMARK VINA RESULT:      -6.5      1.145      2.978
REMARK  0 active torsions:
REMARK  status: ('A' for Active; 'I' for Inactive)
ROOT
HETATM    1  C1  UNL     1     -33.416   7.177   3.786  1.00 20.00     0.059 C 
HETATM    2  C2  UNL     1     -33.722   7.187   5.092  1.00 20.00     0.059 C 
HETATM    3  C3  UNL     1     -33.769   5.859   3.177  1.00 20.00     0.332 C 
HETATM    4  C4  UNL     1     -34.314   5.877   5.500  1.00 20.00     0.332 C 
HETATM    5  C5  UNL     1     -34.804   5.359   4.164  1.00 20.00     0.379 C 
HETATM    6  F6  UNL     1     -34.270   5.925   1.927  1.00 20.00    -0.195 F 
HETATM    7  F7  UNL     1     -32.695   5.034   3.151  1.00 20.00    -0.195 F 
HETATM    8  F8  UNL     1     -33.366   5.056   6.013  1.00 20.00    -0.195 F 
HETATM    9  F9  UNL     1     -35.318   5.960   6.396  1.00 20.00    -0.195 F 
HETATM   10  F10 UNL     1     -34.967   4.028   4.135  1.00 20.00    -0.192 F 
HETATM   11  F11 UNL     1     -36.007   5.924   3.877  1.00 20.00    -0.192 F 
ENDROOT
TORSDOF 0
ENDMDL
MODEL 3
REMARK VINA RESULT:      -6.4      1.201      3.017
REMARK  0 active torsions:
REMARK  status: ('A' for Active; 'I' for Inactive)
ROOT
HETATM    1  C1  UNL     1     -33.165   4.823   3.136  1.00 20.00     0.059 C 
HETATM    2  C2  UNL     1     -34.049   4.434   4.068  1.00 20.00     0.059 C 
HETATM    3  C3  UNL     1     -33.266   6.295   2.904  1.00 20.00     0.332 C 
HETATM    4  C4  UNL     1     -34.838   5.604   4.561  1.00 20.00     0.332 C 
HETATM    5  C5  UNL     1     -33.907   6.744   4.200  1.00 20.00     0.379 C 
HETATM    6  F6  UNL     1     -32.089   6.920   2.692  1.00 20.00    -0.195 F 
HETATM    7  F7  UNL     1     -34.075   6.565   1.851  1.00 20.00    -0.195 F 
HETATM    8  F8  UNL     1     -36.010   5.713   3.892  1.00 20.00    -0.195 F 
HETATM    9  F9  UNL     1     -35.113   5.589   5.881  1.00 20.00    -0.195 F 
HETATM   10  F10 UNL     1     -34.529   7.929   4.104  1.00 20.00    -0.192 F 
HETATM   11  F11 UNL     1     -32.949   6.861   5.157  1.00 20.00    -0.192 F 
ENDROOT
TORSDOF 0
ENDMDL
MODEL 4
REMARK VINA RESULT:      -6.2      0.698      3.068
REMARK  0 active torsions:
REMARK  status: ('A' for Active; 'I' for Inactive)
ROOT
HETATM    1  C1  UNL     1     -33.987   6.916   5.469  1.00 20.00     0.059 C 
HETATM    2  C2  UNL     1     -34.346   5.653   5.746  1.00 20.00     0.059 C 
HETATM    3  C3  UNL     1     -33.729   7.075   4.006  1.00 20.00     0.332 C 
HETATM    4  C4  UNL     1     -34.368   4.830   4.500  1.00 20.00     0.332 C 
HETATM    5  C5  UNL     1     -34.522   5.911   3.449  1.00 20.00     0.379 C 
HETATM    6  F6  UNL     1     -34.138   8.247   3.479  1.00 20.00    -0.195 F 
HETATM    7  F7  UNL     1     -32.410   6.932   3.728  1.00 20.00    -0.195 F 
HETATM    8  F8  UNL     1     -33.199   4.167   4.337  1.00 20.00    -0.195 F 
HETATM    9  F9  UNL     1     -35.369   3.928   4.431  1.00 20.00    -0.195 F 
HETATM   10  F10 UNL     1     -34.120   5.527   2.228  1.00 20.00    -0.192 F 
HETATM   11  F11 UNL     1     -35.831   6.263   3.357  1.00 20.00    -0.192 F 
ENDROOT
TORSDOF 0
ENDMDL
MODEL 5
REMARK VINA RESULT:      -6.0      1.416      2.632
REMARK  0 active torsions:
REMARK  status: ('A' for Active; 'I' for Inactive)
ROOT
HETATM    1  C1  UNL     1     -34.105   4.267   4.829  1.00 20.00     0.059 C 
HETATM    2  C2  UNL     1     -33.756   4.282   3.533  1.00 20.00     0.059 C 
HETATM    3  C3  UNL     1     -34.378   5.654   5.311  1.00 20.00     0.332 C 
HETATM    4  C4  UNL     1     -33.760   5.680   3.007  1.00 20.00     0.332 C 
HETATM    5  C5  UNL     1     -34.680   6.355   4.003  1.00 20.00     0.379 C 
HETATM    6  F6  UNL     1     -35.405   5.764   6.179  1.00 20.00    -0.195 F 
HETATM    7  F7  UNL     1     -33.280   6.189   5.898  1.00 20.00    -0.195 F 
HETATM    8  F8  UNL     1     -32.519   6.219   3.059  1.00 20.00    -0.195 F 
HETATM    9  F9  UNL     1     -34.216   5.812   1.745  1.00 20.00    -0.195 F 
HETATM   10  F10 UNL     1     -34.517   7.686   4.061  1.00 20.00    -0.192 F 
HETATM   11  F11 UNL     1     -35.972   6.116   3.654  1.00 20.00    -0.192 F 
ENDROOT
TORSDOF 0
ENDMDL
MODEL 6
REMARK VINA RESULT:      -5.7      1.282      2.501
REMARK  0 active torsions:
REMARK  status: ('A' for Active; 'I' for Inactive)
ROOT
HETATM    1  C1  UNL     1     -33.271   4.885   3.002  1.00 20.00     0.059 C 
HETATM    2  C2  UNL     1     -33.077   6.208   2.880  1.00 20.00     0.059 C 
HETATM    3  C3  UNL     1     -34.064   4.586   4.232  1.00 20.00     0.332 C 
HETATM    4  C4  UNL     1     -33.720   6.937   4.015  1.00 20.00     0.332 C 
HETATM    5  C5  UNL     1     -34.749   5.918   4.460  1.00 20.00     0.379 C 
HETATM    6  F6  UNL     1     -34.960   3.586   4.103  1.00 20.00    -0.195 F 
HETATM    7  F7  UNL     1     -33.250   4.283   5.272  1.00 20.00    -0.195 F 
HETATM    8  F8  UNL     1     -32.826   7.178   5.003  1.00 20.00    -0.195 F 
HETATM    9  F9  UNL     1     -34.298   8.109   3.683  1.00 20.00    -0.195 F 
HETATM   10  F10 UNL     1     -35.161   6.095   5.724  1.00 20.00    -0.192 F 
HETATM   11  F11 UNL     1     -35.842   6.003   3.657  1.00 20.00    -0.192 F 
ENDROOT
TORSDOF 0
ENDMDL
MODEL 7
REMARK VINA RESULT:      -5.6      1.289      2.575
REMARK  0 active torsions:
REMARK  status: ('A' for Active; 'I' for Inactive)
ROOT
HETATM    1  C1  UNL     1     -32.651   7.407   3.956  1.00 20.00     0.059 C 
HETATM    2  C2  UNL     1     -32.440   6.526   2.967  1.00 20.00     0.059 C 
HETATM    3  C3  UNL     1     -34.011   7.217   4.543  1.00 20.00     0.332 C 
HETATM    4  C4  UNL     1     -33.636   5.649   2.784  1.00 20.00     0.332 C 
HETATM    5  C5  UNL     1     -34.296   5.785   4.141  1.00 20.00     0.379 C 
HETATM    6  F6  UNL     1     -34.082   7.377   5.880  1.00 20.00    -0.195 F 
HETATM    7  F7  UNL     1     -34.907   8.061   3.975  1.00 20.00    -0.195 F 
HETATM    8  F8  UNL     1     -34.443   6.129   1.808  1.00 20.00    -0.195 F 
HETATM    9  F9  UNL     1     -33.359   4.361   2.496  1.00 20.00    -0.195 F 
HETATM   10  F10 UNL     1     -35.604   5.485   4.129  1.00 20.00    -0.192 F 
HETATM   11  F11 UNL     1     -33.692   4.943   5.020  1.00 20.00    -0.192 F 
ENDROOT
TORSDOF 0
ENDMDL
MODEL 8
REMARK VINA RESULT:      -5.4      1.374      2.184
REMARK  0 active torsions:
REMARK  status: ('A' for Active; 'I' for Inactive)
ROOT
HETATM    1  C1  UNL     1     -33.732   6.887   5.313  1.00 20.00     0.059 C 
HETATM    2  C2  UNL     1     -34.033   7.197   4.042  1.00 20.00     0.059 C 
HETATM    3  C3  UNL     1     -34.202   5.507   5.638  1.00 20.00     0.332 C 
HETATM    4  C4  UNL     1     -34.735   6.057   3.378  1.00 20.00     0.332 C 
HETATM    5  C5  UNL     1     -34.288   4.902   4.252  1.00 20.00     0.379 C 
HETATM    6  F6  UNL     1     -33.377   4.798   6.435  1.00 20.00    -0.195 F 
HETATM    7  F7  UNL     1     -35.423   5.536   6.225  1.00 20.00    -0.195 F 
HETATM    8  F8  UNL     1     -36.078   6.214   3.441  1.00 20.00    -0.195 F 
HETATM    9  F9  UNL     1     -34.400   5.857   2.087  1.00 20.00    -0.195 F 
HETATM   10  F10 UNL     1     -35.103   3.838   4.185  1.00 20.00    -0.192 F 
HETATM   11  F11 UNL     1     -33.052   4.496   3.862  1.00 20.00    -0.192 F 
ENDROOT
TORSDOF 0
ENDMDL
MODEL 9
REMARK VINA RESULT:      -4.8      1.501      3.214
REMARK  0 active torsions:
REMARK  status: ('A' for Active; 'I' for Inactive)
ROOT
HETATM    1  C1  UNL     1     -33.642   5.939   2.810  1.00 20.00     0.059 C 
HETATM    2  C2  UNL     1     -33.293   4.695   3.172  1.00 20.00     0.059 C 
HETATM    3  C3  UNL     1     -34.603   6.519   3.797  1.00 20.00     0.332 C 
HETATM    4  C4  UNL     1     -33.982   4.306   4.440  1.00 20.00     0.332 C 
HETATM    5  C5  UNL     1     -34.305   5.670   5.015  1.00 20.00     0.379 C 
HETATM    6  F6  UNL     1     -34.431   7.831   4.055  1.00 20.00    -0.195 F 
HETATM    7  F7  UNL     1     -35.883   6.339   3.390  1.00 20.00    -0.195 F 
HETATM    8  F8  UNL     1     -35.117   3.614   4.181  1.00 20.00    -0.195 F 
HETATM    9  F9  UNL     1     -33.235   3.575   5.292  1.00 20.00    -0.195 F 
HETATM   10  F10 UNL     1     -35.308   5.647   5.907  1.00 20.00    -0.192 F 
HETATM   11  F11 UNL     1     -33.207   6.162   5.647  1.00 20.00    -0.192 F 
ENDROOT
TORSDOF 0
ENDMDL
