MODEL 1
REMARK VINA RESULT:      -4.5      0.000      0.000
REMARK  1 active torsions:
REMARK  status: ('A' for Active; 'I' for Inactive)
REMARK    1  A    between atoms: C2_2  and  C3_3 
ROOT
HETATM    1  C1  UNL     1     -33.503   4.969   2.916  1.00 20.00     0.071 C 
HETATM    2  C3  UNL     1     -34.341   5.768   3.904  1.00 20.00     0.187 C 
HETATM    3  F4  UNL     1     -35.572   5.971   3.356  1.00 20.00    -0.225 F 
HETATM    4 CL6  UNL     1     -34.561   4.800   5.395  1.00 20.00    -0.082 Cl
ENDROOT
BRANCH   2   5
HETATM    5  C2  UNL     1     -33.743   7.120   4.282  1.00 20.00     0.174 C 
HETATM    6 CL5  UNL     1     -33.700   7.368   6.048  1.00 20.00    -0.126 Cl
ENDBRANCH   2   5
TORSDOF 1
ENDMDL
MODEL 2
REMARK VINA RESULT:      -4.5      1.521      1.844
REMARK  1 active torsions:
REMARK  status: ('A' for Active; 'I' for Inactive)
REMARK    1  A    between atoms: C2_2  and  C3_3 
ROOT
HETATM    1  C1  UNL     1     -34.418   4.260   4.579  1.00 20.00     0.071 C 
HETATM    2  C3  UNL     1     -34.485   5.709   4.116  1.00 20.00     0.187 C 
HETATM    3  F4  UNL     1     -35.765   5.979   3.737  1.00 20.00    -0.225 F 
HETATM    4 CL6  UNL     1     -34.089   6.778   5.498  1.00 20.00    -0.082 Cl
ENDROOT
BRANCH   2   5
HETATM    5  C2  UNL     1     -33.549   6.040   2.957  1.00 20.00     0.174 C 
HETATM    6 CL5  UNL     1     -32.544   7.474   3.292  1.00 20.00    -0.126 Cl
ENDBRANCH   2   5
TORSDOF 1
ENDMDL
MODEL 3
REMARK VINA RESULT:      -4.5      1.138      1.233
REMARK  1 active torsions:
REMARK  status: ('A' for Active; 'I' for Inactive)
REMARK    1  A    between atoms: C2_2  and  C3_3 
ROOT
HETATM    1  C1  UNL     1     -33.648   6.376   3.356  1.00 20.00     0.071 C 
HETATM    2  C3  UNL     1     -34.575   5.620   4.298  1.00 20.00     0.187 C 
HETATM    3  F4  UNL     1     -35.856   5.784   3.862  1.00 20.00    -0.225 F 
HETATM    4 CL6  UNL     1     -34.191   3.872   4.210  1.00 20.00    -0.082 Cl
ENDROOT
BRANCH   2   5
HETATM    5  C2  UNL     1     -34.491   6.068   5.753  1.00 20.00     0.174 C 
HETATM    6 CL5  UNL     1     -33.463   7.512   5.955  1.00 20.00    -0.126 Cl
ENDBRANCH   2   5
TORSDOF 1
ENDMDL
MODEL 4
REMARK VINA RESULT:      -4.4      1.685      2.359
REMARK  1 active torsions:
REMARK  status: ('A' for Active; 'I' for Inactive)
REMARK    1  A    between atoms: C2_2  and  C3_3 
ROOT
HETATM    1  C1  UNL     1     -34.446   4.315   4.768  1.00 20.00     0.071 C 
HETATM    2  C3  UNL     1     -34.563   5.756   4.291  1.00 20.00     0.187 C 
HETATM    3  F4  UNL     1     -35.860   5.987   3.941  1.00 20.00    -0.225 F 
HETATM    4 CL6  UNL     1     -34.163   6.852   5.651  1.00 20.00    -0.082 Cl
ENDROOT
BRANCH   2   5
HETATM    5  C2  UNL     1     -33.666   6.098   3.105  1.00 20.00     0.174 C 
HETATM    6 CL5  UNL     1     -32.862   4.656   2.430  1.00 20.00    -0.126 Cl
ENDBRANCH   2   5
TORSDOF 1
ENDMDL
MODEL 5
REMARK VINA RESULT:      -4.1      1.333      1.654
REMARK  1 active torsions:
REMARK  status: ('A' for Active; 'I' for Inactive)
REMARK    1  A    between atoms: C2_2  and  C3_3 
ROOT
HETATM    1  C1  UNL     1     -33.375   7.309   3.279  1.00 20.00     0.071 C 
HETATM    2  C3  UNL     1     -34.159   6.047   3.612  1.00 20.00     0.187 C 
HETATM    3  F4  UNL     1     -35.364   6.112   2.978  1.00 20.00    -0.225 F 
HETATM    4 CL6  UNL     1     -33.278   4.628   2.963  1.00 20.00    -0.082 Cl
ENDROOT
BRANCH   2   5
HETATM    5  C2  UNL     1     -34.400   5.835   5.103  1.00 20.00     0.174 C 
HETATM    6 CL5  UNL     1     -33.857   7.227   6.078  1.00 20.00    -0.126 Cl
ENDBRANCH   2   5
TORSDOF 1
ENDMDL
MODEL 6
REMARK VINA RESULT:      -3.9      1.665      2.873
REMARK  1 active torsions:
REMARK  status: ('A' for Active; 'I' for Inactive)
REMARK    1  A    between atoms: C2_2  and  C3_3 
ROOT
HETATM    1  C1  UNL     1     -33.592   7.195   5.637  1.00 20.00     0.071 C 
HETATM    2  C3  UNL     1     -33.641   7.061   4.121  1.00 20.00     0.187 C 
HETATM    3  F4  UNL     1     -34.612   7.892   3.648  1.00 20.00    -0.225 F 
HETATM    4 CL6  UNL     1     -32.077   7.608   3.440  1.00 20.00    -0.082 Cl
ENDROOT
BRANCH   2   5
HETATM    5  C2  UNL     1     -33.923   5.645   3.627  1.00 20.00     0.174 C 
HETATM    6 CL5  UNL     1     -34.601   4.607   4.909  1.00 20.00    -0.126 Cl
ENDBRANCH   2   5
TORSDOF 1
ENDMDL
MODEL 7
REMARK VINA RESULT:      -3.8      1.779      2.269
REMARK  1 active torsions:
REMARK  status: ('A' for Active; 'I' for Inactive)
REMARK    1  A    between atoms: C2_2  and  C3_3 
ROOT
HETATM    1  C1  UNL     1     -32.026   7.762   3.446  1.00 20.00     0.071 C 
HETATM    2  C3  UNL     1     -33.368   7.152   3.823  1.00 20.00     0.187 C 
HETATM    3  F4  UNL     1     -34.356   7.941   3.314  1.00 20.00    -0.225 F 
HETATM    4 CL6  UNL     1     -33.509   5.540   3.054  1.00 20.00    -0.082 Cl
ENDROOT
BRANCH   2   5
HETATM    5  C2  UNL     1     -33.587   6.999   5.325  1.00 20.00     0.174 C 
HETATM    6 CL5  UNL     1     -34.557   5.556   5.721  1.00 20.00    -0.126 Cl
ENDBRANCH   2   5
TORSDOF 1
ENDMDL
MODEL 8
REMARK VINA RESULT:      -3.8      1.593      1.751
REMARK  1 active torsions:
REMARK  status: ('A' for Active; 'I' for Inactive)
REMARK    1  A    between atoms: C2_2  and  C3_3 
ROOT
HETATM    1  C1  UNL     1     -34.411   4.653   5.181  1.00 20.00     0.071 C 
HETATM    2  C3  UNL     1     -34.263   5.624   4.019  1.00 20.00     0.187 C 
HETATM    3  F4  UNL     1     -33.620   4.982   3.003  1.00 20.00    -0.225 F 
HETATM    4 CL6  UNL     1     -35.893   6.078   3.431  1.00 20.00    -0.082 Cl
ENDROOT
BRANCH   2   5
HETATM    5  C2  UNL     1     -33.493   6.896   4.361  1.00 20.00     0.174 C 
HETATM    6 CL5  UNL     1     -33.741   7.400   6.054  1.00 20.00    -0.126 Cl
ENDBRANCH   2   5
TORSDOF 1
ENDMDL
MODEL 9
REMARK VINA RESULT:      -3.7      4.844      5.359
REMARK  1 active torsions:
REMARK  status: ('A' for Active; 'I' for Inactive)
REMARK    1  A    between atoms: C2_2  and  C3_3 
ROOT
HETATM    1  C1  UNL     1     -33.148   9.171  -0.458  1.00 20.00     0.071 C 
HETATM    2  C3  UNL     1     -32.327   9.282   0.819  1.00 20.00     0.187 C 
HETATM    3  F4  UNL     1     -31.013   9.113   0.499  1.00 20.00    -0.225 F 
HETATM    4 CL6  UNL     1     -32.517  10.932   1.489  1.00 20.00    -0.082 Cl
ENDROOT
BRANCH   2   5
HETATM    5  C2  UNL     1     -32.704   8.269   1.895  1.00 20.00     0.174 C 
HETATM    6 CL5  UNL     1     -31.542   8.259   3.248  1.00 20.00    -0.126 Cl
ENDBRANCH   2   5
TORSDOF 1
ENDMDL
