MODEL 1
REMARK VINA RESULT:      -5.2      0.000      0.000
REMARK  2 active torsions:
REMARK  status: ('A' for Active; 'I' for Inactive)
REMARK    1  A    between atoms: C1_1  and  C3_3 
REMARK    2  A    between atoms: C3_3  and  C4_4 
ROOT
HETATM    1  C1  UNL     1     -33.370   7.112   4.309  1.00 20.00     0.162 C 
HETATM    2  C2  UNL     1     -34.339   6.360   4.841  1.00 20.00     0.301 C 
HETATM    3  F5  UNL     1     -32.568   7.797   5.156  1.00 20.00    -0.205 F 
HETATM    4  F6  UNL     1     -34.514   6.305   6.177  1.00 20.00    -0.170 F 
HETATM    5  F7  UNL     1     -35.150   5.645   4.031  1.00 20.00    -0.170 F 
ENDROOT
BRANCH   1   6
HETATM    6  C3  UNL     1     -33.102   7.233   2.839  1.00 20.00     0.086 C 
BRANCH   6   7
HETATM    7  C4  UNL     1     -31.968   8.220   2.568  1.00 20.00     0.086 C 
HETATM    8  I8  UNL     1     -32.473   9.520   0.944  1.00 20.00    -0.090 I 
ENDBRANCH   6   7
ENDBRANCH   1   6
TORSDOF 2
ENDMDL
MODEL 2
REMARK VINA RESULT:      -5.1      1.088      1.116
REMARK  2 active torsions:
REMARK  status: ('A' for Active; 'I' for Inactive)
REMARK    1  A    between atoms: C1_1  and  C3_3 
REMARK    2  A    between atoms: C3_3  and  C4_4 
ROOT
HETATM    1  C1  UNL     1     -34.018   6.476   4.369  1.00 20.00     0.162 C 
HETATM    2  C2  UNL     1     -34.507   5.312   4.806  1.00 20.00     0.301 C 
HETATM    3  F5  UNL     1     -34.086   7.540   5.202  1.00 20.00    -0.205 F 
HETATM    4  F6  UNL     1     -35.063   5.214   6.031  1.00 20.00    -0.170 F 
HETATM    5  F7  UNL     1     -34.442   4.221   4.013  1.00 20.00    -0.170 F 
ENDROOT
BRANCH   1   6
HETATM    6  C3  UNL     1     -33.383   6.679   3.026  1.00 20.00     0.086 C 
BRANCH   6   7
HETATM    7  C4  UNL     1     -32.246   7.696   3.104  1.00 20.00     0.086 C 
HETATM    8  I8  UNL     1     -32.279   8.994   1.403  1.00 20.00    -0.090 I 
ENDBRANCH   6   7
ENDBRANCH   1   6
TORSDOF 2
ENDMDL
MODEL 3
REMARK VINA RESULT:      -5.1      1.150      1.890
REMARK  2 active torsions:
REMARK  status: ('A' for Active; 'I' for Inactive)
REMARK    1  A    between atoms: C1_1  and  C3_3 
REMARK    2  A    between atoms: C3_3  and  C4_4 
ROOT
HETATM    1  C1  UNL     1     -34.130   6.163   4.183  1.00 20.00     0.162 C 
HETATM    2  C2  UNL     1     -34.422   5.935   5.466  1.00 20.00     0.301 C 
HETATM    3  F5  UNL     1     -34.259   5.133   3.314  1.00 20.00    -0.205 F 
HETATM    4  F6  UNL     1     -34.817   4.712   5.877  1.00 20.00    -0.170 F 
HETATM    5  F7  UNL     1     -34.325   6.940   6.362  1.00 20.00    -0.170 F 
ENDROOT
BRANCH   1   6
HETATM    6  C3  UNL     1     -33.685   7.487   3.637  1.00 20.00     0.086 C 
BRANCH   6   7
HETATM    7  C4  UNL     1     -32.448   7.329   2.755  1.00 20.00     0.086 C 
HETATM    8  I8  UNL     1     -32.252   8.996   1.426  1.00 20.00    -0.090 I 
ENDBRANCH   6   7
ENDBRANCH   1   6
TORSDOF 2
ENDMDL
MODEL 4
REMARK VINA RESULT:      -5.0      1.467      2.039
REMARK  2 active torsions:
REMARK  status: ('A' for Active; 'I' for Inactive)
REMARK    1  A    between atoms: C1_1  and  C3_3 
REMARK    2  A    between atoms: C3_3  and  C4_4 
ROOT
HETATM    1  C1  UNL     1     -33.897   5.920   3.573  1.00 20.00     0.162 C 
HETATM    2  C2  UNL     1     -34.434   5.178   4.546  1.00 20.00     0.301 C 
HETATM    3  F5  UNL     1     -33.608   5.307   2.401  1.00 20.00    -0.205 F 
HETATM    4  F6  UNL     1     -34.662   3.861   4.364  1.00 20.00    -0.170 F 
HETATM    5  F7  UNL     1     -34.754   5.754   5.725  1.00 20.00    -0.170 F 
ENDROOT
BRANCH   1   6
HETATM    6  C3  UNL     1     -33.609   7.387   3.685  1.00 20.00     0.086 C 
BRANCH   6   7
HETATM    7  C4  UNL     1     -32.197   7.708   3.198  1.00 20.00     0.086 C 
HETATM    8  I8  UNL     1     -32.266   8.971   1.471  1.00 20.00    -0.090 I 
ENDBRANCH   6   7
ENDBRANCH   1   6
TORSDOF 2
ENDMDL
MODEL 5
REMARK VINA RESULT:      -4.6      3.886      4.885
REMARK  2 active torsions:
REMARK  status: ('A' for Active; 'I' for Inactive)
REMARK    1  A    between atoms: C1_1  and  C3_3 
REMARK    2  A    between atoms: C3_3  and  C4_4 
ROOT
HETATM    1  C1  UNL     1     -31.953   8.913   1.281  1.00 20.00     0.162 C 
HETATM    2  C2  UNL     1     -32.773   9.864   0.825  1.00 20.00     0.301 C 
HETATM    3  F5  UNL     1     -31.036   8.407   0.424  1.00 20.00    -0.205 F 
HETATM    4  F6  UNL     1     -32.694  10.288  -0.453  1.00 20.00    -0.170 F 
HETATM    5  F7  UNL     1     -33.690  10.408   1.654  1.00 20.00    -0.170 F 
ENDROOT
BRANCH   1   6
HETATM    6  C3  UNL     1     -31.968   8.380   2.683  1.00 20.00     0.086 C 
BRANCH   6   7
HETATM    7  C4  UNL     1     -32.856   7.142   2.790  1.00 20.00     0.086 C 
HETATM    8  I8  UNL     1     -33.728   7.005   4.740  1.00 20.00    -0.090 I 
ENDBRANCH   6   7
ENDBRANCH   1   6
TORSDOF 2
ENDMDL
MODEL 6
REMARK VINA RESULT:      -4.6      3.585      4.567
REMARK  2 active torsions:
REMARK  status: ('A' for Active; 'I' for Inactive)
REMARK    1  A    between atoms: C1_1  and  C3_3 
REMARK    2  A    between atoms: C3_3  and  C4_4 
ROOT
HETATM    1  C1  UNL     1     -32.285   8.841   1.958  1.00 20.00     0.162 C 
HETATM    2  C2  UNL     1     -32.571   9.477   0.818  1.00 20.00     0.301 C 
HETATM    3  F5  UNL     1     -31.577   9.513   2.895  1.00 20.00    -0.205 F 
HETATM    4  F6  UNL     1     -32.149  10.741   0.610  1.00 20.00    -0.170 F 
HETATM    5  F7  UNL     1     -33.292   8.849  -0.135  1.00 20.00    -0.170 F 
ENDROOT
BRANCH   1   6
HETATM    6  C3  UNL     1     -32.712   7.439   2.276  1.00 20.00     0.086 C 
BRANCH   6   7
HETATM    7  C4  UNL     1     -33.049   7.291   3.759  1.00 20.00     0.086 C 
HETATM    8  I8  UNL     1     -34.548   5.789   4.044  1.00 20.00    -0.090 I 
ENDBRANCH   6   7
ENDBRANCH   1   6
TORSDOF 2
ENDMDL
MODEL 7
REMARK VINA RESULT:      -4.4      3.099      4.018
REMARK  2 active torsions:
REMARK  status: ('A' for Active; 'I' for Inactive)
REMARK    1  A    between atoms: C1_1  and  C3_3 
REMARK    2  A    between atoms: C3_3  and  C4_4 
ROOT
HETATM    1  C1  UNL     1     -32.506   7.561   3.083  1.00 20.00     0.162 C 
HETATM    2  C2  UNL     1     -32.316   8.521   2.172  1.00 20.00     0.301 C 
HETATM    3  F5  UNL     1     -32.173   7.836   4.366  1.00 20.00    -0.205 F 
HETATM    4  F6  UNL     1     -31.794   9.713   2.526  1.00 20.00    -0.170 F 
HETATM    5  F7  UNL     1     -32.653   8.294   0.884  1.00 20.00    -0.170 F 
ENDROOT
BRANCH   1   6
HETATM    6  C3  UNL     1     -33.079   6.209   2.783  1.00 20.00     0.086 C 
BRANCH   6   7
HETATM    7  C4  UNL     1     -34.511   6.092   3.303  1.00 20.00     0.086 C 
HETATM    8  I8  UNL     1     -34.545   5.099   5.199  1.00 20.00    -0.090 I 
ENDBRANCH   6   7
ENDBRANCH   1   6
TORSDOF 2
ENDMDL
MODEL 8
REMARK VINA RESULT:      -4.2      3.276      4.301
REMARK  2 active torsions:
REMARK  status: ('A' for Active; 'I' for Inactive)
REMARK    1  A    between atoms: C1_1  and  C3_3 
REMARK    2  A    between atoms: C3_3  and  C4_4 
ROOT
HETATM    1  C1  UNL     1     -32.743   7.496   2.668  1.00 20.00     0.162 C 
HETATM    2  C2  UNL     1     -32.311   8.463   1.854  1.00 20.00     0.301 C 
HETATM    3  F5  UNL     1     -32.023   6.353   2.727  1.00 20.00    -0.205 F 
HETATM    4  F6  UNL     1     -31.200   8.291   1.108  1.00 20.00    -0.170 F 
HETATM    5  F7  UNL     1     -32.990   9.628   1.780  1.00 20.00    -0.170 F 
ENDROOT
BRANCH   1   6
HETATM    6  C3  UNL     1     -33.964   7.599   3.533  1.00 20.00     0.086 C 
BRANCH   6   7
HETATM    7  C4  UNL     1     -33.695   7.045   4.931  1.00 20.00     0.086 C 
HETATM    8  I8  UNL     1     -34.540   5.090   5.141  1.00 20.00    -0.090 I 
ENDBRANCH   6   7
ENDBRANCH   1   6
TORSDOF 2
ENDMDL
MODEL 9
REMARK VINA RESULT:      -3.9      3.057      4.005
REMARK  2 active torsions:
REMARK  status: ('A' for Active; 'I' for Inactive)
REMARK    1  A    between atoms: C1_1  and  C3_3 
REMARK    2  A    between atoms: C3_3  and  C4_4 
ROOT
HETATM    1  C1  UNL     1     -34.670   5.448   3.515  1.00 20.00     0.162 C 
HETATM    2  C2  UNL     1     -33.716   5.676   2.607  1.00 20.00     0.301 C 
HETATM    3  F5  UNL     1     -35.844   6.106   3.374  1.00 20.00    -0.205 F 
HETATM    4  F6  UNL     1     -33.920   6.547   1.597  1.00 20.00    -0.170 F 
HETATM    5  F7  UNL     1     -32.536   5.026   2.701  1.00 20.00    -0.170 F 
ENDROOT
BRANCH   1   6
HETATM    6  C3  UNL     1     -34.533   4.500   4.669  1.00 20.00     0.086 C 
BRANCH   6   7
HETATM    7  C4  UNL     1     -34.544   5.250   5.999  1.00 20.00     0.086 C 
HETATM    8  I8  UNL     1     -33.690   7.200   5.771  1.00 20.00    -0.090 I 
ENDBRANCH   6   7
ENDBRANCH   1   6
TORSDOF 2
ENDMDL
