MODEL 1
REMARK VINA RESULT:      -5.8      0.000      0.000
REMARK  0 active torsions:
REMARK  status: ('A' for Active; 'I' for Inactive)
ROOT
HETATM    1  C1  UNL     1     -33.355   7.239   3.953  1.00 20.00     0.006 C 
HETATM    2  C2  UNL     1     -33.829   7.228   5.412  1.00 20.00     0.006 C 
HETATM    3  C3  UNL     1     -33.597   5.831   3.419  1.00 20.00     0.079 C 
HETATM    4  C4  UNL     1     -34.334   5.814   5.683  1.00 20.00     0.079 C 
HETATM    5  C5  UNL     1     -34.699   5.302   4.308  1.00 20.00     0.243 C 
HETATM    6  F6  UNL     1     -34.784   3.961   4.271  1.00 20.00    -0.206 F 
HETATM    7  F7  UNL     1     -35.894   5.804   3.923  1.00 20.00    -0.206 F 
ENDROOT
TORSDOF 0
ENDMDL
MODEL 2
REMARK VINA RESULT:      -5.8      1.216      1.864
REMARK  0 active torsions:
REMARK  status: ('A' for Active; 'I' for Inactive)
ROOT
HETATM    1  C1  UNL     1     -34.226   6.526   5.799  1.00 20.00     0.006 C 
HETATM    2  C2  UNL     1     -34.574   5.032   5.792  1.00 20.00     0.006 C 
HETATM    3  C3  UNL     1     -33.829   6.874   4.368  1.00 20.00     0.079 C 
HETATM    4  C4  UNL     1     -34.371   4.555   4.357  1.00 20.00     0.079 C 
HETATM    5  C5  UNL     1     -34.529   5.819   3.542  1.00 20.00     0.243 C 
HETATM    6  F6  UNL     1     -33.999   5.700   2.312  1.00 20.00    -0.206 F 
HETATM    7  F7  UNL     1     -35.839   6.126   3.402  1.00 20.00    -0.206 F 
ENDROOT
TORSDOF 0
ENDMDL
MODEL 3
REMARK VINA RESULT:      -5.5      1.139      1.811
REMARK  0 active torsions:
REMARK  status: ('A' for Active; 'I' for Inactive)
ROOT
HETATM    1  C1  UNL     1     -33.321   5.054   2.771  1.00 20.00     0.006 C 
HETATM    2  C2  UNL     1     -33.212   6.563   3.029  1.00 20.00     0.006 C 
HETATM    3  C3  UNL     1     -33.989   4.461   4.008  1.00 20.00     0.079 C 
HETATM    4  C4  UNL     1     -33.820   6.803   4.408  1.00 20.00     0.079 C 
HETATM    5  C5  UNL     1     -34.755   5.628   4.588  1.00 20.00     0.243 C 
HETATM    6  F6  UNL     1     -35.082   5.432   5.877  1.00 20.00    -0.206 F 
HETATM    7  F7  UNL     1     -35.899   5.829   3.895  1.00 20.00    -0.206 F 
ENDROOT
TORSDOF 0
ENDMDL
MODEL 4
REMARK VINA RESULT:      -5.4      1.373      2.606
REMARK  0 active torsions:
REMARK  status: ('A' for Active; 'I' for Inactive)
ROOT
HETATM    1  C1  UNL     1     -34.571   4.881   5.662  1.00 20.00     0.006 C 
HETATM    2  C2  UNL     1     -34.179   4.028   4.449  1.00 20.00     0.006 C 
HETATM    3  C3  UNL     1     -34.306   6.330   5.263  1.00 20.00     0.079 C 
HETATM    4  C4  UNL     1     -33.697   5.005   3.380  1.00 20.00     0.079 C 
HETATM    5  C5  UNL     1     -34.384   6.299   3.754  1.00 20.00     0.243 C 
HETATM    6  F6  UNL     1     -33.794   7.368   3.192  1.00 20.00    -0.206 F 
HETATM    7  F7  UNL     1     -35.675   6.278   3.352  1.00 20.00    -0.206 F 
ENDROOT
TORSDOF 0
ENDMDL
MODEL 5
REMARK VINA RESULT:      -5.4      1.315      2.259
REMARK  0 active torsions:
REMARK  status: ('A' for Active; 'I' for Inactive)
ROOT
HETATM    1  C1  UNL     1     -34.439   5.816   5.674  1.00 20.00     0.006 C 
HETATM    2  C2  UNL     1     -33.664   7.107   5.384  1.00 20.00     0.006 C 
HETATM    3  C3  UNL     1     -34.966   5.327   4.328  1.00 20.00     0.079 C 
HETATM    4  C4  UNL     1     -33.763   7.333   3.878  1.00 20.00     0.079 C 
HETATM    5  C5  UNL     1     -34.011   5.945   3.331  1.00 20.00     0.243 C 
HETATM    6  F6  UNL     1     -34.521   5.973   2.088  1.00 20.00    -0.206 F 
HETATM    7  F7  UNL     1     -32.856   5.243   3.292  1.00 20.00    -0.206 F 
ENDROOT
TORSDOF 0
ENDMDL
MODEL 6
REMARK VINA RESULT:      -5.1      1.852      2.655
REMARK  0 active torsions:
REMARK  status: ('A' for Active; 'I' for Inactive)
ROOT
HETATM    1  C1  UNL     1     -34.937   5.154   4.660  1.00 20.00     0.006 C 
HETATM    2  C2  UNL     1     -34.230   5.889   5.806  1.00 20.00     0.006 C 
HETATM    3  C3  UNL     1     -34.851   6.078   3.448  1.00 20.00     0.079 C 
HETATM    4  C4  UNL     1     -33.753   7.218   5.227  1.00 20.00     0.079 C 
HETATM    5  C5  UNL     1     -33.643   6.937   3.746  1.00 20.00     0.243 C 
HETATM    6  F6  UNL     1     -33.627   8.064   3.014  1.00 20.00    -0.206 F 
HETATM    7  F7  UNL     1     -32.506   6.254   3.481  1.00 20.00    -0.206 F 
ENDROOT
TORSDOF 0
ENDMDL
MODEL 7
REMARK VINA RESULT:      -5.0      1.832      2.795
REMARK  0 active torsions:
REMARK  status: ('A' for Active; 'I' for Inactive)
ROOT
HETATM    1  C1  UNL     1     -34.606   5.917   5.686  1.00 20.00     0.006 C 
HETATM    2  C2  UNL     1     -34.747   5.108   4.390  1.00 20.00     0.006 C 
HETATM    3  C3  UNL     1     -33.463   6.900   5.449  1.00 20.00     0.079 C 
HETATM    4  C4  UNL     1     -33.682   5.644   3.437  1.00 20.00     0.079 C 
HETATM    5  C5  UNL     1     -33.431   7.047   3.945  1.00 20.00     0.243 C 
HETATM    6  F6  UNL     1     -32.262   7.544   3.507  1.00 20.00    -0.206 F 
HETATM    7  F7  UNL     1     -34.416   7.877   3.534  1.00 20.00    -0.206 F 
ENDROOT
TORSDOF 0
ENDMDL
MODEL 8
REMARK VINA RESULT:      -4.7      1.291      2.220
REMARK  0 active torsions:
REMARK  status: ('A' for Active; 'I' for Inactive)
ROOT
HETATM    1  C1  UNL     1     -33.167   7.020   3.811  1.00 20.00     0.006 C 
HETATM    2  C2  UNL     1     -34.139   6.098   3.064  1.00 20.00     0.006 C 
HETATM    3  C3  UNL     1     -33.676   7.096   5.247  1.00 20.00     0.079 C 
HETATM    4  C4  UNL     1     -35.185   5.665   4.087  1.00 20.00     0.079 C 
HETATM    5  C5  UNL     1     -34.466   5.818   5.409  1.00 20.00     0.243 C 
HETATM    6  F6  UNL     1     -35.318   5.874   6.447  1.00 20.00    -0.206 F 
HETATM    7  F7  UNL     1     -33.631   4.773   5.612  1.00 20.00    -0.206 F 
ENDROOT
TORSDOF 0
ENDMDL
MODEL 9
REMARK VINA RESULT:      -4.7      0.894      1.907
REMARK  0 active torsions:
REMARK  status: ('A' for Active; 'I' for Inactive)
ROOT
HETATM    1  C1  UNL     1     -33.604   7.123   5.369  1.00 20.00     0.006 C 
HETATM    2  C2  UNL     1     -33.787   7.255   3.852  1.00 20.00     0.006 C 
HETATM    3  C3  UNL     1     -34.432   5.914   5.792  1.00 20.00     0.079 C 
HETATM    4  C4  UNL     1     -34.717   6.118   3.436  1.00 20.00     0.079 C 
HETATM    5  C5  UNL     1     -34.523   5.089   4.528  1.00 20.00     0.243 C 
HETATM    6  F6  UNL     1     -35.529   4.199   4.572  1.00 20.00    -0.206 F 
HETATM    7  F7  UNL     1     -33.372   4.407   4.330  1.00 20.00    -0.206 F 
ENDROOT
TORSDOF 0
ENDMDL
