MODEL 1
REMARK VINA RESULT:      -5.3      0.000      0.000
REMARK  1 active torsions:
REMARK  status: ('A' for Active; 'I' for Inactive)
REMARK    1  A    between atoms: C1_1  and  C2_2 
ROOT
HETATM    1  C2  UNL     1     -34.467   5.751   4.067  1.00 20.00     0.299 C 
HETATM    2  F4  UNL     1     -35.763   5.979   3.719  1.00 20.00    -0.203 F 
HETATM    3 CL6  UNL     1     -34.071   6.801   5.455  1.00 20.00    -0.061 Cl
HETATM    4 CL7  UNL     1     -34.297   4.048   4.566  1.00 20.00    -0.061 Cl
ENDROOT
BRANCH   1   5
HETATM    5  C1  UNL     1     -33.566   6.086   2.885  1.00 20.00     0.336 C 
HETATM    6  F3  UNL     1     -32.820   4.989   2.573  1.00 20.00    -0.227 F 
HETATM    7 CL5  UNL     1     -32.443   7.419   3.253  1.00 20.00    -0.083 Cl
ENDBRANCH   1   5
TORSDOF 1
ENDMDL
MODEL 2
REMARK VINA RESULT:      -5.2      1.603      1.994
REMARK  1 active torsions:
REMARK  status: ('A' for Active; 'I' for Inactive)
REMARK    1  A    between atoms: C1_1  and  C2_2 
ROOT
HETATM    1  C2  UNL     1     -34.332   5.779   3.898  1.00 20.00     0.299 C 
HETATM    2  F4  UNL     1     -35.549   5.954   3.314  1.00 20.00    -0.203 F 
HETATM    3 CL6  UNL     1     -34.561   4.813   5.381  1.00 20.00    -0.061 Cl
HETATM    4 CL7  UNL     1     -33.282   4.874   2.777  1.00 20.00    -0.061 Cl
ENDROOT
BRANCH   1   5
HETATM    5  C1  UNL     1     -33.746   7.141   4.247  1.00 20.00     0.336 C 
HETATM    6  F3  UNL     1     -32.486   7.224   3.735  1.00 20.00    -0.227 F 
HETATM    7 CL5  UNL     1     -33.633   7.394   6.007  1.00 20.00    -0.083 Cl
ENDBRANCH   1   5
TORSDOF 1
ENDMDL
MODEL 3
REMARK VINA RESULT:      -4.7      1.510      2.875
REMARK  1 active torsions:
REMARK  status: ('A' for Active; 'I' for Inactive)
REMARK    1  A    between atoms: C1_1  and  C2_2 
ROOT
HETATM    1  C2  UNL     1     -34.059   6.039   3.626  1.00 20.00     0.299 C 
HETATM    2  F4  UNL     1     -35.360   6.024   3.225  1.00 20.00    -0.203 F 
HETATM    3 CL6  UNL     1     -33.201   4.722   2.779  1.00 20.00    -0.061 Cl
HETATM    4 CL7  UNL     1     -33.330   7.597   3.155  1.00 20.00    -0.061 Cl
ENDROOT
BRANCH   1   5
HETATM    5  C1  UNL     1     -33.998   5.818   5.131  1.00 20.00     0.336 C 
HETATM    6  F3  UNL     1     -35.162   5.241   5.540  1.00 20.00    -0.227 F 
HETATM    7 CL5  UNL     1     -33.806   7.345   6.029  1.00 20.00    -0.083 Cl
ENDBRANCH   1   5
TORSDOF 1
ENDMDL
MODEL 4
REMARK VINA RESULT:      -4.7      1.447      1.447
REMARK  1 active torsions:
REMARK  status: ('A' for Active; 'I' for Inactive)
REMARK    1  A    between atoms: C1_1  and  C2_2 
ROOT
HETATM    1  C2  UNL     1     -34.348   5.959   4.347  1.00 20.00     0.299 C 
HETATM    2  F4  UNL     1     -35.533   6.303   3.772  1.00 20.00    -0.203 F 
HETATM    3 CL6  UNL     1     -34.073   7.041   5.741  1.00 20.00    -0.061 Cl
HETATM    4 CL7  UNL     1     -34.460   4.280   4.935  1.00 20.00    -0.061 Cl
ENDROOT
BRANCH   1   5
HETATM    5  C1  UNL     1     -33.230   6.128   3.326  1.00 20.00     0.336 C 
HETATM    6  F3  UNL     1     -33.600   7.077   2.420  1.00 20.00    -0.227 F 
HETATM    7 CL5  UNL     1     -32.902   4.623   2.432  1.00 20.00    -0.083 Cl
ENDBRANCH   1   5
TORSDOF 1
ENDMDL
MODEL 5
REMARK VINA RESULT:      -4.7      1.663      2.077
REMARK  1 active torsions:
REMARK  status: ('A' for Active; 'I' for Inactive)
REMARK    1  A    between atoms: C1_1  and  C2_2 
ROOT
HETATM    1  C2  UNL     1     -34.657   5.797   4.220  1.00 20.00     0.299 C 
HETATM    2  F4  UNL     1     -35.953   5.989   3.848  1.00 20.00    -0.203 F 
HETATM    3 CL6  UNL     1     -33.669   7.083   3.472  1.00 20.00    -0.061 Cl
HETATM    4 CL7  UNL     1     -34.541   5.939   5.993  1.00 20.00    -0.061 Cl
ENDROOT
BRANCH   1   5
HETATM    5  C1  UNL     1     -34.194   4.432   3.730  1.00 20.00     0.336 C 
HETATM    6  F3  UNL     1     -33.792   3.691   4.801  1.00 20.00    -0.227 F 
HETATM    7 CL5  UNL     1     -32.817   4.551   2.606  1.00 20.00    -0.083 Cl
ENDBRANCH   1   5
TORSDOF 1
ENDMDL
MODEL 6
REMARK VINA RESULT:      -4.6      1.583      2.014
REMARK  1 active torsions:
REMARK  status: ('A' for Active; 'I' for Inactive)
REMARK    1  A    between atoms: C1_1  and  C2_2 
ROOT
HETATM    1  C2  UNL     1     -34.255   5.684   4.023  1.00 20.00     0.299 C 
HETATM    2  F4  UNL     1     -35.441   6.066   3.474  1.00 20.00    -0.203 F 
HETATM    3 CL6  UNL     1     -34.604   4.752   5.505  1.00 20.00    -0.061 Cl
HETATM    4 CL7  UNL     1     -33.399   4.629   2.868  1.00 20.00    -0.061 Cl
ENDROOT
BRANCH   1   5
HETATM    5  C1  UNL     1     -33.441   6.925   4.365  1.00 20.00     0.336 C 
HETATM    6  F3  UNL     1     -34.190   7.737   5.164  1.00 20.00    -0.227 F 
HETATM    7 CL5  UNL     1     -32.992   7.857   2.915  1.00 20.00    -0.083 Cl
ENDBRANCH   1   5
TORSDOF 1
ENDMDL
MODEL 7
REMARK VINA RESULT:      -4.6      1.548      2.924
REMARK  1 active torsions:
REMARK  status: ('A' for Active; 'I' for Inactive)
REMARK    1  A    between atoms: C1_1  and  C2_2 
ROOT
HETATM    1  C2  UNL     1     -33.851   6.967   4.119  1.00 20.00     0.299 C 
HETATM    2  F4  UNL     1     -34.665   7.952   3.650  1.00 20.00    -0.203 F 
HETATM    3 CL6  UNL     1     -32.390   6.918   3.096  1.00 20.00    -0.061 Cl
HETATM    4 CL7  UNL     1     -33.372   7.365   5.790  1.00 20.00    -0.061 Cl
ENDROOT
BRANCH   1   5
HETATM    5  C1  UNL     1     -34.586   5.635   4.044  1.00 20.00     0.336 C 
HETATM    6  F3  UNL     1     -35.888   5.867   3.716  1.00 20.00    -0.227 F 
HETATM    7 CL5  UNL     1     -34.565   4.765   5.599  1.00 20.00    -0.083 Cl
ENDBRANCH   1   5
TORSDOF 1
ENDMDL
MODEL 8
REMARK VINA RESULT:      -4.5      1.640      3.054
REMARK  1 active torsions:
REMARK  status: ('A' for Active; 'I' for Inactive)
REMARK    1  A    between atoms: C1_1  and  C2_2 
ROOT
HETATM    1  C2  UNL     1     -34.050   6.208   3.402  1.00 20.00     0.299 C 
HETATM    2  F4  UNL     1     -35.205   6.215   2.682  1.00 20.00    -0.203 F 
HETATM    3 CL6  UNL     1     -33.194   4.678   3.064  1.00 20.00    -0.061 Cl
HETATM    4 CL7  UNL     1     -33.030   7.568   2.866  1.00 20.00    -0.061 Cl
ENDROOT
BRANCH   1   5
HETATM    5  C1  UNL     1     -34.385   6.302   4.885  1.00 20.00     0.336 C 
HETATM    6  F3  UNL     1     -33.394   6.990   5.519  1.00 20.00    -0.227 F 
HETATM    7 CL5  UNL     1     -34.506   4.698   5.650  1.00 20.00    -0.083 Cl
ENDBRANCH   1   5
TORSDOF 1
ENDMDL
MODEL 9
REMARK VINA RESULT:      -4.5      1.396      2.612
REMARK  1 active torsions:
REMARK  status: ('A' for Active; 'I' for Inactive)
REMARK    1  A    between atoms: C1_1  and  C2_2 
ROOT
HETATM    1  C2  UNL     1     -33.445   7.198   4.012  1.00 20.00     0.299 C 
HETATM    2  F4  UNL     1     -34.407   8.010   3.494  1.00 20.00    -0.203 F 
HETATM    3 CL6  UNL     1     -31.853   7.843   3.523  1.00 20.00    -0.061 Cl
HETATM    4 CL7  UNL     1     -33.558   7.233   5.790  1.00 20.00    -0.061 Cl
ENDROOT
BRANCH   1   5
HETATM    5  C1  UNL     1     -33.629   5.790   3.460  1.00 20.00     0.336 C 
HETATM    6  F3  UNL     1     -34.195   5.872   2.223  1.00 20.00    -0.227 F 
HETATM    7 CL5  UNL     1     -34.702   4.802   4.483  1.00 20.00    -0.083 Cl
ENDBRANCH   1   5
TORSDOF 1
ENDMDL
