MODEL 1
REMARK VINA RESULT:      -5.6      0.000      0.000
REMARK  0 active torsions:
REMARK  status: ('A' for Active; 'I' for Inactive)
ROOT
HETATM    1  C1  UNL     1     -33.004   7.817   4.083  1.00 20.00    -0.011 C 
HETATM    2  C2  UNL     1     -32.683   7.453   2.832  1.00 20.00    -0.015 C 
HETATM    3  C3  UNL     1     -33.697   6.904   5.055  1.00 20.00     0.036 C 
HETATM    4  C4  UNL     1     -32.965   6.084   2.278  1.00 20.00     0.047 C 
HETATM    5  C5  UNL     1     -33.378   5.071   3.354  1.00 20.00     0.014 C 
HETATM    6  C6  UNL     1     -34.348   5.659   4.400  1.00 20.00    -0.044 C 
HETATM    7  C7  UNL     1     -34.628   4.605   5.486  1.00 20.00     0.015 C 
HETATM    8  C8  UNL     1     -35.692   6.038   3.744  1.00 20.00     0.015 C 
HETATM    9 BR9  UNL     1     -31.836   8.628   1.650  1.00 20.00    -0.056 Br
ENDROOT
TORSDOF 0
ENDMDL
MODEL 2
REMARK VINA RESULT:      -4.1      2.425      4.262
REMARK  0 active torsions:
REMARK  status: ('A' for Active; 'I' for Inactive)
ROOT
HETATM    1  C1  UNL     1     -33.636   6.795   3.012  1.00 20.00    -0.011 C 
HETATM    2  C2  UNL     1     -33.245   7.272   4.204  1.00 20.00    -0.015 C 
HETATM    3  C3  UNL     1     -33.015   7.217   1.711  1.00 20.00     0.036 C 
HETATM    4  C4  UNL     1     -32.127   8.265   4.363  1.00 20.00     0.047 C 
HETATM    5  C5  UNL     1     -31.298   8.450   3.085  1.00 20.00     0.014 C 
HETATM    6  C6  UNL     1     -32.161   8.506   1.806  1.00 20.00    -0.044 C 
HETATM    7  C7  UNL     1     -31.242   8.597   0.574  1.00 20.00     0.015 C 
HETATM    8  C8  UNL     1     -33.069   9.753   1.816  1.00 20.00     0.015 C 
HETATM    9 BR9  UNL     1     -34.058   6.732   5.798  1.00 20.00    -0.056 Br
ENDROOT
TORSDOF 0
ENDMDL
MODEL 3
REMARK VINA RESULT:      -4.0      2.299      3.799
REMARK  0 active torsions:
REMARK  status: ('A' for Active; 'I' for Inactive)
ROOT
HETATM    1  C1  UNL     1     -34.240   7.174   4.387  1.00 20.00    -0.011 C 
HETATM    2  C2  UNL     1     -33.945   5.900   4.083  1.00 20.00    -0.015 C 
HETATM    3  C3  UNL     1     -33.759   8.346   3.581  1.00 20.00     0.036 C 
HETATM    4  C4  UNL     1     -33.117   5.513   2.889  1.00 20.00     0.047 C 
HETATM    5  C5  UNL     1     -32.897   6.671   1.907  1.00 20.00     0.014 C 
HETATM    6  C6  UNL     1     -32.599   8.013   2.608  1.00 20.00    -0.044 C 
HETATM    7  C7  UNL     1     -32.489   9.127   1.552  1.00 20.00     0.015 C 
HETATM    8  C8  UNL     1     -31.260   7.944   3.371  1.00 20.00     0.015 C 
HETATM    9 BR9  UNL     1     -34.551   4.471   5.124  1.00 20.00    -0.056 Br
ENDROOT
TORSDOF 0
ENDMDL
MODEL 4
REMARK VINA RESULT:      -3.9     11.556     12.945
REMARK  0 active torsions:
REMARK  status: ('A' for Active; 'I' for Inactive)
ROOT
HETATM    1  C1  UNL     1     -34.660  14.909  -3.803  1.00 20.00    -0.011 C 
HETATM    2  C2  UNL     1     -33.995  16.075  -3.787  1.00 20.00    -0.015 C 
HETATM    3  C3  UNL     1     -34.853  14.088  -5.046  1.00 20.00     0.036 C 
HETATM    4  C4  UNL     1     -33.355  16.671  -5.009  1.00 20.00     0.047 C 
HETATM    5  C5  UNL     1     -33.281  15.693  -6.190  1.00 20.00     0.014 C 
HETATM    6  C6  UNL     1     -34.565  14.854  -6.363  1.00 20.00    -0.044 C 
HETATM    7  C7  UNL     1     -34.362  13.841  -7.504  1.00 20.00     0.015 C 
HETATM    8  C8  UNL     1     -35.760  15.757  -6.732  1.00 20.00     0.015 C 
HETATM    9 BR9  UNL     1     -33.794  17.073  -2.220  1.00 20.00    -0.056 Br
ENDROOT
TORSDOF 0
ENDMDL
MODEL 5
REMARK VINA RESULT:      -3.9     11.912     12.718
REMARK  0 active torsions:
REMARK  status: ('A' for Active; 'I' for Inactive)
ROOT
HETATM    1  C1  UNL     1     -35.485  17.368  -0.146  1.00 20.00    -0.011 C 
HETATM    2  C2  UNL     1     -34.596  18.184   0.440  1.00 20.00    -0.015 C 
HETATM    3  C3  UNL     1     -35.274  16.757  -1.502  1.00 20.00     0.036 C 
HETATM    4  C4  UNL     1     -33.284  18.558  -0.192  1.00 20.00     0.047 C 
HETATM    5  C5  UNL     1     -32.936  17.696  -1.414  1.00 20.00     0.014 C 
HETATM    6  C6  UNL     1     -34.149  17.427  -2.331  1.00 20.00    -0.044 C 
HETATM    7  C7  UNL     1     -33.727  16.482  -3.470  1.00 20.00     0.015 C 
HETATM    8  C8  UNL     1     -34.655  18.740  -2.962  1.00 20.00     0.015 C 
HETATM    9 BR9  UNL     1     -34.907  18.937   2.123  1.00 20.00    -0.056 Br
ENDROOT
TORSDOF 0
ENDMDL
MODEL 6
REMARK VINA RESULT:      -3.8     11.506     12.216
REMARK  0 active torsions:
REMARK  status: ('A' for Active; 'I' for Inactive)
ROOT
HETATM    1  C1  UNL     1     -35.677  16.523  -2.871  1.00 20.00    -0.011 C 
HETATM    2  C2  UNL     1     -34.337  16.489  -2.812  1.00 20.00    -0.015 C 
HETATM    3  C3  UNL     1     -36.487  15.613  -3.750  1.00 20.00     0.036 C 
HETATM    4  C4  UNL     1     -33.506  15.521  -3.607  1.00 20.00     0.047 C 
HETATM    5  C5  UNL     1     -34.334  14.402  -4.252  1.00 20.00     0.014 C 
HETATM    6  C6  UNL     1     -35.665  14.902  -4.854  1.00 20.00    -0.044 C 
HETATM    7  C7  UNL     1     -36.466  13.702  -5.389  1.00 20.00     0.015 C 
HETATM    8  C8  UNL     1     -35.401  15.864  -6.032  1.00 20.00     0.015 C 
HETATM    9 BR9  UNL     1     -33.367  17.651  -1.716  1.00 20.00    -0.056 Br
ENDROOT
TORSDOF 0
ENDMDL
MODEL 7
REMARK VINA RESULT:      -3.7     11.617     12.555
REMARK  0 active torsions:
REMARK  status: ('A' for Active; 'I' for Inactive)
ROOT
HETATM    1  C1  UNL     1     -33.887  15.227  -3.653  1.00 20.00    -0.011 C 
HETATM    2  C2  UNL     1     -34.933  16.033  -3.415  1.00 20.00    -0.015 C 
HETATM    3  C3  UNL     1     -33.684  14.500  -4.952  1.00 20.00     0.036 C 
HETATM    4  C4  UNL     1     -36.003  16.309  -4.434  1.00 20.00     0.047 C 
HETATM    5  C5  UNL     1     -35.634  15.827  -5.843  1.00 20.00     0.014 C 
HETATM    6  C6  UNL     1     -34.946  14.445  -5.850  1.00 20.00    -0.044 C 
HETATM    7  C7  UNL     1     -34.528  14.090  -7.288  1.00 20.00     0.015 C 
HETATM    8  C8  UNL     1     -35.914  13.353  -5.351  1.00 20.00     0.015 C 
HETATM    9 BR9  UNL     1     -35.156  16.904  -1.776  1.00 20.00    -0.056 Br
ENDROOT
TORSDOF 0
ENDMDL
MODEL 8
REMARK VINA RESULT:      -3.7     11.786     12.852
REMARK  0 active torsions:
REMARK  status: ('A' for Active; 'I' for Inactive)
ROOT
HETATM    1  C1  UNL     1     -33.924  16.728  -6.023  1.00 20.00    -0.011 C 
HETATM    2  C2  UNL     1     -33.960  15.399  -6.210  1.00 20.00    -0.015 C 
HETATM    3  C3  UNL     1     -33.856  17.367  -4.666  1.00 20.00     0.036 C 
HETATM    4  C4  UNL     1     -33.916  14.410  -5.079  1.00 20.00     0.047 C 
HETATM    5  C5  UNL     1     -33.533  15.046  -3.736  1.00 20.00     0.014 C 
HETATM    6  C6  UNL     1     -34.210  16.413  -3.497  1.00 20.00    -0.044 C 
HETATM    7  C7  UNL     1     -33.694  17.014  -2.178  1.00 20.00     0.015 C 
HETATM    8  C8  UNL     1     -35.740  16.249  -3.382  1.00 20.00     0.015 C 
HETATM    9 BR9  UNL     1     -34.062  14.646  -7.918  1.00 20.00    -0.056 Br
ENDROOT
TORSDOF 0
ENDMDL
MODEL 9
REMARK VINA RESULT:      -3.6     11.308     12.585
REMARK  0 active torsions:
REMARK  status: ('A' for Active; 'I' for Inactive)
ROOT
HETATM    1  C1  UNL     1     -33.461  17.215  -3.955  1.00 20.00    -0.011 C 
HETATM    2  C2  UNL     1     -33.853  17.219  -2.672  1.00 20.00    -0.015 C 
HETATM    3  C3  UNL     1     -34.215  16.507  -5.045  1.00 20.00     0.036 C 
HETATM    4  C4  UNL     1     -35.101  16.531  -2.193  1.00 20.00     0.047 C 
HETATM    5  C5  UNL     1     -36.021  16.085  -3.338  1.00 20.00     0.014 C 
HETATM    6  C6  UNL     1     -35.253  15.478  -4.532  1.00 20.00    -0.044 C 
HETATM    7  C7  UNL     1     -36.245  15.151  -5.662  1.00 20.00     0.015 C 
HETATM    8  C8  UNL     1     -34.552  14.168  -4.118  1.00 20.00     0.015 C 
HETATM    9 BR9  UNL     1     -32.874  18.099  -1.345  1.00 20.00    -0.056 Br
ENDROOT
TORSDOF 0
ENDMDL
