MODEL 1
REMARK VINA RESULT:      -4.4      0.000      0.000
REMARK  0 active torsions:
REMARK  status: ('A' for Active; 'I' for Inactive)
ROOT
HETATM    1  C1  UNL     1     -31.771   8.436   3.968  1.00 20.00     0.101 C 
HETATM    2  C2  UNL     1     -33.454   7.261   4.980  1.00 20.00     0.055 C 
HETATM    3  C3  UNL     1     -32.924   6.573   2.736  1.00 20.00     0.145 C 
HETATM    4  C4  UNL     1     -33.755   6.644   6.136  1.00 20.00     0.112 C 
HETATM    5  C5  UNL     1     -31.789   7.572   2.732  1.00 20.00     0.092 C 
HETATM    6  C6  UNL     1     -34.093   6.918   3.647  1.00 20.00     0.105 C 
HETATM    7  C7  UNL     1     -31.892   8.458   1.499  1.00 20.00     0.023 C 
HETATM    8  C8  UNL     1     -35.142   5.807   3.644  1.00 20.00     0.025 C 
HETATM    9  N9  UNL     1     -32.539   8.293   5.004  1.00 20.00    -0.267 NA
HETATM   10  O10 UNL     1     -32.916   5.595   1.990  1.00 20.00    -0.296 OA
HETATM   11 CL11 UNL     1     -34.903   5.387   6.243  1.00 20.00    -0.095 Cl
ENDROOT
TORSDOF 0
ENDMDL
MODEL 2
REMARK VINA RESULT:      -4.4     11.913     12.570
REMARK  0 active torsions:
REMARK  status: ('A' for Active; 'I' for Inactive)
ROOT
HETATM    1  C1  UNL     1     -33.544  16.744  -4.186  1.00 20.00     0.101 C 
HETATM    2  C2  UNL     1     -34.039  15.046  -5.638  1.00 20.00     0.055 C 
HETATM    3  C3  UNL     1     -35.761  15.567  -4.039  1.00 20.00     0.145 C 
HETATM    4  C4  UNL     1     -33.995  14.737  -6.946  1.00 20.00     0.112 C 
HETATM    5  C5  UNL     1     -34.909  16.715  -3.545  1.00 20.00     0.092 C 
HETATM    6  C6  UNL     1     -34.995  14.403  -4.650  1.00 20.00     0.105 C 
HETATM    7  C7  UNL     1     -34.754  16.623  -2.033  1.00 20.00     0.023 C 
HETATM    8  C8  UNL     1     -35.947  13.339  -5.194  1.00 20.00     0.025 C 
HETATM    9  N9  UNL     1     -33.143  15.973  -5.150  1.00 20.00    -0.267 NA
HETATM   10  O10 UNL     1     -36.980  15.562  -3.880  1.00 20.00    -0.296 OA
HETATM   11 CL11 UNL     1     -35.020  13.573  -7.658  1.00 20.00    -0.095 Cl
ENDROOT
TORSDOF 0
ENDMDL
MODEL 3
REMARK VINA RESULT:      -4.3      2.365      3.647
REMARK  0 active torsions:
REMARK  status: ('A' for Active; 'I' for Inactive)
ROOT
HETATM    1  C1  UNL     1     -33.381   7.292   5.786  1.00 20.00     0.101 C 
HETATM    2  C2  UNL     1     -32.634   7.640   3.651  1.00 20.00     0.055 C 
HETATM    3  C3  UNL     1     -34.559   6.209   3.847  1.00 20.00     0.145 C 
HETATM    4  C4  UNL     1     -32.241   8.624   2.824  1.00 20.00     0.112 C 
HETATM    5  C5  UNL     1     -34.573   6.485   5.334  1.00 20.00     0.092 C 
HETATM    6  C6  UNL     1     -33.197   6.312   3.177  1.00 20.00     0.105 C 
HETATM    7  C7  UNL     1     -34.609   5.169   6.098  1.00 20.00     0.023 C 
HETATM    8  C8  UNL     1     -33.307   6.102   1.668  1.00 20.00     0.025 C 
HETATM    9  N9  UNL     1     -32.488   7.823   5.009  1.00 20.00    -0.267 NA
HETATM   10  O10 UNL     1     -35.577   5.854   3.255  1.00 20.00    -0.296 OA
HETATM   11 CL11 UNL     1     -32.328   8.497   1.125  1.00 20.00    -0.095 Cl
ENDROOT
TORSDOF 0
ENDMDL
MODEL 4
REMARK VINA RESULT:      -4.3     11.997     12.426
REMARK  0 active torsions:
REMARK  status: ('A' for Active; 'I' for Inactive)
ROOT
HETATM    1  C1  UNL     1     -33.274  15.444  -6.421  1.00 20.00     0.101 C 
HETATM    2  C2  UNL     1     -34.412  16.178  -4.576  1.00 20.00     0.055 C 
HETATM    3  C3  UNL     1     -35.201  14.108  -5.515  1.00 20.00     0.145 C 
HETATM    4  C4  UNL     1     -34.205  16.662  -3.339  1.00 20.00     0.112 C 
HETATM    5  C5  UNL     1     -34.059  14.159  -6.505  1.00 20.00     0.092 C 
HETATM    6  C6  UNL     1     -35.679  15.457  -5.000  1.00 20.00     0.105 C 
HETATM    7  C7  UNL     1     -34.600  13.990  -7.918  1.00 20.00     0.023 C 
HETATM    8  C8  UNL     1     -36.771  15.291  -3.945  1.00 20.00     0.025 C 
HETATM    9  N9  UNL     1     -33.438  16.375  -5.532  1.00 20.00    -0.267 NA
HETATM   10  O10 UNL     1     -35.741  13.043  -5.218  1.00 20.00    -0.296 OA
HETATM   11 CL11 UNL     1     -35.353  16.523  -2.085  1.00 20.00    -0.095 Cl
ENDROOT
TORSDOF 0
ENDMDL
MODEL 5
REMARK VINA RESULT:      -4.2     11.969     12.863
REMARK  0 active torsions:
REMARK  status: ('A' for Active; 'I' for Inactive)
ROOT
HETATM    1  C1  UNL     1     -34.042  15.482  -7.090  1.00 20.00     0.101 C 
HETATM    2  C2  UNL     1     -34.049  16.791  -5.213  1.00 20.00     0.055 C 
HETATM    3  C3  UNL     1     -34.458  14.450  -4.835  1.00 20.00     0.145 C 
HETATM    4  C4  UNL     1     -33.340  17.758  -4.606  1.00 20.00     0.112 C 
HETATM    5  C5  UNL     1     -34.220  14.204  -6.309  1.00 20.00     0.092 C 
HETATM    6  C6  UNL     1     -34.974  15.836  -4.481  1.00 20.00     0.105 C 
HETATM    7  C7  UNL     1     -35.386  13.415  -6.890  1.00 20.00     0.023 C 
HETATM    8  C8  UNL     1     -35.098  16.009  -2.968  1.00 20.00     0.025 C 
HETATM    9  N9  UNL     1     -33.964  16.674  -6.584  1.00 20.00    -0.267 NA
HETATM   10  O10 UNL     1     -34.310  13.553  -4.007  1.00 20.00    -0.296 OA
HETATM   11 CL11 UNL     1     -33.397  18.032  -2.923  1.00 20.00    -0.095 Cl
ENDROOT
TORSDOF 0
ENDMDL
MODEL 6
REMARK VINA RESULT:      -4.1     11.920     12.589
REMARK  0 active torsions:
REMARK  status: ('A' for Active; 'I' for Inactive)
ROOT
HETATM    1  C1  UNL     1     -35.279  16.484  -3.835  1.00 20.00     0.101 C 
HETATM    2  C2  UNL     1     -34.789  16.992  -1.659  1.00 20.00     0.055 C 
HETATM    3  C3  UNL     1     -33.450  18.126  -3.305  1.00 20.00     0.145 C 
HETATM    4  C4  UNL     1     -35.382  17.324  -0.499  1.00 20.00     0.112 C 
HETATM    5  C5  UNL     1     -34.294  17.486  -4.385  1.00 20.00     0.092 C 
HETATM    6  C6  UNL     1     -33.353  17.344  -2.004  1.00 20.00     0.105 C 
HETATM    7  C7  UNL     1     -33.390  16.800  -5.400  1.00 20.00     0.023 C 
HETATM    8  C8  UNL     1     -32.554  18.115  -0.954  1.00 20.00     0.025 C 
HETATM    9  N9  UNL     1     -35.505  16.256  -2.579  1.00 20.00    -0.267 NA
HETATM   10  O10 UNL     1     -32.832  19.169  -3.512  1.00 20.00    -0.296 OA
HETATM   11 CL11 UNL     1     -34.585  18.191   0.735  1.00 20.00    -0.095 Cl
ENDROOT
TORSDOF 0
ENDMDL
MODEL 7
REMARK VINA RESULT:      -4.1     11.446     12.297
REMARK  0 active torsions:
REMARK  status: ('A' for Active; 'I' for Inactive)
ROOT
HETATM    1  C1  UNL     1     -34.719  15.829  -3.332  1.00 20.00     0.101 C 
HETATM    2  C2  UNL     1     -36.724  15.992  -4.423  1.00 20.00     0.055 C 
HETATM    3  C3  UNL     1     -35.446  14.012  -4.910  1.00 20.00     0.145 C 
HETATM    4  C4  UNL     1     -38.018  16.278  -4.202  1.00 20.00     0.112 C 
HETATM    5  C5  UNL     1     -34.429  14.455  -3.881  1.00 20.00     0.092 C 
HETATM    6  C6  UNL     1     -36.233  15.133  -5.573  1.00 20.00     0.105 C 
HETATM    7  C7  UNL     1     -33.038  14.442  -4.500  1.00 20.00     0.023 C 
HETATM    8  C8  UNL     1     -37.289  14.577  -6.527  1.00 20.00     0.025 C 
HETATM    9  N9  UNL     1     -35.776  16.538  -3.583  1.00 20.00    -0.267 NA
HETATM   10  O10 UNL     1     -35.560  12.829  -5.227  1.00 20.00    -0.296 OA
HETATM   11 CL11 UNL     1     -39.278  15.702  -5.198  1.00 20.00    -0.095 Cl
ENDROOT
TORSDOF 0
ENDMDL
MODEL 8
REMARK VINA RESULT:      -4.1     12.015     12.622
REMARK  0 active torsions:
REMARK  status: ('A' for Active; 'I' for Inactive)
ROOT
HETATM    1  C1  UNL     1     -32.228  18.913   0.180  1.00 20.00     0.101 C 
HETATM    2  C2  UNL     1     -33.196  18.025  -1.694  1.00 20.00     0.055 C 
HETATM    3  C3  UNL     1     -34.696  18.435   0.143  1.00 20.00     0.145 C 
HETATM    4  C4  UNL     1     -33.236  18.180  -3.028  1.00 20.00     0.112 C 
HETATM    5  C5  UNL     1     -33.545  19.056   0.902  1.00 20.00     0.092 C 
HETATM    6  C6  UNL     1     -34.308  17.382  -0.884  1.00 20.00     0.105 C 
HETATM    7  C7  UNL     1     -33.437  18.415   2.279  1.00 20.00     0.023 C 
HETATM    8  C8  UNL     1     -35.530  16.883  -1.653  1.00 20.00     0.025 C 
HETATM    9  N9  UNL     1     -32.068  18.437  -1.016  1.00 20.00    -0.267 NA
HETATM   10  O10 UNL     1     -35.863  18.722   0.406  1.00 20.00    -0.296 OA
HETATM   11 CL11 UNL     1     -34.555  17.668  -3.982  1.00 20.00    -0.095 Cl
ENDROOT
TORSDOF 0
ENDMDL
MODEL 9
REMARK VINA RESULT:      -4.0     11.869     12.575
REMARK  0 active torsions:
REMARK  status: ('A' for Active; 'I' for Inactive)
ROOT
HETATM    1  C1  UNL     1     -36.859  14.449  -5.925  1.00 20.00     0.101 C 
HETATM    2  C2  UNL     1     -35.484  15.098  -4.216  1.00 20.00     0.055 C 
HETATM    3  C3  UNL     1     -34.427  14.905  -6.369  1.00 20.00     0.145 C 
HETATM    4  C4  UNL     1     -35.426  15.957  -3.183  1.00 20.00     0.112 C 
HETATM    5  C5  UNL     1     -35.781  14.596  -6.969  1.00 20.00     0.092 C 
HETATM    6  C6  UNL     1     -34.260  14.524  -4.906  1.00 20.00     0.105 C 
HETATM    7  C7  UNL     1     -35.695  13.316  -7.790  1.00 20.00     0.023 C 
HETATM    8  C8  UNL     1     -32.894  14.955  -4.375  1.00 20.00     0.025 C 
HETATM    9  N9  UNL     1     -36.721  14.679  -4.656  1.00 20.00    -0.267 NA
HETATM   10  O10 UNL     1     -33.515  15.365  -7.054  1.00 20.00    -0.296 OA
HETATM   11 CL11 UNL     1     -33.955  16.511  -2.519  1.00 20.00    -0.095 Cl
ENDROOT
TORSDOF 0
ENDMDL
