MODEL 1
REMARK VINA RESULT:      -4.7      0.000      0.000
REMARK  0 active torsions:
REMARK  status: ('A' for Active; 'I' for Inactive)
ROOT
HETATM    1  C1  UNL     1     -36.596  15.543  -4.067  1.00 20.00     0.009 C 
HETATM    2  C2  UNL     1     -34.598  14.034  -4.270  1.00 20.00     0.009 C 
HETATM    3  C3  UNL     1     -35.388  15.347  -6.254  1.00 20.00     0.013 C 
HETATM    4  C4  UNL     1     -35.236  17.464  -4.912  1.00 20.00     0.014 C 
HETATM    5  C5  UNL     1     -33.233  15.952  -5.117  1.00 20.00     0.014 C 
HETATM    6  C6  UNL     1     -35.838  14.581  -4.998  1.00 20.00    -0.013 C 
HETATM    7  C7  UNL     1     -35.679  16.708  -3.645  1.00 20.00    -0.009 C 
HETATM    8  C8  UNL     1     -33.675  15.194  -3.849  1.00 20.00    -0.009 C 
HETATM    9  C9  UNL     1     -34.460  16.124  -2.892  1.00 20.00    -0.010 C 
HETATM   10  C10 UNL     1     -34.461  16.522  -5.864  1.00 20.00    -0.043 C 
HETATM   11  C11 UNL     1     -33.579  17.205  -2.262  1.00 20.00     0.010 C 
HETATM   12  C12 UNL     1     -34.015  17.282  -7.116  1.00 20.00     0.015 C 
ENDROOT
TORSDOF 0
ENDMDL
MODEL 2
REMARK VINA RESULT:      -4.7      1.354      3.303
REMARK  0 active torsions:
REMARK  status: ('A' for Active; 'I' for Inactive)
ROOT
HETATM    1  C1  UNL     1     -35.160  15.989  -7.483  1.00 20.00     0.009 C 
HETATM    2  C2  UNL     1     -34.510  13.638  -6.884  1.00 20.00     0.009 C 
HETATM    3  C3  UNL     1     -33.347  15.578  -5.802  1.00 20.00     0.013 C 
HETATM    4  C4  UNL     1     -35.566  16.497  -5.068  1.00 20.00     0.014 C 
HETATM    5  C5  UNL     1     -34.914  14.141  -4.467  1.00 20.00     0.014 C 
HETATM    6  C6  UNL     1     -33.988  15.068  -7.104  1.00 20.00    -0.013 C 
HETATM    7  C7  UNL     1     -36.222  15.985  -6.365  1.00 20.00    -0.009 C 
HETATM    8  C8  UNL     1     -35.569  13.627  -5.764  1.00 20.00    -0.009 C 
HETATM    9  C9  UNL     1     -36.744  14.540  -6.191  1.00 20.00    -0.010 C 
HETATM   10  C10 UNL     1     -34.388  15.582  -4.658  1.00 20.00    -0.043 C 
HETATM   11  C11 UNL     1     -37.938  14.452  -5.238  1.00 20.00     0.010 C 
HETATM   12  C12 UNL     1     -33.748  16.089  -3.363  1.00 20.00     0.015 C 
ENDROOT
TORSDOF 0
ENDMDL
MODEL 3
REMARK VINA RESULT:      -4.6      0.855      2.882
REMARK  0 active torsions:
REMARK  status: ('A' for Active; 'I' for Inactive)
ROOT
HETATM    1  C1  UNL     1     -32.851  15.515  -5.270  1.00 20.00     0.009 C 
HETATM    2  C2  UNL     1     -34.291  17.504  -5.797  1.00 20.00     0.009 C 
HETATM    3  C3  UNL     1     -35.014  15.208  -6.497  1.00 20.00     0.013 C 
HETATM    4  C4  UNL     1     -34.783  14.413  -4.127  1.00 20.00     0.014 C 
HETATM    5  C5  UNL     1     -36.228  16.407  -4.655  1.00 20.00     0.014 C 
HETATM    6  C6  UNL     1     -33.803  16.137  -6.305  1.00 20.00    -0.013 C 
HETATM    7  C7  UNL     1     -33.573  15.344  -3.919  1.00 20.00    -0.009 C 
HETATM    8  C8  UNL     1     -35.018  17.340  -4.448  1.00 20.00    -0.009 C 
HETATM    9  C9  UNL     1     -34.024  16.739  -3.424  1.00 20.00    -0.010 C 
HETATM   10  C10 UNL     1     -35.764  15.020  -5.158  1.00 20.00    -0.043 C 
HETATM   11  C11 UNL     1     -34.584  16.711  -2.001  1.00 20.00     0.010 C 
HETATM   12  C12 UNL     1     -36.969  14.096  -5.352  1.00 20.00     0.015 C 
ENDROOT
TORSDOF 0
ENDMDL
MODEL 4
REMARK VINA RESULT:      -4.5      1.124      3.399
REMARK  0 active torsions:
REMARK  status: ('A' for Active; 'I' for Inactive)
ROOT
HETATM    1  C1  UNL     1     -33.396  16.854  -4.935  1.00 20.00     0.009 C 
HETATM    2  C2  UNL     1     -33.219  14.455  -4.211  1.00 20.00     0.009 C 
HETATM    3  C3  UNL     1     -35.108  15.882  -3.385  1.00 20.00     0.013 C 
HETATM    4  C4  UNL     1     -35.722  16.439  -5.755  1.00 20.00     0.014 C 
HETATM    5  C5  UNL     1     -35.546  14.035  -5.028  1.00 20.00     0.014 C 
HETATM    6  C6  UNL     1     -33.619  15.874  -3.771  1.00 20.00    -0.013 C 
HETATM    7  C7  UNL     1     -34.234  16.428  -6.157  1.00 20.00    -0.009 C 
HETATM    8  C8  UNL     1     -34.057  14.021  -5.430  1.00 20.00    -0.009 C 
HETATM    9  C9  UNL     1     -33.787  15.011  -6.589  1.00 20.00    -0.010 C 
HETATM   10  C10 UNL     1     -35.978  15.454  -4.590  1.00 20.00    -0.043 C 
HETATM   11  C11 UNL     1     -34.421  14.566  -7.908  1.00 20.00     0.010 C 
HETATM   12  C12 UNL     1     -37.459  15.461  -4.203  1.00 20.00     0.015 C 
ENDROOT
TORSDOF 0
ENDMDL
MODEL 5
REMARK VINA RESULT:      -4.5      0.880      2.965
REMARK  0 active torsions:
REMARK  status: ('A' for Active; 'I' for Inactive)
ROOT
HETATM    1  C1  UNL     1     -34.132  14.041  -4.117  1.00 20.00     0.009 C 
HETATM    2  C2  UNL     1     -34.988  16.241  -3.260  1.00 20.00     0.009 C 
HETATM    3  C3  UNL     1     -33.310  16.184  -5.122  1.00 20.00     0.013 C 
HETATM    4  C4  UNL     1     -34.822  14.671  -6.437  1.00 20.00     0.014 C 
HETATM    5  C5  UNL     1     -35.680  16.877  -5.578  1.00 20.00     0.014 C 
HETATM    6  C6  UNL     1     -33.759  15.503  -3.818  1.00 20.00    -0.013 C 
HETATM    7  C7  UNL     1     -35.286  13.984  -5.137  1.00 20.00    -0.009 C 
HETATM    8  C8  UNL     1     -36.145  16.192  -4.278  1.00 20.00    -0.009 C 
HETATM    9  C9  UNL     1     -36.511  14.710  -4.533  1.00 20.00    -0.010 C 
HETATM   10  C10 UNL     1     -34.450  16.148  -6.167  1.00 20.00    -0.043 C 
HETATM   11  C11 UNL     1     -37.774  14.549  -5.383  1.00 20.00     0.010 C 
HETATM   12  C12 UNL     1     -34.000  16.827  -7.463  1.00 20.00     0.015 C 
ENDROOT
TORSDOF 0
ENDMDL
MODEL 6
REMARK VINA RESULT:      -4.5      1.084      3.176
REMARK  0 active torsions:
REMARK  status: ('A' for Active; 'I' for Inactive)
ROOT
HETATM    1  C1  UNL     1     -35.469  17.087  -6.339  1.00 20.00     0.009 C 
HETATM    2  C2  UNL     1     -33.297  15.834  -6.488  1.00 20.00     0.009 C 
HETATM    3  C3  UNL     1     -33.656  17.514  -4.662  1.00 20.00     0.013 C 
HETATM    4  C4  UNL     1     -35.754  16.318  -3.975  1.00 20.00     0.014 C 
HETATM    5  C5  UNL     1     -33.576  15.063  -4.124  1.00 20.00     0.014 C 
HETATM    6  C6  UNL     1     -33.947  17.183  -6.136  1.00 20.00    -0.013 C 
HETATM    7  C7  UNL     1     -36.055  15.973  -5.447  1.00 20.00    -0.009 C 
HETATM    8  C8  UNL     1     -33.875  14.717  -5.597  1.00 20.00    -0.009 C 
HETATM    9  C9  UNL     1     -35.401  14.630  -5.847  1.00 20.00    -0.010 C 
HETATM   10  C10 UNL     1     -34.228  16.412  -3.740  1.00 20.00    -0.043 C 
HETATM   11  C11 UNL     1     -36.046  13.427  -5.156  1.00 20.00     0.010 C 
HETATM   12  C12 UNL     1     -33.936  16.744  -2.275  1.00 20.00     0.015 C 
ENDROOT
TORSDOF 0
ENDMDL
MODEL 7
REMARK VINA RESULT:      -4.4      1.187      2.452
REMARK  0 active torsions:
REMARK  status: ('A' for Active; 'I' for Inactive)
ROOT
HETATM    1  C1  UNL     1     -35.223  15.787  -3.656  1.00 20.00     0.009 C 
HETATM    2  C2  UNL     1     -33.105  14.837  -4.616  1.00 20.00     0.009 C 
HETATM    3  C3  UNL     1     -35.317  13.799  -5.179  1.00 20.00     0.013 C 
HETATM    4  C4  UNL     1     -36.163  16.030  -5.960  1.00 20.00     0.014 C 
HETATM    5  C5  UNL     1     -34.041  15.077  -6.923  1.00 20.00     0.014 C 
HETATM    6  C6  UNL     1     -34.503  14.494  -4.074  1.00 20.00    -0.013 C 
HETATM    7  C7  UNL     1     -35.347  16.740  -4.862  1.00 20.00    -0.009 C 
HETATM    8  C8  UNL     1     -33.223  15.786  -5.825  1.00 20.00    -0.009 C 
HETATM    9  C9  UNL     1     -33.925  17.085  -5.363  1.00 20.00    -0.010 C 
HETATM   10  C10 UNL     1     -35.456  14.729  -6.407  1.00 20.00    -0.043 C 
HETATM   11  C11 UNL     1     -33.924  18.174  -6.438  1.00 20.00     0.010 C 
HETATM   12  C12 UNL     1     -36.266  14.035  -7.506  1.00 20.00     0.015 C 
ENDROOT
TORSDOF 0
ENDMDL
MODEL 8
REMARK VINA RESULT:      -4.4      1.220      3.488
REMARK  0 active torsions:
REMARK  status: ('A' for Active; 'I' for Inactive)
ROOT
HETATM    1  C1  UNL     1     -37.296  14.207  -4.973  1.00 20.00     0.009 C 
HETATM    2  C2  UNL     1     -36.923  16.360  -6.213  1.00 20.00     0.009 C 
HETATM    3  C3  UNL     1     -36.221  16.153  -3.815  1.00 20.00     0.013 C 
HETATM    4  C4  UNL     1     -34.866  14.118  -4.389  1.00 20.00     0.014 C 
HETATM    5  C5  UNL     1     -34.491  16.276  -5.631  1.00 20.00     0.014 C 
HETATM    6  C6  UNL     1     -37.281  15.741  -4.851  1.00 20.00    -0.013 C 
HETATM    7  C7  UNL     1     -35.916  13.697  -5.435  1.00 20.00    -0.009 C 
HETATM    8  C8  UNL     1     -35.542  15.857  -6.678  1.00 20.00    -0.009 C 
HETATM    9  C9  UNL     1     -35.602  14.316  -6.817  1.00 20.00    -0.010 C 
HETATM   10  C10 UNL     1     -34.822  15.658  -4.252  1.00 20.00    -0.043 C 
HETATM   11  C11 UNL     1     -34.342  13.729  -7.456  1.00 20.00     0.010 C 
HETATM   12  C12 UNL     1     -33.769  16.070  -3.220  1.00 20.00     0.015 C 
ENDROOT
TORSDOF 0
ENDMDL
MODEL 9
REMARK VINA RESULT:      -4.4      0.996      1.948
REMARK  0 active torsions:
REMARK  status: ('A' for Active; 'I' for Inactive)
ROOT
HETATM    1  C1  UNL     1     -34.700  14.130  -4.489  1.00 20.00     0.009 C 
HETATM    2  C2  UNL     1     -33.210  15.641  -5.833  1.00 20.00     0.009 C 
HETATM    3  C3  UNL     1     -35.673  15.570  -6.295  1.00 20.00     0.013 C 
HETATM    4  C4  UNL     1     -36.140  16.082  -3.882  1.00 20.00     0.014 C 
HETATM    5  C5  UNL     1     -34.647  17.598  -5.229  1.00 20.00     0.014 C 
HETATM    6  C6  UNL     1     -34.450  14.733  -5.882  1.00 20.00    -0.013 C 
HETATM    7  C7  UNL     1     -34.913  15.253  -3.455  1.00 20.00    -0.009 C 
HETATM    8  C8  UNL     1     -33.419  16.769  -4.803  1.00 20.00    -0.009 C 
HETATM    9  C9  UNL     1     -33.639  16.128  -3.411  1.00 20.00    -0.010 C 
HETATM   10  C10 UNL     1     -35.912  16.710  -5.277  1.00 20.00    -0.043 C 
HETATM   11  C11 UNL     1     -33.667  17.160  -2.281  1.00 20.00     0.010 C 
HETATM   12  C12 UNL     1     -37.129  17.541  -5.691  1.00 20.00     0.015 C 
ENDROOT
TORSDOF 0
ENDMDL
