MODEL 1
REMARK VINA RESULT:      -4.3      0.000      0.000
REMARK  1 active torsions:
REMARK  status: ('A' for Active; 'I' for Inactive)
REMARK    1  A    between atoms: C5_5  and  N7_7 
ROOT
HETATM    1  C1  UNL     1     -32.531   7.314   2.429  1.00 20.00     0.160 C 
HETATM    2  N7  UNL     1     -32.742   6.235   2.836  1.00 20.00    -0.237 NA
HETATM    3  S9  UNL     1     -32.212   8.767   1.859  1.00 20.00    -0.055 SA
ENDROOT
BRANCH   2   4
HETATM    4  C5  UNL     1     -33.958   6.117   3.652  1.00 20.00     0.152 C 
HETATM    5  C3  UNL     1     -33.999   4.718   4.270  1.00 20.00     0.065 C 
HETATM    6  C2  UNL     1     -34.734   4.939   5.568  1.00 20.00     0.031 C 
HETATM    7  C4  UNL     1     -34.241   6.308   5.971  1.00 20.00     0.171 C 
HETATM    8  O8  UNL     1     -34.062   7.045   4.755  1.00 20.00    -0.359 OA
HETATM    9  C6  UNL     1     -35.157   6.376   2.738  1.00 20.00     0.073 C 
ENDBRANCH   2   4
TORSDOF 1
ENDMDL
MODEL 2
REMARK VINA RESULT:      -3.7     11.695     12.561
REMARK  1 active torsions:
REMARK  status: ('A' for Active; 'I' for Inactive)
REMARK    1  A    between atoms: C5_5  and  N7_7 
ROOT
HETATM    1  C1  UNL     1     -34.241  15.062  -3.713  1.00 20.00     0.160 C 
HETATM    2  N7  UNL     1     -34.445  13.998  -4.161  1.00 20.00    -0.237 NA
HETATM    3  S9  UNL     1     -33.943  16.492  -3.076  1.00 20.00    -0.055 SA
ENDROOT
BRANCH   2   4
HETATM    4  C5  UNL     1     -35.346  13.985  -5.320  1.00 20.00     0.152 C 
HETATM    5  C3  UNL     1     -34.779  14.917  -6.392  1.00 20.00     0.065 C 
HETATM    6  C2  UNL     1     -35.254  14.289  -7.678  1.00 20.00     0.031 C 
HETATM    7  C4  UNL     1     -35.182  12.817  -7.345  1.00 20.00     0.171 C 
HETATM    8  O8  UNL     1     -35.524  12.701  -5.959  1.00 20.00    -0.359 OA
HETATM    9  C6  UNL     1     -36.727  14.437  -4.839  1.00 20.00     0.073 C 
ENDBRANCH   2   4
TORSDOF 1
ENDMDL
MODEL 3
REMARK VINA RESULT:      -3.6      2.522      3.862
REMARK  1 active torsions:
REMARK  status: ('A' for Active; 'I' for Inactive)
REMARK    1  A    between atoms: C5_5  and  N7_7 
ROOT
HETATM    1  C1  UNL     1     -34.510   6.079   4.608  1.00 20.00     0.160 C 
HETATM    2  N7  UNL     1     -34.453   6.891   3.764  1.00 20.00    -0.237 NA
HETATM    3  S9  UNL     1     -34.622   4.987   5.763  1.00 20.00    -0.055 SA
ENDROOT
BRANCH   2   4
HETATM    4  C5  UNL     1     -33.172   6.938   3.046  1.00 20.00     0.152 C 
HETATM    5  C3  UNL     1     -33.279   7.967   1.920  1.00 20.00     0.065 C 
HETATM    6  C2  UNL     1     -31.867   8.479   1.789  1.00 20.00     0.031 C 
HETATM    7  C4  UNL     1     -31.399   8.460   3.225  1.00 20.00     0.171 C 
HETATM    8  O8  UNL     1     -32.027   7.327   3.837  1.00 20.00    -0.359 OA
HETATM    9  C6  UNL     1     -32.888   5.532   2.513  1.00 20.00     0.073 C 
ENDBRANCH   2   4
TORSDOF 1
ENDMDL
MODEL 4
REMARK VINA RESULT:      -3.6      1.376      2.000
REMARK  1 active torsions:
REMARK  status: ('A' for Active; 'I' for Inactive)
REMARK    1  A    between atoms: C5_5  and  N7_7 
ROOT
HETATM    1  C1  UNL     1     -33.059   8.147   2.473  1.00 20.00     0.160 C 
HETATM    2  N7  UNL     1     -34.011   7.833   3.081  1.00 20.00    -0.237 NA
HETATM    3  S9  UNL     1     -31.785   8.600   1.630  1.00 20.00    -0.055 SA
ENDROOT
BRANCH   2   4
HETATM    4  C5  UNL     1     -33.808   6.700   3.993  1.00 20.00     0.152 C 
HETATM    5  C3  UNL     1     -35.131   5.947   4.142  1.00 20.00     0.065 C 
HETATM    6  C2  UNL     1     -34.691   4.527   4.391  1.00 20.00     0.031 C 
HETATM    7  C4  UNL     1     -33.459   4.430   3.523  1.00 20.00     0.171 C 
HETATM    8  O8  UNL     1     -32.836   5.720   3.565  1.00 20.00    -0.359 OA
HETATM    9  C6  UNL     1     -33.314   7.261   5.328  1.00 20.00     0.073 C 
ENDBRANCH   2   4
TORSDOF 1
ENDMDL
MODEL 5
REMARK VINA RESULT:      -3.5     11.726     12.702
REMARK  1 active torsions:
REMARK  status: ('A' for Active; 'I' for Inactive)
REMARK    1  A    between atoms: C5_5  and  N7_7 
ROOT
HETATM    1  C1  UNL     1     -38.674  14.724  -4.962  1.00 20.00     0.160 C 
HETATM    2  N7  UNL     1     -37.854  13.886  -4.951  1.00 20.00    -0.237 NA
HETATM    3  S9  UNL     1     -39.814  15.836  -4.972  1.00 20.00    -0.055 SA
ENDROOT
BRANCH   2   4
HETATM    4  C5  UNL     1     -36.490  14.362  -5.212  1.00 20.00     0.152 C 
HETATM    5  C3  UNL     1     -36.163  15.481  -4.221  1.00 20.00     0.065 C 
HETATM    6  C2  UNL     1     -34.672  15.353  -4.039  1.00 20.00     0.031 C 
HETATM    7  C4  UNL     1     -34.481  13.857  -4.114  1.00 20.00     0.171 C 
HETATM    8  O8  UNL     1     -35.445  13.375  -5.060  1.00 20.00    -0.359 OA
HETATM    9  C6  UNL     1     -36.437  14.846  -6.662  1.00 20.00     0.073 C 
ENDBRANCH   2   4
TORSDOF 1
ENDMDL
MODEL 6
REMARK VINA RESULT:      -3.5     11.878     12.510
REMARK  1 active torsions:
REMARK  status: ('A' for Active; 'I' for Inactive)
REMARK    1  A    between atoms: C5_5  and  N7_7 
ROOT
HETATM    1  C1  UNL     1     -37.373  14.083  -5.178  1.00 20.00     0.160 C 
HETATM    2  N7  UNL     1     -36.338  13.534  -5.217  1.00 20.00    -0.237 NA
HETATM    3  S9  UNL     1     -38.797  14.795  -5.124  1.00 20.00    -0.055 SA
ENDROOT
BRANCH   2   4
HETATM    4  C5  UNL     1     -35.176  14.427  -5.311  1.00 20.00     0.152 C 
HETATM    5  C3  UNL     1     -35.156  15.337  -4.082  1.00 20.00     0.065 C 
HETATM    6  C2  UNL     1     -33.686  15.603  -3.876  1.00 20.00     0.031 C 
HETATM    7  C4  UNL     1     -33.076  14.282  -4.281  1.00 20.00     0.171 C 
HETATM    8  O8  UNL     1     -33.888  13.774  -5.347  1.00 20.00    -0.359 OA
HETATM    9  C6  UNL     1     -35.307  15.223  -6.612  1.00 20.00     0.073 C 
ENDBRANCH   2   4
TORSDOF 1
ENDMDL
MODEL 7
REMARK VINA RESULT:      -3.5     11.992     13.134
REMARK  1 active torsions:
REMARK  status: ('A' for Active; 'I' for Inactive)
REMARK    1  A    between atoms: C5_5  and  N7_7 
ROOT
HETATM    1  C1  UNL     1     -33.386  16.571  -5.192  1.00 20.00     0.160 C 
HETATM    2  N7  UNL     1     -33.199  15.547  -5.731  1.00 20.00    -0.237 NA
HETATM    3  S9  UNL     1     -33.606  17.973  -4.469  1.00 20.00    -0.055 SA
ENDROOT
BRANCH   2   4
HETATM    4  C5  UNL     1     -34.320  14.601  -5.654  1.00 20.00     0.152 C 
HETATM    5  C3  UNL     1     -35.560  15.261  -6.261  1.00 20.00     0.065 C 
HETATM    6  C2  UNL     1     -36.330  14.092  -6.821  1.00 20.00     0.031 C 
HETATM    7  C4  UNL     1     -35.216  13.190  -7.296  1.00 20.00     0.171 C 
HETATM    8  O8  UNL     1     -34.138  13.358  -6.367  1.00 20.00    -0.359 OA
HETATM    9  C6  UNL     1     -34.524  14.243  -4.181  1.00 20.00     0.073 C 
ENDBRANCH   2   4
TORSDOF 1
ENDMDL
MODEL 8
REMARK VINA RESULT:      -3.5      2.575      4.539
REMARK  1 active torsions:
REMARK  status: ('A' for Active; 'I' for Inactive)
REMARK    1  A    between atoms: C5_5  and  N7_7 
ROOT
HETATM    1  C1  UNL     1     -33.532   6.902   3.751  1.00 20.00     0.160 C 
HETATM    2  N7  UNL     1     -33.151   6.987   2.645  1.00 20.00    -0.237 NA
HETATM    3  S9  UNL     1     -34.065   6.753   5.245  1.00 20.00    -0.055 SA
ENDROOT
BRANCH   2   4
HETATM    4  C5  UNL     1     -32.408   8.219   2.348  1.00 20.00     0.152 C 
HETATM    5  C3  UNL     1     -31.802   8.100   0.949  1.00 20.00     0.065 C 
HETATM    6  C2  UNL     1     -31.770   9.528   0.467  1.00 20.00     0.031 C 
HETATM    7  C4  UNL     1     -33.033  10.086   1.077  1.00 20.00     0.171 C 
HETATM    8  O8  UNL     1     -33.191   9.434   2.343  1.00 20.00    -0.359 OA
HETATM    9  C6  UNL     1     -31.336   8.386   3.426  1.00 20.00     0.073 C 
ENDBRANCH   2   4
TORSDOF 1
ENDMDL
MODEL 9
REMARK VINA RESULT:      -3.4      1.767      2.602
REMARK  1 active torsions:
REMARK  status: ('A' for Active; 'I' for Inactive)
REMARK    1  A    between atoms: C5_5  and  N7_7 
ROOT
HETATM    1  C1  UNL     1     -32.600   9.057   1.420  1.00 20.00     0.160 C 
HETATM    2  N7  UNL     1     -32.547   7.886   1.437  1.00 20.00    -0.237 NA
HETATM    3  S9  UNL     1     -32.666  10.648   1.361  1.00 20.00    -0.055 SA
ENDROOT
BRANCH   2   4
HETATM    4  C5  UNL     1     -32.683   7.287   2.771  1.00 20.00     0.152 C 
HETATM    5  C3  UNL     1     -34.100   7.547   3.284  1.00 20.00     0.065 C 
HETATM    6  C2  UNL     1     -34.370   6.353   4.164  1.00 20.00     0.031 C 
HETATM    7  C4  UNL     1     -33.652   5.254   3.418  1.00 20.00     0.171 C 
HETATM    8  O8  UNL     1     -32.490   5.856   2.835  1.00 20.00    -0.359 OA
HETATM    9  C6  UNL     1     -31.620   7.919   3.673  1.00 20.00     0.073 C 
ENDBRANCH   2   4
TORSDOF 1
ENDMDL
