MODEL 1
REMARK VINA RESULT:      -4.2      0.000      0.000
REMARK  2 active torsions:
REMARK  status: ('A' for Active; 'I' for Inactive)
REMARK    1  A    between atoms: C1_1  and  C5_5 
REMARK    2  A    between atoms: C5_5  and  C7_7 
ROOT
HETATM    1  C2  UNL     1     -32.079   8.376   2.358  1.00 20.00     0.002 C 
HETATM    2  C3  UNL     1     -31.893   6.960   2.933  1.00 20.00     0.020 C 
HETATM    3  C4  UNL     1     -33.599   8.181   2.499  1.00 20.00     0.020 C 
HETATM    4  C5  UNL     1     -33.321   7.066   3.556  1.00 20.00     0.048 C 
ENDROOT
BRANCH   4   5
HETATM    5  C1  UNL     1     -34.199   5.791   3.420  1.00 20.00     0.181 C 
HETATM    6  O8  UNL     1     -33.561   4.711   3.282  1.00 20.00    -0.647 OA
HETATM    7  O9  UNL     1     -35.444   5.997   3.464  1.00 20.00    -0.647 OA
ENDBRANCH   4   5
BRANCH   4   8
HETATM    8  C7  UNL     1     -33.320   7.580   4.998  1.00 20.00     0.016 C 
HETATM    9  C6  UNL     1     -34.068   6.665   5.913  1.00 20.00     0.006 C 
ENDBRANCH   4   8
TORSDOF 2
ENDMDL
MODEL 2
REMARK VINA RESULT:      -4.1     11.059     12.121
REMARK  2 active torsions:
REMARK  status: ('A' for Active; 'I' for Inactive)
REMARK    1  A    between atoms: C1_1  and  C5_5 
REMARK    2  A    between atoms: C5_5  and  C7_7 
ROOT
HETATM    1  C2  UNL     1     -34.307  15.842  -3.288  1.00 20.00     0.002 C 
HETATM    2  C3  UNL     1     -35.760  15.732  -3.783  1.00 20.00     0.020 C 
HETATM    3  C4  UNL     1     -33.991  14.561  -4.078  1.00 20.00     0.020 C 
HETATM    4  C5  UNL     1     -35.253  14.835  -4.957  1.00 20.00     0.048 C 
ENDROOT
BRANCH   4   5
HETATM    5  C1  UNL     1     -36.129  13.589  -5.264  1.00 20.00     0.181 C 
HETATM    6  O8  UNL     1     -35.528  12.635  -5.830  1.00 20.00    -0.647 OA
HETATM    7  O9  UNL     1     -37.336  13.689  -4.908  1.00 20.00    -0.647 OA
ENDBRANCH   4   5
BRANCH   4   8
HETATM    8  C7  UNL     1     -34.947  15.620  -6.234  1.00 20.00     0.016 C 
HETATM    9  C6  UNL     1     -36.135  15.691  -7.139  1.00 20.00     0.006 C 
ENDBRANCH   4   8
TORSDOF 2
ENDMDL
MODEL 3
REMARK VINA RESULT:      -4.1     11.072     12.184
REMARK  2 active torsions:
REMARK  status: ('A' for Active; 'I' for Inactive)
REMARK    1  A    between atoms: C1_1  and  C5_5 
REMARK    2  A    between atoms: C5_5  and  C7_7 
ROOT
HETATM    1  C2  UNL     1     -34.242  15.796  -3.390  1.00 20.00     0.002 C 
HETATM    2  C3  UNL     1     -35.696  15.712  -3.886  1.00 20.00     0.020 C 
HETATM    3  C4  UNL     1     -33.957  14.490  -4.151  1.00 20.00     0.020 C 
HETATM    4  C5  UNL     1     -35.210  14.777  -5.039  1.00 20.00     0.048 C 
ENDROOT
BRANCH   4   5
HETATM    5  C1  UNL     1     -36.117  13.548  -5.322  1.00 20.00     0.181 C 
HETATM    6  O8  UNL     1     -37.308  13.655  -4.920  1.00 20.00    -0.647 OA
HETATM    7  O9  UNL     1     -35.545  12.593  -5.919  1.00 20.00    -0.647 OA
ENDBRANCH   4   5
BRANCH   4   8
HETATM    8  C7  UNL     1     -34.881  15.526  -6.333  1.00 20.00     0.016 C 
HETATM    9  C6  UNL     1     -36.089  15.696  -7.197  1.00 20.00     0.006 C 
ENDBRANCH   4   8
TORSDOF 2
ENDMDL
MODEL 4
REMARK VINA RESULT:      -4.0      1.338      2.201
REMARK  2 active torsions:
REMARK  status: ('A' for Active; 'I' for Inactive)
REMARK    1  A    between atoms: C1_1  and  C5_5 
REMARK    2  A    between atoms: C5_5  and  C7_7 
ROOT
HETATM    1  C2  UNL     1     -31.926   8.383   2.288  1.00 20.00     0.002 C 
HETATM    2  C3  UNL     1     -33.419   8.022   2.196  1.00 20.00     0.020 C 
HETATM    3  C4  UNL     1     -31.891   7.683   3.657  1.00 20.00     0.020 C 
HETATM    4  C5  UNL     1     -33.173   6.892   3.245  1.00 20.00     0.048 C 
ENDROOT
BRANCH   4   5
HETATM    5  C1  UNL     1     -34.258   6.767   4.350  1.00 20.00     0.181 C 
HETATM    6  O8  UNL     1     -33.901   7.144   5.500  1.00 20.00    -0.647 OA
HETATM    7  O9  UNL     1     -35.364   6.300   3.957  1.00 20.00    -0.647 OA
ENDBRANCH   4   5
BRANCH   4   8
HETATM    8  C7  UNL     1     -32.872   5.530   2.615  1.00 20.00     0.016 C 
HETATM    9  C6  UNL     1     -33.451   4.408   3.416  1.00 20.00     0.006 C 
ENDBRANCH   4   8
TORSDOF 2
ENDMDL
MODEL 5
REMARK VINA RESULT:      -4.0     11.182     12.459
REMARK  2 active torsions:
REMARK  status: ('A' for Active; 'I' for Inactive)
REMARK    1  A    between atoms: C1_1  and  C5_5 
REMARK    2  A    between atoms: C5_5  and  C7_7 
ROOT
HETATM    1  C2  UNL     1     -34.051  15.429  -7.918  1.00 20.00     0.002 C 
HETATM    2  C3  UNL     1     -34.234  13.967  -7.475  1.00 20.00     0.020 C 
HETATM    3  C4  UNL     1     -35.143  15.821  -6.907  1.00 20.00     0.020 C 
HETATM    4  C5  UNL     1     -34.864  14.487  -6.144  1.00 20.00     0.048 C 
ENDROOT
BRANCH   4   5
HETATM    5  C1  UNL     1     -36.128  13.721  -5.666  1.00 20.00     0.181 C 
HETATM    6  O8  UNL     1     -37.220  14.334  -5.822  1.00 20.00    -0.647 OA
HETATM    7  O9  UNL     1     -35.903  12.578  -5.179  1.00 20.00    -0.647 OA
ENDBRANCH   4   5
BRANCH   4   8
HETATM    8  C7  UNL     1     -33.850  14.636  -5.007  1.00 20.00     0.016 C 
HETATM    9  C6  UNL     1     -34.471  15.231  -3.785  1.00 20.00     0.006 C 
ENDBRANCH   4   8
TORSDOF 2
ENDMDL
MODEL 6
REMARK VINA RESULT:      -3.9     11.293     12.301
REMARK  2 active torsions:
REMARK  status: ('A' for Active; 'I' for Inactive)
REMARK    1  A    between atoms: C1_1  and  C5_5 
REMARK    2  A    between atoms: C5_5  and  C7_7 
ROOT
HETATM    1  C2  UNL     1     -34.329  15.411  -7.474  1.00 20.00     0.002 C 
HETATM    2  C3  UNL     1     -34.121  14.481  -6.266  1.00 20.00     0.020 C 
HETATM    3  C4  UNL     1     -35.846  15.281  -7.252  1.00 20.00     0.020 C 
HETATM    4  C5  UNL     1     -35.556  14.855  -5.777  1.00 20.00     0.048 C 
ENDROOT
BRANCH   4   5
HETATM    5  C1  UNL     1     -36.408  13.667  -5.252  1.00 20.00     0.181 C 
HETATM    6  O8  UNL     1     -35.806  12.559  -5.190  1.00 20.00    -0.647 OA
HETATM    7  O9  UNL     1     -37.600  13.959  -4.954  1.00 20.00    -0.647 OA
ENDBRANCH   4   5
BRANCH   4   8
HETATM    8  C7  UNL     1     -35.578  16.024  -4.790  1.00 20.00     0.016 C 
HETATM    9  C6  UNL     1     -34.996  15.643  -3.467  1.00 20.00     0.006 C 
ENDBRANCH   4   8
TORSDOF 2
ENDMDL
MODEL 7
REMARK VINA RESULT:      -3.9      1.747      2.689
REMARK  2 active torsions:
REMARK  status: ('A' for Active; 'I' for Inactive)
REMARK    1  A    between atoms: C1_1  and  C5_5 
REMARK    2  A    between atoms: C5_5  and  C7_7 
ROOT
HETATM    1  C2  UNL     1     -34.109   5.455   2.171  1.00 20.00     0.002 C 
HETATM    2  C3  UNL     1     -33.058   5.437   3.295  1.00 20.00     0.020 C 
HETATM    3  C4  UNL     1     -35.058   6.187   3.135  1.00 20.00     0.020 C 
HETATM    4  C5  UNL     1     -33.812   6.627   3.969  1.00 20.00     0.048 C 
ENDROOT
BRANCH   4   5
HETATM    5  C1  UNL     1     -33.976   6.519   5.510  1.00 20.00     0.181 C 
HETATM    6  O8  UNL     1     -34.449   5.425   5.926  1.00 20.00    -0.647 OA
HETATM    7  O9  UNL     1     -33.613   7.542   6.155  1.00 20.00    -0.647 OA
ENDBRANCH   4   5
BRANCH   4   8
HETATM    8  C7  UNL     1     -33.266   7.999   3.570  1.00 20.00     0.016 C 
HETATM    9  C6  UNL     1     -31.775   7.991   3.458  1.00 20.00     0.006 C 
ENDBRANCH   4   8
TORSDOF 2
ENDMDL
MODEL 8
REMARK VINA RESULT:      -3.8     10.919     11.975
REMARK  2 active torsions:
REMARK  status: ('A' for Active; 'I' for Inactive)
REMARK    1  A    between atoms: C1_1  and  C5_5 
REMARK    2  A    between atoms: C5_5  and  C7_7 
ROOT
HETATM    1  C2  UNL     1     -34.845  17.011  -2.407  1.00 20.00     0.002 C 
HETATM    2  C3  UNL     1     -35.699  15.914  -3.066  1.00 20.00     0.020 C 
HETATM    3  C4  UNL     1     -33.600  16.335  -3.008  1.00 20.00     0.020 C 
HETATM    4  C5  UNL     1     -34.526  15.650  -4.063  1.00 20.00     0.048 C 
ENDROOT
BRANCH   4   5
HETATM    5  C1  UNL     1     -34.218  14.153  -4.342  1.00 20.00     0.181 C 
HETATM    6  O8  UNL     1     -35.209  13.457  -4.698  1.00 20.00    -0.647 OA
HETATM    7  O9  UNL     1     -33.012  13.820  -4.175  1.00 20.00    -0.647 OA
ENDBRANCH   4   5
BRANCH   4   8
HETATM    8  C7  UNL     1     -34.649  16.438  -5.369  1.00 20.00     0.016 C 
HETATM    9  C6  UNL     1     -33.586  16.055  -6.349  1.00 20.00     0.006 C 
ENDBRANCH   4   8
TORSDOF 2
ENDMDL
MODEL 9
REMARK VINA RESULT:      -3.8     11.154     12.379
REMARK  2 active torsions:
REMARK  status: ('A' for Active; 'I' for Inactive)
REMARK    1  A    between atoms: C1_1  and  C5_5 
REMARK    2  A    between atoms: C5_5  and  C7_7 
ROOT
HETATM    1  C2  UNL     1     -33.569  16.221  -4.322  1.00 20.00     0.002 C 
HETATM    2  C3  UNL     1     -34.458  15.056  -3.852  1.00 20.00     0.020 C 
HETATM    3  C4  UNL     1     -33.704  15.683  -5.756  1.00 20.00     0.020 C 
HETATM    4  C5  UNL     1     -34.997  14.927  -5.312  1.00 20.00     0.048 C 
ENDROOT
BRANCH   4   5
HETATM    5  C1  UNL     1     -35.129  13.473  -5.843  1.00 20.00     0.181 C 
HETATM    6  O8  UNL     1     -35.958  12.748  -5.226  1.00 20.00    -0.647 OA
HETATM    7  O9  UNL     1     -34.388  13.198  -6.828  1.00 20.00    -0.647 OA
ENDBRANCH   4   5
BRANCH   4   8
HETATM    8  C7  UNL     1     -36.282  15.720  -5.559  1.00 20.00     0.016 C 
HETATM    9  C6  UNL     1     -36.800  15.518  -6.947  1.00 20.00     0.006 C 
ENDBRANCH   4   8
TORSDOF 2
ENDMDL
