MODEL 1
REMARK VINA RESULT:      -4.0      0.000      0.000
REMARK  1 active torsions:
REMARK  status: ('A' for Active; 'I' for Inactive)
REMARK    1  A    between atoms: C3_3  and  C4_4 
ROOT
HETATM    1  C1  UNL     1     -34.826   4.963   5.043  1.00 20.00     0.175 C 
HETATM    2  C2  UNL     1     -33.746   4.724   3.303  1.00 20.00     0.175 C 
HETATM    3  C3  UNL     1     -34.511   5.918   3.887  1.00 20.00     0.047 C 
HETATM    4  O5  UNL     1     -34.294   3.835   4.306  1.00 20.00    -0.390 OA
ENDROOT
BRANCH   3   5
HETATM    5  C4  UNL     1     -33.696   7.148   4.224  1.00 20.00     0.123 C 
HETATM    6 CL6  UNL     1     -33.626   7.386   5.984  1.00 20.00    -0.130 Cl
ENDBRANCH   3   5
TORSDOF 1
ENDMDL
MODEL 2
REMARK VINA RESULT:      -4.0      1.124      1.442
REMARK  1 active torsions:
REMARK  status: ('A' for Active; 'I' for Inactive)
REMARK    1  A    between atoms: C3_3  and  C4_4 
ROOT
HETATM    1  C1  UNL     1     -34.117   4.148   4.126  1.00 20.00     0.175 C 
HETATM    2  C2  UNL     1     -33.839   6.053   3.389  1.00 20.00     0.175 C 
HETATM    3  C3  UNL     1     -34.778   5.489   4.462  1.00 20.00     0.047 C 
HETATM    4  O5  UNL     1     -33.452   4.720   2.973  1.00 20.00    -0.390 OA
ENDROOT
BRANCH   3   5
HETATM    5  C4  UNL     1     -34.588   6.007   5.871  1.00 20.00     0.123 C 
HETATM    6 CL6  UNL     1     -33.512   7.422   5.875  1.00 20.00    -0.130 Cl
ENDBRANCH   3   5
TORSDOF 1
ENDMDL
MODEL 3
REMARK VINA RESULT:      -3.9      2.302      2.572
REMARK  1 active torsions:
REMARK  status: ('A' for Active; 'I' for Inactive)
REMARK    1  A    between atoms: C3_3  and  C4_4 
ROOT
HETATM    1  C1  UNL     1     -33.665   7.176   5.439  1.00 20.00     0.175 C 
HETATM    2  C2  UNL     1     -34.765   5.593   4.709  1.00 20.00     0.175 C 
HETATM    3  C3  UNL     1     -34.166   6.832   4.032  1.00 20.00     0.047 C 
HETATM    4  O5  UNL     1     -34.465   6.120   6.024  1.00 20.00    -0.390 OA
ENDROOT
BRANCH   3   5
HETATM    5  C4  UNL     1     -33.110   6.585   2.976  1.00 20.00     0.123 C 
HETATM    6 CL6  UNL     1     -32.969   4.848   2.630  1.00 20.00    -0.130 Cl
ENDBRANCH   3   5
TORSDOF 1
ENDMDL
MODEL 4
REMARK VINA RESULT:      -3.9      1.981      2.300
REMARK  1 active torsions:
REMARK  status: ('A' for Active; 'I' for Inactive)
REMARK    1  A    between atoms: C3_3  and  C4_4 
ROOT
HETATM    1  C1  UNL     1     -33.701   7.196   5.484  1.00 20.00     0.175 C 
HETATM    2  C2  UNL     1     -34.631   5.577   4.610  1.00 20.00     0.175 C 
HETATM    3  C3  UNL     1     -34.089   6.891   4.033  1.00 20.00     0.047 C 
HETATM    4  O5  UNL     1     -34.451   6.054   5.965  1.00 20.00    -0.390 OA
ENDROOT
BRANCH   3   5
HETATM    5  C4  UNL     1     -32.956   6.779   3.036  1.00 20.00     0.123 C 
HETATM    6 CL6  UNL     1     -31.760   8.065   3.305  1.00 20.00    -0.130 Cl
ENDBRANCH   3   5
TORSDOF 1
ENDMDL
MODEL 5
REMARK VINA RESULT:      -3.9      1.204      1.204
REMARK  1 active torsions:
REMARK  status: ('A' for Active; 'I' for Inactive)
REMARK    1  A    between atoms: C3_3  and  C4_4 
ROOT
HETATM    1  C1  UNL     1     -34.639   4.899   5.474  1.00 20.00     0.175 C 
HETATM    2  C2  UNL     1     -33.988   4.984   3.519  1.00 20.00     0.175 C 
HETATM    3  C3  UNL     1     -34.540   6.053   4.470  1.00 20.00     0.047 C 
HETATM    4  O5  UNL     1     -34.343   3.926   4.442  1.00 20.00    -0.390 OA
ENDROOT
BRANCH   3   5
HETATM    5  C4  UNL     1     -33.608   7.189   4.829  1.00 20.00     0.123 C 
HETATM    6 CL6  UNL     1     -32.506   7.542   3.481  1.00 20.00    -0.130 Cl
ENDBRANCH   3   5
TORSDOF 1
ENDMDL
MODEL 6
REMARK VINA RESULT:      -3.8      2.111      2.559
REMARK  1 active torsions:
REMARK  status: ('A' for Active; 'I' for Inactive)
REMARK    1  A    between atoms: C3_3  and  C4_4 
ROOT
HETATM    1  C1  UNL     1     -33.773   5.987   3.168  1.00 20.00     0.175 C 
HETATM    2  C2  UNL     1     -32.540   7.562   3.667  1.00 20.00     0.175 C 
HETATM    3  C3  UNL     1     -33.921   7.132   4.175  1.00 20.00     0.047 C 
HETATM    4  O5  UNL     1     -32.597   6.601   2.585  1.00 20.00    -0.390 OA
ENDROOT
BRANCH   3   5
HETATM    5  C4  UNL     1     -34.018   6.745   5.635  1.00 20.00     0.123 C 
HETATM    6 CL6  UNL     1     -34.609   5.078   5.800  1.00 20.00    -0.130 Cl
ENDBRANCH   3   5
TORSDOF 1
ENDMDL
MODEL 7
REMARK VINA RESULT:      -3.8      2.467      3.063
REMARK  1 active torsions:
REMARK  status: ('A' for Active; 'I' for Inactive)
REMARK    1  A    between atoms: C3_3  and  C4_4 
ROOT
HETATM    1  C1  UNL     1     -33.885   7.010   4.192  1.00 20.00     0.175 C 
HETATM    2  C2  UNL     1     -34.432   6.107   5.962  1.00 20.00     0.175 C 
HETATM    3  C3  UNL     1     -34.704   5.751   4.496  1.00 20.00     0.047 C 
HETATM    4  O5  UNL     1     -33.887   7.396   5.588  1.00 20.00    -0.390 OA
ENDROOT
BRANCH   3   5
HETATM    5  C4  UNL     1     -34.142   4.437   4.000  1.00 20.00     0.123 C 
HETATM    6 CL6  UNL     1     -32.991   4.712   2.675  1.00 20.00    -0.130 Cl
ENDBRANCH   3   5
TORSDOF 1
ENDMDL
MODEL 8
REMARK VINA RESULT:      -3.7      1.603      2.262
REMARK  1 active torsions:
REMARK  status: ('A' for Active; 'I' for Inactive)
REMARK    1  A    between atoms: C3_3  and  C4_4 
ROOT
HETATM    1  C1  UNL     1     -33.278   5.240   2.918  1.00 20.00     0.175 C 
HETATM    2  C2  UNL     1     -33.466   7.242   3.373  1.00 20.00     0.175 C 
HETATM    3  C3  UNL     1     -34.394   6.042   3.596  1.00 20.00     0.047 C 
HETATM    4  O5  UNL     1     -32.586   6.454   2.535  1.00 20.00    -0.390 OA
ENDROOT
BRANCH   3   5
HETATM    5  C4  UNL     1     -34.711   5.686   5.032  1.00 20.00     0.123 C 
HETATM    6 CL6  UNL     1     -34.062   6.917   6.137  1.00 20.00    -0.130 Cl
ENDBRANCH   3   5
TORSDOF 1
ENDMDL
MODEL 9
REMARK VINA RESULT:      -3.5      2.112      2.190
REMARK  1 active torsions:
REMARK  status: ('A' for Active; 'I' for Inactive)
REMARK    1  A    between atoms: C3_3  and  C4_4 
ROOT
HETATM    1  C1  UNL     1     -34.383   6.021   4.213  1.00 20.00     0.175 C 
HETATM    2  C2  UNL     1     -33.170   5.051   2.856  1.00 20.00     0.175 C 
HETATM    3  C3  UNL     1     -33.568   6.523   3.016  1.00 20.00     0.047 C 
HETATM    4  O5  UNL     1     -34.152   4.640   3.839  1.00 20.00    -0.390 OA
ENDROOT
BRANCH   3   5
HETATM    5  C4  UNL     1     -32.451   7.500   3.316  1.00 20.00     0.123 C 
HETATM    6 CL6  UNL     1     -32.006   8.405   1.853  1.00 20.00    -0.130 Cl
ENDBRANCH   3   5
TORSDOF 1
ENDMDL
