MODEL 1
REMARK VINA RESULT:      -5.2      0.000      0.000
REMARK  2 active torsions:
REMARK  status: ('A' for Active; 'I' for Inactive)
REMARK    1  A    between atoms: C1_1  and  C3_3 
REMARK    2  A    between atoms: C4_4  and  O10_10 
ROOT
HETATM    1  C3  UNL     1     -33.184   6.536   3.885  1.00 20.00     0.048 A 
HETATM    2  C4  UNL     1     -33.933   7.211   5.007  1.00 20.00     0.135 A 
HETATM    3  C5  UNL     1     -34.496   5.951   4.380  1.00 20.00    -0.012 A 
HETATM    4  C8  UNL     1     -34.424   4.651   5.142  1.00 20.00     0.018 C 
HETATM    5  C9  UNL     1     -35.757   6.096   3.561  1.00 20.00     0.018 C 
ENDROOT
BRANCH   1   6
HETATM    6  C1  UNL     1     -33.101   7.202   2.592  1.00 20.00    -0.017 C 
HETATM    7  C2  UNL     1     -32.240   8.167   2.216  1.00 20.00    -0.091 C 
HETATM    8  C6  UNL     1     -32.286   8.755   0.833  1.00 20.00     0.042 C 
HETATM    9  C7  UNL     1     -31.178   8.736   3.114  1.00 20.00     0.042 C 
ENDBRANCH   1   6
BRANCH   2  10
HETATM   10  O10 UNL     1     -33.345   7.088   6.313  1.00 20.00    -0.394 OA
HETATM   11  H26 UNL     1     -34.066   6.831   6.903  1.00 20.00     0.210 HD
ENDBRANCH   2  10
TORSDOF 2
ENDMDL
MODEL 2
REMARK VINA RESULT:      -5.1      1.759      2.591
REMARK  2 active torsions:
REMARK  status: ('A' for Active; 'I' for Inactive)
REMARK    1  A    between atoms: C1_1  and  C3_3 
REMARK    2  A    between atoms: C4_4  and  O10_10 
ROOT
HETATM    1  C3  UNL     1     -33.469   7.213   2.430  1.00 20.00     0.048 A 
HETATM    2  C4  UNL     1     -32.655   6.097   3.036  1.00 20.00     0.135 A 
HETATM    3  C5  UNL     1     -33.845   6.652   3.791  1.00 20.00    -0.012 A 
HETATM    4  C8  UNL     1     -35.113   5.839   3.872  1.00 20.00     0.018 C 
HETATM    5  C9  UNL     1     -33.557   7.437   5.049  1.00 20.00     0.018 C 
ENDROOT
BRANCH   1   6
HETATM    6  C1  UNL     1     -32.871   8.534   2.303  1.00 20.00    -0.017 C 
HETATM    7  C2  UNL     1     -32.780   9.295   1.196  1.00 20.00    -0.091 C 
HETATM    8  C6  UNL     1     -32.126  10.649   1.233  1.00 20.00     0.042 C 
HETATM    9  C7  UNL     1     -33.308   8.880  -0.148  1.00 20.00     0.042 C 
ENDBRANCH   1   6
BRANCH   2  10
HETATM   10  O10 UNL     1     -32.809   4.806   2.422  1.00 20.00    -0.394 OA
HETATM   11  H26 UNL     1     -32.169   4.228   2.861  1.00 20.00     0.210 HD
ENDBRANCH   2  10
TORSDOF 2
ENDMDL
MODEL 3
REMARK VINA RESULT:      -4.8     11.061     12.079
REMARK  2 active torsions:
REMARK  status: ('A' for Active; 'I' for Inactive)
REMARK    1  A    between atoms: C1_1  and  C3_3 
REMARK    2  A    between atoms: C4_4  and  O10_10 
ROOT
HETATM    1  C3  UNL     1     -33.753  15.778  -3.725  1.00 20.00     0.048 A 
HETATM    2  C4  UNL     1     -33.844  14.367  -4.250  1.00 20.00     0.135 A 
HETATM    3  C5  UNL     1     -34.263  15.524  -5.134  1.00 20.00    -0.012 A 
HETATM    4  C8  UNL     1     -33.368  15.944  -6.274  1.00 20.00     0.018 C 
HETATM    5  C9  UNL     1     -35.734  15.651  -5.451  1.00 20.00     0.018 C 
ENDROOT
BRANCH   1   6
HETATM    6  C1  UNL     1     -34.660  16.196  -2.665  1.00 20.00    -0.017 C 
HETATM    7  C2  UNL     1     -34.410  17.054  -1.657  1.00 20.00    -0.091 C 
HETATM    8  C6  UNL     1     -35.463  17.383  -0.636  1.00 20.00     0.042 C 
HETATM    9  C7  UNL     1     -33.092  17.748  -1.459  1.00 20.00     0.042 C 
ENDBRANCH   1   6
BRANCH   2  10
HETATM   10  O10 UNL     1     -32.592  13.729  -4.550  1.00 20.00    -0.394 OA
HETATM   11  H26 UNL     1     -32.030  14.419  -4.929  1.00 20.00     0.210 HD
ENDBRANCH   2  10
TORSDOF 2
ENDMDL
MODEL 4
REMARK VINA RESULT:      -4.5     11.362     11.948
REMARK  2 active torsions:
REMARK  status: ('A' for Active; 'I' for Inactive)
REMARK    1  A    between atoms: C1_1  and  C3_3 
REMARK    2  A    between atoms: C4_4  and  O10_10 
ROOT
HETATM    1  C3  UNL     1     -35.262  15.292  -3.398  1.00 20.00     0.048 A 
HETATM    2  C4  UNL     1     -36.471  15.834  -4.119  1.00 20.00     0.135 A 
HETATM    3  C5  UNL     1     -35.487  14.953  -4.862  1.00 20.00    -0.012 A 
HETATM    4  C8  UNL     1     -35.870  13.530  -5.187  1.00 20.00     0.018 C 
HETATM    5  C9  UNL     1     -34.653  15.608  -5.937  1.00 20.00     0.018 C 
ENDROOT
BRANCH   1   6
HETATM    6  C1  UNL     1     -34.209  16.213  -2.996  1.00 20.00    -0.017 C 
HETATM    7  C2  UNL     1     -34.179  17.007  -1.909  1.00 20.00    -0.091 C 
HETATM    8  C6  UNL     1     -33.007  17.908  -1.635  1.00 20.00     0.042 C 
HETATM    9  C7  UNL     1     -35.283  17.071  -0.891  1.00 20.00     0.042 C 
ENDBRANCH   1   6
BRANCH   2  10
HETATM   10  O10 UNL     1     -37.732  15.249  -3.754  1.00 20.00    -0.394 OA
HETATM   11  H26 UNL     1     -37.517  14.430  -3.288  1.00 20.00     0.210 HD
ENDBRANCH   2  10
TORSDOF 2
ENDMDL
MODEL 5
REMARK VINA RESULT:      -4.5     11.017     11.878
REMARK  2 active torsions:
REMARK  status: ('A' for Active; 'I' for Inactive)
REMARK    1  A    between atoms: C1_1  and  C3_3 
REMARK    2  A    between atoms: C4_4  and  O10_10 
ROOT
HETATM    1  C3  UNL     1     -34.806  15.700  -4.027  1.00 20.00     0.048 A 
HETATM    2  C4  UNL     1     -34.512  14.228  -4.182  1.00 20.00     0.135 A 
HETATM    3  C5  UNL     1     -35.606  14.866  -5.014  1.00 20.00    -0.012 A 
HETATM    4  C8  UNL     1     -35.364  15.120  -6.481  1.00 20.00     0.018 C 
HETATM    5  C9  UNL     1     -37.029  14.466  -4.703  1.00 20.00     0.018 C 
ENDROOT
BRANCH   1   6
HETATM    6  C1  UNL     1     -35.406  16.172  -2.787  1.00 20.00    -0.017 C 
HETATM    7  C2  UNL     1     -34.817  16.878  -1.803  1.00 20.00    -0.091 C 
HETATM    8  C6  UNL     1     -35.582  17.293  -0.577  1.00 20.00     0.042 C 
HETATM    9  C7  UNL     1     -33.378  17.312  -1.832  1.00 20.00     0.042 C 
ENDBRANCH   1   6
BRANCH   2  10
HETATM   10  O10 UNL     1     -33.281  13.904  -4.850  1.00 20.00    -0.394 OA
HETATM   11  H26 UNL     1     -32.636  13.738  -4.149  1.00 20.00     0.210 HD
ENDBRANCH   2  10
TORSDOF 2
ENDMDL
MODEL 6
REMARK VINA RESULT:      -4.3     11.404     12.213
REMARK  2 active torsions:
REMARK  status: ('A' for Active; 'I' for Inactive)
REMARK    1  A    between atoms: C1_1  and  C3_3 
REMARK    2  A    between atoms: C4_4  and  O10_10 
ROOT
HETATM    1  C3  UNL     1     -35.029  14.918  -4.098  1.00 20.00     0.048 A 
HETATM    2  C4  UNL     1     -35.982  14.119  -4.952  1.00 20.00     0.135 A 
HETATM    3  C5  UNL     1     -35.270  15.318  -5.544  1.00 20.00    -0.012 A 
HETATM    4  C8  UNL     1     -34.138  15.099  -6.516  1.00 20.00     0.018 C 
HETATM    5  C9  UNL     1     -36.116  16.526  -5.873  1.00 20.00     0.018 C 
ENDROOT
BRANCH   1   6
HETATM    6  C1  UNL     1     -35.562  15.713  -3.002  1.00 20.00    -0.017 C 
HETATM    7  C2  UNL     1     -34.905  16.606  -2.236  1.00 20.00    -0.091 C 
HETATM    8  C6  UNL     1     -35.606  17.352  -1.135  1.00 20.00     0.042 C 
HETATM    9  C7  UNL     1     -33.449  16.938  -2.402  1.00 20.00     0.042 C 
ENDBRANCH   1   6
BRANCH   2  10
HETATM   10  O10 UNL     1     -35.522  12.817  -5.352  1.00 20.00    -0.394 OA
HETATM   11  H26 UNL     1     -35.136  12.419  -4.560  1.00 20.00     0.210 HD
ENDBRANCH   2  10
TORSDOF 2
ENDMDL
MODEL 7
REMARK VINA RESULT:      -4.3     11.492     12.199
REMARK  2 active torsions:
REMARK  status: ('A' for Active; 'I' for Inactive)
REMARK    1  A    between atoms: C1_1  and  C3_3 
REMARK    2  A    between atoms: C4_4  and  O10_10 
ROOT
HETATM    1  C3  UNL     1     -33.507  16.946  -2.459  1.00 20.00     0.048 A 
HETATM    2  C4  UNL     1     -33.857  18.391  -2.713  1.00 20.00     0.135 A 
HETATM    3  C5  UNL     1     -33.959  17.831  -1.309  1.00 20.00    -0.012 A 
HETATM    4  C8  UNL     1     -32.918  18.210  -0.285  1.00 20.00     0.018 C 
HETATM    5  C9  UNL     1     -35.344  17.682  -0.726  1.00 20.00     0.018 C 
ENDROOT
BRANCH   1   6
HETATM    6  C1  UNL     1     -34.378  15.906  -2.990  1.00 20.00    -0.017 C 
HETATM    7  C2  UNL     1     -34.181  15.147  -4.085  1.00 20.00    -0.091 C 
HETATM    8  C6  UNL     1     -35.185  14.108  -4.502  1.00 20.00     0.042 C 
HETATM    9  C7  UNL     1     -32.975  15.260  -4.974  1.00 20.00     0.042 C 
ENDBRANCH   1   6
BRANCH   2  10
HETATM   10  O10 UNL     1     -32.749  19.263  -2.995  1.00 20.00    -0.394 OA
HETATM   11  H26 UNL     1     -32.427  19.566  -2.135  1.00 20.00     0.210 HD
ENDBRANCH   2  10
TORSDOF 2
ENDMDL
MODEL 8
REMARK VINA RESULT:      -4.1     11.381     12.377
REMARK  2 active torsions:
REMARK  status: ('A' for Active; 'I' for Inactive)
REMARK    1  A    between atoms: C1_1  and  C3_3 
REMARK    2  A    between atoms: C4_4  and  O10_10 
ROOT
HETATM    1  C3  UNL     1     -34.473  16.391  -4.239  1.00 20.00     0.048 A 
HETATM    2  C4  UNL     1     -34.014  16.102  -5.646  1.00 20.00     0.135 A 
HETATM    3  C5  UNL     1     -34.157  14.964  -4.655  1.00 20.00    -0.012 A 
HETATM    4  C8  UNL     1     -35.321  14.014  -4.786  1.00 20.00     0.018 C 
HETATM    5  C9  UNL     1     -32.887  14.294  -4.190  1.00 20.00     0.018 C 
ENDROOT
BRANCH   1   6
HETATM    6  C1  UNL     1     -33.587  17.123  -3.344  1.00 20.00    -0.017 C 
HETATM    7  C2  UNL     1     -33.778  17.399  -2.040  1.00 20.00    -0.091 C 
HETATM    8  C6  UNL     1     -32.757  18.172  -1.251  1.00 20.00     0.042 C 
HETATM    9  C7  UNL     1     -34.992  16.974  -1.265  1.00 20.00     0.042 C 
ENDBRANCH   1   6
BRANCH   2  10
HETATM   10  O10 UNL     1     -35.019  16.216  -6.667  1.00 20.00    -0.394 OA
HETATM   11  H26 UNL     1     -35.767  15.685  -6.360  1.00 20.00     0.210 HD
ENDBRANCH   2  10
TORSDOF 2
ENDMDL
MODEL 9
REMARK VINA RESULT:      -4.1      1.646      1.953
REMARK  2 active torsions:
REMARK  status: ('A' for Active; 'I' for Inactive)
REMARK    1  A    between atoms: C1_1  and  C3_3 
REMARK    2  A    between atoms: C4_4  and  O10_10 
ROOT
HETATM    1  C3  UNL     1     -33.833   6.647   3.424  1.00 20.00     0.048 A 
HETATM    2  C4  UNL     1     -35.041   5.816   3.070  1.00 20.00     0.135 A 
HETATM    3  C5  UNL     1     -33.771   5.133   3.537  1.00 20.00    -0.012 A 
HETATM    4  C8  UNL     1     -33.715   4.550   4.927  1.00 20.00     0.018 C 
HETATM    5  C9  UNL     1     -33.012   4.319   2.516  1.00 20.00     0.018 C 
ENDROOT
BRANCH   1   6
HETATM    6  C1  UNL     1     -33.123   7.348   2.363  1.00 20.00    -0.017 C 
HETATM    7  C2  UNL     1     -32.029   8.125   2.477  1.00 20.00    -0.091 C 
HETATM    8  C6  UNL     1     -31.413   8.783   1.273  1.00 20.00     0.042 C 
HETATM    9  C7  UNL     1     -31.334   8.403   3.779  1.00 20.00     0.042 C 
ENDBRANCH   1   6
BRANCH   2  10
HETATM   10  O10 UNL     1     -36.135   5.876   3.999  1.00 20.00    -0.394 OA
HETATM   11  H26 UNL     1     -36.067   6.738   4.431  1.00 20.00     0.210 HD
ENDBRANCH   2  10
TORSDOF 2
ENDMDL
