MODEL 1
REMARK VINA RESULT:      -4.9      0.000      0.000
REMARK  0 active torsions:
REMARK  status: ('A' for Active; 'I' for Inactive)
ROOT
HETATM    1  C1  UNL     1     -33.986   6.341   4.736  1.00 20.00    -0.054 C 
HETATM    2  C2  UNL     1     -33.582   6.509   3.462  1.00 20.00     0.091 C 
HETATM    3  C3  UNL     1     -34.756   5.116   5.157  1.00 20.00     0.046 C 
HETATM    4  C4  UNL     1     -33.741   7.325   5.847  1.00 20.00     0.046 C 
HETATM    5  C5  UNL     1     -32.782   7.657   2.934  1.00 20.00     0.082 C 
HETATM    6  F6  UNL     1     -33.896   5.543   2.565  1.00 20.00    -0.211 F 
ENDROOT
TORSDOF 0
ENDMDL
MODEL 2
REMARK VINA RESULT:      -4.7      1.616      3.204
REMARK  0 active torsions:
REMARK  status: ('A' for Active; 'I' for Inactive)
ROOT
HETATM    1  C1  UNL     1     -33.471   6.447   3.623  1.00 20.00    -0.054 C 
HETATM    2  C2  UNL     1     -34.040   6.481   4.844  1.00 20.00     0.091 C 
HETATM    3  C3  UNL     1     -32.856   7.680   3.013  1.00 20.00     0.046 C 
HETATM    4  C4  UNL     1     -33.398   5.226   2.748  1.00 20.00     0.046 C 
HETATM    5  C5  UNL     1     -34.645   5.321   5.568  1.00 20.00     0.082 C 
HETATM    6  F6  UNL     1     -34.049   7.663   5.507  1.00 20.00    -0.211 F 
ENDROOT
TORSDOF 0
ENDMDL
MODEL 3
REMARK VINA RESULT:      -4.7      0.669      2.324
REMARK  0 active torsions:
REMARK  status: ('A' for Active; 'I' for Inactive)
ROOT
HETATM    1  C1  UNL     1     -33.513   6.773   4.146  1.00 20.00    -0.054 C 
HETATM    2  C2  UNL     1     -33.915   5.548   3.754  1.00 20.00     0.091 C 
HETATM    3  C3  UNL     1     -32.806   7.704   3.196  1.00 20.00     0.046 C 
HETATM    4  C4  UNL     1     -33.702   7.331   5.530  1.00 20.00     0.046 C 
HETATM    5  C5  UNL     1     -34.658   4.553   4.588  1.00 20.00     0.082 C 
HETATM    6  F6  UNL     1     -33.656   5.174   2.477  1.00 20.00    -0.211 F 
ENDROOT
TORSDOF 0
ENDMDL
MODEL 4
REMARK VINA RESULT:      -4.7      1.242      2.030
REMARK  0 active torsions:
REMARK  status: ('A' for Active; 'I' for Inactive)
ROOT
HETATM    1  C1  UNL     1     -34.022   6.400   4.962  1.00 20.00    -0.054 C 
HETATM    2  C2  UNL     1     -33.663   6.640   3.686  1.00 20.00     0.091 C 
HETATM    3  C3  UNL     1     -33.771   7.414   6.048  1.00 20.00     0.046 C 
HETATM    4  C4  UNL     1     -34.676   5.134   5.442  1.00 20.00     0.046 C 
HETATM    5  C5  UNL     1     -33.894   5.734   2.519  1.00 20.00     0.082 C 
HETATM    6  F6  UNL     1     -33.062   7.823   3.408  1.00 20.00    -0.211 F 
ENDROOT
TORSDOF 0
ENDMDL
MODEL 5
REMARK VINA RESULT:      -4.6      1.817      2.210
REMARK  0 active torsions:
REMARK  status: ('A' for Active; 'I' for Inactive)
ROOT
HETATM    1  C1  UNL     1     -33.811   6.856   4.380  1.00 20.00    -0.054 C 
HETATM    2  C2  UNL     1     -32.811   7.500   3.748  1.00 20.00     0.091 C 
HETATM    3  C3  UNL     1     -33.965   6.927   5.876  1.00 20.00     0.046 C 
HETATM    4  C4  UNL     1     -34.847   6.007   3.694  1.00 20.00     0.046 C 
HETATM    5  C5  UNL     1     -32.578   7.539   2.272  1.00 20.00     0.082 C 
HETATM    6  F6  UNL     1     -31.939   8.212   4.504  1.00 20.00    -0.211 F 
ENDROOT
TORSDOF 0
ENDMDL
MODEL 6
REMARK VINA RESULT:      -4.5      1.304      2.531
REMARK  0 active torsions:
REMARK  status: ('A' for Active; 'I' for Inactive)
ROOT
HETATM    1  C1  UNL     1     -33.509   6.641   3.584  1.00 20.00    -0.054 C 
HETATM    2  C2  UNL     1     -34.084   6.550   4.799  1.00 20.00     0.091 C 
HETATM    3  C3  UNL     1     -33.967   5.780   2.436  1.00 20.00     0.046 C 
HETATM    4  C4  UNL     1     -32.373   7.566   3.245  1.00 20.00     0.046 C 
HETATM    5  C5  UNL     1     -33.746   7.374   6.000  1.00 20.00     0.082 C 
HETATM    6  F6  UNL     1     -35.087   5.652   4.960  1.00 20.00    -0.211 F 
ENDROOT
TORSDOF 0
ENDMDL
MODEL 7
REMARK VINA RESULT:      -4.5      1.473      2.492
REMARK  0 active torsions:
REMARK  status: ('A' for Active; 'I' for Inactive)
ROOT
HETATM    1  C1  UNL     1     -33.932   5.742   3.968  1.00 20.00    -0.054 C 
HETATM    2  C2  UNL     1     -33.581   6.926   4.507  1.00 20.00     0.091 C 
HETATM    3  C3  UNL     1     -33.622   5.414   2.531  1.00 20.00     0.046 C 
HETATM    4  C4  UNL     1     -34.664   4.653   4.704  1.00 20.00     0.046 C 
HETATM    5  C5  UNL     1     -33.797   7.350   5.924  1.00 20.00     0.082 C 
HETATM    6  F6  UNL     1     -32.942   7.819   3.712  1.00 20.00    -0.211 F 
ENDROOT
TORSDOF 0
ENDMDL
MODEL 8
REMARK VINA RESULT:      -4.4      1.676      2.231
REMARK  0 active torsions:
REMARK  status: ('A' for Active; 'I' for Inactive)
ROOT
HETATM    1  C1  UNL     1     -33.750   5.747   3.709  1.00 20.00    -0.054 C 
HETATM    2  C2  UNL     1     -33.357   7.007   3.977  1.00 20.00     0.091 C 
HETATM    3  C3  UNL     1     -34.827   5.075   4.521  1.00 20.00     0.046 C 
HETATM    4  C4  UNL     1     -33.173   4.885   2.619  1.00 20.00     0.046 C 
HETATM    5  C5  UNL     1     -32.332   7.792   3.222  1.00 20.00     0.082 C 
HETATM    6  F6  UNL     1     -33.957   7.653   5.007  1.00 20.00    -0.211 F 
ENDROOT
TORSDOF 0
ENDMDL
MODEL 9
REMARK VINA RESULT:      -4.4      1.744      2.898
REMARK  0 active torsions:
REMARK  status: ('A' for Active; 'I' for Inactive)
ROOT
HETATM    1  C1  UNL     1     -33.825   6.558   4.874  1.00 20.00    -0.054 C 
HETATM    2  C2  UNL     1     -34.361   5.350   5.135  1.00 20.00     0.091 C 
HETATM    3  C3  UNL     1     -33.744   7.624   5.936  1.00 20.00     0.046 C 
HETATM    4  C4  UNL     1     -33.278   6.978   3.537  1.00 20.00     0.046 C 
HETATM    5  C5  UNL     1     -34.461   4.203   4.181  1.00 20.00     0.082 C 
HETATM    6  F6  UNL     1     -34.834   5.124   6.385  1.00 20.00    -0.211 F 
ENDROOT
TORSDOF 0
ENDMDL
