MODEL 1
REMARK VINA RESULT:      -5.3      0.000      0.000
REMARK  1 active torsions:
REMARK  status: ('A' for Active; 'I' for Inactive)
REMARK    1  A    between atoms: C2_2  and  C3_3 
ROOT
HETATM    1  C3  UNL     1     -34.376   5.789   3.899  1.00 20.00     0.351 C 
HETATM    2  F5  UNL     1     -35.606   6.004   3.361  1.00 20.00    -0.185 F 
HETATM    3  F6  UNL     1     -34.097   4.474   3.701  1.00 20.00    -0.185 F 
HETATM    4 BR7  UNL     1     -33.065   6.876   2.957  1.00 20.00    -0.003 Br
ENDROOT
BRANCH   1   5
HETATM    5  C2  UNL     1     -34.314   6.130   5.348  1.00 20.00     0.167 C 
HETATM    6  C1  UNL     1     -33.763   7.246   5.839  1.00 20.00     0.059 C 
HETATM    7  F4  UNL     1     -34.882   5.272   6.229  1.00 20.00    -0.204 F 
ENDBRANCH   1   5
TORSDOF 1
ENDMDL
MODEL 2
REMARK VINA RESULT:      -5.2      1.729      2.742
REMARK  1 active torsions:
REMARK  status: ('A' for Active; 'I' for Inactive)
REMARK    1  A    between atoms: C2_2  and  C3_3 
ROOT
HETATM    1  C3  UNL     1     -34.491   5.574   4.220  1.00 20.00     0.351 C 
HETATM    2  F5  UNL     1     -34.544   4.298   4.688  1.00 20.00    -0.185 F 
HETATM    3  F6  UNL     1     -35.742   5.870   3.778  1.00 20.00    -0.185 F 
HETATM    4 BR7  UNL     1     -34.024   6.773   5.680  1.00 20.00    -0.003 Br
ENDROOT
BRANCH   1   5
HETATM    5  C2  UNL     1     -33.490   5.749   3.131  1.00 20.00     0.167 C 
HETATM    6  C1  UNL     1     -32.920   6.915   2.809  1.00 20.00     0.059 C 
HETATM    7  F4  UNL     1     -33.104   4.650   2.439  1.00 20.00    -0.204 F 
ENDBRANCH   1   5
TORSDOF 1
ENDMDL
MODEL 3
REMARK VINA RESULT:      -4.9      1.198      1.376
REMARK  1 active torsions:
REMARK  status: ('A' for Active; 'I' for Inactive)
REMARK    1  A    between atoms: C2_2  and  C3_3 
ROOT
HETATM    1  C3  UNL     1     -33.962   5.964   3.476  1.00 20.00     0.351 C 
HETATM    2  F5  UNL     1     -35.079   6.058   2.706  1.00 20.00    -0.185 F 
HETATM    3  F6  UNL     1     -33.394   4.766   3.179  1.00 20.00    -0.185 F 
HETATM    4 BR7  UNL     1     -32.733   7.396   2.999  1.00 20.00    -0.003 Br
ENDROOT
BRANCH   1   5
HETATM    5  C2  UNL     1     -34.256   6.064   4.933  1.00 20.00     0.167 C 
HETATM    6  C1  UNL     1     -34.631   5.034   5.699  1.00 20.00     0.059 C 
HETATM    7  F4  UNL     1     -34.102   7.268   5.533  1.00 20.00    -0.204 F 
ENDBRANCH   1   5
TORSDOF 1
ENDMDL
MODEL 4
REMARK VINA RESULT:      -4.9      1.335      1.598
REMARK  1 active torsions:
REMARK  status: ('A' for Active; 'I' for Inactive)
REMARK    1  A    between atoms: C2_2  and  C3_3 
ROOT
HETATM    1  C3  UNL     1     -33.601   5.714   2.969  1.00 20.00     0.351 C 
HETATM    2  F5  UNL     1     -34.496   5.892   1.962  1.00 20.00    -0.185 F 
HETATM    3  F6  UNL     1     -32.717   4.777   2.534  1.00 20.00    -0.185 F 
HETATM    4 BR7  UNL     1     -32.659   7.386   3.293  1.00 20.00    -0.003 Br
ENDROOT
BRANCH   1   5
HETATM    5  C2  UNL     1     -34.244   5.283   4.242  1.00 20.00     0.167 C 
HETATM    6  C1  UNL     1     -34.450   6.085   5.293  1.00 20.00     0.059 C 
HETATM    7  F4  UNL     1     -34.680   4.004   4.334  1.00 20.00    -0.204 F 
ENDBRANCH   1   5
TORSDOF 1
ENDMDL
MODEL 5
REMARK VINA RESULT:      -4.9      2.102      2.472
REMARK  1 active torsions:
REMARK  status: ('A' for Active; 'I' for Inactive)
REMARK    1  A    between atoms: C2_2  and  C3_3 
ROOT
HETATM    1  C3  UNL     1     -34.259   5.772   3.756  1.00 20.00     0.351 C 
HETATM    2  F5  UNL     1     -33.602   4.901   2.944  1.00 20.00    -0.185 F 
HETATM    3  F6  UNL     1     -35.442   6.046   3.145  1.00 20.00    -0.185 F 
HETATM    4 BR7  UNL     1     -34.603   4.914   5.469  1.00 20.00    -0.003 Br
ENDROOT
BRANCH   1   5
HETATM    5  C2  UNL     1     -33.489   7.022   4.003  1.00 20.00     0.167 C 
HETATM    6  C1  UNL     1     -32.676   7.597   3.111  1.00 20.00     0.059 C 
HETATM    7  F4  UNL     1     -33.644   7.640   5.199  1.00 20.00    -0.204 F 
ENDBRANCH   1   5
TORSDOF 1
ENDMDL
MODEL 6
REMARK VINA RESULT:      -4.8      1.440      1.847
REMARK  1 active torsions:
REMARK  status: ('A' for Active; 'I' for Inactive)
REMARK    1  A    between atoms: C2_2  and  C3_3 
ROOT
HETATM    1  C3  UNL     1     -34.452   6.356   3.827  1.00 20.00     0.351 C 
HETATM    2  F5  UNL     1     -34.150   7.660   3.587  1.00 20.00    -0.185 F 
HETATM    3  F6  UNL     1     -35.703   6.156   3.333  1.00 20.00    -0.185 F 
HETATM    4 BR7  UNL     1     -33.193   5.220   2.873  1.00 20.00    -0.003 Br
ENDROOT
BRANCH   1   5
HETATM    5  C2  UNL     1     -34.395   6.009   5.275  1.00 20.00     0.167 C 
HETATM    6  C1  UNL     1     -34.548   4.772   5.761  1.00 20.00     0.059 C 
HETATM    7  F4  UNL     1     -34.136   7.002   6.158  1.00 20.00    -0.204 F 
ENDBRANCH   1   5
TORSDOF 1
ENDMDL
MODEL 7
REMARK VINA RESULT:      -4.8      1.328      2.548
REMARK  1 active torsions:
REMARK  status: ('A' for Active; 'I' for Inactive)
REMARK    1  A    between atoms: C2_2  and  C3_3 
ROOT
HETATM    1  C3  UNL     1     -34.713   5.652   4.565  1.00 20.00     0.351 C 
HETATM    2  F5  UNL     1     -35.029   5.188   5.804  1.00 20.00    -0.185 F 
HETATM    3  F6  UNL     1     -35.892   5.955   3.959  1.00 20.00    -0.185 F 
HETATM    4 BR7  UNL     1     -33.644   7.268   4.740  1.00 20.00    -0.003 Br
ENDROOT
BRANCH   1   5
HETATM    5  C2  UNL     1     -33.943   4.664   3.759  1.00 20.00     0.167 C 
HETATM    6  C1  UNL     1     -33.095   4.988   2.777  1.00 20.00     0.059 C 
HETATM    7  F4  UNL     1     -34.081   3.350   4.060  1.00 20.00    -0.204 F 
ENDBRANCH   1   5
TORSDOF 1
ENDMDL
MODEL 8
REMARK VINA RESULT:      -4.8      1.401      1.836
REMARK  1 active torsions:
REMARK  status: ('A' for Active; 'I' for Inactive)
REMARK    1  A    between atoms: C2_2  and  C3_3 
ROOT
HETATM    1  C3  UNL     1     -34.602   5.627   4.286  1.00 20.00     0.351 C 
HETATM    2  F5  UNL     1     -35.862   5.713   3.782  1.00 20.00    -0.185 F 
HETATM    3  F6  UNL     1     -34.679   4.807   5.367  1.00 20.00    -0.185 F 
HETATM    4 BR7  UNL     1     -33.432   4.828   2.952  1.00 20.00    -0.003 Br
ENDROOT
BRANCH   1   5
HETATM    5  C2  UNL     1     -34.043   6.954   4.667  1.00 20.00     0.167 C 
HETATM    6  C1  UNL     1     -33.666   7.287   5.906  1.00 20.00     0.059 C 
HETATM    7  F4  UNL     1     -33.871   7.877   3.691  1.00 20.00    -0.204 F 
ENDBRANCH   1   5
TORSDOF 1
ENDMDL
MODEL 9
REMARK VINA RESULT:      -4.8      2.026      2.823
REMARK  1 active torsions:
REMARK  status: ('A' for Active; 'I' for Inactive)
REMARK    1  A    between atoms: C2_2  and  C3_3 
ROOT
HETATM    1  C3  UNL     1     -34.460   6.047   3.990  1.00 20.00     0.351 C 
HETATM    2  F5  UNL     1     -35.674   6.169   3.390  1.00 20.00    -0.185 F 
HETATM    3  F6  UNL     1     -34.392   7.037   4.920  1.00 20.00    -0.185 F 
HETATM    4 BR7  UNL     1     -34.356   4.319   4.879  1.00 20.00    -0.003 Br
ENDROOT
BRANCH   1   5
HETATM    5  C2  UNL     1     -33.328   6.148   3.027  1.00 20.00     0.167 C 
HETATM    6  C1  UNL     1     -32.755   7.297   2.654  1.00 20.00     0.059 C 
HETATM    7  F4  UNL     1     -32.822   5.000   2.516  1.00 20.00    -0.204 F 
ENDBRANCH   1   5
TORSDOF 1
ENDMDL
