MODEL 1
REMARK VINA RESULT:      -5.9      0.000      0.000
REMARK  1 active torsions:
REMARK  status: ('A' for Active; 'I' for Inactive)
REMARK    1  A    between atoms: C1_1  and  C3_3 
ROOT
HETATM    1  C1  UNL     1     -34.097   4.920   4.101  1.00 20.00     0.249 C 
HETATM    2  C2  UNL     1     -34.389   5.654   5.182  1.00 20.00     0.229 C 
HETATM    3  F4  UNL     1     -34.432   3.608   4.102  1.00 20.00    -0.197 F 
HETATM    4  F5  UNL     1     -35.004   5.085   6.241  1.00 20.00    -0.189 F 
HETATM    5 CL9  UNL     1     -33.998   7.332   5.265  1.00 20.00    -0.049 Cl
ENDROOT
BRANCH   1   6
HETATM    6  C3  UNL     1     -33.424   5.439   2.879  1.00 20.00     0.448 C 
HETATM    7  F6  UNL     1     -34.305   6.071   2.063  1.00 20.00    -0.164 F 
HETATM    8  F7  UNL     1     -32.428   6.324   3.137  1.00 20.00    -0.164 F 
HETATM    9  F8  UNL     1     -32.873   4.432   2.156  1.00 20.00    -0.164 F 
ENDBRANCH   1   6
TORSDOF 1
ENDMDL
MODEL 2
REMARK VINA RESULT:      -5.8      1.956      3.288
REMARK  1 active torsions:
REMARK  status: ('A' for Active; 'I' for Inactive)
REMARK    1  A    between atoms: C1_1  and  C3_3 
ROOT
HETATM    1  C1  UNL     1     -33.790   6.684   5.053  1.00 20.00     0.249 C 
HETATM    2  C2  UNL     1     -32.989   7.234   4.132  1.00 20.00     0.229 C 
HETATM    3  F4  UNL     1     -33.811   7.223   6.295  1.00 20.00    -0.197 F 
HETATM    4  F5  UNL     1     -32.224   8.301   4.449  1.00 20.00    -0.189 F 
HETATM    5 CL9  UNL     1     -32.900   6.610   2.526  1.00 20.00    -0.049 Cl
ENDROOT
BRANCH   1   6
HETATM    6  C3  UNL     1     -34.674   5.510   4.816  1.00 20.00     0.448 C 
HETATM    7  F6  UNL     1     -35.724   5.838   4.021  1.00 20.00    -0.164 F 
HETATM    8  F7  UNL     1     -34.048   4.463   4.223  1.00 20.00    -0.164 F 
HETATM    9  F8  UNL     1     -35.196   5.045   5.979  1.00 20.00    -0.164 F 
ENDBRANCH   1   6
TORSDOF 1
ENDMDL
MODEL 3
REMARK VINA RESULT:      -5.8      1.964      3.307
REMARK  1 active torsions:
REMARK  status: ('A' for Active; 'I' for Inactive)
REMARK    1  A    between atoms: C1_1  and  C3_3 
ROOT
HETATM    1  C1  UNL     1     -33.782   6.701   5.035  1.00 20.00     0.249 C 
HETATM    2  C2  UNL     1     -32.979   7.251   4.115  1.00 20.00     0.229 C 
HETATM    3  F4  UNL     1     -33.781   7.219   6.286  1.00 20.00    -0.197 F 
HETATM    4  F5  UNL     1     -32.193   8.299   4.442  1.00 20.00    -0.189 F 
HETATM    5 CL9  UNL     1     -32.918   6.653   2.498  1.00 20.00    -0.049 Cl
ENDROOT
BRANCH   1   6
HETATM    6  C3  UNL     1     -34.689   5.547   4.788  1.00 20.00     0.448 C 
HETATM    7  F6  UNL     1     -35.200   5.066   5.949  1.00 20.00    -0.164 F 
HETATM    8  F7  UNL     1     -35.745   5.842   3.989  1.00 20.00    -0.164 F 
HETATM    9  F8  UNL     1     -34.027   4.520   4.196  1.00 20.00    -0.164 F 
ENDBRANCH   1   6
TORSDOF 1
ENDMDL
MODEL 4
REMARK VINA RESULT:      -5.8      1.960      3.371
REMARK  1 active torsions:
REMARK  status: ('A' for Active; 'I' for Inactive)
REMARK    1  A    between atoms: C1_1  and  C3_3 
ROOT
HETATM    1  C1  UNL     1     -33.780   6.689   5.037  1.00 20.00     0.249 C 
HETATM    2  C2  UNL     1     -32.993   7.232   4.099  1.00 20.00     0.229 C 
HETATM    3  F4  UNL     1     -33.771   7.228   6.279  1.00 20.00    -0.197 F 
HETATM    4  F5  UNL     1     -32.215   8.294   4.401  1.00 20.00    -0.189 F 
HETATM    5 CL9  UNL     1     -32.943   6.608   2.492  1.00 20.00    -0.049 Cl
ENDROOT
BRANCH   1   6
HETATM    6  C3  UNL     1     -34.677   5.522   4.819  1.00 20.00     0.448 C 
HETATM    7  F6  UNL     1     -34.021   4.506   4.202  1.00 20.00    -0.164 F 
HETATM    8  F7  UNL     1     -35.201   5.011   5.961  1.00 20.00    -0.164 F 
HETATM    9  F8  UNL     1     -35.726   5.850   4.022  1.00 20.00    -0.164 F 
ENDBRANCH   1   6
TORSDOF 1
ENDMDL
MODEL 5
REMARK VINA RESULT:      -5.7      1.747      2.244
REMARK  1 active torsions:
REMARK  status: ('A' for Active; 'I' for Inactive)
REMARK    1  A    between atoms: C1_1  and  C3_3 
ROOT
HETATM    1  C1  UNL     1     -33.958   6.591   4.286  1.00 20.00     0.249 C 
HETATM    2  C2  UNL     1     -34.366   5.547   5.019  1.00 20.00     0.229 C 
HETATM    3  F4  UNL     1     -34.002   7.826   4.840  1.00 20.00    -0.197 F 
HETATM    4  F5  UNL     1     -34.808   5.738   6.281  1.00 20.00    -0.189 F 
HETATM    5 CL9  UNL     1     -34.344   3.941   4.392  1.00 20.00    -0.049 Cl
ENDROOT
BRANCH   1   6
HETATM    6  C3  UNL     1     -33.453   6.500   2.889  1.00 20.00     0.448 C 
HETATM    7  F6  UNL     1     -33.072   7.716   2.424  1.00 20.00    -0.164 F 
HETATM    8  F7  UNL     1     -32.386   5.675   2.745  1.00 20.00    -0.164 F 
HETATM    9  F8  UNL     1     -34.415   6.044   2.047  1.00 20.00    -0.164 F 
ENDBRANCH   1   6
TORSDOF 1
ENDMDL
MODEL 6
REMARK VINA RESULT:      -5.7      1.538      3.072
REMARK  1 active torsions:
REMARK  status: ('A' for Active; 'I' for Inactive)
REMARK    1  A    between atoms: C1_1  and  C3_3 
ROOT
HETATM    1  C1  UNL     1     -33.972   4.766   3.881  1.00 20.00     0.249 C 
HETATM    2  C2  UNL     1     -33.214   5.186   2.860  1.00 20.00     0.229 C 
HETATM    3  F4  UNL     1     -34.046   3.437   4.127  1.00 20.00    -0.197 F 
HETATM    4  F5  UNL     1     -32.544   4.291   2.102  1.00 20.00    -0.189 F 
HETATM    5 CL9  UNL     1     -33.064   6.861   2.477  1.00 20.00    -0.049 Cl
ENDROOT
BRANCH   1   6
HETATM    6  C3  UNL     1     -34.751   5.659   4.781  1.00 20.00     0.448 C 
HETATM    7  F6  UNL     1     -35.156   5.001   5.897  1.00 20.00    -0.164 F 
HETATM    8  F7  UNL     1     -34.064   6.751   5.200  1.00 20.00    -0.164 F 
HETATM    9  F8  UNL     1     -35.873   6.116   4.169  1.00 20.00    -0.164 F 
ENDBRANCH   1   6
TORSDOF 1
ENDMDL
MODEL 7
REMARK VINA RESULT:      -5.7      1.754      2.505
REMARK  1 active torsions:
REMARK  status: ('A' for Active; 'I' for Inactive)
REMARK    1  A    between atoms: C1_1  and  C3_3 
ROOT
HETATM    1  C1  UNL     1     -33.955   6.606   4.335  1.00 20.00     0.249 C 
HETATM    2  C2  UNL     1     -34.356   5.545   5.047  1.00 20.00     0.229 C 
HETATM    3  F4  UNL     1     -33.987   7.827   4.921  1.00 20.00    -0.197 F 
HETATM    4  F5  UNL     1     -34.780   5.705   6.320  1.00 20.00    -0.189 F 
HETATM    5 CL9  UNL     1     -34.348   3.955   4.378  1.00 20.00    -0.049 Cl
ENDROOT
BRANCH   1   6
HETATM    6  C3  UNL     1     -33.470   6.549   2.929  1.00 20.00     0.448 C 
HETATM    7  F6  UNL     1     -32.373   5.757   2.820  1.00 20.00    -0.164 F 
HETATM    8  F7  UNL     1     -34.386   6.071   2.052  1.00 20.00    -0.164 F 
HETATM    9  F8  UNL     1     -33.109   7.780   2.484  1.00 20.00    -0.164 F 
ENDBRANCH   1   6
TORSDOF 1
ENDMDL
MODEL 8
REMARK VINA RESULT:      -5.7      1.394      2.927
REMARK  1 active torsions:
REMARK  status: ('A' for Active; 'I' for Inactive)
REMARK    1  A    between atoms: C1_1  and  C3_3 
ROOT
HETATM    1  C1  UNL     1     -33.651   6.057   3.769  1.00 20.00     0.249 C 
HETATM    2  C2  UNL     1     -33.135   7.155   4.336  1.00 20.00     0.229 C 
HETATM    3  F4  UNL     1     -33.224   5.708   2.533  1.00 20.00    -0.197 F 
HETATM    4  F5  UNL     1     -32.210   7.887   3.677  1.00 20.00    -0.189 F 
HETATM    5 CL9  UNL     1     -33.622   7.673   5.908  1.00 20.00    -0.049 Cl
ENDROOT
BRANCH   1   6
HETATM    6  C3  UNL     1     -34.671   5.177   4.401  1.00 20.00     0.448 C 
HETATM    7  F6  UNL     1     -34.508   3.884   4.021  1.00 20.00    -0.164 F 
HETATM    8  F7  UNL     1     -34.644   5.192   5.757  1.00 20.00    -0.164 F 
HETATM    9  F8  UNL     1     -35.927   5.537   4.032  1.00 20.00    -0.164 F 
ENDBRANCH   1   6
TORSDOF 1
ENDMDL
MODEL 9
REMARK VINA RESULT:      -5.6      1.910      2.950
REMARK  1 active torsions:
REMARK  status: ('A' for Active; 'I' for Inactive)
REMARK    1  A    between atoms: C1_1  and  C3_3 
ROOT
HETATM    1  C1  UNL     1     -34.260   5.684   5.030  1.00 20.00     0.249 C 
HETATM    2  C2  UNL     1     -34.019   4.815   4.040  1.00 20.00     0.229 C 
HETATM    3  F4  UNL     1     -34.910   5.242   6.133  1.00 20.00    -0.197 F 
HETATM    4  F5  UNL     1     -34.421   3.530   4.154  1.00 20.00    -0.189 F 
HETATM    5 CL9  UNL     1     -33.198   5.293   2.601  1.00 20.00    -0.049 Cl
ENDROOT
BRANCH   1   6
HETATM    6  C3  UNL     1     -33.864   7.118   5.014  1.00 20.00     0.448 C 
HETATM    7  F6  UNL     1     -34.177   7.728   6.186  1.00 20.00    -0.164 F 
HETATM    8  F7  UNL     1     -32.538   7.318   4.813  1.00 20.00    -0.164 F 
HETATM    9  F8  UNL     1     -34.514   7.797   4.035  1.00 20.00    -0.164 F 
ENDBRANCH   1   6
TORSDOF 1
ENDMDL
