MODEL 1
REMARK VINA RESULT:      -6.2      0.000      0.000
REMARK  1 active torsions:
REMARK  status: ('A' for Active; 'I' for Inactive)
REMARK    1  A    between atoms: C2_2  and  C4_4 
ROOT
HETATM    1  C1  UNL     1     -33.134   6.843   3.264  1.00 20.00     0.116 C 
HETATM    2  C2  UNL     1     -33.764   6.552   4.416  1.00 20.00     0.151 C 
HETATM    3  C3  UNL     1     -32.126   7.925   3.040  1.00 20.00     0.084 C 
HETATM    4  F5  UNL     1     -33.428   6.088   2.178  1.00 20.00    -0.209 F 
HETATM    5 CL9  UNL     1     -33.475   7.444   5.876  1.00 20.00    -0.076 Cl
ENDROOT
BRANCH   2   6
HETATM    6  C4  UNL     1     -34.766   5.454   4.579  1.00 20.00     0.430 C 
HETATM    7  F6  UNL     1     -35.918   5.720   3.909  1.00 20.00    -0.165 F 
HETATM    8  F7  UNL     1     -34.330   4.250   4.127  1.00 20.00    -0.165 F 
HETATM    9  F8  UNL     1     -35.105   5.272   5.883  1.00 20.00    -0.165 F 
ENDBRANCH   2   6
TORSDOF 1
ENDMDL
MODEL 2
REMARK VINA RESULT:      -6.2      0.040      1.260
REMARK  1 active torsions:
REMARK  status: ('A' for Active; 'I' for Inactive)
REMARK    1  A    between atoms: C2_2  and  C4_4 
ROOT
HETATM    1  C1  UNL     1     -33.163   6.856   3.234  1.00 20.00     0.116 C 
HETATM    2  C2  UNL     1     -33.766   6.562   4.399  1.00 20.00     0.151 C 
HETATM    3  C3  UNL     1     -32.159   7.938   2.989  1.00 20.00     0.084 C 
HETATM    4  F5  UNL     1     -33.485   6.106   2.152  1.00 20.00    -0.209 F 
HETATM    5 CL9  UNL     1     -33.439   7.449   5.855  1.00 20.00    -0.076 Cl
ENDROOT
BRANCH   2   6
HETATM    6  C4  UNL     1     -34.765   5.466   4.583  1.00 20.00     0.430 C 
HETATM    7  F6  UNL     1     -34.294   4.275   4.129  1.00 20.00    -0.165 F 
HETATM    8  F7  UNL     1     -35.120   5.267   5.879  1.00 20.00    -0.165 F 
HETATM    9  F8  UNL     1     -35.917   5.716   3.906  1.00 20.00    -0.165 F 
ENDBRANCH   2   6
TORSDOF 1
ENDMDL
MODEL 3
REMARK VINA RESULT:      -5.8      1.840      2.194
REMARK  1 active torsions:
REMARK  status: ('A' for Active; 'I' for Inactive)
REMARK    1  A    between atoms: C2_2  and  C4_4 
ROOT
HETATM    1  C1  UNL     1     -33.278   7.148   3.528  1.00 20.00     0.116 C 
HETATM    2  C2  UNL     1     -33.642   5.853   3.524  1.00 20.00     0.151 C 
HETATM    3  C3  UNL     1     -32.211   7.784   2.695  1.00 20.00     0.084 C 
HETATM    4  F5  UNL     1     -33.936   7.983   4.369  1.00 20.00    -0.209 F 
HETATM    5 CL9  UNL     1     -32.878   4.685   2.494  1.00 20.00    -0.076 Cl
ENDROOT
BRANCH   2   6
HETATM    6  C4  UNL     1     -34.720   5.274   4.382  1.00 20.00     0.430 C 
HETATM    7  F6  UNL     1     -34.742   3.916   4.315  1.00 20.00    -0.165 F 
HETATM    8  F7  UNL     1     -34.596   5.589   5.697  1.00 20.00    -0.165 F 
HETATM    9  F8  UNL     1     -35.952   5.704   4.001  1.00 20.00    -0.165 F 
ENDBRANCH   2   6
TORSDOF 1
ENDMDL
MODEL 4
REMARK VINA RESULT:      -5.8      1.845      1.845
REMARK  1 active torsions:
REMARK  status: ('A' for Active; 'I' for Inactive)
REMARK    1  A    between atoms: C2_2  and  C4_4 
ROOT
HETATM    1  C1  UNL     1     -33.279   7.149   3.492  1.00 20.00     0.116 C 
HETATM    2  C2  UNL     1     -33.639   5.853   3.504  1.00 20.00     0.151 C 
HETATM    3  C3  UNL     1     -32.218   7.779   2.646  1.00 20.00     0.084 C 
HETATM    4  F5  UNL     1     -33.934   7.991   4.328  1.00 20.00    -0.209 F 
HETATM    5 CL9  UNL     1     -32.877   4.675   2.483  1.00 20.00    -0.076 Cl
ENDROOT
BRANCH   2   6
HETATM    6  C4  UNL     1     -34.710   5.279   4.375  1.00 20.00     0.430 C 
HETATM    7  F6  UNL     1     -35.944   5.712   4.006  1.00 20.00    -0.165 F 
HETATM    8  F7  UNL     1     -34.759   3.922   4.353  1.00 20.00    -0.165 F 
HETATM    9  F8  UNL     1     -34.544   5.634   5.677  1.00 20.00    -0.165 F 
ENDBRANCH   2   6
TORSDOF 1
ENDMDL
MODEL 5
REMARK VINA RESULT:      -5.5      0.713      1.483
REMARK  1 active torsions:
REMARK  status: ('A' for Active; 'I' for Inactive)
REMARK    1  A    between atoms: C2_2  and  C4_4 
ROOT
HETATM    1  C1  UNL     1     -32.915   7.367   3.384  1.00 20.00     0.116 C 
HETATM    2  C2  UNL     1     -33.703   6.782   4.304  1.00 20.00     0.151 C 
HETATM    3  C3  UNL     1     -31.938   8.476   3.613  1.00 20.00     0.084 C 
HETATM    4  F5  UNL     1     -32.999   6.918   2.108  1.00 20.00    -0.209 F 
HETATM    5 CL9  UNL     1     -33.689   7.266   5.971  1.00 20.00    -0.076 Cl
ENDROOT
BRANCH   2   6
HETATM    6  C4  UNL     1     -34.664   5.674   4.015  1.00 20.00     0.430 C 
HETATM    7  F6  UNL     1     -35.038   5.025   5.149  1.00 20.00    -0.165 F 
HETATM    8  F7  UNL     1     -35.810   6.091   3.418  1.00 20.00    -0.165 F 
HETATM    9  F8  UNL     1     -34.121   4.740   3.190  1.00 20.00    -0.165 F 
ENDBRANCH   2   6
TORSDOF 1
ENDMDL
MODEL 6
REMARK VINA RESULT:      -5.3      2.396      3.852
REMARK  1 active torsions:
REMARK  status: ('A' for Active; 'I' for Inactive)
REMARK    1  A    between atoms: C2_2  and  C4_4 
ROOT
HETATM    1  C1  UNL     1     -33.987   6.481   4.808  1.00 20.00     0.116 C 
HETATM    2  C2  UNL     1     -33.306   6.478   3.649  1.00 20.00     0.151 C 
HETATM    3  C3  UNL     1     -34.701   5.325   5.435  1.00 20.00     0.084 C 
HETATM    4  F5  UNL     1     -34.048   7.646   5.499  1.00 20.00    -0.209 F 
HETATM    5 CL9  UNL     1     -33.155   5.051   2.673  1.00 20.00    -0.076 Cl
ENDROOT
BRANCH   2   6
HETATM    6  C4  UNL     1     -32.611   7.669   3.072  1.00 20.00     0.430 C 
HETATM    7  F6  UNL     1     -31.936   7.355   1.935  1.00 20.00    -0.165 F 
HETATM    8  F7  UNL     1     -33.453   8.684   2.748  1.00 20.00    -0.165 F 
HETATM    9  F8  UNL     1     -31.701   8.189   3.937  1.00 20.00    -0.165 F 
ENDBRANCH   2   6
TORSDOF 1
ENDMDL
MODEL 7
REMARK VINA RESULT:      -5.3      1.730      3.378
REMARK  1 active torsions:
REMARK  status: ('A' for Active; 'I' for Inactive)
REMARK    1  A    between atoms: C2_2  and  C4_4 
ROOT
HETATM    1  C1  UNL     1     -33.981   5.692   3.758  1.00 20.00     0.116 C 
HETATM    2  C2  UNL     1     -33.387   6.833   4.150  1.00 20.00     0.151 C 
HETATM    3  C3  UNL     1     -34.854   4.803   4.587  1.00 20.00     0.084 C 
HETATM    4  F5  UNL     1     -33.781   5.285   2.481  1.00 20.00    -0.209 F 
HETATM    5 CL9  UNL     1     -33.565   7.460   5.758  1.00 20.00    -0.076 Cl
ENDROOT
BRANCH   2   6
HETATM    6  C4  UNL     1     -32.522   7.682   3.274  1.00 20.00     0.430 C 
HETATM    7  F6  UNL     1     -31.600   8.372   3.995  1.00 20.00    -0.165 F 
HETATM    8  F7  UNL     1     -31.828   6.973   2.346  1.00 20.00    -0.165 F 
HETATM    9  F8  UNL     1     -33.250   8.601   2.586  1.00 20.00    -0.165 F 
ENDBRANCH   2   6
TORSDOF 1
ENDMDL
MODEL 8
REMARK VINA RESULT:      -5.1      1.567      2.822
REMARK  1 active torsions:
REMARK  status: ('A' for Active; 'I' for Inactive)
REMARK    1  A    between atoms: C2_2  and  C4_4 
ROOT
HETATM    1  C1  UNL     1     -33.963   6.602   5.227  1.00 20.00     0.116 C 
HETATM    2  C2  UNL     1     -33.429   6.471   4.000  1.00 20.00     0.151 C 
HETATM    3  C3  UNL     1     -33.705   7.702   6.207  1.00 20.00     0.084 C 
HETATM    4  F5  UNL     1     -34.831   5.646   5.640  1.00 20.00    -0.209 F 
HETATM    5 CL9  UNL     1     -32.306   7.626   3.356  1.00 20.00    -0.076 Cl
ENDROOT
BRANCH   2   6
HETATM    6  C4  UNL     1     -33.726   5.345   3.062  1.00 20.00     0.430 C 
HETATM    7  F6  UNL     1     -32.603   4.897   2.441  1.00 20.00    -0.165 F 
HETATM    8  F7  UNL     1     -34.283   4.266   3.669  1.00 20.00    -0.165 F 
HETATM    9  F8  UNL     1     -34.591   5.721   2.083  1.00 20.00    -0.165 F 
ENDBRANCH   2   6
TORSDOF 1
ENDMDL
MODEL 9
REMARK VINA RESULT:      -5.0      1.501      3.151
REMARK  1 active torsions:
REMARK  status: ('A' for Active; 'I' for Inactive)
REMARK    1  A    between atoms: C2_2  and  C4_4 
ROOT
HETATM    1  C1  UNL     1     -34.359   4.988   4.779  1.00 20.00     0.116 C 
HETATM    2  C2  UNL     1     -33.782   6.024   4.146  1.00 20.00     0.151 C 
HETATM    3  C3  UNL     1     -34.831   4.952   6.199  1.00 20.00     0.084 C 
HETATM    4  F5  UNL     1     -34.542   3.843   4.076  1.00 20.00    -0.209 F 
HETATM    5 CL9  UNL     1     -33.492   7.541   4.936  1.00 20.00    -0.076 Cl
ENDROOT
BRANCH   2   6
HETATM    6  C4  UNL     1     -33.329   6.000   2.721  1.00 20.00     0.430 C 
HETATM    7  F6  UNL     1     -34.380   5.997   1.859  1.00 20.00    -0.165 F 
HETATM    8  F7  UNL     1     -32.557   7.064   2.379  1.00 20.00    -0.165 F 
HETATM    9  F8  UNL     1     -32.593   4.890   2.446  1.00 20.00    -0.165 F 
ENDBRANCH   2   6
TORSDOF 1
ENDMDL
