MODEL 1
REMARK VINA RESULT:      -4.0      0.000      0.000
REMARK  0 active torsions:
REMARK  status: ('A' for Active; 'I' for Inactive)
ROOT
HETATM    1  C1  UNL     1     -34.625   5.060   5.594  1.00 20.00     0.238 C 
HETATM    2  C2  UNL     1     -34.214   6.300   5.335  1.00 20.00     0.189 C 
HETATM    3  F3  UNL     1     -34.671   4.118   4.634  1.00 20.00    -0.216 F 
HETATM    4  F4  UNL     1     -34.191   7.199   6.343  1.00 20.00    -0.196 F 
HETATM    5 BR5  UNL     1     -33.670   6.850   3.644  1.00 20.00    -0.015 Br
ENDROOT
TORSDOF 0
ENDMDL
MODEL 2
REMARK VINA RESULT:      -3.9      2.050      2.279
REMARK  0 active torsions:
REMARK  status: ('A' for Active; 'I' for Inactive)
ROOT
HETATM    1  C1  UNL     1     -33.485   7.218   4.065  1.00 20.00     0.238 C 
HETATM    2  C2  UNL     1     -33.968   6.717   5.200  1.00 20.00     0.189 C 
HETATM    3  F3  UNL     1     -33.456   6.494   2.931  1.00 20.00    -0.216 F 
HETATM    4  F4  UNL     1     -33.969   7.497   6.304  1.00 20.00    -0.196 F 
HETATM    5 BR5  UNL     1     -34.640   4.989   5.336  1.00 20.00    -0.015 Br
ENDROOT
TORSDOF 0
ENDMDL
MODEL 3
REMARK VINA RESULT:      -3.9      0.736      2.396
REMARK  0 active torsions:
REMARK  status: ('A' for Active; 'I' for Inactive)
ROOT
HETATM    1  C1  UNL     1     -34.494   5.934   5.753  1.00 20.00     0.238 C 
HETATM    2  C2  UNL     1     -34.424   5.303   4.583  1.00 20.00     0.189 C 
HETATM    3  F3  UNL     1     -34.086   7.209   5.892  1.00 20.00    -0.216 F 
HETATM    4  F4  UNL     1     -34.850   4.022   4.510  1.00 20.00    -0.196 F 
HETATM    5 BR5  UNL     1     -33.765   6.105   3.041  1.00 20.00    -0.015 Br
ENDROOT
TORSDOF 0
ENDMDL
MODEL 4
REMARK VINA RESULT:      -3.8      1.210      2.393
REMARK  0 active torsions:
REMARK  status: ('A' for Active; 'I' for Inactive)
ROOT
HETATM    1  C1  UNL     1     -34.160   6.633   5.720  1.00 20.00     0.238 C 
HETATM    2  C2  UNL     1     -34.346   6.256   4.456  1.00 20.00     0.189 C 
HETATM    3  F3  UNL     1     -33.129   7.421   6.076  1.00 20.00    -0.216 F 
HETATM    4  F4  UNL     1     -35.401   5.463   4.165  1.00 20.00    -0.196 F 
HETATM    5 BR5  UNL     1     -33.217   6.773   3.072  1.00 20.00    -0.015 Br
ENDROOT
TORSDOF 0
ENDMDL
MODEL 5
REMARK VINA RESULT:      -3.8      2.447      2.781
REMARK  0 active torsions:
REMARK  status: ('A' for Active; 'I' for Inactive)
ROOT
HETATM    1  C1  UNL     1     -33.609   6.144   2.997  1.00 20.00     0.238 C 
HETATM    2  C2  UNL     1     -34.390   6.257   4.069  1.00 20.00     0.189 C 
HETATM    3  F3  UNL     1     -32.353   6.628   2.984  1.00 20.00    -0.216 F 
HETATM    4  F4  UNL     1     -35.641   5.749   4.017  1.00 20.00    -0.196 F 
HETATM    5 BR5  UNL     1     -33.835   7.086   5.638  1.00 20.00    -0.015 Br
ENDROOT
TORSDOF 0
ENDMDL
MODEL 6
REMARK VINA RESULT:      -3.7      1.863      2.057
REMARK  0 active torsions:
REMARK  status: ('A' for Active; 'I' for Inactive)
ROOT
HETATM    1  C1  UNL     1     -34.986   5.356   4.151  1.00 20.00     0.238 C 
HETATM    2  C2  UNL     1     -34.423   5.614   5.329  1.00 20.00     0.189 C 
HETATM    3  F3  UNL     1     -35.076   6.296   3.192  1.00 20.00    -0.216 F 
HETATM    4  F4  UNL     1     -34.365   4.626   6.250  1.00 20.00    -0.196 F 
HETATM    5 BR5  UNL     1     -33.713   7.275   5.767  1.00 20.00    -0.015 Br
ENDROOT
TORSDOF 0
ENDMDL
MODEL 7
REMARK VINA RESULT:      -3.7      1.837      1.963
REMARK  0 active torsions:
REMARK  status: ('A' for Active; 'I' for Inactive)
ROOT
HETATM    1  C1  UNL     1     -34.650   4.891   4.519  1.00 20.00     0.238 C 
HETATM    2  C2  UNL     1     -34.215   6.131   4.307  1.00 20.00     0.189 C 
HETATM    3  F3  UNL     1     -34.748   4.380   5.761  1.00 20.00    -0.216 F 
HETATM    4  F4  UNL     1     -34.141   6.583   3.036  1.00 20.00    -0.196 F 
HETATM    5 BR5  UNL     1     -33.705   7.271   5.684  1.00 20.00    -0.015 Br
ENDROOT
TORSDOF 0
ENDMDL
MODEL 8
REMARK VINA RESULT:      -3.7      2.111      2.831
REMARK  0 active torsions:
REMARK  status: ('A' for Active; 'I' for Inactive)
ROOT
HETATM    1  C1  UNL     1     -33.712   7.321   5.025  1.00 20.00     0.238 C 
HETATM    2  C2  UNL     1     -33.950   6.334   4.164  1.00 20.00     0.189 C 
HETATM    3  F3  UNL     1     -33.948   7.179   6.343  1.00 20.00    -0.216 F 
HETATM    4  F4  UNL     1     -33.692   6.540   2.853  1.00 20.00    -0.196 F 
HETATM    5 BR5  UNL     1     -34.622   4.680   4.684  1.00 20.00    -0.015 Br
ENDROOT
TORSDOF 0
ENDMDL
MODEL 9
REMARK VINA RESULT:      -3.6      2.327      2.452
REMARK  0 active torsions:
REMARK  status: ('A' for Active; 'I' for Inactive)
ROOT
HETATM    1  C1  UNL     1     -33.301   5.981   2.885  1.00 20.00     0.238 C 
HETATM    2  C2  UNL     1     -33.958   6.270   4.005  1.00 20.00     0.189 C 
HETATM    3  F3  UNL     1     -33.095   4.708   2.497  1.00 20.00    -0.216 F 
HETATM    4  F4  UNL     1     -34.131   7.569   4.338  1.00 20.00    -0.196 F 
HETATM    5 BR5  UNL     1     -34.649   4.967   5.137  1.00 20.00    -0.015 Br
ENDROOT
TORSDOF 0
ENDMDL
