MODEL 1
REMARK VINA RESULT:      -5.7      0.000      0.000
REMARK  0 active torsions:
REMARK  status: ('A' for Active; 'I' for Inactive)
ROOT
HETATM    1  C1  UNL     1     -32.853   7.470   3.751  1.00 20.00     0.145 C 
HETATM    2  C2  UNL     1     -33.829   6.956   4.488  1.00 20.00    -0.034 C 
HETATM    3  C3  UNL     1     -34.057   6.739   5.931  1.00 20.00     0.038 C 
HETATM    4  C4  UNL     1     -34.691   5.334   5.908  1.00 20.00     0.007 C 
HETATM    5  C5  UNL     1     -34.471   4.772   4.487  1.00 20.00     0.034 C 
HETATM    6  C6  UNL     1     -34.547   6.007   3.616  1.00 20.00     0.161 C 
HETATM    7  N7  UNL     1     -32.840   6.929   2.487  1.00 20.00    -0.167 NA
HETATM    8  N8  UNL     1     -33.713   6.008   2.398  1.00 20.00    -0.183 NA
ENDROOT
TORSDOF 0
ENDMDL
MODEL 2
REMARK VINA RESULT:      -5.3      2.052      3.290
REMARK  0 active torsions:
REMARK  status: ('A' for Active; 'I' for Inactive)
ROOT
HETATM    1  C1  UNL     1     -34.470   4.529   4.478  1.00 20.00     0.145 C 
HETATM    2  C2  UNL     1     -34.279   5.604   3.724  1.00 20.00    -0.034 C 
HETATM    3  C3  UNL     1     -33.627   5.877   2.427  1.00 20.00     0.038 C 
HETATM    4  C4  UNL     1     -32.911   7.205   2.745  1.00 20.00     0.007 C 
HETATM    5  C5  UNL     1     -32.976   7.386   4.277  1.00 20.00     0.034 C 
HETATM    6  C6  UNL     1     -34.305   6.759   4.640  1.00 20.00     0.161 C 
HETATM    7  N7  UNL     1     -34.591   4.864   5.806  1.00 20.00    -0.167 NA
HETATM    8  N8  UNL     1     -34.388   6.110   5.963  1.00 20.00    -0.183 NA
ENDROOT
TORSDOF 0
ENDMDL
MODEL 3
REMARK VINA RESULT:      -5.2      1.821      2.655
REMARK  0 active torsions:
REMARK  status: ('A' for Active; 'I' for Inactive)
ROOT
HETATM    1  C1  UNL     1     -33.576   4.730   3.262  1.00 20.00     0.145 C 
HETATM    2  C2  UNL     1     -33.857   5.954   3.689  1.00 20.00    -0.034 C 
HETATM    3  C3  UNL     1     -33.181   7.267   3.642  1.00 20.00     0.038 C 
HETATM    4  C4  UNL     1     -33.473   7.786   5.063  1.00 20.00     0.007 C 
HETATM    5  C5  UNL     1     -34.016   6.586   5.870  1.00 20.00     0.034 C 
HETATM    6  C6  UNL     1     -34.777   5.792   4.830  1.00 20.00     0.161 C 
HETATM    7  N7  UNL     1     -34.199   3.776   4.032  1.00 20.00    -0.167 NA
HETATM    8  N8  UNL     1     -34.801   4.326   5.008  1.00 20.00    -0.183 NA
ENDROOT
TORSDOF 0
ENDMDL
MODEL 4
REMARK VINA RESULT:      -4.9      1.913      2.834
REMARK  0 active torsions:
REMARK  status: ('A' for Active; 'I' for Inactive)
ROOT
HETATM    1  C1  UNL     1     -34.340   5.927   5.923  1.00 20.00     0.145 C 
HETATM    2  C2  UNL     1     -34.388   5.538   4.656  1.00 20.00    -0.034 C 
HETATM    3  C3  UNL     1     -34.232   4.255   3.942  1.00 20.00     0.038 C 
HETATM    4  C4  UNL     1     -33.398   4.707   2.727  1.00 20.00     0.007 C 
HETATM    5  C5  UNL     1     -32.904   6.137   3.037  1.00 20.00     0.034 C 
HETATM    6  C6  UNL     1     -34.039   6.722   3.849  1.00 20.00     0.161 C 
HETATM    7  N7  UNL     1     -33.965   7.245   6.029  1.00 20.00    -0.167 NA
HETATM    8  N8  UNL     1     -33.671   7.710   4.882  1.00 20.00    -0.183 NA
ENDROOT
TORSDOF 0
ENDMDL
MODEL 5
REMARK VINA RESULT:      -4.6      0.862      1.871
REMARK  0 active torsions:
REMARK  status: ('A' for Active; 'I' for Inactive)
ROOT
HETATM    1  C1  UNL     1     -33.774   6.204   2.438  1.00 20.00     0.145 C 
HETATM    2  C2  UNL     1     -33.777   5.770   3.692  1.00 20.00    -0.034 C 
HETATM    3  C3  UNL     1     -34.674   4.933   4.514  1.00 20.00     0.038 C 
HETATM    4  C4  UNL     1     -34.654   5.716   5.841  1.00 20.00     0.007 C 
HETATM    5  C5  UNL     1     -33.997   7.081   5.539  1.00 20.00     0.034 C 
HETATM    6  C6  UNL     1     -32.985   6.743   4.466  1.00 20.00     0.161 C 
HETATM    7  N7  UNL     1     -33.080   7.385   2.318  1.00 20.00    -0.167 NA
HETATM    8  N8  UNL     1     -32.710   7.793   3.465  1.00 20.00    -0.183 NA
ENDROOT
TORSDOF 0
ENDMDL
MODEL 6
REMARK VINA RESULT:      -4.4     11.726     12.879
REMARK  0 active torsions:
REMARK  status: ('A' for Active; 'I' for Inactive)
ROOT
HETATM    1  C1  UNL     1     -34.429  13.562  -7.223  1.00 20.00     0.145 C 
HETATM    2  C2  UNL     1     -34.332  14.581  -6.379  1.00 20.00    -0.034 C 
HETATM    3  C3  UNL     1     -33.346  15.653  -6.133  1.00 20.00     0.038 C 
HETATM    4  C4  UNL     1     -33.333  15.676  -4.591  1.00 20.00     0.007 C 
HETATM    5  C5  UNL     1     -34.078  14.407  -4.124  1.00 20.00     0.034 C 
HETATM    6  C6  UNL     1     -35.130  14.214  -5.195  1.00 20.00     0.161 C 
HETATM    7  N7  UNL     1     -35.191  12.546  -6.695  1.00 20.00    -0.167 NA
HETATM    8  N8  UNL     1     -35.517  12.822  -5.497  1.00 20.00    -0.183 NA
ENDROOT
TORSDOF 0
ENDMDL
MODEL 7
REMARK VINA RESULT:      -4.4      1.826      2.824
REMARK  0 active torsions:
REMARK  status: ('A' for Active; 'I' for Inactive)
ROOT
HETATM    1  C1  UNL     1     -34.413   6.017   5.747  1.00 20.00     0.145 C 
HETATM    2  C2  UNL     1     -33.577   6.325   4.763  1.00 20.00    -0.034 C 
HETATM    3  C3  UNL     1     -33.092   7.577   4.148  1.00 20.00     0.038 C 
HETATM    4  C4  UNL     1     -33.118   7.187   2.656  1.00 20.00     0.007 C 
HETATM    5  C5  UNL     1     -33.910   5.865   2.559  1.00 20.00     0.034 C 
HETATM    6  C6  UNL     1     -33.564   5.164   3.855  1.00 20.00     0.161 C 
HETATM    7  N7  UNL     1     -34.974   4.776   5.558  1.00 20.00    -0.167 NA
HETATM    8  N8  UNL     1     -34.611   4.299   4.436  1.00 20.00    -0.183 NA
ENDROOT
TORSDOF 0
ENDMDL
MODEL 8
REMARK VINA RESULT:      -4.0     12.136     13.375
REMARK  0 active torsions:
REMARK  status: ('A' for Active; 'I' for Inactive)
ROOT
HETATM    1  C1  UNL     1     -35.213  13.963  -4.710  1.00 20.00     0.145 C 
HETATM    2  C2  UNL     1     -34.350  14.510  -5.556  1.00 20.00    -0.034 C 
HETATM    3  C3  UNL     1     -33.824  15.870  -5.790  1.00 20.00     0.038 C 
HETATM    4  C4  UNL     1     -33.827  15.914  -7.331  1.00 20.00     0.007 C 
HETATM    5  C5  UNL     1     -34.646  14.693  -7.806  1.00 20.00     0.034 C 
HETATM    6  C6  UNL     1     -34.344  13.649  -6.753  1.00 20.00     0.161 C 
HETATM    7  N7  UNL     1     -35.797  12.840  -5.247  1.00 20.00    -0.167 NA
HETATM    8  N8  UNL     1     -35.421  12.685  -6.452  1.00 20.00    -0.183 NA
ENDROOT
TORSDOF 0
ENDMDL
MODEL 9
REMARK VINA RESULT:      -4.0     11.493     12.282
REMARK  0 active torsions:
REMARK  status: ('A' for Active; 'I' for Inactive)
ROOT
HETATM    1  C1  UNL     1     -36.785  14.775  -4.706  1.00 20.00     0.145 C 
HETATM    2  C2  UNL     1     -35.667  15.028  -4.038  1.00 20.00    -0.034 C 
HETATM    3  C3  UNL     1     -34.943  16.245  -3.619  1.00 20.00     0.038 C 
HETATM    4  C4  UNL     1     -33.489  15.824  -3.911  1.00 20.00     0.007 C 
HETATM    5  C5  UNL     1     -33.564  14.533  -4.755  1.00 20.00     0.034 C 
HETATM    6  C6  UNL     1     -34.803  13.847  -4.220  1.00 20.00     0.161 C 
HETATM    7  N7  UNL     1     -36.729  13.554  -5.334  1.00 20.00    -0.167 NA
HETATM    8  N8  UNL     1     -35.576  13.038  -5.184  1.00 20.00    -0.183 NA
ENDROOT
TORSDOF 0
ENDMDL
