MODEL 1
REMARK VINA RESULT:      -4.9      0.000      0.000
REMARK  1 active torsions:
REMARK  status: ('A' for Active; 'I' for Inactive)
REMARK    1  A    between atoms: C6_6  and  C8_8 
ROOT
HETATM    1  C1  UNL     1     -34.457   4.972   5.585  1.00 20.00     0.000 C 
HETATM    2  C2  UNL     1     -34.458   4.733   4.078  1.00 20.00     0.001 C 
HETATM    3  C3  UNL     1     -34.465   6.458   5.925  1.00 20.00     0.001 C 
HETATM    4  C4  UNL     1     -33.310   5.473   3.390  1.00 20.00     0.010 C 
HETATM    5  C5  UNL     1     -33.318   7.200   5.240  1.00 20.00     0.010 C 
HETATM    6  C6  UNL     1     -33.274   6.985   3.709  1.00 20.00    -0.032 C 
HETATM    7  C7  UNL     1     -34.451   7.711   3.028  1.00 20.00     0.016 C 
ENDROOT
BRANCH   6   8
HETATM    8  C8  UNL     1     -31.966   7.582   3.157  1.00 20.00     0.123 C 
HETATM    9 CL9  UNL     1     -32.326   8.651   1.796  1.00 20.00    -0.130 Cl
ENDBRANCH   6   8
TORSDOF 1
ENDMDL
MODEL 2
REMARK VINA RESULT:      -4.4      1.880      3.132
REMARK  1 active torsions:
REMARK  status: ('A' for Active; 'I' for Inactive)
REMARK    1  A    between atoms: C6_6  and  C8_8 
ROOT
HETATM    1  C1  UNL     1     -32.866   8.006   5.249  1.00 20.00     0.000 C 
HETATM    2  C2  UNL     1     -33.951   7.260   6.018  1.00 20.00     0.001 C 
HETATM    3  C3  UNL     1     -33.040   7.865   3.740  1.00 20.00     0.001 C 
HETATM    4  C4  UNL     1     -34.034   5.792   5.597  1.00 20.00     0.010 C 
HETATM    5  C5  UNL     1     -33.121   6.399   3.316  1.00 20.00     0.010 C 
HETATM    6  C6  UNL     1     -34.206   5.599   4.073  1.00 20.00    -0.032 C 
HETATM    7  C7  UNL     1     -35.614   6.041   3.627  1.00 20.00     0.016 C 
ENDROOT
BRANCH   6   8
HETATM    8  C8  UNL     1     -34.051   4.104   3.737  1.00 20.00     0.123 C 
HETATM    9 CL9  UNL     1     -32.927   3.910   2.387  1.00 20.00    -0.130 Cl
ENDBRANCH   6   8
TORSDOF 1
ENDMDL
MODEL 3
REMARK VINA RESULT:      -4.4      0.984      2.039
REMARK  1 active torsions:
REMARK  status: ('A' for Active; 'I' for Inactive)
REMARK    1  A    between atoms: C6_6  and  C8_8 
ROOT
HETATM    1  C1  UNL     1     -34.792   5.884   5.843  1.00 20.00     0.000 C 
HETATM    2  C2  UNL     1     -33.441   6.592   5.860  1.00 20.00     0.001 C 
HETATM    3  C3  UNL     1     -35.049   5.181   4.514  1.00 20.00     0.001 C 
HETATM    4  C4  UNL     1     -33.292   7.552   4.680  1.00 20.00     0.010 C 
HETATM    5  C5  UNL     1     -34.902   6.138   3.332  1.00 20.00     0.010 C 
HETATM    6  C6  UNL     1     -33.547   6.884   3.309  1.00 20.00    -0.032 C 
HETATM    7  C7  UNL     1     -32.402   5.914   2.957  1.00 20.00     0.016 C 
ENDROOT
BRANCH   6   8
HETATM    8  C8  UNL     1     -33.595   7.974   2.222  1.00 20.00     0.123 C 
HETATM    9 CL9  UNL     1     -31.953   8.503   1.835  1.00 20.00    -0.130 Cl
ENDBRANCH   6   8
TORSDOF 1
ENDMDL
MODEL 4
REMARK VINA RESULT:      -4.4      1.150      2.348
REMARK  1 active torsions:
REMARK  status: ('A' for Active; 'I' for Inactive)
REMARK    1  A    between atoms: C6_6  and  C8_8 
ROOT
HETATM    1  C1  UNL     1     -34.418   5.561   4.437  1.00 20.00     0.000 C 
HETATM    2  C2  UNL     1     -34.043   6.886   5.094  1.00 20.00     0.001 C 
HETATM    3  C3  UNL     1     -33.440   5.177   3.332  1.00 20.00     0.001 C 
HETATM    4  C4  UNL     1     -33.893   8.005   4.063  1.00 20.00     0.010 C 
HETATM    5  C5  UNL     1     -33.289   6.294   2.299  1.00 20.00     0.010 C 
HETATM    6  C6  UNL     1     -32.913   7.659   2.919  1.00 20.00    -0.032 C 
HETATM    7  C7  UNL     1     -31.461   7.635   3.438  1.00 20.00     0.016 C 
ENDROOT
BRANCH   6   8
HETATM    8  C8  UNL     1     -33.009   8.746   1.832  1.00 20.00     0.123 C 
HETATM    9 CL9  UNL     1     -31.524   8.763   0.873  1.00 20.00    -0.130 Cl
ENDBRANCH   6   8
TORSDOF 1
ENDMDL
MODEL 5
REMARK VINA RESULT:      -4.3      2.396      3.743
REMARK  1 active torsions:
REMARK  status: ('A' for Active; 'I' for Inactive)
REMARK    1  A    between atoms: C6_6  and  C8_8 
ROOT
HETATM    1  C1  UNL     1     -32.071   7.961   3.604  1.00 20.00     0.000 C 
HETATM    2  C2  UNL     1     -33.175   8.097   4.648  1.00 20.00     0.001 C 
HETATM    3  C3  UNL     1     -32.519   7.125   2.410  1.00 20.00     0.001 C 
HETATM    4  C4  UNL     1     -33.707   6.733   5.087  1.00 20.00     0.010 C 
HETATM    5  C5  UNL     1     -33.050   5.760   2.845  1.00 20.00     0.010 C 
HETATM    6  C6  UNL     1     -34.170   5.846   3.909  1.00 20.00    -0.032 C 
HETATM    7  C7  UNL     1     -35.465   6.404   3.286  1.00 20.00     0.016 C 
ENDROOT
BRANCH   6   8
HETATM    8  C8  UNL     1     -34.470   4.430   4.435  1.00 20.00     0.123 C 
HETATM    9 CL9  UNL     1     -34.726   4.485   6.183  1.00 20.00    -0.130 Cl
ENDBRANCH   6   8
TORSDOF 1
ENDMDL
MODEL 6
REMARK VINA RESULT:      -4.1      2.252      3.723
REMARK  1 active torsions:
REMARK  status: ('A' for Active; 'I' for Inactive)
REMARK    1  A    between atoms: C6_6  and  C8_8 
ROOT
HETATM    1  C1  UNL     1     -31.977   8.765   2.467  1.00 20.00     0.000 C 
HETATM    2  C2  UNL     1     -32.691   7.918   1.418  1.00 20.00     0.001 C 
HETATM    3  C3  UNL     1     -31.658   7.964   3.724  1.00 20.00     0.001 C 
HETATM    4  C4  UNL     1     -33.941   7.249   1.989  1.00 20.00     0.010 C 
HETATM    5  C5  UNL     1     -32.906   7.294   4.298  1.00 20.00     0.010 C 
HETATM    6  C6  UNL     1     -33.667   6.426   3.269  1.00 20.00    -0.032 C 
HETATM    7  C7  UNL     1     -32.863   5.154   2.934  1.00 20.00     0.016 C 
ENDROOT
BRANCH   6   8
HETATM    8  C8  UNL     1     -35.011   5.988   3.880  1.00 20.00     0.123 C 
HETATM    9 CL9  UNL     1     -34.749   5.363   5.512  1.00 20.00    -0.130 Cl
ENDBRANCH   6   8
TORSDOF 1
ENDMDL
MODEL 7
REMARK VINA RESULT:      -3.9      9.230     10.445
REMARK  1 active torsions:
REMARK  status: ('A' for Active; 'I' for Inactive)
REMARK    1  A    between atoms: C6_6  and  C8_8 
ROOT
HETATM    1  C1  UNL     1     -41.250   8.000  -0.775  1.00 20.00     0.000 C 
HETATM    2  C2  UNL     1     -40.714   7.104   0.337  1.00 20.00     0.001 C 
HETATM    3  C3  UNL     1     -42.773   8.070  -0.764  1.00 20.00     0.001 C 
HETATM    4  C4  UNL     1     -41.340   5.710   0.290  1.00 20.00     0.010 C 
HETATM    5  C5  UNL     1     -43.402   6.678  -0.812  1.00 20.00     0.010 C 
HETATM    6  C6  UNL     1     -42.885   5.730   0.295  1.00 20.00    -0.032 C 
HETATM    7  C7  UNL     1     -43.417   6.170   1.674  1.00 20.00     0.016 C 
ENDROOT
BRANCH   6   8
HETATM    8  C8  UNL     1     -43.406   4.307   0.019  1.00 20.00     0.123 C 
HETATM    9 CL9  UNL     1     -43.396   3.995  -1.720  1.00 20.00    -0.130 Cl
ENDBRANCH   6   8
TORSDOF 1
ENDMDL
MODEL 8
REMARK VINA RESULT:      -3.8     11.577     12.638
REMARK  1 active torsions:
REMARK  status: ('A' for Active; 'I' for Inactive)
REMARK    1  A    between atoms: C6_6  and  C8_8 
ROOT
HETATM    1  C1  UNL     1     -35.754  13.616  -6.563  1.00 20.00     0.000 C 
HETATM    2  C2  UNL     1     -35.817  13.555  -5.039  1.00 20.00     0.001 C 
HETATM    3  C3  UNL     1     -34.361  13.985  -7.060  1.00 20.00     0.001 C 
HETATM    4  C4  UNL     1     -35.320  14.853  -4.403  1.00 20.00     0.010 C 
HETATM    5  C5  UNL     1     -33.862  15.283  -6.426  1.00 20.00     0.010 C 
HETATM    6  C6  UNL     1     -33.911  15.271  -4.880  1.00 20.00    -0.032 C 
HETATM    7  C7  UNL     1     -32.841  14.318  -4.313  1.00 20.00     0.016 C 
ENDROOT
BRANCH   6   8
HETATM    8  C8  UNL     1     -33.606  16.689  -4.359  1.00 20.00     0.123 C 
HETATM    9 CL9  UNL     1     -33.674  16.703  -2.593  1.00 20.00    -0.130 Cl
ENDBRANCH   6   8
TORSDOF 1
ENDMDL
MODEL 9
REMARK VINA RESULT:      -3.8     11.798     12.450
REMARK  1 active torsions:
REMARK  status: ('A' for Active; 'I' for Inactive)
REMARK    1  A    between atoms: C6_6  and  C8_8 
ROOT
HETATM    1  C1  UNL     1     -34.401  18.095   0.456  1.00 20.00     0.000 C 
HETATM    2  C2  UNL     1     -35.623  17.696  -0.366  1.00 20.00     0.001 C 
HETATM    3  C3  UNL     1     -33.299  18.690  -0.414  1.00 20.00     0.001 C 
HETATM    4  C4  UNL     1     -35.248  16.760  -1.515  1.00 20.00     0.010 C 
HETATM    5  C5  UNL     1     -32.922  17.756  -1.563  1.00 20.00     0.010 C 
HETATM    6  C6  UNL     1     -34.130  17.320  -2.424  1.00 20.00    -0.032 C 
HETATM    7  C7  UNL     1     -34.653  18.505  -3.260  1.00 20.00     0.016 C 
ENDROOT
BRANCH   6   8
HETATM    8  C8  UNL     1     -33.677  16.216  -3.399  1.00 20.00     0.123 C 
HETATM    9 CL9  UNL     1     -35.050  15.181  -3.807  1.00 20.00    -0.130 Cl
ENDBRANCH   6   8
TORSDOF 1
ENDMDL
