MODEL 1
REMARK VINA RESULT:      -5.1      0.000      0.000
REMARK  0 active torsions:
REMARK  status: ('A' for Active; 'I' for Inactive)
ROOT
HETATM    1  C1  UNL     1     -34.202   4.868   4.148  1.00 20.00     0.164 C 
HETATM    2  C2  UNL     1     -34.768   5.884   5.111  1.00 20.00     0.107 C 
HETATM    3  C3  UNL     1     -33.795   7.046   5.238  1.00 20.00     0.175 C 
HETATM    4  C4  UNL     1     -32.791   6.631   3.141  1.00 20.00     0.212 C 
HETATM    5  C5  UNL     1     -33.670   5.427   2.852  1.00 20.00     0.263 C 
HETATM    6  O6  UNL     1     -34.257   3.659   4.365  1.00 20.00    -0.295 OA
HETATM    7  O7  UNL     1     -33.481   7.584   3.950  1.00 20.00    -0.388 OA
HETATM    8  F8  UNL     1     -32.939   4.502   2.175  1.00 20.00    -0.239 F 
ENDROOT
TORSDOF 0
ENDMDL
MODEL 2
REMARK VINA RESULT:      -4.9      1.983      3.477
REMARK  0 active torsions:
REMARK  status: ('A' for Active; 'I' for Inactive)
ROOT
HETATM    1  C1  UNL     1     -33.443   6.731   4.084  1.00 20.00     0.164 C 
HETATM    2  C2  UNL     1     -33.706   5.744   2.971  1.00 20.00     0.107 C 
HETATM    3  C3  UNL     1     -33.849   4.351   3.564  1.00 20.00     0.175 C 
HETATM    4  C4  UNL     1     -34.458   5.158   5.698  1.00 20.00     0.212 C 
HETATM    5  C5  UNL     1     -34.350   6.614   5.283  1.00 20.00     0.263 C 
HETATM    6  O6  UNL     1     -32.609   7.628   3.979  1.00 20.00    -0.295 OA
HETATM    7  O7  UNL     1     -34.843   4.339   4.592  1.00 20.00    -0.388 OA
HETATM    8  F8  UNL     1     -33.878   7.336   6.334  1.00 20.00    -0.239 F 
ENDROOT
TORSDOF 0
ENDMDL
MODEL 3
REMARK VINA RESULT:      -4.9      2.003      2.952
REMARK  0 active torsions:
REMARK  status: ('A' for Active; 'I' for Inactive)
ROOT
HETATM    1  C1  UNL     1     -34.002   6.792   5.041  1.00 20.00     0.164 C 
HETATM    2  C2  UNL     1     -33.532   7.493   3.788  1.00 20.00     0.107 C 
HETATM    3  C3  UNL     1     -32.854   6.482   2.877  1.00 20.00     0.175 C 
HETATM    4  C4  UNL     1     -33.987   4.640   3.825  1.00 20.00     0.212 C 
HETATM    5  C5  UNL     1     -34.745   5.498   4.823  1.00 20.00     0.263 C 
HETATM    6  O6  UNL     1     -33.869   7.290   6.157  1.00 20.00    -0.295 OA
HETATM    7  O7  UNL     1     -33.716   5.369   2.627  1.00 20.00    -0.388 OA
HETATM    8  F8  UNL     1     -34.884   4.804   5.983  1.00 20.00    -0.239 F 
ENDROOT
TORSDOF 0
ENDMDL
MODEL 4
REMARK VINA RESULT:      -4.8      1.784      2.180
REMARK  0 active torsions:
REMARK  status: ('A' for Active; 'I' for Inactive)
ROOT
HETATM    1  C1  UNL     1     -33.689   5.547   3.495  1.00 20.00     0.164 C 
HETATM    2  C2  UNL     1     -34.710   4.843   4.358  1.00 20.00     0.107 C 
HETATM    3  C3  UNL     1     -34.486   5.232   5.811  1.00 20.00     0.175 C 
HETATM    4  C4  UNL     1     -33.396   7.253   5.260  1.00 20.00     0.212 C 
HETATM    5  C5  UNL     1     -33.516   7.021   3.765  1.00 20.00     0.263 C 
HETATM    6  O6  UNL     1     -33.108   4.978   2.574  1.00 20.00    -0.295 OA
HETATM    7  O7  UNL     1     -34.489   6.654   5.959  1.00 20.00    -0.388 OA
HETATM    8  F8  UNL     1     -32.406   7.510   3.154  1.00 20.00    -0.239 F 
ENDROOT
TORSDOF 0
ENDMDL
MODEL 5
REMARK VINA RESULT:      -4.6      1.396      2.640
REMARK  0 active torsions:
REMARK  status: ('A' for Active; 'I' for Inactive)
ROOT
HETATM    1  C1  UNL     1     -33.241   7.259   3.525  1.00 20.00     0.164 C 
HETATM    2  C2  UNL     1     -32.883   7.536   4.965  1.00 20.00     0.107 C 
HETATM    3  C3  UNL     1     -34.043   7.120   5.856  1.00 20.00     0.175 C 
HETATM    4  C4  UNL     1     -34.906   5.593   4.275  1.00 20.00     0.212 C 
HETATM    5  C5  UNL     1     -33.827   5.896   3.252  1.00 20.00     0.263 C 
HETATM    6  O6  UNL     1     -32.986   8.054   2.623  1.00 20.00    -0.295 OA
HETATM    7  O7  UNL     1     -34.411   5.761   5.605  1.00 20.00    -0.388 OA
HETATM    8  F8  UNL     1     -34.370   5.830   2.008  1.00 20.00    -0.239 F 
ENDROOT
TORSDOF 0
ENDMDL
MODEL 6
REMARK VINA RESULT:      -4.4      1.815      2.495
REMARK  0 active torsions:
REMARK  status: ('A' for Active; 'I' for Inactive)
ROOT
HETATM    1  C1  UNL     1     -34.193   5.034   4.277  1.00 20.00     0.164 C 
HETATM    2  C2  UNL     1     -33.336   5.234   3.049  1.00 20.00     0.107 C 
HETATM    3  C3  UNL     1     -33.245   6.722   2.743  1.00 20.00     0.175 C 
HETATM    4  C4  UNL     1     -33.726   7.362   4.965  1.00 20.00     0.212 C 
HETATM    5  C5  UNL     1     -33.871   5.930   5.447  1.00 20.00     0.263 C 
HETATM    6  O6  UNL     1     -35.031   4.138   4.349  1.00 20.00    -0.295 OA
HETATM    7  O7  UNL     1     -32.789   7.446   3.889  1.00 20.00    -0.388 OA
HETATM    8  F8  UNL     1     -34.846   5.881   6.391  1.00 20.00    -0.239 F 
ENDROOT
TORSDOF 0
ENDMDL
MODEL 7
REMARK VINA RESULT:      -4.2      2.181      2.813
REMARK  0 active torsions:
REMARK  status: ('A' for Active; 'I' for Inactive)
ROOT
HETATM    1  C1  UNL     1     -33.642   6.994   5.235  1.00 20.00     0.164 C 
HETATM    2  C2  UNL     1     -34.595   5.834   5.064  1.00 20.00     0.107 C 
HETATM    3  C3  UNL     1     -35.148   5.849   3.648  1.00 20.00     0.175 C 
HETATM    4  C4  UNL     1     -33.320   7.071   2.785  1.00 20.00     0.212 C 
HETATM    5  C5  UNL     1     -32.628   7.169   4.132  1.00 20.00     0.263 C 
HETATM    6  O6  UNL     1     -33.633   7.689   6.249  1.00 20.00    -0.295 OA
HETATM    7  O7  UNL     1     -34.085   5.868   2.691  1.00 20.00    -0.388 OA
HETATM    8  F8  UNL     1     -32.004   8.373   4.219  1.00 20.00    -0.239 F 
ENDROOT
TORSDOF 0
ENDMDL
MODEL 8
REMARK VINA RESULT:      -3.8      1.803      2.410
REMARK  0 active torsions:
REMARK  status: ('A' for Active; 'I' for Inactive)
ROOT
HETATM    1  C1  UNL     1     -33.826   6.027   3.424  1.00 20.00     0.164 C 
HETATM    2  C2  UNL     1     -32.978   7.228   3.770  1.00 20.00     0.107 C 
HETATM    3  C3  UNL     1     -33.510   7.862   5.046  1.00 20.00     0.175 C 
HETATM    4  C4  UNL     1     -34.541   5.870   5.785  1.00 20.00     0.212 C 
HETATM    5  C5  UNL     1     -34.107   5.080   4.564  1.00 20.00     0.263 C 
HETATM    6  O6  UNL     1     -34.183   5.788   2.272  1.00 20.00    -0.295 OA
HETATM    7  O7  UNL     1     -33.593   6.893   6.095  1.00 20.00    -0.388 OA
HETATM    8  F8  UNL     1     -35.086   4.194   4.243  1.00 20.00    -0.239 F 
ENDROOT
TORSDOF 0
ENDMDL
MODEL 9
REMARK VINA RESULT:      -3.7     12.179     13.051
REMARK  0 active torsions:
REMARK  status: ('A' for Active; 'I' for Inactive)
ROOT
HETATM    1  C1  UNL     1     -35.266  13.800  -5.283  1.00 20.00     0.164 C 
HETATM    2  C2  UNL     1     -34.486  14.338  -4.106  1.00 20.00     0.107 C 
HETATM    3  C3  UNL     1     -33.127  14.822  -4.589  1.00 20.00     0.175 C 
HETATM    4  C4  UNL     1     -33.863  15.147  -6.809  1.00 20.00     0.212 C 
HETATM    5  C5  UNL     1     -35.275  14.676  -6.511  1.00 20.00     0.263 C 
HETATM    6  O6  UNL     1     -35.925  12.765  -5.212  1.00 20.00    -0.295 OA
HETATM    7  O7  UNL     1     -33.276  15.759  -5.659  1.00 20.00    -0.388 OA
HETATM    8  F8  UNL     1     -35.752  14.007  -7.594  1.00 20.00    -0.239 F 
ENDROOT
TORSDOF 0
ENDMDL
